xflr5 v6.61

 Calculated polar for: NACA 0015

 1 1 Reynolds number fixed          Mach number fixed         

 xtrf =   1.000 (top)        1.000 (bottom)
 Mach =   0.000     Re =     0.100 e 6     Ncrit =   9.000

  alpha     CL        CD       CDp       Cm    Top Xtr Bot Xtr   Cpmin    Chinge    XCp    
 ------- -------- --------- --------- -------- ------- ------- -------- --------- ---------
 -10.000  -0.9378   0.03915   0.03103  -0.0229  1.0000  0.0804  -3.3943   0.0000   0.0000   0.0000   0.2126
  -9.900  -0.9342   0.03834   0.03017  -0.0221  1.0000  0.0809  -3.3782   0.0000   0.0000   0.0000   0.2135
  -9.800  -0.9305   0.03750   0.02927  -0.0213  1.0000  0.0812  -3.3641   0.0000   0.0000   0.0000   0.2144
  -9.700  -0.9265   0.03670   0.02841  -0.0204  1.0000  0.0816  -3.3491   0.0000   0.0000   0.0000   0.2153
  -9.600  -0.9221   0.03593   0.02759  -0.0196  1.0000  0.0821  -3.3327   0.0000   0.0000   0.0000   0.2162
  -9.500  -0.9175   0.03520   0.02682  -0.0189  1.0000  0.0827  -3.3153   0.0000   0.0000   0.0000   0.2171
  -9.400  -0.9127   0.03450   0.02608  -0.0181  1.0000  0.0833  -3.2972   0.0000   0.0000   0.0000   0.2180
  -9.300  -0.9076   0.03383   0.02537  -0.0173  1.0000  0.0840  -3.2783   0.0000   0.0000   0.0000   0.2189
  -9.200  -0.9023   0.03318   0.02469  -0.0165  1.0000  0.0848  -3.2591   0.0000   0.0000   0.0000   0.2197
  -9.100  -0.8970   0.03256   0.02403  -0.0157  1.0000  0.0857  -3.2398   0.0000   0.0000   0.0000   0.2206
  -9.000  -0.8918   0.03195   0.02339  -0.0149  1.0000  0.0868  -3.2208   0.0000   0.0000   0.0000   0.2216
  -8.900  -0.8865   0.03136   0.02277  -0.0140  1.0000  0.0880  -3.2024   0.0000   0.0000   0.0000   0.2226
  -8.800  -0.8813   0.03078   0.02214  -0.0131  1.0000  0.0894  -3.1847   0.0000   0.0000   0.0000   0.2236
  -8.700  -0.8761   0.03020   0.02152  -0.0122  1.0000  0.0912  -3.1678   0.0000   0.0000   0.0000   0.2246
  -8.600  -0.8709   0.02963   0.02090  -0.0113  1.0000  0.0933  -3.1518   0.0000   0.0000   0.0000   0.2258
  -8.500  -0.8659   0.02904   0.02022  -0.0102  1.0000  0.0959  -3.1355   0.0000   0.0000   0.0000   0.2270
  -8.400  -0.8615   0.02853   0.01905  -0.0089  1.0000  0.0994  -3.1069   0.0000   0.0000   0.0000   0.2287
  -8.300  -0.8627   0.02599   0.01660  -0.0070  1.0000  0.1166  -3.1766   0.0000   0.0000   0.0000   0.2310
  -8.200  -0.8618   0.02546   0.01620  -0.0054  1.0000  0.1260  -3.1721   0.0000   0.0000   0.0000   0.2330
  -8.100  -0.8591   0.02509   0.01585  -0.0040  1.0000  0.1364  -3.1625   0.0000   0.0000   0.0000   0.2347
  -8.000  -0.8549   0.02485   0.01554  -0.0028  1.0000  0.1451  -3.1456   0.0000   0.0000   0.0000   0.2361
  -7.900  -0.8497   0.02477   0.01538  -0.0019  1.0000  0.1496  -3.1189   0.0000   0.0000   0.0000   0.2374
  -7.800  -0.8479   0.02373   0.01453  -0.0004  1.0000  0.1646  -3.1127   0.0000   0.0000   0.0000   0.2392
  -7.700  -0.8449   0.02339   0.01430   0.0008  1.0000  0.1731  -3.0877   0.0000   0.0000   0.0000   0.2408
  -7.600  -0.8405   0.02315   0.01410   0.0019  1.0000  0.1809  -3.0584   0.0000   0.0000   0.0000   0.2422
  -7.500  -0.8351   0.02296   0.01389   0.0028  1.0000  0.1881  -3.0269   0.0000   0.0000   0.0000   0.2434
  -7.400  -0.8293   0.02281   0.01368   0.0037  1.0000  0.1942  -2.9939   0.0000   0.0000   0.0000   0.2446
  -7.300  -0.8231   0.02270   0.01350   0.0045  1.0000  0.1986  -2.9594   0.0000   0.0000   0.0000   0.2457
  -7.200  -0.8171   0.02224   0.01312   0.0053  1.0000  0.2068  -2.9282   0.0000   0.0000   0.0000   0.2469
  -7.100  -0.8125   0.02185   0.01287   0.0063  1.0000  0.2150  -2.8971   0.0000   0.0000   0.0000   0.2483
  -7.000  -0.8076   0.02160   0.01272   0.0073  1.0000  0.2220  -2.8640   0.0000   0.0000   0.0000   0.2497
  -6.900  -0.8022   0.02140   0.01259   0.0082  1.0000  0.2288  -2.8296   0.0000   0.0000   0.0000   0.2510
  -6.800  -0.7963   0.02123   0.01243   0.0090  1.0000  0.2354  -2.7944   0.0000   0.0000   0.0000   0.2522
  -6.700  -0.7901   0.02108   0.01227   0.0098  1.0000  0.2417  -2.7589   0.0000   0.0000   0.0000   0.2535
  -6.600  -0.7838   0.02097   0.01211   0.0106  1.0000  0.2472  -2.7228   0.0000   0.0000   0.0000   0.2547
  -6.500  -0.7774   0.02075   0.01192   0.0114  1.0000  0.2537  -2.6876   0.0000   0.0000   0.0000   0.2559
  -6.400  -0.7724   0.02041   0.01175   0.0123  1.0000  0.2622  -2.6544   0.0000   0.0000   0.0000   0.2573
  -6.300  -0.7672   0.02022   0.01170   0.0133  1.0000  0.2693  -2.6194   0.0000   0.0000   0.0000   0.2588
  -6.200  -0.7614   0.02011   0.01168   0.0141  1.0000  0.2764  -2.5826   0.0000   0.0000   0.0000   0.2602
  -6.100  -0.7552   0.02005   0.01166   0.0149  1.0000  0.2835  -2.5453   0.0000   0.0000   0.0000   0.2616
  -6.000  -0.7488   0.02002   0.01164   0.0157  1.0000  0.2903  -2.5079   0.0000   0.0000   0.0000   0.2630
  -5.900  -0.7425   0.02004   0.01164   0.0165  1.0000  0.2961  -2.4705   0.0000   0.0000   0.0000   0.2643
  -5.800  -0.7360   0.02007   0.01168   0.0173  1.0000  0.3010  -2.4330   0.0000   0.0000   0.0000   0.2657
  -5.700  -0.7284   0.01939   0.01109   0.0178  1.0000  0.3224  -2.4001   0.0000   0.0000   0.0000   0.2667
  -5.600  -0.7226   0.01917   0.01103   0.0187  1.0000  0.3366  -2.3655   0.0000   0.0000   0.0000   0.2682
  -5.500  -0.7164   0.01906   0.01106   0.0195  1.0000  0.3483  -2.3292   0.0000   0.0000   0.0000   0.2697
  -5.400  -0.7097   0.01900   0.01110   0.0203  1.0000  0.3593  -2.2919   0.0000   0.0000   0.0000   0.2712
  -5.300  -0.7028   0.01898   0.01112   0.0210  1.0000  0.3694  -2.2544   0.0000   0.0000   0.0000   0.2726
  -5.200  -0.6957   0.01897   0.01112   0.0217  1.0000  0.3785  -2.2171   0.0000   0.0000   0.0000   0.2740
  -5.100  -0.6887   0.01899   0.01113   0.0224  1.0000  0.3864  -2.1798   0.0000   0.0000   0.0000   0.2754
  -5.000  -0.6817   0.01904   0.01117   0.0231  1.0000  0.3927  -2.1426   0.0000   0.0000   0.0000   0.2768
  -4.900  -0.6746   0.01913   0.01124   0.0237  1.0000  0.3972  -2.1052   0.0000   0.0000   0.0000   0.2783
  -4.800  -0.6672   0.01911   0.01122   0.0243  1.0000  0.4028  -2.0683   0.0000   0.0000   0.0000   0.2796
  -4.700  -0.6584   0.01852   0.01074   0.0245  1.0000  0.4245  -2.0325   0.0000   0.0000   0.0000   0.2805
  -4.600  -0.6509   0.01836   0.01073   0.0252  1.0000  0.4380  -1.9958   0.0000   0.0000   0.0000   0.2821
  -4.500  -0.6434   0.01831   0.01079   0.0259  1.0000  0.4490  -1.9589   0.0000   0.0000   0.0000   0.2837
  -4.400  -0.6358   0.01828   0.01083   0.0265  1.0000  0.4590  -1.9221   0.0000   0.0000   0.0000   0.2852
  -4.300  -0.6281   0.01826   0.01083   0.0271  1.0000  0.4682  -1.8857   0.0000   0.0000   0.0000   0.2867
  -4.200  -0.6204   0.01824   0.01082   0.0276  1.0000  0.4768  -1.8497   0.0000   0.0000   0.0000   0.2882
  -4.100  -0.6127   0.01823   0.01080   0.0281  1.0000  0.4844  -1.8139   0.0000   0.0000   0.0000   0.2897
  -4.000  -0.6050   0.01823   0.01078   0.0286  1.0000  0.4908  -1.7785   0.0000   0.0000   0.0000   0.2911
  -3.900  -0.5974   0.01827   0.01078   0.0290  1.0000  0.4958  -1.7431   0.0000   0.0000   0.0000   0.2926
  -3.800  -0.5898   0.01833   0.01082   0.0295  1.0000  0.4995  -1.7078   0.0000   0.0000   0.0000   0.2942
  -3.700  -0.5805   0.01792   0.01047   0.0296  1.0000  0.5166  -1.6720   0.0000   0.0000   0.0000   0.2951
  -3.600  -0.5721   0.01777   0.01044   0.0300  1.0000  0.5306  -1.6362   0.0000   0.0000   0.0000   0.2967
  -3.500  -0.5643   0.01774   0.01052   0.0306  1.0000  0.5418  -1.6008   0.0000   0.0000   0.0000   0.2986
  -3.400  -0.5566   0.01775   0.01062   0.0312  1.0000  0.5520  -1.5660   0.0000   0.0000   0.0000   0.3006
  -3.300  -0.5491   0.01779   0.01070   0.0318  1.0000  0.5618  -1.5318   0.0000   0.0000   0.0000   0.3025
  -3.200  -0.5417   0.01782   0.01076   0.0323  1.0000  0.5709  -1.4981   0.0000   0.0000   0.0000   0.3043
  -3.100  -0.5342   0.01786   0.01080   0.0328  1.0000  0.5794  -1.4649   0.0000   0.0000   0.0000   0.3062
  -3.000  -0.5268   0.01790   0.01083   0.0333  1.0000  0.5870  -1.4321   0.0000   0.0000   0.0000   0.3080
  -2.900  -0.5195   0.01795   0.01088   0.0337  1.0000  0.5932  -1.3997   0.0000   0.0000   0.0000   0.3097
  -2.800  -0.5122   0.01803   0.01093   0.0341  1.0000  0.5979  -1.3675   0.0000   0.0000   0.0000   0.3115
  -2.700  -0.4979   0.01786   0.01079   0.0331  0.9981  0.6108  -1.3240   0.0000   0.0000   0.0000   0.3116
  -2.600  -0.4801   0.01775   0.01078   0.0318  0.9944  0.6275  -1.2738   0.0000   0.0000   0.0000   0.3114
  -2.500  -0.4626   0.01781   0.01095   0.0307  0.9898  0.6409  -1.2236   0.0000   0.0000   0.0000   0.3117
  -2.400  -0.4449   0.01793   0.01116   0.0296  0.9846  0.6536  -1.1732   0.0000   0.0000   0.0000   0.3119
  -2.300  -0.4268   0.01808   0.01134   0.0284  0.9790  0.6660  -1.1231   0.0000   0.0000   0.0000   0.3118
  -2.200  -0.4085   0.01823   0.01151   0.0270  0.9735  0.6776  -1.0733   0.0000   0.0000   0.0000   0.3116
  -2.100  -0.3900   0.01838   0.01166   0.0256  0.9685  0.6877  -1.0239   0.0000   0.0000   0.0000   0.3110
  -2.000  -0.3713   0.01855   0.01182   0.0240  0.9639  0.6954  -0.9748   0.0000   0.0000   0.0000   0.3102
  -1.900  -0.3514   0.01865   0.01192   0.0221  0.9598  0.7033  -0.9281   0.0000   0.0000   0.0000   0.3085
  -1.800  -0.3300   0.01857   0.01191   0.0201  0.9566  0.7203  -0.9024   0.0000   0.0000   0.0000   0.3064
  -1.700  -0.3078   0.01876   0.01216   0.0181  0.9536  0.7321  -0.8753   0.0000   0.0000   0.0000   0.3044
  -1.600  -0.2847   0.01907   0.01253   0.0160  0.9507  0.7426  -0.8475   0.0000   0.0000   0.0000   0.3019
  -1.500  -0.2748   0.01909   0.01259   0.0166  0.9455  0.7519  -0.8310   0.0000   0.0000   0.0000   0.3060
  -1.400  -0.2651   0.01912   0.01264   0.0171  0.9393  0.7613  -0.8148   0.0000   0.0000   0.0000   0.3104
  -1.300  -0.2523   0.01920   0.01273   0.0170  0.9333  0.7709  -0.7962   0.0000   0.0000   0.0000   0.3134
  -1.200  -0.2378   0.01928   0.01282   0.0165  0.9274  0.7801  -0.7762   0.0000   0.0000   0.0000   0.3156
  -1.100  -0.2218   0.01938   0.01292   0.0158  0.9220  0.7884  -0.7550   0.0000   0.0000   0.0000   0.3172
  -1.000  -0.2043   0.01948   0.01302   0.0147  0.9172  0.7950  -0.7328   0.0000   0.0000   0.0000   0.3181
  -0.900  -0.1849   0.01960   0.01313   0.0133  0.9128  0.7998  -0.7091   0.0000   0.0000   0.0000   0.3182
  -0.800  -0.1590   0.01940   0.01296   0.0105  0.9100  0.8128  -0.6808   0.0000   0.0000   0.0000   0.3124
  -0.700  -0.1299   0.01943   0.01301   0.0074  0.9075  0.8213  -0.6495   0.0000   0.0000   0.0000   0.3033
  -0.600  -0.0993   0.01951   0.01312   0.0042  0.9050  0.8282  -0.6169   0.0000   0.0000   0.0000   0.2883
  -0.500  -0.0688   0.01962   0.01324   0.0011  0.9024  0.8345  -0.5873   0.0000   0.0000   0.0000   0.2609
  -0.400  -0.0436   0.01974   0.01337  -0.0011  0.8991  0.8409  -0.5627   0.0000   0.0000   0.0000   0.2194
  -0.300  -0.0351   0.01979   0.01345  -0.0003  0.8935  0.8489  -0.5503   0.0000   0.0000   0.0000   0.2364
  -0.200  -0.0244   0.01985   0.01352   0.0000  0.8870  0.8569  -0.5367   0.0000   0.0000   0.0000   0.2468
  -0.100  -0.0124   0.01990   0.01358   0.0001  0.8801  0.8649  -0.5241   0.0000   0.0000   0.0000   0.2498
   0.000  -0.0000   0.01992   0.01361   0.0000  0.8727  0.8727  -0.5125   0.0000   0.0000   0.0000   0.4400
   0.100   0.0124   0.01990   0.01358  -0.0001  0.8649  0.8801  -0.5241   0.0000   0.0000   0.0000   0.2498
   0.200   0.0244   0.01985   0.01352  -0.0000  0.8570  0.8870  -0.5366   0.0000   0.0000   0.0000   0.2467
   0.300   0.0350   0.01979   0.01344   0.0003  0.8489  0.8935  -0.5503   0.0000   0.0000   0.0000   0.2363
   0.400   0.0436   0.01974   0.01337   0.0011  0.8409  0.8991  -0.5627   0.0000   0.0000   0.0000   0.2192
   0.500   0.0688   0.01962   0.01324  -0.0011  0.8345  0.9024  -0.5873   0.0000   0.0000   0.0000   0.2610
   0.600   0.0993   0.01951   0.01311  -0.0042  0.8282  0.9050  -0.6169   0.0000   0.0000   0.0000   0.2883
   0.700   0.1299   0.01943   0.01300  -0.0074  0.8213  0.9075  -0.6495   0.0000   0.0000   0.0000   0.3033
   0.800   0.1590   0.01940   0.01296  -0.0105  0.8128  0.9100  -0.6808   0.0000   0.0000   0.0000   0.3124
   0.900   0.1849   0.01960   0.01313  -0.0133  0.7998  0.9129  -0.7092   0.0000   0.0000   0.0000   0.3182
   1.000   0.2043   0.01948   0.01302  -0.0147  0.7950  0.9172  -0.7328   0.0000   0.0000   0.0000   0.3181
   1.100   0.2217   0.01937   0.01291  -0.0158  0.7884  0.9221  -0.7550   0.0000   0.0000   0.0000   0.3172
   1.200   0.2378   0.01928   0.01282  -0.0165  0.7801  0.9275  -0.7761   0.0000   0.0000   0.0000   0.3156
   1.300   0.2523   0.01919   0.01272  -0.0170  0.7709  0.9333  -0.7961   0.0000   0.0000   0.0000   0.3133
   1.400   0.2650   0.01912   0.01263  -0.0171  0.7613  0.9394  -0.8147   0.0000   0.0000   0.0000   0.3103
   1.500   0.2746   0.01909   0.01259  -0.0165  0.7520  0.9456  -0.8309   0.0000   0.0000   0.0000   0.3059
   1.600   0.2848   0.01906   0.01252  -0.0161  0.7426  0.9507  -0.8476   0.0000   0.0000   0.0000   0.3020
   1.700   0.3078   0.01875   0.01215  -0.0181  0.7322  0.9537  -0.8754   0.0000   0.0000   0.0000   0.3045
   1.800   0.3300   0.01856   0.01190  -0.0201  0.7203  0.9567  -0.9024   0.0000   0.0000   0.0000   0.3064
   1.900   0.3514   0.01864   0.01191  -0.0221  0.7033  0.9599  -0.9281   0.0000   0.0000   0.0000   0.3086
   2.000   0.3713   0.01854   0.01181  -0.0240  0.6954  0.9640  -0.9748   0.0000   0.0000   0.0000   0.3102
   2.100   0.3900   0.01837   0.01165  -0.0256  0.6877  0.9686  -1.0239   0.0000   0.0000   0.0000   0.3110
   2.200   0.4085   0.01822   0.01150  -0.0270  0.6776  0.9736  -1.0732   0.0000   0.0000   0.0000   0.3116
   2.300   0.4268   0.01807   0.01133  -0.0284  0.6660  0.9791  -1.1231   0.0000   0.0000   0.0000   0.3119
   2.400   0.4448   0.01792   0.01114  -0.0296  0.6537  0.9847  -1.1731   0.0000   0.0000   0.0000   0.3119
   2.500   0.4625   0.01779   0.01094  -0.0307  0.6409  0.9900  -1.2234   0.0000   0.0000   0.0000   0.3117
   2.600   0.4801   0.01773   0.01077  -0.0318  0.6276  0.9946  -1.2737   0.0000   0.0000   0.0000   0.3114
   2.700   0.4978   0.01784   0.01077  -0.0331  0.6108  0.9982  -1.3238   0.0000   0.0000   0.0000   0.3116
   2.800   0.5117   0.01802   0.01092  -0.0340  0.5980  1.0000  -1.3666   0.0000   0.0000   0.0000   0.3114
   2.900   0.5190   0.01794   0.01086  -0.0336  0.5933  1.0000  -1.3988   0.0000   0.0000   0.0000   0.3097
   3.000   0.5264   0.01789   0.01082  -0.0332  0.5871  1.0000  -1.4312   0.0000   0.0000   0.0000   0.3079
   3.100   0.5338   0.01785   0.01079  -0.0327  0.5795  1.0000  -1.4640   0.0000   0.0000   0.0000   0.3061
   3.200   0.5412   0.01781   0.01074  -0.0323  0.5710  1.0000  -1.4972   0.0000   0.0000   0.0000   0.3043
   3.300   0.5486   0.01777   0.01069  -0.0317  0.5619  1.0000  -1.5309   0.0000   0.0000   0.0000   0.3024
   3.400   0.5562   0.01774   0.01061  -0.0312  0.5522  1.0000  -1.5651   0.0000   0.0000   0.0000   0.3005
   3.500   0.5638   0.01773   0.01051  -0.0306  0.5419  1.0000  -1.5999   0.0000   0.0000   0.0000   0.2985
   3.600   0.5716   0.01776   0.01043  -0.0300  0.5308  1.0000  -1.6352   0.0000   0.0000   0.0000   0.2967
   3.700   0.5800   0.01790   0.01046  -0.0295  0.5168  1.0000  -1.6711   0.0000   0.0000   0.0000   0.2950
   3.800   0.5893   0.01832   0.01081  -0.0295  0.4995  1.0000  -1.7069   0.0000   0.0000   0.0000   0.2941
   3.900   0.5969   0.01826   0.01077  -0.0290  0.4958  1.0000  -1.7422   0.0000   0.0000   0.0000   0.2926
   4.000   0.6046   0.01822   0.01076  -0.0285  0.4909  1.0000  -1.7776   0.0000   0.0000   0.0000   0.2911
   4.100   0.6123   0.01822   0.01078  -0.0280  0.4845  1.0000  -1.8131   0.0000   0.0000   0.0000   0.2896
   4.200   0.6200   0.01823   0.01081  -0.0275  0.4769  1.0000  -1.8488   0.0000   0.0000   0.0000   0.2881
   4.300   0.6277   0.01825   0.01082  -0.0270  0.4683  1.0000  -1.8848   0.0000   0.0000   0.0000   0.2866
   4.400   0.6353   0.01827   0.01082  -0.0264  0.4592  1.0000  -1.9212   0.0000   0.0000   0.0000   0.2851
   4.500   0.6430   0.01830   0.01078  -0.0258  0.4491  1.0000  -1.9580   0.0000   0.0000   0.0000   0.2836
   4.600   0.6505   0.01835   0.01072  -0.0251  0.4382  1.0000  -1.9950   0.0000   0.0000   0.0000   0.2820
   4.700   0.6579   0.01850   0.01072  -0.0244  0.4248  1.0000  -2.0316   0.0000   0.0000   0.0000   0.2804
   4.800   0.6668   0.01908   0.01119  -0.0242  0.4033  1.0000  -2.0675   0.0000   0.0000   0.0000   0.2795
   4.900   0.6742   0.01912   0.01123  -0.0237  0.3973  1.0000  -2.1043   0.0000   0.0000   0.0000   0.2782
   5.000   0.6813   0.01903   0.01116  -0.0230  0.3928  1.0000  -2.1417   0.0000   0.0000   0.0000   0.2768
   5.100   0.6883   0.01898   0.01112  -0.0223  0.3865  1.0000  -2.1789   0.0000   0.0000   0.0000   0.2753
   5.200   0.6953   0.01897   0.01111  -0.0216  0.3786  1.0000  -2.2162   0.0000   0.0000   0.0000   0.2739
   5.300   0.7024   0.01897   0.01111  -0.0209  0.3695  1.0000  -2.2536   0.0000   0.0000   0.0000   0.2725
   5.400   0.7093   0.01899   0.01109  -0.0202  0.3594  1.0000  -2.2911   0.0000   0.0000   0.0000   0.2711
   5.500   0.7160   0.01905   0.01105  -0.0194  0.3485  1.0000  -2.3284   0.0000   0.0000   0.0000   0.2697
   5.600   0.7222   0.01916   0.01102  -0.0186  0.3368  1.0000  -2.3647   0.0000   0.0000   0.0000   0.2681
   5.700   0.7281   0.01938   0.01108  -0.0177  0.3227  1.0000  -2.3993   0.0000   0.0000   0.0000   0.2666
   5.800   0.7356   0.02004   0.01165  -0.0172  0.3014  1.0000  -2.4323   0.0000   0.0000   0.0000   0.2656
   5.900   0.7421   0.02003   0.01164  -0.0165  0.2962  1.0000  -2.4697   0.0000   0.0000   0.0000   0.2643
   6.000   0.7485   0.02002   0.01163  -0.0157  0.2904  1.0000  -2.5071   0.0000   0.0000   0.0000   0.2629
   6.100   0.7548   0.02004   0.01165  -0.0149  0.2836  1.0000  -2.5445   0.0000   0.0000   0.0000   0.2615
   6.200   0.7610   0.02010   0.01168  -0.0141  0.2765  1.0000  -2.5818   0.0000   0.0000   0.0000   0.2602
   6.300   0.7669   0.02021   0.01169  -0.0132  0.2694  1.0000  -2.6186   0.0000   0.0000   0.0000   0.2587
   6.400   0.7721   0.02040   0.01174  -0.0123  0.2623  1.0000  -2.6537   0.0000   0.0000   0.0000   0.2573
   6.500   0.7771   0.02073   0.01190  -0.0113  0.2538  1.0000  -2.6869   0.0000   0.0000   0.0000   0.2558
   6.600   0.7834   0.02096   0.01210  -0.0106  0.2472  1.0000  -2.7221   0.0000   0.0000   0.0000   0.2546
   6.700   0.7898   0.02107   0.01225  -0.0098  0.2418  1.0000  -2.7582   0.0000   0.0000   0.0000   0.2534
   6.800   0.7960   0.02122   0.01242  -0.0090  0.2355  1.0000  -2.7938   0.0000   0.0000   0.0000   0.2522
   6.900   0.8019   0.02139   0.01257  -0.0081  0.2289  1.0000  -2.8289   0.0000   0.0000   0.0000   0.2509
   7.000   0.8074   0.02159   0.01271  -0.0072  0.2221  1.0000  -2.8634   0.0000   0.0000   0.0000   0.2496
   7.100   0.8122   0.02184   0.01286  -0.0063  0.2151  1.0000  -2.8966   0.0000   0.0000   0.0000   0.2482
   7.200   0.8169   0.02223   0.01310  -0.0052  0.2069  1.0000  -2.9277   0.0000   0.0000   0.0000   0.2468
   7.300   0.8229   0.02269   0.01349  -0.0045  0.1987  1.0000  -2.9589   0.0000   0.0000   0.0000   0.2457
   7.400   0.8291   0.02280   0.01367  -0.0036  0.1943  1.0000  -2.9934   0.0000   0.0000   0.0000   0.2446
   7.500   0.8350   0.02295   0.01388  -0.0028  0.1882  1.0000  -3.0265   0.0000   0.0000   0.0000   0.2434
   7.600   0.8403   0.02314   0.01409  -0.0018  0.1809  1.0000  -3.0581   0.0000   0.0000   0.0000   0.2421
   7.700   0.8448   0.02338   0.01428  -0.0008  0.1731  1.0000  -3.0875   0.0000   0.0000   0.0000   0.2407
   7.800   0.8478   0.02372   0.01451   0.0005  0.1647  1.0000  -3.1125   0.0000   0.0000   0.0000   0.2391
   7.900   0.8496   0.02476   0.01537   0.0019  0.1497  1.0000  -3.1187   0.0000   0.0000   0.0000   0.2374
   8.000   0.8548   0.02484   0.01553   0.0029  0.1451  1.0000  -3.1455   0.0000   0.0000   0.0000   0.2361
   8.100   0.8591   0.02508   0.01583   0.0040  0.1364  1.0000  -3.1625   0.0000   0.0000   0.0000   0.2347
   8.200   0.8618   0.02545   0.01619   0.0054  0.1260  1.0000  -3.1722   0.0000   0.0000   0.0000   0.2330
   8.300   0.8627   0.02598   0.01659   0.0070  0.1166  1.0000  -3.1766   0.0000   0.0000   0.0000   0.2310
   8.400   0.8616   0.02852   0.01904   0.0089  0.0994  1.0000  -3.1070   0.0000   0.0000   0.0000   0.2287
   8.500   0.8660   0.02903   0.02021   0.0102  0.0959  1.0000  -3.1357   0.0000   0.0000   0.0000   0.2270
   8.600   0.8711   0.02962   0.02089   0.0113  0.0933  1.0000  -3.1521   0.0000   0.0000   0.0000   0.2258
   8.700   0.8763   0.03019   0.02151   0.0122  0.0912  1.0000  -3.1681   0.0000   0.0000   0.0000   0.2247
   8.800   0.8816   0.03077   0.02214   0.0131  0.0894  1.0000  -3.1851   0.0000   0.0000   0.0000   0.2236
   8.900   0.8868   0.03136   0.02276   0.0140  0.0880  1.0000  -3.2029   0.0000   0.0000   0.0000   0.2226
   9.000   0.8921   0.03195   0.02339   0.0148  0.0868  1.0000  -3.2214   0.0000   0.0000   0.0000   0.2216
   9.100   0.8974   0.03256   0.02403   0.0156  0.0857  1.0000  -3.2404   0.0000   0.0000   0.0000   0.2207
   9.200   0.9027   0.03318   0.02468   0.0164  0.0848  1.0000  -3.2598   0.0000   0.0000   0.0000   0.2198
   9.300   0.9080   0.03383   0.02537   0.0172  0.0840  1.0000  -3.2791   0.0000   0.0000   0.0000   0.2190
   9.400   0.9132   0.03450   0.02608   0.0180  0.0833  1.0000  -3.2980   0.0000   0.0000   0.0000   0.2181
   9.500   0.9180   0.03520   0.02682   0.0188  0.0827  1.0000  -3.3162   0.0000   0.0000   0.0000   0.2172
   9.600   0.9227   0.03593   0.02760   0.0195  0.0821  1.0000  -3.3337   0.0000   0.0000   0.0000   0.2164
   9.700   0.9271   0.03670   0.02842   0.0203  0.0816  1.0000  -3.3501   0.0000   0.0000   0.0000   0.2155
   9.800   0.9312   0.03751   0.02928   0.0211  0.0812  1.0000  -3.3653   0.0000   0.0000   0.0000   0.2146
   9.900   0.9350   0.03835   0.03018   0.0220  0.0809  1.0000  -3.3795   0.0000   0.0000   0.0000   0.2137
  10.000   0.9386   0.03916   0.03104   0.0228  0.0804  1.0000  -3.3958   0.0000   0.0000   0.0000   0.2128
  10.100   0.9422   0.03995   0.03185   0.0235  0.0798  1.0000  -3.4146   0.0000   0.0000   0.0000   0.2120
  10.200   0.9453   0.04077   0.03270   0.0243  0.0791  1.0000  -3.4333   0.0000   0.0000   0.0000   0.2111
  10.300   0.9475   0.04171   0.03367   0.0251  0.0783  1.0000  -3.4489   0.0000   0.0000   0.0000   0.2101
  10.400   0.9484   0.04283   0.03484   0.0260  0.0776  1.0000  -3.4586   0.0000   0.0000   0.0000   0.2091
  10.500   0.9478   0.04414   0.03623   0.0270  0.0769  1.0000  -3.4609   0.0000   0.0000   0.0000   0.2079
  10.600   0.9454   0.04563   0.03781   0.0280  0.0763  1.0000  -3.4560   0.0000   0.0000   0.0000   0.2066
  10.700   0.9415   0.04722   0.03952   0.0292  0.0758  1.0000  -3.4455   0.0000   0.0000   0.0000   0.2051
  10.800   0.9360   0.04882   0.04122   0.0305  0.0755  1.0000  -3.4313   0.0000   0.0000   0.0000   0.2034
  10.900   0.9294   0.05039   0.04289   0.0319  0.0752  1.0000  -3.4150   0.0000   0.0000   0.0000   0.2015
  11.000   0.9226   0.05186   0.04441   0.0332  0.0750  1.0000  -3.4002   0.0000   0.0000   0.0000   0.1996
  11.100   0.9223   0.05212   0.04471   0.0342  0.0746  1.0000  -3.4206   0.0000   0.0000   0.0000   0.1983
  11.200   0.9210   0.05255   0.04519   0.0352  0.0743  1.0000  -3.4364   0.0000   0.0000   0.0000   0.1970
  11.300   0.9193   0.05311   0.04581   0.0361  0.0739  1.0000  -3.4491   0.0000   0.0000   0.0000   0.1958
  11.400   0.9166   0.05384   0.04659   0.0369  0.0735  1.0000  -3.4572   0.0000   0.0000   0.0000   0.1946
  11.500   0.9133   0.05470   0.04751   0.0376  0.0731  1.0000  -3.4621   0.0000   0.0000   0.0000   0.1935
  11.600   0.9097   0.05567   0.04854   0.0381  0.0728  1.0000  -3.4647   0.0000   0.0000   0.0000   0.1925
  11.700   0.9056   0.05675   0.04970   0.0386  0.0724  1.0000  -3.4644   0.0000   0.0000   0.0000   0.1916
  11.800   0.9005   0.05800   0.05101   0.0389  0.0721  1.0000  -3.4595   0.0000   0.0000   0.0000   0.1907
  11.900   0.8930   0.05952   0.05261   0.0391  0.0720  1.0000  -3.4444   0.0000   0.0000   0.0000   0.1899
  12.000   0.8845   0.06123   0.05440   0.0392  0.0719  1.0000  -3.4245   0.0000   0.0000   0.0000   0.1891
  12.100   0.8754   0.06315   0.05640   0.0390  0.0719  1.0000  -3.3997   0.0000   0.0000   0.0000   0.1886
  12.200   0.8636   0.06552   0.05886   0.0386  0.0722  1.0000  -3.3618   0.0000   0.0000   0.0000   0.1883
  12.300   0.8480   0.06859   0.06202   0.0376  0.0727  1.0000  -3.3046   0.0000   0.0000   0.0000   0.1882
  12.400   0.8296   0.07237   0.06590   0.0363  0.0734  1.0000  -3.2291   0.0000   0.0000   0.0000   0.1885
  12.500   0.6160   0.11811   0.11185   0.0080  0.0920  1.0000  -1.9390   0.0000   0.0000   0.0000   0.2191
  12.600   0.6077   0.12203   0.11576   0.0066  0.0937  1.0000  -1.8737   0.0000   0.0000   0.0000   0.2212
  12.700   0.6003   0.12593   0.11965   0.0054  0.0957  1.0000  -1.8142   0.0000   0.0000   0.0000   0.2230
  12.800   0.6044   0.12961   0.12340   0.0065  0.1014  1.0000  -1.7945   0.0000   0.0000   0.0000   0.2214
  12.900   0.6125   0.12957   0.12336   0.0063  0.1023  1.0000  -1.8179   0.0000   0.0000   0.0000   0.2217
  13.100   0.5748   0.15884   0.15268  -0.0037  0.1497  1.0000  -1.3679   0.0000   0.0000   0.0000   0.2394
  13.200   0.5761   0.16073   0.15456  -0.0043  0.1497  1.0000  -1.3600   0.0000   0.0000   0.0000   0.2404
  13.300   0.5774   0.16258   0.15640  -0.0050  0.1496  1.0000  -1.3523   0.0000   0.0000   0.0000   0.2414
  13.400   0.5788   0.16440   0.15821  -0.0056  0.1496  1.0000  -1.3448   0.0000   0.0000   0.0000   0.2424
  13.500   0.5802   0.16618   0.15999  -0.0063  0.1496  1.0000  -1.3377   0.0000   0.0000   0.0000   0.2434
  13.600   0.5816   0.16792   0.16173  -0.0069  0.1495  1.0000  -1.3307   0.0000   0.0000   0.0000   0.2444
  13.700   0.5831   0.16963   0.16344  -0.0076  0.1495  1.0000  -1.3239   0.0000   0.0000   0.0000   0.2454
  13.800   0.5846   0.17130   0.16510  -0.0082  0.1494  1.0000  -1.3174   0.0000   0.0000   0.0000   0.2463
  13.900   0.5861   0.17293   0.16673  -0.0089  0.1494  1.0000  -1.3110   0.0000   0.0000   0.0000   0.2473
  14.000   0.5876   0.17451   0.16831  -0.0095  0.1493  1.0000  -1.3049   0.0000   0.0000   0.0000   0.2483
  14.100   0.5892   0.17605   0.16984  -0.0102  0.1492  1.0000  -1.2989   0.0000   0.0000   0.0000   0.2492
  14.200   0.5908   0.17754   0.17133  -0.0108  0.1491  1.0000  -1.2931   0.0000   0.0000   0.0000   0.2502
  14.300   0.5924   0.17897   0.17276  -0.0115  0.1490  1.0000  -1.2874   0.0000   0.0000   0.0000   0.2511
  14.400   0.5940   0.18035   0.17413  -0.0122  0.1489  1.0000  -1.2820   0.0000   0.0000   0.0000   0.2521
  14.500   0.5956   0.18166   0.17544  -0.0129  0.1488  1.0000  -1.2766   0.0000   0.0000   0.0000   0.2530
  14.600   0.5972   0.18290   0.17667  -0.0135  0.1486  1.0000  -1.2715   0.0000   0.0000   0.0000   0.2540
  14.700   0.5989   0.18404   0.17781  -0.0142  0.1484  1.0000  -1.2665   0.0000   0.0000   0.0000   0.2549
  14.800   0.6005   0.18507   0.17883  -0.0149  0.1482  1.0000  -1.2615   0.0000   0.0000   0.0000   0.2559
  14.900   0.6021   0.18594   0.17970  -0.0157  0.1479  1.0000  -1.2567   0.0000   0.0000   0.0000   0.2569
  15.000   0.6037   0.18659   0.18035  -0.0164  0.1475  1.0000  -1.2517   0.0000   0.0000   0.0000   0.2579
  15.300   0.5958   0.18364   0.17736  -0.0201  0.1433  1.0000  -1.2004   0.0000   0.0000   0.0000   0.2637
  15.400   0.5934   0.18283   0.17654  -0.0215  0.1407  1.0000  -1.1824   0.0000   0.0000   0.0000   0.2659
  15.700   0.5953   0.18417   0.17810  -0.0242  0.1280  1.0000  -1.1779   0.0000   0.0000   0.0000   0.2697
  15.800   0.6072   0.18322   0.17715  -0.0225  0.1148  1.0000  -1.2631   0.0000   0.0000   0.0000   0.2660
  15.900   0.6414   0.18386   0.17781  -0.0171  0.1060  1.0000  -1.4690   0.0000   0.0000   0.0000   0.2556
  16.000   0.6489   0.18609   0.18005  -0.0164  0.1043  1.0000  -1.5042   0.0000   0.0000   0.0000   0.2540
  16.100   0.6502   0.18971   0.18366  -0.0164  0.1028  1.0000  -1.5041   0.0000   0.0000   0.0000   0.2539
  16.200   0.6343   0.20170   0.19565  -0.0186  0.1002  1.0000  -1.3889   0.0000   0.0000   0.0000   0.2581
  16.300   0.6345   0.20413   0.19800  -0.0195  0.1000  1.0000  -1.3718   0.0000   0.0000   0.0000   0.2595
  16.400   0.6366   0.20548   0.19935  -0.0202  0.0999  1.0000  -1.3678   0.0000   0.0000   0.0000   0.2603
  16.500   0.6387   0.20679   0.20065  -0.0209  0.0998  1.0000  -1.3640   0.0000   0.0000   0.0000   0.2612
  16.600   0.6408   0.20803   0.20188  -0.0216  0.0998  1.0000  -1.3604   0.0000   0.0000   0.0000   0.2620
  16.700   0.6429   0.20921   0.20305  -0.0223  0.0997  1.0000  -1.3570   0.0000   0.0000   0.0000   0.2629
  16.800   0.6450   0.21029   0.20412  -0.0230  0.0996  1.0000  -1.3538   0.0000   0.0000   0.0000   0.2637
  16.900   0.6471   0.21123   0.20506  -0.0238  0.0994  1.0000  -1.3510   0.0000   0.0000   0.0000   0.2646
  17.000   0.6492   0.21199   0.20581  -0.0245  0.0993  1.0000  -1.3487   0.0000   0.0000   0.0000   0.2654
  17.100   0.6513   0.21243   0.20624  -0.0253  0.0990  1.0000  -1.3471   0.0000   0.0000   0.0000   0.2663
  17.200   0.6534   0.21223   0.20602  -0.0261  0.0985  1.0000  -1.3469   0.0000   0.0000   0.0000   0.2672
  17.300   0.6556   0.20980   0.20359  -0.0272  0.0970  1.0000  -1.3499   0.0000   0.0000   0.0000   0.2685
  17.400   0.6532   0.20631   0.20007  -0.0292  0.0939  1.0000  -1.3293   0.0000   0.0000   0.0000   0.2714
  17.500   0.6525   0.20568   0.19943  -0.0309  0.0907  1.0000  -1.3122   0.0000   0.0000   0.0000   0.2737
  17.600   0.6544   0.20610   0.19984  -0.0319  0.0876  1.0000  -1.3120   0.0000   0.0000   0.0000   0.2749
  17.700   0.6581   0.20675   0.20048  -0.0324  0.0847  1.0000  -1.3273   0.0000   0.0000   0.0000   0.2752
  17.800   0.6638   0.20730   0.20103  -0.0323  0.0820  1.0000  -1.3622   0.0000   0.0000   0.0000   0.2745
  17.900   0.6739   0.20771   0.20144  -0.0312  0.0794  1.0000  -1.4355   0.0000   0.0000   0.0000   0.2719
  18.000   0.6922   0.21565   0.20933  -0.0267  0.0750  1.0000  -1.5771   0.0000   0.0000   0.0000   0.2643
  18.100   0.6931   0.21733   0.21101  -0.0277  0.0749  1.0000  -1.5650   0.0000   0.0000   0.0000   0.2655
  18.200   0.6941   0.21906   0.21273  -0.0286  0.0748  1.0000  -1.5530   0.0000   0.0000   0.0000   0.2667
  18.300   0.6951   0.22082   0.21449  -0.0296  0.0747  1.0000  -1.5413   0.0000   0.0000   0.0000   0.2679
  18.400   0.6962   0.22262   0.21629  -0.0305  0.0746  1.0000  -1.5298   0.0000   0.0000   0.0000   0.2690
  18.500   0.6973   0.22440   0.21806  -0.0315  0.0745  1.0000  -1.5187   0.0000   0.0000   0.0000   0.2702
  18.600   0.6983   0.22613   0.21978  -0.0324  0.0744  1.0000  -1.5078   0.0000   0.0000   0.0000   0.2713
  18.700   0.6994   0.22780   0.22145  -0.0333  0.0742  1.0000  -1.4969   0.0000   0.0000   0.0000   0.2725
  18.800   0.6997   0.22929   0.22294  -0.0344  0.0741  1.0000  -1.4812   0.0000   0.0000   0.0000   0.2739
  18.900   0.6993   0.23055   0.22419  -0.0356  0.0738  1.0000  -1.4617   0.0000   0.0000   0.0000   0.2755
  19.000   0.6980   0.23142   0.22505  -0.0370  0.0735  1.0000  -1.4371   0.0000   0.0000   0.0000   0.2774
  19.100   0.6938   0.23139   0.22501  -0.0392  0.0726  1.0000  -1.3929   0.0000   0.0000   0.0000   0.2805
  19.200   0.6888   0.23113   0.22474  -0.0423  0.0677  1.0000  -1.3304   0.0000   0.0000   0.0000   0.2853
  19.300   0.6904   0.23272   0.22633  -0.0432  0.0657  1.0000  -1.3265   0.0000   0.0000   0.0000   0.2863
  19.400   0.6924   0.23436   0.22797  -0.0440  0.0643  1.0000  -1.3263   0.0000   0.0000   0.0000   0.2871
  19.500   0.6946   0.23602   0.22962  -0.0447  0.0632  1.0000  -1.3276   0.0000   0.0000   0.0000   0.2877
  19.600   0.6968   0.23768   0.23129  -0.0453  0.0622  1.0000  -1.3295   0.0000   0.0000   0.0000   0.2883
  19.700   0.6991   0.23935   0.23296  -0.0459  0.0614  1.0000  -1.3320   0.0000   0.0000   0.0000   0.2888
  19.800   0.7014   0.24103   0.23463  -0.0465  0.0606  1.0000  -1.3348   0.0000   0.0000   0.0000   0.2893
  19.900   0.7037   0.24271   0.23630  -0.0471  0.0599  1.0000  -1.3381   0.0000   0.0000   0.0000   0.2898
  20.000   0.7060   0.24439   0.23798  -0.0477  0.0593  1.0000  -1.3417   0.0000   0.0000   0.0000   0.2902
  20.100   0.7084   0.24607   0.23966  -0.0483  0.0587  1.0000  -1.3457   0.0000   0.0000   0.0000   0.2907
  20.200   0.7108   0.24775   0.24134  -0.0488  0.0582  1.0000  -1.3502   0.0000   0.0000   0.0000   0.2911
  20.300   0.7132   0.24944   0.24302  -0.0494  0.0577  1.0000  -1.3550   0.0000   0.0000   0.0000   0.2914
  20.400   0.7157   0.25112   0.24471  -0.0499  0.0572  1.0000  -1.3603   0.0000   0.0000   0.0000   0.2918
  20.500   0.7182   0.25281   0.24640  -0.0504  0.0567  1.0000  -1.3662   0.0000   0.0000   0.0000   0.2921
  20.600   0.7207   0.25451   0.24809  -0.0509  0.0563  1.0000  -1.3725   0.0000   0.0000   0.0000   0.2924
  20.700   0.7232   0.25621   0.24979  -0.0514  0.0559  1.0000  -1.3794   0.0000   0.0000   0.0000   0.2927
  20.800   0.7258   0.25792   0.25150  -0.0518  0.0555  1.0000  -1.3868   0.0000   0.0000   0.0000   0.2929
  20.900   0.7284   0.25965   0.25323  -0.0523  0.0551  1.0000  -1.3948   0.0000   0.0000   0.0000   0.2931
  21.000   0.7310   0.26139   0.25496  -0.0527  0.0547  1.0000  -1.4035   0.0000   0.0000   0.0000   0.2932
  21.100   0.7337   0.26314   0.25672  -0.0531  0.0544  1.0000  -1.4128   0.0000   0.0000   0.0000   0.2934
  21.200   0.7364   0.26493   0.25851  -0.0535  0.0540  1.0000  -1.4228   0.0000   0.0000   0.0000   0.2935
  21.300   0.7383   0.26660   0.26033  -0.0542  0.0541  1.0000  -1.4156   0.0000   0.0000   0.0000   0.2941
  21.400   0.7409   0.26836   0.26211  -0.0546  0.0539  1.0000  -1.4214   0.0000   0.0000   0.0000   0.2942
  21.500   0.7436   0.27018   0.26394  -0.0550  0.0536  1.0000  -1.4307   0.0000   0.0000   0.0000   0.2943
  21.600   0.7464   0.27206   0.26582  -0.0553  0.0533  1.0000  -1.4417   0.0000   0.0000   0.0000   0.2943
  21.700   0.7493   0.27401   0.26778  -0.0556  0.0530  1.0000  -1.4540   0.0000   0.0000   0.0000   0.2943
  21.800   0.7524   0.27606   0.26982  -0.0558  0.0527  1.0000  -1.4677   0.0000   0.0000   0.0000   0.2941
  21.900   0.7556   0.27822   0.27199  -0.0560  0.0524  1.0000  -1.4829   0.0000   0.0000   0.0000   0.2939
  22.000   0.7591   0.28057   0.27435  -0.0561  0.0521  1.0000  -1.4995   0.0000   0.0000   0.0000   0.2936
  22.100   0.7628   0.28321   0.27699  -0.0561  0.0518  1.0000  -1.5179   0.0000   0.0000   0.0000   0.2932
  22.200   0.7671   0.28633   0.28011  -0.0561  0.0515  1.0000  -1.5383   0.0000   0.0000   0.0000   0.2926
  22.300   0.7720   0.29053   0.28433  -0.0559  0.0510  1.0000  -1.5601   0.0000   0.0000   0.0000   0.2918
  22.400   0.7686   0.30166   0.29539  -0.0562  0.0500  1.0000  -1.4968   0.0000   0.0000   0.0000   0.2928
  22.500   0.7701   0.30377   0.29750  -0.0569  0.0500  1.0000  -1.4925   0.0000   0.0000   0.0000   0.2934
  22.600   0.7716   0.30586   0.29960  -0.0575  0.0500  1.0000  -1.4882   0.0000   0.0000   0.0000   0.2939
  22.700   0.7730   0.30795   0.30169  -0.0581  0.0499  1.0000  -1.4839   0.0000   0.0000   0.0000   0.2945
  22.800   0.7744   0.31002   0.30376  -0.0587  0.0499  1.0000  -1.4795   0.0000   0.0000   0.0000   0.2950
  22.900   0.7758   0.31208   0.30582  -0.0594  0.0499  1.0000  -1.4752   0.0000   0.0000   0.0000   0.2956
  23.000   0.7771   0.31413   0.30787  -0.0600  0.0499  1.0000  -1.4708   0.0000   0.0000   0.0000   0.2961
  23.100   0.7784   0.31616   0.30991  -0.0606  0.0499  1.0000  -1.4663   0.0000   0.0000   0.0000   0.2966
  23.200   0.7796   0.31817   0.31193  -0.0612  0.0499  1.0000  -1.4619   0.0000   0.0000   0.0000   0.2972
  23.300   0.7808   0.32017   0.31393  -0.0618  0.0498  1.0000  -1.4573   0.0000   0.0000   0.0000   0.2977
  23.400   0.7819   0.32214   0.31590  -0.0624  0.0498  1.0000  -1.4527   0.0000   0.0000   0.0000   0.2982
  23.500   0.7829   0.32409   0.31785  -0.0630  0.0498  1.0000  -1.4478   0.0000   0.0000   0.0000   0.2988
  23.600   0.7839   0.32601   0.31977  -0.0636  0.0498  1.0000  -1.4430   0.0000   0.0000   0.0000   0.2993
  23.700   0.7849   0.32791   0.32168  -0.0642  0.0498  1.0000  -1.4380   0.0000   0.0000   0.0000   0.2998
  23.800   0.7857   0.32979   0.32356  -0.0648  0.0497  1.0000  -1.4330   0.0000   0.0000   0.0000   0.3003
  23.900   0.7865   0.33164   0.32542  -0.0654  0.0497  1.0000  -1.4279   0.0000   0.0000   0.0000   0.3008
  24.000   0.7873   0.33348   0.32726  -0.0660  0.0497  1.0000  -1.4226   0.0000   0.0000   0.0000   0.3014
  24.100   0.7880   0.33528   0.32907  -0.0665  0.0497  1.0000  -1.4173   0.0000   0.0000   0.0000   0.3019
  24.200   0.7885   0.33702   0.33081  -0.0671  0.0496  1.0000  -1.4115   0.0000   0.0000   0.0000   0.3024
  24.300   0.7889   0.33872   0.33252  -0.0677  0.0496  1.0000  -1.4055   0.0000   0.0000   0.0000   0.3029
  24.400   0.7892   0.34040   0.33420  -0.0682  0.0496  1.0000  -1.3993   0.0000   0.0000   0.0000   0.3035
  24.500   0.7892   0.34197   0.33577  -0.0688  0.0495  1.0000  -1.3917   0.0000   0.0000   0.0000   0.3040
  24.600   0.7887   0.34340   0.33721  -0.0693  0.0495  1.0000  -1.3821   0.0000   0.0000   0.0000   0.3047
  24.700   0.7881   0.34478   0.33860  -0.0699  0.0495  1.0000  -1.3722   0.0000   0.0000   0.0000   0.3053
  24.800   0.7873   0.34612   0.33994  -0.0704  0.0494  1.0000  -1.3620   0.0000   0.0000   0.0000   0.3060
  24.900   0.7864   0.34740   0.34123  -0.0709  0.0494  1.0000  -1.3515   0.0000   0.0000   0.0000   0.3066
  25.000   0.7854   0.34863   0.34247  -0.0714  0.0493  1.0000  -1.3407   0.0000   0.0000   0.0000   0.3072
  25.100   0.7842   0.34980   0.34364  -0.0719  0.0492  1.0000  -1.3295   0.0000   0.0000   0.0000   0.3079
  25.200   0.7827   0.35089   0.34475  -0.0724  0.0492  1.0000  -1.3179   0.0000   0.0000   0.0000   0.3085
  25.300   0.7811   0.35191   0.34578  -0.0728  0.0491  1.0000  -1.3058   0.0000   0.0000   0.0000   0.3091
  25.400   0.7792   0.35285   0.34672  -0.0732  0.0490  1.0000  -1.2931   0.0000   0.0000   0.0000   0.3098
  25.500   0.7771   0.35368   0.34757  -0.0735  0.0489  1.0000  -1.2798   0.0000   0.0000   0.0000   0.3104
  25.600   0.7746   0.35440   0.34830  -0.0738  0.0488  1.0000  -1.2656   0.0000   0.0000   0.0000   0.3110
  25.700   0.7716   0.35498   0.34889  -0.0741  0.0487  1.0000  -1.2505   0.0000   0.0000   0.0000   0.3116
  25.800   0.7682   0.35539   0.34932  -0.0742  0.0486  1.0000  -1.2341   0.0000   0.0000   0.0000   0.3122
  25.900   0.7637   0.35552   0.34946  -0.0742  0.0485  1.0000  -1.2158   0.0000   0.0000   0.0000   0.3128
  26.000   0.7266   0.34661   0.34067  -0.0686  0.0485  1.0000  -1.1375   0.0000   0.0000   0.0000   0.3114
  26.100   0.7156   0.34410   0.33820  -0.0675  0.0483  1.0000  -1.1073   0.0000   0.0000   0.0000   0.3116
  26.200   0.7082   0.34255   0.33668  -0.0669  0.0482  1.0000  -1.0838   0.0000   0.0000   0.0000   0.3120
  26.300   0.7026   0.34147   0.33562  -0.0667  0.0479  1.0000  -1.0633   0.0000   0.0000   0.0000   0.3125
  26.400   0.6981   0.34071   0.33488  -0.0666  0.0477  1.0000  -1.0450   0.0000   0.0000   0.0000   0.3130
  26.500   0.6944   0.34021   0.33440  -0.0666  0.0474  1.0000  -1.0284   0.0000   0.0000   0.0000   0.3136
  26.600   0.6913   0.33993   0.33413  -0.0666  0.0471  1.0000  -1.0133   0.0000   0.0000   0.0000   0.3142
  26.700   0.6886   0.33981   0.33403  -0.0667  0.0467  1.0000  -0.9997   0.0000   0.0000   0.0000   0.3147
  26.800   0.6863   0.33982   0.33406  -0.0669  0.0464  1.0000  -0.9875   0.0000   0.0000   0.0000   0.3152
  26.900   0.6842   0.33991   0.33417  -0.0670  0.0460  1.0000  -0.9764   0.0000   0.0000   0.0000   0.3157
  27.000   0.6822   0.34006   0.33433  -0.0671  0.0456  1.0000  -0.9662   0.0000   0.0000   0.0000   0.3162
  27.100   0.6803   0.34024   0.33453  -0.0672  0.0452  1.0000  -0.9569   0.0000   0.0000   0.0000   0.3166
  27.200   0.6787   0.34047   0.33478  -0.0673  0.0447  1.0000  -0.9480   0.0000   0.0000   0.0000   0.3170
  27.300   0.6772   0.34074   0.33506  -0.0675  0.0438  1.0000  -0.9396   0.0000   0.0000   0.0000   0.3175
  27.400   0.6758   0.34102   0.33535  -0.0676  0.0429  1.0000  -0.9325   0.0000   0.0000   0.0000   0.3179
  27.500   0.6745   0.34130   0.33565  -0.0678  0.0420  1.0000  -0.9263   0.0000   0.0000   0.0000   0.3183
  27.600   0.6732   0.34158   0.33595  -0.0679  0.0412  1.0000  -0.9209   0.0000   0.0000   0.0000   0.3187
  27.700   0.6720   0.34187   0.33625  -0.0680  0.0404  1.0000  -0.9160   0.0000   0.0000   0.0000   0.3190
  27.800   0.6708   0.34217   0.33656  -0.0681  0.0397  1.0000  -0.9117   0.0000   0.0000   0.0000   0.3194
  27.900   0.6698   0.34247   0.33687  -0.0683  0.0390  1.0000  -0.9078   0.0000   0.0000   0.0000   0.3197
  28.000   0.6687   0.34277   0.33718  -0.0684  0.0383  1.0000  -0.9044   0.0000   0.0000   0.0000   0.3200
  28.100   0.6678   0.34307   0.33750  -0.0686  0.0376  1.0000  -0.9014   0.0000   0.0000   0.0000   0.3203
  28.200   0.6669   0.34338   0.33782  -0.0687  0.0370  1.0000  -0.8987   0.0000   0.0000   0.0000   0.3207
  28.300   0.6661   0.34369   0.33815  -0.0689  0.0364  1.0000  -0.8965   0.0000   0.0000   0.0000   0.3210
  28.400   0.6653   0.34400   0.33847  -0.0690  0.0358  1.0000  -0.8947   0.0000   0.0000   0.0000   0.3213
  28.500   0.6646   0.34432   0.33880  -0.0692  0.0352  1.0000  -0.8932   0.0000   0.0000   0.0000   0.3216
  28.600   0.6639   0.34463   0.33912  -0.0694  0.0347  1.0000  -0.8921   0.0000   0.0000   0.0000   0.3219
  28.700   0.6633   0.34495   0.33945  -0.0695  0.0341  1.0000  -0.8914   0.0000   0.0000   0.0000   0.3222
  28.800   0.6628   0.34526   0.33978  -0.0697  0.0336  1.0000  -0.8910   0.0000   0.0000   0.0000   0.3225
  28.900   0.6623   0.34558   0.34010  -0.0699  0.0331  1.0000  -0.8911   0.0000   0.0000   0.0000   0.3227
  29.000   0.6618   0.34589   0.34043  -0.0701  0.0326  1.0000  -0.8915   0.0000   0.0000   0.0000   0.3230
  29.100   0.6614   0.34621   0.34075  -0.0702  0.0322  1.0000  -0.8924   0.0000   0.0000   0.0000   0.3233
  29.200   0.6610   0.34652   0.34108  -0.0704  0.0317  1.0000  -0.8937   0.0000   0.0000   0.0000   0.3235
  29.300   0.6606   0.34683   0.34140  -0.0706  0.0313  1.0000  -0.8955   0.0000   0.0000   0.0000   0.3238
  29.400   0.6603   0.34713   0.34172  -0.0708  0.0309  1.0000  -0.8977   0.0000   0.0000   0.0000   0.3240
  29.500   0.6601   0.34744   0.34203  -0.0709  0.0305  1.0000  -0.9003   0.0000   0.0000   0.0000   0.3242
  29.600   0.6598   0.34775   0.34235  -0.0711  0.0301  1.0000  -0.9035   0.0000   0.0000   0.0000   0.3244
  29.700   0.6597   0.34806   0.34267  -0.0713  0.0298  1.0000  -0.9071   0.0000   0.0000   0.0000   0.3246
  29.800   0.6595   0.34837   0.34299  -0.0714  0.0294  1.0000  -0.9113   0.0000   0.0000   0.0000   0.3247
  29.900   0.6594   0.34869   0.34333  -0.0716  0.0291  1.0000  -0.9161   0.0000   0.0000   0.0000   0.3249
  30.000   0.6593   0.34902   0.34367  -0.0717  0.0288  1.0000  -0.9215   0.0000   0.0000   0.0000   0.3250


