xflr5 v6.61

 Calculated polar for: NACA 65-210

 1 1 Reynolds number fixed          Mach number fixed         

 xtrf =   1.000 (top)        1.000 (bottom)
 Mach =   0.000     Re =     0.300 e 6     Ncrit =   9.000

  alpha     CL        CD       CDp       Cm    Top Xtr Bot Xtr   Cpmin    Chinge    XCp    
 ------- -------- --------- --------- -------- ------- ------- -------- --------- ---------
 -10.000  -0.4067   0.09684   0.09363  -0.0405  1.0000  0.0258  -1.6660   0.0000   0.0000   0.0000   0.1433
  -9.900  -0.4070   0.09526   0.09206  -0.0411  1.0000  0.0258  -1.6817   0.0000   0.0000   0.0000   0.1419
  -9.800  -0.4075   0.09366   0.09047  -0.0417  1.0000  0.0258  -1.6986   0.0000   0.0000   0.0000   0.1405
  -9.700  -0.4081   0.09203   0.08885  -0.0425  1.0000  0.0258  -1.7167   0.0000   0.0000   0.0000   0.1390
  -9.600  -0.4088   0.09036   0.08719  -0.0432  1.0000  0.0258  -1.7364   0.0000   0.0000   0.0000   0.1374
  -9.500  -0.4098   0.08864   0.08548  -0.0441  1.0000  0.0258  -1.7583   0.0000   0.0000   0.0000   0.1356
  -9.400  -0.4110   0.08685   0.08370  -0.0451  1.0000  0.0258  -1.7830   0.0000   0.0000   0.0000   0.1336
  -9.300  -0.4126   0.08496   0.08182  -0.0463  1.0000  0.0258  -1.8120   0.0000   0.0000   0.0000   0.1312
  -9.200  -0.4147   0.08301   0.07987  -0.0476  1.0000  0.0258  -1.8439   0.0000   0.0000   0.0000   0.1287
  -9.100  -0.4176   0.08122   0.07808  -0.0488  1.0000  0.0258  -1.8733   0.0000   0.0000   0.0000   0.1269
  -9.000  -0.4211   0.07956   0.07641  -0.0497  1.0000  0.0258  -1.9012   0.0000   0.0000   0.0000   0.1258
  -8.900  -0.4252   0.07800   0.07485  -0.0505  1.0000  0.0258  -1.9277   0.0000   0.0000   0.0000   0.1252
  -8.800  -0.4298   0.07656   0.07340  -0.0511  1.0000  0.0258  -1.9529   0.0000   0.0000   0.0000   0.1253
  -8.700  -0.4350   0.07523   0.07206  -0.0515  1.0000  0.0258  -1.9767   0.0000   0.0000   0.0000   0.1260
  -8.600  -0.4409   0.07403   0.07085  -0.0516  1.0000  0.0258  -1.9991   0.0000   0.0000   0.0000   0.1274
  -8.500  -0.4473   0.07295   0.06976  -0.0515  1.0000  0.0258  -2.0203   0.0000   0.0000   0.0000   0.1295
  -8.400  -0.4543   0.07197   0.06877  -0.0510  1.0000  0.0258  -2.0402   0.0000   0.0000   0.0000   0.1324
  -8.300  -0.4620   0.07113   0.06793  -0.0502  1.0000  0.0258  -2.0589   0.0000   0.0000   0.0000   0.1362
  -8.200  -0.4706   0.07046   0.06725  -0.0490  1.0000  0.0258  -2.0765   0.0000   0.0000   0.0000   0.1409
  -8.100  -0.4800   0.06995   0.06675  -0.0473  1.0000  0.0258  -2.0931   0.0000   0.0000   0.0000   0.1466
  -8.000  -0.4901   0.06958   0.06637  -0.0453  1.0000  0.0258  -2.1087   0.0000   0.0000   0.0000   0.1530
  -7.900  -0.4996   0.06916   0.06595  -0.0432  1.0000  0.0258  -2.1232   0.0000   0.0000   0.0000   0.1590
  -7.800  -0.5076   0.06854   0.06532  -0.0414  1.0000  0.0258  -2.1364   0.0000   0.0000   0.0000   0.1639
  -7.700  -0.5156   0.06795   0.06472  -0.0397  1.0000  0.0258  -2.1489   0.0000   0.0000   0.0000   0.1688
  -7.600  -0.5235   0.06738   0.06414  -0.0378  1.0000  0.0258  -2.1608   0.0000   0.0000   0.0000   0.1735
  -7.500  -0.5311   0.06680   0.06356  -0.0360  1.0000  0.0258  -2.1721   0.0000   0.0000   0.0000   0.1780
  -7.400  -0.5323   0.06546   0.06217  -0.0359  0.9992  0.0258  -2.1802   0.0000   0.0000   0.0000   0.1784
  -7.300  -0.5297   0.06369   0.06033  -0.0367  0.9979  0.0259  -2.1854   0.0000   0.0000   0.0000   0.1766
  -7.200  -0.5264   0.06192   0.05849  -0.0375  0.9962  0.0259  -2.1889   0.0000   0.0000   0.0000   0.1748
  -7.100  -0.5227   0.06016   0.05665  -0.0382  0.9943  0.0259  -2.1908   0.0000   0.0000   0.0000   0.1730
  -7.000  -0.5185   0.05840   0.05481  -0.0388  0.9922  0.0259  -2.1912   0.0000   0.0000   0.0000   0.1712
  -6.900  -0.5139   0.05664   0.05296  -0.0395  0.9898  0.0259  -2.1900   0.0000   0.0000   0.0000   0.1693
  -6.800  -0.5088   0.05484   0.05106  -0.0400  0.9872  0.0259  -2.1883   0.0000   0.0000   0.0000   0.1674
  -6.700  -0.5032   0.05307   0.04920  -0.0406  0.9846  0.0259  -2.1844   0.0000   0.0000   0.0000   0.1654
  -6.600  -0.4971   0.05131   0.04734  -0.0412  0.9819  0.0259  -2.1792   0.0000   0.0000   0.0000   0.1633
  -6.500  -0.4905   0.04954   0.04548  -0.0417  0.9792  0.0259  -2.1725   0.0000   0.0000   0.0000   0.1611
  -6.400  -0.4834   0.04778   0.04361  -0.0423  0.9766  0.0259  -2.1642   0.0000   0.0000   0.0000   0.1587
  -6.300  -0.4758   0.04601   0.04173  -0.0428  0.9741  0.0259  -2.1545   0.0000   0.0000   0.0000   0.1562
  -5.800  -0.4504   0.02832   0.02296  -0.0450  0.9626  0.0192  -2.5826   0.0000   0.0000   0.0000   0.1462
  -5.700  -0.4403   0.02335   0.01727  -0.0437  0.9610  0.0152  -2.9917   0.0000   0.0000   0.0000   0.1466
  -5.600  -0.4267   0.02219   0.01597  -0.0442  0.9596  0.0152  -2.9510   0.0000   0.0000   0.0000   0.1421
  -5.500  -0.4128   0.02123   0.01492  -0.0449  0.9583  0.0155  -2.8731   0.0000   0.0000   0.0000   0.1369
  -5.400  -0.3986   0.02054   0.01418  -0.0458  0.9569  0.0163  -2.7516   0.0000   0.0000   0.0000   0.1310
  -5.200  -0.3695   0.02003   0.01344  -0.0475  0.9530  0.0293  -2.1989   0.0000   0.0000   0.0000   0.1174
  -5.100  -0.3565   0.01927   0.01264  -0.0482  0.9504  0.0311  -2.1510   0.0000   0.0000   0.0000   0.1106
  -5.000  -0.3471   0.01895   0.01237  -0.0482  0.9486  0.0334  -2.0731   0.0000   0.0000   0.0000   0.1069
  -4.900  -0.3375   0.01880   0.01225  -0.0483  0.9467  0.0356  -1.9936   0.0000   0.0000   0.0000   0.1030
  -4.800  -0.3273   0.01854   0.01198  -0.0482  0.9446  0.0373  -1.9349   0.0000   0.0000   0.0000   0.0986
  -4.700  -0.3167   0.01806   0.01146  -0.0481  0.9424  0.0377  -1.9028   0.0000   0.0000   0.0000   0.0939
  -4.600  -0.3056   0.01742   0.01075  -0.0480  0.9402  0.0369  -1.8928   0.0000   0.0000   0.0000   0.0888
  -4.500  -0.2943   0.01683   0.01009  -0.0479  0.9379  0.0362  -1.8813   0.0000   0.0000   0.0000   0.0831
  -4.400  -0.2829   0.01628   0.00949  -0.0479  0.9356  0.0356  -1.8669   0.0000   0.0000   0.0000   0.0767
  -4.300  -0.2715   0.01578   0.00894  -0.0479  0.9333  0.0351  -1.8496   0.0000   0.0000   0.0000   0.0695
  -4.200  -0.2601   0.01532   0.00843  -0.0479  0.9309  0.0347  -1.8298   0.0000   0.0000   0.0000   0.0617
  -4.100  -0.2486   0.01489   0.00797  -0.0479  0.9286  0.0345  -1.8079   0.0000   0.0000   0.0000   0.0531
  -4.000  -0.2373   0.01450   0.00754  -0.0479  0.9262  0.0344  -1.7843   0.0000   0.0000   0.0000   0.0436
  -3.900  -0.2260   0.01413   0.00713  -0.0480  0.9238  0.0344  -1.7595   0.0000   0.0000   0.0000   0.0334
  -3.800  -0.2149   0.01378   0.00675  -0.0480  0.9215  0.0345  -1.7342   0.0000   0.0000   0.0000   0.0223
  -3.700  -0.2039   0.01344   0.00639  -0.0480  0.9191  0.0347  -1.7088   0.0000   0.0000   0.0000   0.0102
  -3.600  -0.1931   0.01313   0.00605  -0.0479  0.9168  0.0351  -1.6834   0.0000   0.0000   0.0000  -0.0028
  -3.500  -0.1822   0.01283   0.00572  -0.0479  0.9144  0.0357  -1.6581   0.0000   0.0000   0.0000  -0.0176
  -3.400  -0.1712   0.01255   0.00541  -0.0479  0.9119  0.0366  -1.6330   0.0000   0.0000   0.0000  -0.0346
  -3.300  -0.1602   0.01231   0.00513  -0.0479  0.9092  0.0378  -1.6084   0.0000   0.0000   0.0000  -0.0541
  -3.200  -0.1492   0.01210   0.00489  -0.0480  0.9061  0.0395  -1.5850   0.0000   0.0000   0.0000  -0.0765
  -3.100  -0.1383   0.01193   0.00468  -0.0480  0.9024  0.0419  -1.5629   0.0000   0.0000   0.0000  -0.1025
  -3.000  -0.1280   0.01178   0.00449  -0.0479  0.8994  0.0450  -1.5419   0.0000   0.0000   0.0000  -0.1296
  -2.900  -0.1182   0.01161   0.00427  -0.0477  0.8977  0.0485  -1.5168   0.0000   0.0000   0.0000  -0.1590
  -2.800  -0.1081   0.01148   0.00412  -0.0475  0.8956  0.0516  -1.4829   0.0000   0.0000   0.0000  -0.1952
  -2.700  -0.0993   0.01104   0.00382  -0.0472  0.8932  0.0851  -1.4751   0.0000   0.0000   0.0000  -0.2316
  -2.600  -0.0955   0.00962   0.00345  -0.0470  0.8902  0.3477  -1.4541   0.0000   0.0000   0.0000  -0.2483
  -2.500  -0.0915   0.00866   0.00345  -0.0462  0.8872  0.5785  -1.4214   0.0000   0.0000   0.0000  -0.2606
  -2.400  -0.0830   0.00853   0.00355  -0.0455  0.8845  0.6431  -1.3731   0.0000   0.0000   0.0000  -0.3047
  -2.300  -0.0739   0.00848   0.00364  -0.0449  0.8817  0.6748  -1.3216   0.0000   0.0000   0.0000  -0.3635
  -2.200  -0.0639   0.00851   0.00368  -0.0445  0.8791  0.6961  -1.2666   0.0000   0.0000   0.0000  -0.4541
  -2.100  -0.0546   0.00851   0.00376  -0.0439  0.8764  0.7147  -1.2133   0.0000   0.0000   0.0000  -0.5608
  -2.000  -0.0456   0.00856   0.00388  -0.0431  0.8738  0.7319  -1.1600   0.0000   0.0000   0.0000  -0.7052
  -1.900  -0.0356   0.00864   0.00394  -0.0427  0.8713  0.7434  -1.1050   0.0000   0.0000   0.0000  -0.9612
  -1.800  -0.0251   0.00871   0.00398  -0.0424  0.8689  0.7494  -1.0494   0.0000   0.0000   0.0000  -1.4546
  -1.700  -0.0153   0.00866   0.00394  -0.0420  0.8664  0.7584  -0.9962   0.0000   0.0000   0.0000  -2.5240
  -1.600  -0.0054   0.00866   0.00396  -0.0416  0.8639  0.7647  -0.9432   0.0000   0.0000   0.0000  -7.5076
  -1.500   0.0046   0.00868   0.00399  -0.0412  0.8612  0.7700  -0.8903   0.0000   0.0000   0.0000   9.1804
  -1.400   0.0145   0.00875   0.00406  -0.0408  0.8582  0.7761  -0.8382   0.0000   0.0000   0.0000   3.0745
  -1.300   0.0243   0.00886   0.00417  -0.0403  0.8546  0.7832  -0.7869   0.0000   0.0000   0.0000   1.9205
  -1.200   0.0341   0.00903   0.00434  -0.0400  0.8502  0.7900  -0.7363   0.0000   0.0000   0.0000   1.4283
  -1.100   0.0439   0.00910   0.00440  -0.0395  0.8487  0.7955  -0.6863   0.0000   0.0000   0.0000   1.1558
  -1.000   0.0540   0.00917   0.00446  -0.0392  0.8469  0.7991  -0.6364   0.0000   0.0000   0.0000   0.9808
  -0.900   0.0637   0.00907   0.00437  -0.0389  0.8448  0.8057  -0.5885   0.0000   0.0000   0.0000   0.8642
  -0.800   0.0733   0.00903   0.00435  -0.0386  0.8424  0.8104  -0.5412   0.0000   0.0000   0.0000   0.7783
  -0.700   0.0834   0.00902   0.00434  -0.0384  0.8400  0.8136  -0.4939   0.0000   0.0000   0.0000   0.7115
  -0.600   0.0935   0.00901   0.00434  -0.0381  0.8376  0.8166  -0.4470   0.0000   0.0000   0.0000   0.6590
  -0.500   0.1037   0.00901   0.00435  -0.0379  0.8352  0.8194  -0.4006   0.0000   0.0000   0.0000   0.6166
  -0.400   0.1140   0.00902   0.00435  -0.0378  0.8327  0.8222  -0.3599   0.0000   0.0000   0.0000   0.5818
  -0.300   0.1245   0.00902   0.00435  -0.0376  0.8302  0.8250  -0.3643   0.0000   0.0000   0.0000   0.5527
  -0.200   0.1350   0.00901   0.00435  -0.0375  0.8278  0.8276  -0.3686   0.0000   0.0000   0.0000   0.5281
  -0.100   0.1456   0.00901   0.00434  -0.0375  0.8254  0.8302  -0.3732   0.0000   0.0000   0.0000   0.5072
   0.000   0.1563   0.00901   0.00433  -0.0374  0.8231  0.8329  -0.3783   0.0000   0.0000   0.0000   0.4890
   0.100   0.1670   0.00900   0.00432  -0.0373  0.8208  0.8355  -0.3833   0.0000   0.0000   0.0000   0.4732
   0.200   0.1777   0.00900   0.00431  -0.0373  0.8185  0.8380  -0.3884   0.0000   0.0000   0.0000   0.4593
   0.300   0.1885   0.00900   0.00431  -0.0372  0.8163  0.8405  -0.3936   0.0000   0.0000   0.0000   0.4470
   0.400   0.1994   0.00901   0.00431  -0.0372  0.8139  0.8428  -0.3987   0.0000   0.0000   0.0000   0.4361
   0.500   0.2102   0.00903   0.00432  -0.0372  0.8114  0.8449  -0.4038   0.0000   0.0000   0.0000   0.4263
   0.600   0.2212   0.00907   0.00434  -0.0372  0.8085  0.8469  -0.4090   0.0000   0.0000   0.0000   0.4176
   0.700   0.2321   0.00914   0.00439  -0.0373  0.8049  0.8485  -0.4140   0.0000   0.0000   0.0000   0.4097
   0.800   0.2430   0.00926   0.00450  -0.0374  0.8004  0.8508  -0.4330   0.0000   0.0000   0.0000   0.4030
   0.900   0.2533   0.00917   0.00443  -0.0373  0.7991  0.8553  -0.4829   0.0000   0.0000   0.0000   0.3963
   1.000   0.2632   0.00913   0.00441  -0.0371  0.7975  0.8593  -0.5327   0.0000   0.0000   0.0000   0.3898
   1.100   0.2729   0.00911   0.00442  -0.0368  0.7957  0.8628  -0.5829   0.0000   0.0000   0.0000   0.3836
   1.200   0.2825   0.00912   0.00444  -0.0365  0.7938  0.8661  -0.6338   0.0000   0.0000   0.0000   0.3779
   1.300   0.2923   0.00913   0.00448  -0.0362  0.7918  0.8693  -0.6855   0.0000   0.0000   0.0000   0.3725
   1.400   0.3021   0.00914   0.00451  -0.0359  0.7897  0.8724  -0.7383   0.0000   0.0000   0.0000   0.3675
   1.500   0.3120   0.00916   0.00455  -0.0357  0.7875  0.8755  -0.7922   0.0000   0.0000   0.0000   0.3630
   1.600   0.3221   0.00916   0.00456  -0.0355  0.7848  0.8786  -0.8472   0.0000   0.0000   0.0000   0.3587
   1.700   0.3322   0.00912   0.00453  -0.0352  0.7811  0.8816  -0.9033   0.0000   0.0000   0.0000   0.3544
   1.800   0.3422   0.00905   0.00445  -0.0348  0.7763  0.8845  -0.9604   0.0000   0.0000   0.0000   0.3501
   1.900   0.3522   0.00896   0.00434  -0.0344  0.7707  0.8875  -1.0184   0.0000   0.0000   0.0000   0.3458
   2.000   0.3621   0.00887   0.00422  -0.0339  0.7643  0.8902  -1.0773   0.0000   0.0000   0.0000   0.3417
   2.100   0.3722   0.00886   0.00415  -0.0334  0.7560  0.8929  -1.1371   0.0000   0.0000   0.0000   0.3380
   2.200   0.3823   0.00887   0.00415  -0.0331  0.7487  0.8953  -1.1969   0.0000   0.0000   0.0000   0.3348
   2.300   0.3921   0.00880   0.00410  -0.0328  0.7441  0.8976  -1.2570   0.0000   0.0000   0.0000   0.3317
   2.400   0.4021   0.00876   0.00407  -0.0325  0.7387  0.8995  -1.3180   0.0000   0.0000   0.0000   0.3288
   2.500   0.4120   0.00863   0.00395  -0.0322  0.7318  0.9040  -1.3793   0.0000   0.0000   0.0000   0.3260
   2.600   0.4214   0.00851   0.00381  -0.0316  0.7228  0.9082  -1.4402   0.0000   0.0000   0.0000   0.3229
   2.700   0.4305   0.00843   0.00366  -0.0309  0.7109  0.9119  -1.5013   0.0000   0.0000   0.0000   0.3196
   2.800   0.4395   0.00840   0.00358  -0.0303  0.6971  0.9155  -1.5621   0.0000   0.0000   0.0000   0.3166
   2.900   0.4482   0.00831   0.00350  -0.0296  0.6823  0.9192  -1.6223   0.0000   0.0000   0.0000   0.3137
   3.000   0.4566   0.00830   0.00337  -0.0288  0.6609  0.9229  -1.6822   0.0000   0.0000   0.0000   0.3106
   3.100   0.4655   0.00831   0.00333  -0.0282  0.6403  0.9266  -1.7429   0.0000   0.0000   0.0000   0.3081
   3.200   0.4745   0.00835   0.00329  -0.0277  0.6165  0.9304  -1.8036   0.0000   0.0000   0.0000   0.3058
   3.300   0.4832   0.00844   0.00326  -0.0272  0.5898  0.9342  -1.8628   0.0000   0.0000   0.0000   0.3036
   3.400   0.4898   0.00864   0.00323  -0.0262  0.5348  0.9383  -1.9149   0.0000   0.0000   0.0000   0.3008
   3.500   0.4907   0.00924   0.00329  -0.0244  0.4214  0.9431  -1.9489   0.0000   0.0000   0.0000   0.2970
   3.600   0.4895   0.01010   0.00357  -0.0226  0.2992  0.9476  -1.9736   0.0000   0.0000   0.0000   0.2932
   3.700   0.4900   0.01103   0.00391  -0.0213  0.1676  0.9531  -1.9987   0.0000   0.0000   0.0000   0.2904
   3.800   0.4953   0.01197   0.00429  -0.0210  0.0614  0.9606  -2.0240   0.0000   0.0000   0.0000   0.2894
   3.900   0.5075   0.01231   0.00462  -0.0214  0.0437  0.9651  -2.0398   0.0000   0.0000   0.0000   0.2891
   4.000   0.5202   0.01263   0.00496  -0.0219  0.0371  0.9690  -2.0539   0.0000   0.0000   0.0000   0.2889
   4.100   0.5328   0.01297   0.00534  -0.0223  0.0333  0.9726  -2.0675   0.0000   0.0000   0.0000   0.2887
   4.200   0.5452   0.01332   0.00575  -0.0227  0.0312  0.9761  -2.0861   0.0000   0.0000   0.0000   0.2884
   4.300   0.5573   0.01369   0.00617  -0.0231  0.0300  0.9797  -2.1095   0.0000   0.0000   0.0000   0.2881
   4.400   0.5689   0.01409   0.00662  -0.0234  0.0292  0.9834  -2.1362   0.0000   0.0000   0.0000   0.2877
   4.500   0.5805   0.01448   0.00705  -0.0237  0.0287  0.9871  -2.1655   0.0000   0.0000   0.0000   0.2873
   4.600   0.5922   0.01490   0.00750  -0.0240  0.0284  0.9905  -2.1972   0.0000   0.0000   0.0000   0.2870
   4.700   0.6040   0.01532   0.00795  -0.0243  0.0283  0.9939  -2.2309   0.0000   0.0000   0.0000   0.2866
   4.800   0.6160   0.01574   0.00841  -0.0246  0.0282  0.9969  -2.2665   0.0000   0.0000   0.0000   0.2863
   4.900   0.6281   0.01617   0.00887  -0.0250  0.0282  0.9996  -2.3037   0.0000   0.0000   0.0000   0.2860
   5.000   0.6308   0.01642   0.00913  -0.0236  0.0283  1.0000  -2.3248   0.0000   0.0000   0.0000   0.2836
   5.100   0.6340   0.01668   0.00940  -0.0222  0.0283  1.0000  -2.3472   0.0000   0.0000   0.0000   0.2812
   5.200   0.6399   0.01700   0.00974  -0.0214  0.0284  1.0000  -2.3747   0.0000   0.0000   0.0000   0.2795
   5.300   0.6475   0.01737   0.01013  -0.0208  0.0286  1.0000  -2.4052   0.0000   0.0000   0.0000   0.2781
   5.400   0.6561   0.01777   0.01055  -0.0204  0.0288  1.0000  -2.4372   0.0000   0.0000   0.0000   0.2770
   5.500   0.6654   0.01819   0.01100  -0.0201  0.0291  1.0000  -2.4694   0.0000   0.0000   0.0000   0.2761
   5.600   0.6751   0.01865   0.01149  -0.0199  0.0294  1.0000  -2.5008   0.0000   0.0000   0.0000   0.2753
   5.700   0.6853   0.01915   0.01203  -0.0198  0.0299  1.0000  -2.5298   0.0000   0.0000   0.0000   0.2745
   5.800   0.6959   0.01972   0.01265  -0.0196  0.0304  1.0000  -2.5545   0.0000   0.0000   0.0000   0.2738
   5.900   0.7068   0.02038   0.01338  -0.0195  0.0311  1.0000  -2.5724   0.0000   0.0000   0.0000   0.2731
   6.000   0.7182   0.02117   0.01426  -0.0194  0.0320  1.0000  -2.5806   0.0000   0.0000   0.0000   0.2725
   6.200   0.7316   0.02224   0.01564  -0.0186  0.0175  1.0000  -2.9980   0.0000   0.0000   0.0000   0.2707
   6.300   0.7402   0.02237   0.01575  -0.0184  0.0159  1.0000  -3.1521   0.0000   0.0000   0.0000   0.2700
   6.400   0.7486   0.02259   0.01596  -0.0182  0.0149  1.0000  -3.2855   0.0000   0.0000   0.0000   0.2693
   6.500   0.7570   0.02290   0.01627  -0.0180  0.0142  1.0000  -3.4077   0.0000   0.0000   0.0000   0.2687
   6.600   0.7664   0.02420   0.01770  -0.0175  0.0139  1.0000  -3.4757   0.0000   0.0000   0.0000   0.2678
   6.700   0.7744   0.02479   0.01829  -0.0173  0.0133  1.0000  -3.5755   0.0000   0.0000   0.0000   0.2672
   6.800   0.7825   0.02569   0.01924  -0.0171  0.0129  1.0000  -3.6349   0.0000   0.0000   0.0000   0.2665
   6.900   0.7903   0.02679   0.02042  -0.0167  0.0127  1.0000  -3.6736   0.0000   0.0000   0.0000   0.2658
   7.000   0.7977   0.02796   0.02169  -0.0162  0.0125  1.0000  -3.7029   0.0000   0.0000   0.0000   0.2649
   7.100   0.8046   0.02913   0.02298  -0.0157  0.0124  1.0000  -3.7291   0.0000   0.0000   0.0000   0.2640
   7.200   0.8111   0.03028   0.02422  -0.0151  0.0123  1.0000  -3.7561   0.0000   0.0000   0.0000   0.2631
   7.300   0.8173   0.03136   0.02541  -0.0145  0.0123  1.0000  -3.7859   0.0000   0.0000   0.0000   0.2621
   7.400   0.8233   0.03236   0.02651  -0.0138  0.0123  1.0000  -3.8197   0.0000   0.0000   0.0000   0.2611
   7.500   0.8293   0.03329   0.02753  -0.0132  0.0123  1.0000  -3.8579   0.0000   0.0000   0.0000   0.2601
   7.600   0.8352   0.03414   0.02847  -0.0125  0.0124  1.0000  -3.9004   0.0000   0.0000   0.0000   0.2590
   7.700   0.8411   0.03491   0.02932  -0.0118  0.0125  1.0000  -3.9465   0.0000   0.0000   0.0000   0.2580
   7.800   0.8471   0.03561   0.03010  -0.0111  0.0126  1.0000  -3.9939   0.0000   0.0000   0.0000   0.2570
   7.900   0.8532   0.03626   0.03086  -0.0103  0.0129  1.0000  -4.0309   0.0000   0.0000   0.0000   0.2559
  13.300   0.6027   0.14185   0.13862  -0.0101  0.0239  1.0000  -1.6865   0.0000   0.0000   0.0000   0.2565
  13.400   0.6041   0.14363   0.14040  -0.0109  0.0239  1.0000  -1.6766   0.0000   0.0000   0.0000   0.2577
  13.500   0.6056   0.14539   0.14216  -0.0117  0.0238  1.0000  -1.6673   0.0000   0.0000   0.0000   0.2589
  13.600   0.6071   0.14714   0.14390  -0.0125  0.0238  1.0000  -1.6584   0.0000   0.0000   0.0000   0.2601
  13.700   0.6088   0.14887   0.14562  -0.0133  0.0238  1.0000  -1.6501   0.0000   0.0000   0.0000   0.2612
  13.800   0.6104   0.15057   0.14732  -0.0141  0.0238  1.0000  -1.6424   0.0000   0.0000   0.0000   0.2623
  13.900   0.6121   0.15225   0.14900  -0.0149  0.0237  1.0000  -1.6352   0.0000   0.0000   0.0000   0.2634
  14.000   0.6139   0.15391   0.15065  -0.0156  0.0237  1.0000  -1.6287   0.0000   0.0000   0.0000   0.2645
  14.100   0.6158   0.15553   0.15227  -0.0164  0.0236  1.0000  -1.6229   0.0000   0.0000   0.0000   0.2656
  14.200   0.6177   0.15712   0.15385  -0.0172  0.0236  1.0000  -1.6179   0.0000   0.0000   0.0000   0.2667
  14.300   0.6196   0.15867   0.15539  -0.0179  0.0235  1.0000  -1.6138   0.0000   0.0000   0.0000   0.2677
  14.400   0.6217   0.16016   0.15688  -0.0187  0.0234  1.0000  -1.6110   0.0000   0.0000   0.0000   0.2687
  14.500   0.6239   0.16158   0.15830  -0.0194  0.0233  1.0000  -1.6097   0.0000   0.0000   0.0000   0.2697
  14.600   0.6262   0.16291   0.15963  -0.0201  0.0232  1.0000  -1.6103   0.0000   0.0000   0.0000   0.2706
  14.700   0.6287   0.16415   0.16086  -0.0208  0.0229  1.0000  -1.6131   0.0000   0.0000   0.0000   0.2715
  14.800   0.6314   0.16531   0.16202  -0.0215  0.0227  1.0000  -1.6172   0.0000   0.0000   0.0000   0.2724
  14.900   0.6341   0.16647   0.16318  -0.0222  0.0223  1.0000  -1.6209   0.0000   0.0000   0.0000   0.2732
  15.000   0.6368   0.16770   0.16440  -0.0229  0.0219  1.0000  -1.6215   0.0000   0.0000   0.0000   0.2741
  15.100   0.6388   0.16903   0.16573  -0.0237  0.0216  1.0000  -1.6149   0.0000   0.0000   0.0000   0.2751
  15.200   0.6406   0.17041   0.16711  -0.0245  0.0213  1.0000  -1.6057   0.0000   0.0000   0.0000   0.2761
  15.300   0.6422   0.17181   0.16850  -0.0253  0.0210  1.0000  -1.5955   0.0000   0.0000   0.0000   0.2772
  15.400   0.6440   0.17325   0.16994  -0.0261  0.0207  1.0000  -1.5858   0.0000   0.0000   0.0000   0.2782
  15.500   0.6458   0.17471   0.17140  -0.0269  0.0204  1.0000  -1.5767   0.0000   0.0000   0.0000   0.2792
  15.600   0.6477   0.17620   0.17288  -0.0276  0.0201  1.0000  -1.5683   0.0000   0.0000   0.0000   0.2802
  15.700   0.6497   0.17770   0.17438  -0.0284  0.0198  1.0000  -1.5606   0.0000   0.0000   0.0000   0.2811
  15.800   0.6517   0.17922   0.17589  -0.0291  0.0195  1.0000  -1.5536   0.0000   0.0000   0.0000   0.2820
  15.900   0.6538   0.18073   0.17741  -0.0299  0.0193  1.0000  -1.5473   0.0000   0.0000   0.0000   0.2829
  16.000   0.6559   0.18225   0.17892  -0.0306  0.0190  1.0000  -1.5417   0.0000   0.0000   0.0000   0.2838
  16.100   0.6580   0.18377   0.18044  -0.0313  0.0187  1.0000  -1.5366   0.0000   0.0000   0.0000   0.2846
  16.200   0.6602   0.18529   0.18196  -0.0321  0.0185  1.0000  -1.5322   0.0000   0.0000   0.0000   0.2855
  16.300   0.6624   0.18680   0.18347  -0.0328  0.0183  1.0000  -1.5283   0.0000   0.0000   0.0000   0.2863
  16.400   0.6646   0.18831   0.18498  -0.0335  0.0180  1.0000  -1.5248   0.0000   0.0000   0.0000   0.2871
  16.500   0.6668   0.18982   0.18648  -0.0342  0.0178  1.0000  -1.5219   0.0000   0.0000   0.0000   0.2878
  16.600   0.6691   0.19132   0.18798  -0.0349  0.0176  1.0000  -1.5194   0.0000   0.0000   0.0000   0.2886
  16.700   0.6714   0.19282   0.18947  -0.0356  0.0174  1.0000  -1.5173   0.0000   0.0000   0.0000   0.2894
  16.800   0.6737   0.19430   0.19096  -0.0363  0.0172  1.0000  -1.5156   0.0000   0.0000   0.0000   0.2901
  16.900   0.6760   0.19579   0.19244  -0.0370  0.0170  1.0000  -1.5143   0.0000   0.0000   0.0000   0.2908
  17.000   0.6784   0.19726   0.19392  -0.0376  0.0168  1.0000  -1.5134   0.0000   0.0000   0.0000   0.2915
  17.100   0.6807   0.19874   0.19538  -0.0383  0.0166  1.0000  -1.5128   0.0000   0.0000   0.0000   0.2922
  17.200   0.6831   0.20020   0.19685  -0.0390  0.0165  1.0000  -1.5125   0.0000   0.0000   0.0000   0.2929
  17.300   0.6855   0.20166   0.19830  -0.0397  0.0163  1.0000  -1.5125   0.0000   0.0000   0.0000   0.2935
  17.400   0.6879   0.20311   0.19976  -0.0403  0.0161  1.0000  -1.5128   0.0000   0.0000   0.0000   0.2942
  17.500   0.6903   0.20456   0.20120  -0.0410  0.0160  1.0000  -1.5134   0.0000   0.0000   0.0000   0.2948
  17.600   0.6929   0.20591   0.20255  -0.0416  0.0156  1.0000  -1.5241   0.0000   0.0000   0.0000   0.2954
  17.700   0.6956   0.20723   0.20387  -0.0423  0.0152  1.0000  -1.5379   0.0000   0.0000   0.0000   0.2959
  17.800   0.6983   0.20854   0.20518  -0.0429  0.0149  1.0000  -1.5545   0.0000   0.0000   0.0000   0.2964
  17.900   0.7011   0.20984   0.20647  -0.0435  0.0145  1.0000  -1.5744   0.0000   0.0000   0.0000   0.2969
  18.000   0.7045   0.21104   0.20770  -0.0440  0.0140  1.0000  -1.6221   0.0000   0.0000   0.0000   0.2971
  18.100   0.7079   0.21231   0.20897  -0.0444  0.0136  1.0000  -1.6642   0.0000   0.0000   0.0000   0.2973
  18.200   0.7118   0.21364   0.21030  -0.0449  0.0133  1.0000  -1.7143   0.0000   0.0000   0.0000   0.2974
  18.300   0.7165   0.21514   0.21180  -0.0452  0.0129  1.0000  -1.7787   0.0000   0.0000   0.0000   0.2973
  18.400   0.7236   0.21738   0.21405  -0.0452  0.0125  1.0000  -1.8755   0.0000   0.0000   0.0000   0.2966
  18.500   0.7222   0.22447   0.22110  -0.0466  0.0117  1.0000  -1.7006   0.0000   0.0000   0.0000   0.2986
  18.600   0.7240   0.22568   0.22230  -0.0473  0.0117  1.0000  -1.6920   0.0000   0.0000   0.0000   0.2993
  18.700   0.7259   0.22684   0.22346  -0.0480  0.0116  1.0000  -1.6841   0.0000   0.0000   0.0000   0.3000
  18.800   0.7277   0.22794   0.22456  -0.0487  0.0116  1.0000  -1.6768   0.0000   0.0000   0.0000   0.3007
  18.900   0.7295   0.22895   0.22557  -0.0494  0.0116  1.0000  -1.6703   0.0000   0.0000   0.0000   0.3014
  19.000   0.7313   0.22988   0.22649  -0.0501  0.0115  1.0000  -1.6647   0.0000   0.0000   0.0000   0.3020
  19.100   0.7330   0.23069   0.22730  -0.0509  0.0114  1.0000  -1.6600   0.0000   0.0000   0.0000   0.3027
  19.200   0.7347   0.23136   0.22797  -0.0516  0.0113  1.0000  -1.6554   0.0000   0.0000   0.0000   0.3034
  19.300   0.7360   0.23191   0.22851  -0.0523  0.0111  1.0000  -1.6432   0.0000   0.0000   0.0000   0.3042
  19.400   0.7370   0.23245   0.22905  -0.0532  0.0109  1.0000  -1.6221   0.0000   0.0000   0.0000   0.3050
  19.500   0.7386   0.23314   0.22974  -0.0539  0.0106  1.0000  -1.6001   0.0000   0.0000   0.0000   0.3058
  19.600   0.7407   0.23406   0.23066  -0.0546  0.0103  1.0000  -1.5799   0.0000   0.0000   0.0000   0.3064
  19.700   0.7431   0.23516   0.23175  -0.0553  0.0100  1.0000  -1.5651   0.0000   0.0000   0.0000   0.3070
  19.800   0.7455   0.23632   0.23291  -0.0559  0.0097  1.0000  -1.5562   0.0000   0.0000   0.0000   0.3075
  19.900   0.7480   0.23751   0.23410  -0.0566  0.0094  1.0000  -1.5519   0.0000   0.0000   0.0000   0.3079
  20.000   0.7505   0.23869   0.23528  -0.0572  0.0091  1.0000  -1.5512   0.0000   0.0000   0.0000   0.3083
  20.100   0.7530   0.23986   0.23645  -0.0578  0.0089  1.0000  -1.5533   0.0000   0.0000   0.0000   0.3087
  20.200   0.7555   0.24102   0.23760  -0.0584  0.0087  1.0000  -1.5580   0.0000   0.0000   0.0000   0.3091
  20.300   0.7580   0.24216   0.23875  -0.0590  0.0085  1.0000  -1.5650   0.0000   0.0000   0.0000   0.3095
  20.400   0.7606   0.24330   0.23988  -0.0596  0.0083  1.0000  -1.5742   0.0000   0.0000   0.0000   0.3099
  20.500   0.7631   0.24442   0.24100  -0.0602  0.0081  1.0000  -1.5858   0.0000   0.0000   0.0000   0.3103
  20.600   0.7656   0.24553   0.24211  -0.0608  0.0079  1.0000  -1.5998   0.0000   0.0000   0.0000   0.3106
  20.700   0.7682   0.24663   0.24321  -0.0613  0.0078  1.0000  -1.6164   0.0000   0.0000   0.0000   0.3109
  20.800   0.7708   0.24773   0.24431  -0.0619  0.0077  1.0000  -1.6357   0.0000   0.0000   0.0000   0.3113
  20.900   0.7734   0.24884   0.24542  -0.0625  0.0075  1.0000  -1.6582   0.0000   0.0000   0.0000   0.3116
  21.000   0.7761   0.24995   0.24653  -0.0631  0.0074  1.0000  -1.6843   0.0000   0.0000   0.0000   0.3118
  21.100   0.7789   0.25109   0.24766  -0.0636  0.0073  1.0000  -1.7146   0.0000   0.0000   0.0000   0.3121
  21.200   0.7818   0.25229   0.24886  -0.0641  0.0072  1.0000  -1.7502   0.0000   0.0000   0.0000   0.3123
  21.300   0.7850   0.25362   0.25020  -0.0646  0.0071  1.0000  -1.7936   0.0000   0.0000   0.0000   0.3124
  21.400   0.7891   0.25540   0.25198  -0.0650  0.0070  1.0000  -1.8542   0.0000   0.0000   0.0000   0.3122
  21.500   0.7938   0.25968   0.25625  -0.0654  0.0068  1.0000  -1.8420   0.0000   0.0000   0.0000   0.3121
  21.600   0.7955   0.26066   0.25723  -0.0660  0.0068  1.0000  -1.8278   0.0000   0.0000   0.0000   0.3126
  21.700   0.7972   0.26164   0.25820  -0.0667  0.0068  1.0000  -1.8139   0.0000   0.0000   0.0000   0.3131
  21.800   0.7989   0.26256   0.25912  -0.0674  0.0067  1.0000  -1.7978   0.0000   0.0000   0.0000   0.3137
  21.900   0.8002   0.26340   0.25996  -0.0681  0.0067  1.0000  -1.7758   0.0000   0.0000   0.0000   0.3143
  22.000   0.8014   0.26418   0.26074  -0.0688  0.0067  1.0000  -1.7469   0.0000   0.0000   0.0000   0.3149
  22.100   0.8026   0.26496   0.26152  -0.0696  0.0066  1.0000  -1.7160   0.0000   0.0000   0.0000   0.3156
  22.200   0.8039   0.26574   0.26230  -0.0703  0.0066  1.0000  -1.6806   0.0000   0.0000   0.0000   0.3163
  22.300   0.8055   0.26658   0.26313  -0.0711  0.0064  1.0000  -1.6352   0.0000   0.0000   0.0000   0.3169
  22.400   0.8078   0.26767   0.26422  -0.0718  0.0062  1.0000  -1.5920   0.0000   0.0000   0.0000   0.3174
  22.500   0.8103   0.26892   0.26547  -0.0724  0.0059  1.0000  -1.5743   0.0000   0.0000   0.0000   0.3177
  22.600   0.8128   0.27016   0.26672  -0.0730  0.0057  1.0000  -1.5689   0.0000   0.0000   0.0000   0.3181
  22.700   0.8152   0.27139   0.26794  -0.0736  0.0055  1.0000  -1.5689   0.0000   0.0000   0.0000   0.3184
  22.800   0.8176   0.27260   0.26916  -0.0742  0.0054  1.0000  -1.5722   0.0000   0.0000   0.0000   0.3187
  22.900   0.8199   0.27379   0.27035  -0.0748  0.0052  1.0000  -1.5783   0.0000   0.0000   0.0000   0.3190
  23.000   0.8223   0.27498   0.27154  -0.0754  0.0051  1.0000  -1.5867   0.0000   0.0000   0.0000   0.3193
  23.100   0.8246   0.27615   0.27271  -0.0761  0.0050  1.0000  -1.5973   0.0000   0.0000   0.0000   0.3197
  23.200   0.8270   0.27730   0.27386  -0.0767  0.0049  1.0000  -1.6103   0.0000   0.0000   0.0000   0.3200
  23.300   0.8293   0.27845   0.27501  -0.0773  0.0048  1.0000  -1.6256   0.0000   0.0000   0.0000   0.3203
  23.400   0.8317   0.27959   0.27615  -0.0779  0.0047  1.0000  -1.6434   0.0000   0.0000   0.0000   0.3206
  23.500   0.8340   0.28072   0.27728  -0.0785  0.0047  1.0000  -1.6639   0.0000   0.0000   0.0000   0.3209
  23.600   0.8363   0.28185   0.27841  -0.0792  0.0046  1.0000  -1.6873   0.0000   0.0000   0.0000   0.3211
  23.700   0.8386   0.28299   0.27955  -0.0798  0.0046  1.0000  -1.7140   0.0000   0.0000   0.0000   0.3214
  23.800   0.8410   0.28415   0.28071  -0.0804  0.0045  1.0000  -1.7448   0.0000   0.0000   0.0000   0.3216
  23.900   0.8435   0.28538   0.28194  -0.0809  0.0045  1.0000  -1.7811   0.0000   0.0000   0.0000   0.3218
  24.000   0.8462   0.28677   0.28333  -0.0815  0.0044  1.0000  -1.8269   0.0000   0.0000   0.0000   0.3219
  24.100   0.8505   0.28921   0.28574  -0.0818  0.0044  1.0000  -1.9057   0.0000   0.0000   0.0000   0.3216
  24.200   0.8523   0.29040   0.28694  -0.0825  0.0044  1.0000  -1.8884   0.0000   0.0000   0.0000   0.3220
  24.300   0.8542   0.29161   0.28815  -0.0831  0.0044  1.0000  -1.8720   0.0000   0.0000   0.0000   0.3224
  24.400   0.8561   0.29282   0.28936  -0.0838  0.0044  1.0000  -1.8565   0.0000   0.0000   0.0000   0.3228
  24.500   0.8580   0.29404   0.29058  -0.0844  0.0044  1.0000  -1.8417   0.0000   0.0000   0.0000   0.3232
  24.600   0.8601   0.29530   0.29191  -0.0850  0.0044  1.0000  -1.8353   0.0000   0.0000   0.0000   0.3235
  24.700   0.8621   0.29652   0.29314  -0.0857  0.0043  1.0000  -1.8228   0.0000   0.0000   0.0000   0.3238
  24.800   0.8640   0.29775   0.29437  -0.0863  0.0043  1.0000  -1.8105   0.0000   0.0000   0.0000   0.3242
  24.900   0.8660   0.29898   0.29560  -0.0870  0.0043  1.0000  -1.7986   0.0000   0.0000   0.0000   0.3245
  25.000   0.8679   0.30021   0.29684  -0.0876  0.0043  1.0000  -1.7872   0.0000   0.0000   0.0000   0.3249
  25.100   0.8699   0.30145   0.29807  -0.0882  0.0043  1.0000  -1.7762   0.0000   0.0000   0.0000   0.3252
  25.200   0.8719   0.30269   0.29931  -0.0889  0.0043  1.0000  -1.7657   0.0000   0.0000   0.0000   0.3255
  25.300   0.8739   0.30393   0.30055  -0.0895  0.0043  1.0000  -1.7555   0.0000   0.0000   0.0000   0.3259
  25.400   0.8759   0.30517   0.30180  -0.0901  0.0043  1.0000  -1.7458   0.0000   0.0000   0.0000   0.3262
  25.500   0.8779   0.30641   0.30304  -0.0908  0.0043  1.0000  -1.7365   0.0000   0.0000   0.0000   0.3265
  25.600   0.8799   0.30765   0.30429  -0.0914  0.0043  1.0000  -1.7276   0.0000   0.0000   0.0000   0.3268
  25.700   0.8819   0.30890   0.30554  -0.0920  0.0043  1.0000  -1.7191   0.0000   0.0000   0.0000   0.3271
  25.800   0.8838   0.31015   0.30679  -0.0927  0.0043  1.0000  -1.7109   0.0000   0.0000   0.0000   0.3274
  25.900   0.8858   0.31139   0.30804  -0.0933  0.0043  1.0000  -1.7031   0.0000   0.0000   0.0000   0.3277
  26.000   0.8878   0.31264   0.30929  -0.0939  0.0043  1.0000  -1.6956   0.0000   0.0000   0.0000   0.3280
  26.100   0.8898   0.31389   0.31054  -0.0946  0.0043  1.0000  -1.6884   0.0000   0.0000   0.0000   0.3282
  26.200   0.8918   0.31514   0.31179  -0.0952  0.0043  1.0000  -1.6815   0.0000   0.0000   0.0000   0.3285
  26.300   0.8938   0.31639   0.31305  -0.0958  0.0043  1.0000  -1.6749   0.0000   0.0000   0.0000   0.3288
  26.400   0.8958   0.31765   0.31430  -0.0964  0.0043  1.0000  -1.6686   0.0000   0.0000   0.0000   0.3291
  26.500   0.8977   0.31890   0.31556  -0.0971  0.0043  1.0000  -1.6625   0.0000   0.0000   0.0000   0.3293
  26.600   0.8997   0.32015   0.31681  -0.0977  0.0043  1.0000  -1.6568   0.0000   0.0000   0.0000   0.3296
  26.700   0.9017   0.32140   0.31807  -0.0983  0.0043  1.0000  -1.6512   0.0000   0.0000   0.0000   0.3299
  26.800   0.9036   0.32266   0.31932  -0.0989  0.0043  1.0000  -1.6459   0.0000   0.0000   0.0000   0.3301
  26.900   0.9056   0.32391   0.32058  -0.0996  0.0043  1.0000  -1.6408   0.0000   0.0000   0.0000   0.3304
  27.000   0.9075   0.32516   0.32183  -0.1002  0.0043  1.0000  -1.6360   0.0000   0.0000   0.0000   0.3306
  27.100   0.9094   0.32642   0.32309  -0.1008  0.0042  1.0000  -1.6313   0.0000   0.0000   0.0000   0.3309
  27.200   0.9114   0.32767   0.32435  -0.1014  0.0042  1.0000  -1.6269   0.0000   0.0000   0.0000   0.3312
  27.300   0.9133   0.32892   0.32560  -0.1020  0.0042  1.0000  -1.6226   0.0000   0.0000   0.0000   0.3314
  27.400   0.9152   0.33017   0.32686  -0.1027  0.0042  1.0000  -1.6185   0.0000   0.0000   0.0000   0.3316
  27.500   0.9171   0.33142   0.32811  -0.1033  0.0042  1.0000  -1.6146   0.0000   0.0000   0.0000   0.3319
  27.600   0.9190   0.33267   0.32936  -0.1039  0.0042  1.0000  -1.6109   0.0000   0.0000   0.0000   0.3321
  27.700   0.9209   0.33393   0.33062  -0.1045  0.0042  1.0000  -1.6073   0.0000   0.0000   0.0000   0.3324
  27.800   0.9227   0.33518   0.33187  -0.1051  0.0042  1.0000  -1.6039   0.0000   0.0000   0.0000   0.3326
  27.900   0.9246   0.33642   0.33312  -0.1058  0.0042  1.0000  -1.6006   0.0000   0.0000   0.0000   0.3328
  28.000   0.9265   0.33767   0.33438  -0.1064  0.0042  1.0000  -1.5975   0.0000   0.0000   0.0000   0.3331
  28.100   0.9283   0.33892   0.33563  -0.1070  0.0042  1.0000  -1.5945   0.0000   0.0000   0.0000   0.3333
  28.200   0.9301   0.34017   0.33688  -0.1076  0.0042  1.0000  -1.5917   0.0000   0.0000   0.0000   0.3335
  28.300   0.9319   0.34141   0.33813  -0.1082  0.0042  1.0000  -1.5890   0.0000   0.0000   0.0000   0.3338
  28.400   0.9338   0.34266   0.33938  -0.1089  0.0042  1.0000  -1.5864   0.0000   0.0000   0.0000   0.3340
  28.500   0.9355   0.34390   0.34062  -0.1095  0.0042  1.0000  -1.5839   0.0000   0.0000   0.0000   0.3342
  28.600   0.9373   0.34515   0.34187  -0.1101  0.0042  1.0000  -1.5815   0.0000   0.0000   0.0000   0.3344
  28.700   0.9391   0.34639   0.34312  -0.1107  0.0042  1.0000  -1.5792   0.0000   0.0000   0.0000   0.3347
  28.800   0.9409   0.34763   0.34436  -0.1113  0.0042  1.0000  -1.5771   0.0000   0.0000   0.0000   0.3349
  28.900   0.9426   0.34887   0.34561  -0.1120  0.0042  1.0000  -1.5750   0.0000   0.0000   0.0000   0.3351
  29.000   0.9444   0.35011   0.34685  -0.1126  0.0042  1.0000  -1.5730   0.0000   0.0000   0.0000   0.3353
  29.100   0.9461   0.35135   0.34809  -0.1132  0.0042  1.0000  -1.5711   0.0000   0.0000   0.0000   0.3355
  29.200   0.9478   0.35259   0.34933  -0.1138  0.0042  1.0000  -1.5693   0.0000   0.0000   0.0000   0.3358
  29.300   0.9495   0.35382   0.35057  -0.1144  0.0042  1.0000  -1.5676   0.0000   0.0000   0.0000   0.3360
  29.400   0.9512   0.35506   0.35181  -0.1151  0.0042  1.0000  -1.5660   0.0000   0.0000   0.0000   0.3362
  29.500   0.9529   0.35629   0.35305  -0.1157  0.0042  1.0000  -1.5644   0.0000   0.0000   0.0000   0.3364
  29.600   0.9545   0.35753   0.35429  -0.1163  0.0042  1.0000  -1.5629   0.0000   0.0000   0.0000   0.3366
  29.700   0.9562   0.35876   0.35552  -0.1169  0.0042  1.0000  -1.5615   0.0000   0.0000   0.0000   0.3368
  29.800   0.9578   0.35999   0.35676  -0.1175  0.0042  1.0000  -1.5602   0.0000   0.0000   0.0000   0.3370
  29.900   0.9594   0.36122   0.35799  -0.1182  0.0042  1.0000  -1.5589   0.0000   0.0000   0.0000   0.3372
  30.000   0.9610   0.36244   0.35922  -0.1188  0.0041  1.0000  -1.5577   0.0000   0.0000   0.0000   0.3374


