xflr5 v6.61

 Calculated polar for: NACA 2415

 1 1 Reynolds number fixed          Mach number fixed         

 xtrf =   1.000 (top)        1.000 (bottom)
 Mach =   0.000     Re =     0.300 e 6     Ncrit =   9.000

  alpha     CL        CD       CDp       Cm    Top Xtr Bot Xtr   Cpmin    Chinge    XCp    
 ------- -------- --------- --------- -------- ------- ------- -------- --------- ---------
 -10.000  -0.9267   0.02606   0.01986  -0.0310  1.0000  0.0364  -4.4755   0.0000   0.0000   0.0000   0.2039
  -9.900  -0.9225   0.02571   0.01948  -0.0300  1.0000  0.0365  -4.4428   0.0000   0.0000   0.0000   0.2049
  -9.800  -0.9180   0.02537   0.01910  -0.0291  1.0000  0.0367  -4.4093   0.0000   0.0000   0.0000   0.2059
  -9.700  -0.9132   0.02502   0.01872  -0.0283  1.0000  0.0369  -4.3752   0.0000   0.0000   0.0000   0.2068
  -9.600  -0.9081   0.02469   0.01835  -0.0274  1.0000  0.0371  -4.3405   0.0000   0.0000   0.0000   0.2076
  -9.500  -0.9029   0.02436   0.01798  -0.0266  1.0000  0.0373  -4.3053   0.0000   0.0000   0.0000   0.2084
  -9.400  -0.8919   0.02397   0.01754  -0.0269  0.9993  0.0375  -4.2563   0.0000   0.0000   0.0000   0.2078
  -9.300  -0.8796   0.02356   0.01710  -0.0275  0.9984  0.0378  -4.2040   0.0000   0.0000   0.0000   0.2069
  -9.200  -0.8671   0.02317   0.01666  -0.0280  0.9973  0.0381  -4.1515   0.0000   0.0000   0.0000   0.2059
  -9.100  -0.8545   0.02279   0.01624  -0.0286  0.9961  0.0384  -4.0989   0.0000   0.0000   0.0000   0.2048
  -9.000  -0.8420   0.02242   0.01583  -0.0292  0.9948  0.0388  -4.0464   0.0000   0.0000   0.0000   0.2037
  -8.900  -0.8296   0.02207   0.01544  -0.0297  0.9934  0.0391  -3.9943   0.0000   0.0000   0.0000   0.2027
  -8.800  -0.8175   0.02173   0.01507  -0.0301  0.9919  0.0395  -3.9429   0.0000   0.0000   0.0000   0.2016
  -8.700  -0.8056   0.02141   0.01471  -0.0306  0.9905  0.0398  -3.8918   0.0000   0.0000   0.0000   0.2006
  -8.600  -0.7935   0.02110   0.01437  -0.0310  0.9889  0.0402  -3.8402   0.0000   0.0000   0.0000   0.1996
  -8.500  -0.7813   0.02081   0.01404  -0.0315  0.9872  0.0407  -3.7880   0.0000   0.0000   0.0000   0.1984
  -8.400  -0.7689   0.02052   0.01373  -0.0320  0.9855  0.0411  -3.7349   0.0000   0.0000   0.0000   0.1972
  -8.300  -0.7562   0.02029   0.01348  -0.0325  0.9837  0.0418  -3.6767   0.0000   0.0000   0.0000   0.1958
  -8.200  -0.7426   0.02023   0.01342  -0.0332  0.9818  0.0430  -3.6041   0.0000   0.0000   0.0000   0.1941
  -8.100  -0.7280   0.02040   0.01363  -0.0342  0.9799  0.0448  -3.5110   0.0000   0.0000   0.0000   0.1920
  -8.000  -0.7115   0.02089   0.01384  -0.0354  0.9780  0.0468  -3.3641   0.0000   0.0000   0.0000   0.1892
  -7.900  -0.6984   0.02042   0.01332  -0.0360  0.9760  0.0469  -3.3248   0.0000   0.0000   0.0000   0.1875
  -7.800  -0.6848   0.01998   0.01282  -0.0367  0.9739  0.0470  -3.2842   0.0000   0.0000   0.0000   0.1855
  -7.700  -0.6709   0.01955   0.01234  -0.0375  0.9719  0.0471  -3.2424   0.0000   0.0000   0.0000   0.1833
  -7.600  -0.6566   0.01915   0.01188  -0.0383  0.9699  0.0473  -3.1996   0.0000   0.0000   0.0000   0.1808
  -7.500  -0.6419   0.01876   0.01144  -0.0392  0.9679  0.0475  -3.1559   0.0000   0.0000   0.0000   0.1782
  -7.400  -0.6271   0.01839   0.01103  -0.0401  0.9661  0.0477  -3.1114   0.0000   0.0000   0.0000   0.1753
  -7.300  -0.6121   0.01805   0.01064  -0.0410  0.9643  0.0480  -3.0663   0.0000   0.0000   0.0000   0.1722
  -7.200  -0.5971   0.01773   0.01028  -0.0419  0.9627  0.0483  -3.0209   0.0000   0.0000   0.0000   0.1689
  -7.100  -0.5823   0.01744   0.00995  -0.0429  0.9612  0.0487  -2.9751   0.0000   0.0000   0.0000   0.1656
  -7.000  -0.5675   0.01718   0.00965  -0.0437  0.9598  0.0491  -2.9288   0.0000   0.0000   0.0000   0.1621
  -6.900  -0.5526   0.01694   0.00939  -0.0447  0.9585  0.0496  -2.8813   0.0000   0.0000   0.0000   0.1583
  -6.800  -0.5374   0.01675   0.00916  -0.0456  0.9572  0.0500  -2.8319   0.0000   0.0000   0.0000   0.1542
  -6.700  -0.5270   0.01557   0.00813  -0.0459  0.9554  0.0718  -2.8721   0.0000   0.0000   0.0000   0.1521
  -6.600  -0.5131   0.01516   0.00793  -0.0468  0.9540  0.0883  -2.8319   0.0000   0.0000   0.0000   0.1479
  -6.500  -0.4978   0.01503   0.00788  -0.0480  0.9525  0.0973  -2.7767   0.0000   0.0000   0.0000   0.1428
  -6.400  -0.4819   0.01502   0.00786  -0.0491  0.9510  0.1017  -2.7188   0.0000   0.0000   0.0000   0.1373
  -6.300  -0.4705   0.01482   0.00767  -0.0492  0.9491  0.1124  -2.6747   0.0000   0.0000   0.0000   0.1345
  -6.200  -0.4620   0.01460   0.00750  -0.0488  0.9472  0.1200  -2.6333   0.0000   0.0000   0.0000   0.1336
  -6.100  -0.4530   0.01441   0.00736  -0.0484  0.9448  0.1261  -2.5903   0.0000   0.0000   0.0000   0.1323
  -6.000  -0.4433   0.01426   0.00724  -0.0482  0.9422  0.1314  -2.5453   0.0000   0.0000   0.0000   0.1305
  -5.900  -0.4327   0.01413   0.00713  -0.0482  0.9396  0.1362  -2.4985   0.0000   0.0000   0.0000   0.1279
  -5.800  -0.4212   0.01401   0.00703  -0.0483  0.9370  0.1403  -2.4499   0.0000   0.0000   0.0000   0.1246
  -5.700  -0.4090   0.01391   0.00693  -0.0486  0.9345  0.1437  -2.3998   0.0000   0.0000   0.0000   0.1205
  -5.600  -0.3962   0.01382   0.00682  -0.0490  0.9322  0.1463  -2.3485   0.0000   0.0000   0.0000   0.1156
  -5.500  -0.3829   0.01374   0.00673  -0.0494  0.9300  0.1483  -2.2964   0.0000   0.0000   0.0000   0.1099
  -5.400  -0.3692   0.01367   0.00663  -0.0500  0.9279  0.1497  -2.2438   0.0000   0.0000   0.0000   0.1036
  -5.300  -0.3558   0.01354   0.00651  -0.0505  0.9257  0.1536  -2.1930   0.0000   0.0000   0.0000   0.0970
  -5.200  -0.3427   0.01336   0.00634  -0.0510  0.9236  0.1618  -2.1438   0.0000   0.0000   0.0000   0.0900
  -5.100  -0.3293   0.01318   0.00622  -0.0515  0.9215  0.1699  -2.0936   0.0000   0.0000   0.0000   0.0822
  -5.000  -0.3159   0.01302   0.00611  -0.0521  0.9195  0.1774  -2.0431   0.0000   0.0000   0.0000   0.0736
  -4.900  -0.3022   0.01287   0.00601  -0.0526  0.9176  0.1841  -1.9925   0.0000   0.0000   0.0000   0.0641
  -4.800  -0.2885   0.01274   0.00590  -0.0532  0.9157  0.1899  -1.9420   0.0000   0.0000   0.0000   0.0537
  -4.700  -0.2746   0.01261   0.00579  -0.0538  0.9137  0.1948  -1.8915   0.0000   0.0000   0.0000   0.0420
  -4.600  -0.2604   0.01249   0.00566  -0.0544  0.9116  0.1987  -1.8408   0.0000   0.0000   0.0000   0.0288
  -4.500  -0.2459   0.01234   0.00553  -0.0550  0.9092  0.2057  -1.7903   0.0000   0.0000   0.0000   0.0135
  -4.400  -0.2320   0.01214   0.00539  -0.0557  0.9064  0.2169  -1.7412   0.0000   0.0000   0.0000  -0.0030
  -4.300  -0.2180   0.01198   0.00530  -0.0563  0.9028  0.2266  -1.6922   0.0000   0.0000   0.0000  -0.0215
  -4.200  -0.2061   0.01187   0.00524  -0.0565  0.8994  0.2346  -1.6474   0.0000   0.0000   0.0000  -0.0379
  -4.100  -0.1973   0.01178   0.00517  -0.0560  0.8977  0.2408  -1.6088   0.0000   0.0000   0.0000  -0.0478
  -4.000  -0.1882   0.01170   0.00510  -0.0555  0.8956  0.2458  -1.5700   0.0000   0.0000   0.0000  -0.0592
  -3.900  -0.1789   0.01164   0.00504  -0.0551  0.8932  0.2493  -1.5309   0.0000   0.0000   0.0000  -0.0727
  -3.800  -0.1698   0.01155   0.00497  -0.0547  0.8905  0.2563  -1.4930   0.0000   0.0000   0.0000  -0.0870
  -3.700  -0.1611   0.01141   0.00492  -0.0543  0.8873  0.2654  -1.4558   0.0000   0.0000   0.0000  -0.1019
  -3.600  -0.1521   0.01128   0.00487  -0.0539  0.8838  0.2734  -1.4182   0.0000   0.0000   0.0000  -0.1195
  -3.500  -0.1426   0.01117   0.00482  -0.0536  0.8801  0.2807  -1.3799   0.0000   0.0000   0.0000  -0.1413
  -3.400  -0.1327   0.01107   0.00476  -0.0533  0.8761  0.2873  -1.3410   0.0000   0.0000   0.0000  -0.1683
  -3.300  -0.1223   0.01100   0.00470  -0.0531  0.8719  0.2928  -1.3017   0.0000   0.0000   0.0000  -0.2017
  -3.200  -0.1116   0.01093   0.00464  -0.0530  0.8677  0.2970  -1.2620   0.0000   0.0000   0.0000  -0.2434
  -3.100  -0.1005   0.01088   0.00457  -0.0530  0.8632  0.3000  -1.2219   0.0000   0.0000   0.0000  -0.2964
  -3.000  -0.0893   0.01077   0.00448  -0.0530  0.8587  0.3126  -1.1825   0.0000   0.0000   0.0000  -0.3639
  -2.900  -0.0781   0.01065   0.00439  -0.0530  0.8541  0.3294  -1.1433   0.0000   0.0000   0.0000  -0.4512
  -2.800  -0.0670   0.01051   0.00433  -0.0529  0.8494  0.3462  -1.1045   0.0000   0.0000   0.0000  -0.5657
  -2.700  -0.0559   0.01036   0.00427  -0.0529  0.8445  0.3614  -1.0657   0.0000   0.0000   0.0000  -0.7272
  -2.600  -0.0444   0.01023   0.00421  -0.0530  0.8394  0.3755  -1.0268   0.0000   0.0000   0.0000  -0.9781
  -2.500  -0.0328   0.01013   0.00415  -0.0531  0.8340  0.3874  -0.9877   0.0000   0.0000   0.0000  -1.4164
  -2.400  -0.0208   0.01006   0.00409  -0.0532  0.8279  0.3961  -0.9486   0.0000   0.0000   0.0000  -2.3787
  -2.300  -0.0087   0.01001   0.00404  -0.0534  0.8209  0.4071  -0.9098   0.0000   0.0000   0.0000  -6.0443
  -2.200   0.0025   0.00992   0.00403  -0.0535  0.8124  0.4348  -0.8731   0.0000   0.0000   0.0000  22.2304
  -2.100   0.0133   0.00987   0.00412  -0.0536  0.8025  0.4581  -0.8371   0.0000   0.0000   0.0000   4.3570
  -2.000   0.0229   0.00978   0.00414  -0.0533  0.7990  0.4770  -0.8033   0.0000   0.0000   0.0000   2.6229
  -1.900   0.0325   0.00969   0.00411  -0.0529  0.7976  0.4919  -0.7740   0.0000   0.0000   0.0000   1.9114
  -1.800   0.0422   0.00961   0.00406  -0.0525  0.7957  0.5056  -0.7477   0.0000   0.0000   0.0000   1.5194
  -1.700   0.0506   0.00946   0.00404  -0.0519  0.7933  0.5348  -0.7246   0.0000   0.0000   0.0000   1.2958
  -1.600   0.0593   0.00933   0.00404  -0.0513  0.7903  0.5586  -0.7063   0.0000   0.0000   0.0000   1.1304
  -1.500   0.0687   0.00924   0.00403  -0.0509  0.7868  0.5785  -0.6876   0.0000   0.0000   0.0000   1.0023
  -1.400   0.0786   0.00918   0.00401  -0.0505  0.7828  0.5922  -0.6684   0.0000   0.0000   0.0000   0.9021
  -1.300   0.0889   0.00915   0.00398  -0.0503  0.7784  0.5999  -0.6522   0.0000   0.0000   0.0000   0.8230
  -1.200   0.0989   0.00905   0.00395  -0.0499  0.7736  0.6245  -0.6368   0.0000   0.0000   0.0000   0.7610
  -1.100   0.1087   0.00895   0.00394  -0.0495  0.7686  0.6459  -0.6215   0.0000   0.0000   0.0000   0.7107
  -1.000   0.1191   0.00888   0.00394  -0.0492  0.7632  0.6627  -0.6057   0.0000   0.0000   0.0000   0.6673
  -0.900   0.1300   0.00883   0.00391  -0.0490  0.7576  0.6761  -0.5899   0.0000   0.0000   0.0000   0.6303
  -0.800   0.1412   0.00879   0.00387  -0.0489  0.7516  0.6865  -0.5984   0.0000   0.0000   0.0000   0.5989
  -0.700   0.1525   0.00877   0.00382  -0.0488  0.7452  0.6942  -0.6070   0.0000   0.0000   0.0000   0.5720
  -0.600   0.1638   0.00876   0.00377  -0.0488  0.7380  0.6994  -0.6156   0.0000   0.0000   0.0000   0.5489
  -0.500   0.1756   0.00874   0.00374  -0.0488  0.7299  0.7152  -0.6243   0.0000   0.0000   0.0000   0.5287
  -0.400   0.1870   0.00872   0.00375  -0.0487  0.7204  0.7330  -0.6329   0.0000   0.0000   0.0000   0.5109
  -0.300   0.1986   0.00875   0.00381  -0.0487  0.7099  0.7494  -0.6414   0.0000   0.0000   0.0000   0.4953
  -0.200   0.2102   0.00881   0.00392  -0.0488  0.6998  0.7648  -0.6498   0.0000   0.0000   0.0000   0.4816
  -0.100   0.2203   0.00879   0.00395  -0.0484  0.6986  0.7785  -0.6578   0.0000   0.0000   0.0000   0.4690
   0.000   0.2303   0.00878   0.00397  -0.0481  0.6971  0.7897  -0.6685   0.0000   0.0000   0.0000   0.4577
   0.100   0.2401   0.00878   0.00398  -0.0477  0.6950  0.7977  -0.6796   0.0000   0.0000   0.0000   0.4474
   0.200   0.2507   0.00876   0.00399  -0.0475  0.6923  0.8116  -0.6912   0.0000   0.0000   0.0000   0.4379
   0.300   0.2616   0.00875   0.00402  -0.0473  0.6889  0.8288  -0.7031   0.0000   0.0000   0.0000   0.4289
   0.400   0.2727   0.00875   0.00406  -0.0471  0.6846  0.8426  -0.7152   0.0000   0.0000   0.0000   0.4207
   0.500   0.2840   0.00877   0.00409  -0.0469  0.6792  0.8552  -0.7273   0.0000   0.0000   0.0000   0.4131
   0.600   0.2949   0.00879   0.00411  -0.0467  0.6733  0.8676  -0.7394   0.0000   0.0000   0.0000   0.4060
   0.700   0.3054   0.00882   0.00411  -0.0464  0.6667  0.8787  -0.7511   0.0000   0.0000   0.0000   0.3994
   0.800   0.3152   0.00885   0.00409  -0.0459  0.6598  0.8880  -0.7624   0.0000   0.0000   0.0000   0.3931
   0.900   0.3241   0.00889   0.00408  -0.0454  0.6526  0.8953  -0.7733   0.0000   0.0000   0.0000   0.3871
   1.000   0.3331   0.00894   0.00406  -0.0448  0.6451  0.9008  -0.7841   0.0000   0.0000   0.0000   0.3814
   1.100   0.3478   0.00902   0.00408  -0.0454  0.6364  0.9079  -0.7985   0.0000   0.0000   0.0000   0.3773
   1.200   0.3625   0.00912   0.00412  -0.0460  0.6262  0.9139  -0.8130   0.0000   0.0000   0.0000   0.3737
   1.300   0.3776   0.00924   0.00418  -0.0468  0.6145  0.9194  -0.8275   0.0000   0.0000   0.0000   0.3705
   1.400   0.3928   0.00939   0.00429  -0.0476  0.6023  0.9246  -0.8421   0.0000   0.0000   0.0000   0.3677
   1.500   0.4065   0.00944   0.00434  -0.0481  0.5990  0.9303  -0.8560   0.0000   0.0000   0.0000   0.3646
   1.600   0.4188   0.00947   0.00437  -0.0482  0.5975  0.9362  -0.8693   0.0000   0.0000   0.0000   0.3614
   1.700   0.4303   0.00950   0.00440  -0.0482  0.5954  0.9420  -0.8820   0.0000   0.0000   0.0000   0.3582
   1.800   0.4403   0.00954   0.00443  -0.0479  0.5928  0.9473  -0.8938   0.0000   0.0000   0.0000   0.3548
   1.900   0.4530   0.00957   0.00444  -0.0482  0.5892  0.9515  -0.9074   0.0000   0.0000   0.0000   0.3522
   2.000   0.4708   0.00958   0.00443  -0.0496  0.5841  0.9546  -0.9243   0.0000   0.0000   0.0000   0.3511
   2.100   0.4884   0.00961   0.00442  -0.0510  0.5779  0.9576  -0.9418   0.0000   0.0000   0.0000   0.3500
   2.200   0.5059   0.00965   0.00441  -0.0523  0.5707  0.9604  -0.9655   0.0000   0.0000   0.0000   0.3490
   2.300   0.5231   0.00970   0.00440  -0.0536  0.5625  0.9634  -0.9892   0.0000   0.0000   0.0000   0.3479
   2.400   0.5403   0.00977   0.00438  -0.0549  0.5532  0.9668  -1.0130   0.0000   0.0000   0.0000   0.3470
   2.500   0.5570   0.00986   0.00437  -0.0561  0.5426  0.9706  -1.0365   0.0000   0.0000   0.0000   0.3460
   2.600   0.5733   0.00996   0.00438  -0.0572  0.5301  0.9747  -1.0596   0.0000   0.0000   0.0000   0.3450
   2.700   0.5896   0.01007   0.00442  -0.0584  0.5165  0.9787  -1.0826   0.0000   0.0000   0.0000   0.3441
   2.800   0.6059   0.01019   0.00448  -0.0595  0.5037  0.9822  -1.1057   0.0000   0.0000   0.0000   0.3432
   2.900   0.6225   0.01024   0.00451  -0.0607  0.4991  0.9859  -1.1517   0.0000   0.0000   0.0000   0.3424
   3.000   0.6392   0.01024   0.00453  -0.0620  0.4974  0.9896  -1.1987   0.0000   0.0000   0.0000   0.3417
   3.100   0.6559   0.01026   0.00455  -0.0632  0.4953  0.9929  -1.2463   0.0000   0.0000   0.0000   0.3410
   3.200   0.6733   0.01029   0.00458  -0.0645  0.4923  0.9960  -1.2954   0.0000   0.0000   0.0000   0.3404
   3.300   0.6909   0.01033   0.00460  -0.0659  0.4879  0.9986  -1.3454   0.0000   0.0000   0.0000   0.3399
   3.400   0.7054   0.01037   0.00462  -0.0667  0.4823  1.0000  -1.3906   0.0000   0.0000   0.0000   0.3390
   3.500   0.7140   0.01040   0.00462  -0.0664  0.4761  1.0000  -1.4258   0.0000   0.0000   0.0000   0.3372
   3.600   0.7225   0.01045   0.00463  -0.0659  0.4689  1.0000  -1.4608   0.0000   0.0000   0.0000   0.3354
   3.700   0.7307   0.01051   0.00463  -0.0655  0.4609  1.0000  -1.4957   0.0000   0.0000   0.0000   0.3336
   3.800   0.7386   0.01058   0.00463  -0.0649  0.4529  1.0000  -1.5303   0.0000   0.0000   0.0000   0.3318
   3.900   0.7463   0.01066   0.00464  -0.0644  0.4452  1.0000  -1.5647   0.0000   0.0000   0.0000   0.3301
   4.000   0.7538   0.01075   0.00467  -0.0637  0.4376  1.0000  -1.5987   0.0000   0.0000   0.0000   0.3283
   4.100   0.7610   0.01084   0.00471  -0.0631  0.4295  1.0000  -1.6325   0.0000   0.0000   0.0000   0.3265
   4.200   0.7684   0.01093   0.00477  -0.0624  0.4209  1.0000  -1.6667   0.0000   0.0000   0.0000   0.3248
   4.300   0.7761   0.01101   0.00483  -0.0619  0.4124  1.0000  -1.7017   0.0000   0.0000   0.0000   0.3231
   4.400   0.7844   0.01110   0.00489  -0.0614  0.4045  1.0000  -1.7377   0.0000   0.0000   0.0000   0.3215
   4.500   0.7928   0.01117   0.00496  -0.0610  0.3996  1.0000  -1.7745   0.0000   0.0000   0.0000   0.3200
   4.600   0.8014   0.01120   0.00500  -0.0605  0.3986  1.0000  -1.8119   0.0000   0.0000   0.0000   0.3186
   4.700   0.8099   0.01123   0.00504  -0.0601  0.3973  1.0000  -1.8495   0.0000   0.0000   0.0000   0.3171
   4.800   0.8183   0.01126   0.00508  -0.0596  0.3957  1.0000  -1.8873   0.0000   0.0000   0.0000   0.3157
   4.900   0.8268   0.01131   0.00513  -0.0591  0.3935  1.0000  -1.9252   0.0000   0.0000   0.0000   0.3143
   5.000   0.8352   0.01135   0.00517  -0.0587  0.3906  1.0000  -1.9633   0.0000   0.0000   0.0000   0.3129
   5.100   0.8435   0.01141   0.00522  -0.0582  0.3870  1.0000  -2.0014   0.0000   0.0000   0.0000   0.3115
   5.200   0.8517   0.01147   0.00527  -0.0576  0.3824  1.0000  -2.0396   0.0000   0.0000   0.0000   0.3101
   5.300   0.8597   0.01155   0.00532  -0.0571  0.3770  1.0000  -2.0777   0.0000   0.0000   0.0000   0.3087
   5.400   0.8676   0.01163   0.00537  -0.0565  0.3707  1.0000  -2.1156   0.0000   0.0000   0.0000   0.3073
   5.500   0.8753   0.01173   0.00542  -0.0559  0.3637  1.0000  -2.1534   0.0000   0.0000   0.0000   0.3059
   5.600   0.8827   0.01184   0.00548  -0.0552  0.3562  1.0000  -2.1908   0.0000   0.0000   0.0000   0.3045
   5.700   0.8897   0.01196   0.00553  -0.0545  0.3480  1.0000  -2.2276   0.0000   0.0000   0.0000   0.3031
   5.800   0.8964   0.01209   0.00559  -0.0537  0.3392  1.0000  -2.2638   0.0000   0.0000   0.0000   0.3016
   5.900   0.9026   0.01224   0.00568  -0.0528  0.3296  1.0000  -2.2992   0.0000   0.0000   0.0000   0.3001
   6.000   0.9089   0.01238   0.00577  -0.0519  0.3190  1.0000  -2.3349   0.0000   0.0000   0.0000   0.2986
   6.100   0.9158   0.01250   0.00587  -0.0511  0.3085  1.0000  -2.3718   0.0000   0.0000   0.0000   0.2972
   6.200   0.9235   0.01261   0.00598  -0.0505  0.2997  1.0000  -2.4104   0.0000   0.0000   0.0000   0.2959
   6.300   0.9320   0.01269   0.00606  -0.0500  0.2970  1.0000  -2.4511   0.0000   0.0000   0.0000   0.2948
   6.400   0.9402   0.01278   0.00614  -0.0495  0.2930  1.0000  -2.4916   0.0000   0.0000   0.0000   0.2937
   6.500   0.9480   0.01289   0.00623  -0.0490  0.2873  1.0000  -2.5313   0.0000   0.0000   0.0000   0.2925
   6.600   0.9552   0.01303   0.00631  -0.0483  0.2801  1.0000  -2.5699   0.0000   0.0000   0.0000   0.2913
   6.700   0.9614   0.01322   0.00641  -0.0474  0.2713  1.0000  -2.6066   0.0000   0.0000   0.0000   0.2899
   6.800   0.9660   0.01347   0.00652  -0.0463  0.2610  1.0000  -2.6402   0.0000   0.0000   0.0000   0.2884
   6.900   0.9705   0.01372   0.00665  -0.0452  0.2498  1.0000  -2.6733   0.0000   0.0000   0.0000   0.2869
   7.000   0.9780   0.01388   0.00677  -0.0446  0.2435  1.0000  -2.7128   0.0000   0.0000   0.0000   0.2858
   7.100   0.9851   0.01405   0.00690  -0.0439  0.2368  1.0000  -2.7517   0.0000   0.0000   0.0000   0.2847
   7.200   0.9917   0.01425   0.00705  -0.0432  0.2296  1.0000  -2.7895   0.0000   0.0000   0.0000   0.2835
   7.300   0.9976   0.01448   0.00721  -0.0423  0.2219  1.0000  -2.8258   0.0000   0.0000   0.0000   0.2823
   7.400   1.0030   0.01473   0.00738  -0.0414  0.2135  1.0000  -2.8611   0.0000   0.0000   0.0000   0.2810
   7.500   1.0093   0.01496   0.00755  -0.0407  0.2040  1.0000  -2.8982   0.0000   0.0000   0.0000   0.2798
   7.600   1.0174   0.01511   0.00769  -0.0402  0.1982  1.0000  -2.9391   0.0000   0.0000   0.0000   0.2789
   7.700   1.0258   0.01524   0.00783  -0.0398  0.1936  1.0000  -2.9810   0.0000   0.0000   0.0000   0.2781
   7.800   1.0336   0.01542   0.00798  -0.0393  0.1863  1.0000  -3.0212   0.0000   0.0000   0.0000   0.2772
   7.900   1.0399   0.01566   0.00816  -0.0386  0.1754  1.0000  -3.0582   0.0000   0.0000   0.0000   0.2761
   8.000   1.0442   0.01603   0.00842  -0.0376  0.1618  1.0000  -3.0902   0.0000   0.0000   0.0000   0.2749
   8.100   1.0493   0.01635   0.00866  -0.0367  0.1478  1.0000  -3.1234   0.0000   0.0000   0.0000   0.2737
   8.200   1.0552   0.01663   0.00888  -0.0359  0.1371  1.0000  -3.1573   0.0000   0.0000   0.0000   0.2726
   8.300   1.0585   0.01707   0.00917  -0.0348  0.1212  1.0000  -3.1842   0.0000   0.0000   0.0000   0.2713
   8.400   1.0590   0.01765   0.00997  -0.0331  0.0968  1.0000  -3.2151   0.0000   0.0000   0.0000   0.2696
   8.500   1.0579   0.01829   0.01047  -0.0313  0.0811  1.0000  -3.2384   0.0000   0.0000   0.0000   0.2677
   8.600   1.0560   0.01899   0.01099  -0.0294  0.0662  1.0000  -3.2496   0.0000   0.0000   0.0000   0.2658
   8.700   1.0500   0.01997   0.01185  -0.0267  0.0508  1.0000  -3.2182   0.0000   0.0000   0.0000   0.2633
   8.800   1.0579   0.02011   0.01197  -0.0264  0.0493  1.0000  -3.2758   0.0000   0.0000   0.0000   0.2626
   8.900   1.0653   0.02027   0.01215  -0.0259  0.0483  1.0000  -3.3282   0.0000   0.0000   0.0000   0.2619
   9.000   1.0718   0.02050   0.01239  -0.0253  0.0471  1.0000  -3.3716   0.0000   0.0000   0.0000   0.2611
   9.100   1.0778   0.02076   0.01267  -0.0247  0.0461  1.0000  -3.4097   0.0000   0.0000   0.0000   0.2602
   9.200   1.0834   0.02105   0.01297  -0.0239  0.0452  1.0000  -3.4449   0.0000   0.0000   0.0000   0.2592
   9.300   1.0886   0.02134   0.01329  -0.0232  0.0444  1.0000  -3.4789   0.0000   0.0000   0.0000   0.2582
   9.400   1.0933   0.02165   0.01361  -0.0223  0.0437  1.0000  -3.5120   0.0000   0.0000   0.0000   0.2572
   9.500   1.0980   0.02196   0.01394  -0.0215  0.0431  1.0000  -3.5448   0.0000   0.0000   0.0000   0.2562
   9.600   1.1026   0.02228   0.01428  -0.0207  0.0425  1.0000  -3.5777   0.0000   0.0000   0.0000   0.2553
   9.700   1.1073   0.02261   0.01463  -0.0199  0.0419  1.0000  -3.6109   0.0000   0.0000   0.0000   0.2543
   9.800   1.1121   0.02295   0.01499  -0.0191  0.0414  1.0000  -3.6439   0.0000   0.0000   0.0000   0.2534
   9.900   1.1166   0.02330   0.01537  -0.0184  0.0409  1.0000  -3.6768   0.0000   0.0000   0.0000   0.2525
  10.000   1.1212   0.02367   0.01576  -0.0177  0.0405  1.0000  -3.7095   0.0000   0.0000   0.0000   0.2516
  10.100   1.1253   0.02407   0.01618  -0.0169  0.0401  1.0000  -3.7413   0.0000   0.0000   0.0000   0.2507
  10.200   1.1288   0.02450   0.01663  -0.0161  0.0397  1.0000  -3.7714   0.0000   0.0000   0.0000   0.2498
  10.300   1.1323   0.02493   0.01709  -0.0153  0.0393  1.0000  -3.8018   0.0000   0.0000   0.0000   0.2489
  10.400   1.1362   0.02537   0.01755  -0.0146  0.0390  1.0000  -3.8329   0.0000   0.0000   0.0000   0.2481
  10.500   1.1403   0.02581   0.01801  -0.0140  0.0386  1.0000  -3.8646   0.0000   0.0000   0.0000   0.2472
  10.600   1.1445   0.02625   0.01848  -0.0133  0.0383  1.0000  -3.8966   0.0000   0.0000   0.0000   0.2465
  10.700   1.1487   0.02670   0.01894  -0.0127  0.0380  1.0000  -3.9287   0.0000   0.0000   0.0000   0.2457
  10.800   1.1529   0.02715   0.01942  -0.0121  0.0377  1.0000  -3.9607   0.0000   0.0000   0.0000   0.2450
  10.900   1.1571   0.02761   0.01991  -0.0115  0.0374  1.0000  -3.9929   0.0000   0.0000   0.0000   0.2443
  11.000   1.1613   0.02808   0.02040  -0.0109  0.0371  1.0000  -4.0250   0.0000   0.0000   0.0000   0.2435
  11.100   1.1654   0.02856   0.02090  -0.0104  0.0369  1.0000  -4.0567   0.0000   0.0000   0.0000   0.2429
  11.200   1.1693   0.02906   0.02142  -0.0098  0.0366  1.0000  -4.0880   0.0000   0.0000   0.0000   0.2422
  11.300   1.1731   0.02957   0.02196  -0.0092  0.0363  1.0000  -4.1188   0.0000   0.0000   0.0000   0.2415
  11.400   1.1766   0.03010   0.02252  -0.0087  0.0361  1.0000  -4.1491   0.0000   0.0000   0.0000   0.2408
  11.500   1.1798   0.03066   0.02310  -0.0081  0.0359  1.0000  -4.1786   0.0000   0.0000   0.0000   0.2401
  11.600   1.1817   0.03131   0.02379  -0.0075  0.0357  1.0000  -4.2041   0.0000   0.0000   0.0000   0.2394
  11.700   1.1828   0.03201   0.02452  -0.0069  0.0355  1.0000  -4.2276   0.0000   0.0000   0.0000   0.2387
  11.800   1.1847   0.03266   0.02521  -0.0064  0.0353  1.0000  -4.2531   0.0000   0.0000   0.0000   0.2381
  11.900   1.1870   0.03330   0.02588  -0.0059  0.0351  1.0000  -4.2800   0.0000   0.0000   0.0000   0.2374
  12.000   1.1897   0.03393   0.02654  -0.0054  0.0349  1.0000  -4.3076   0.0000   0.0000   0.0000   0.2368
  12.100   1.1925   0.03457   0.02720  -0.0049  0.0347  1.0000  -4.3355   0.0000   0.0000   0.0000   0.2362
  12.200   1.1952   0.03522   0.02788  -0.0045  0.0345  1.0000  -4.3634   0.0000   0.0000   0.0000   0.2356
  12.300   1.1980   0.03588   0.02857  -0.0041  0.0343  1.0000  -4.3912   0.0000   0.0000   0.0000   0.2351
  12.400   1.2007   0.03656   0.02928  -0.0036  0.0341  1.0000  -4.4188   0.0000   0.0000   0.0000   0.2345
  12.500   1.2038   0.03722   0.03016  -0.0030  0.0364  1.0000  -4.4039   0.0000   0.0000   0.0000   0.2338
  12.600   1.2063   0.03794   0.03094  -0.0025  0.0367  1.0000  -4.4201   0.0000   0.0000   0.0000   0.2332
  12.700   1.2088   0.03867   0.03171  -0.0021  0.0368  1.0000  -4.4415   0.0000   0.0000   0.0000   0.2327
  12.800   1.2112   0.03942   0.03249  -0.0017  0.0368  1.0000  -4.4644   0.0000   0.0000   0.0000   0.2321
  12.900   1.2133   0.04021   0.03332  -0.0013  0.0367  1.0000  -4.4873   0.0000   0.0000   0.0000   0.2316
  13.000   1.2137   0.04118   0.03433  -0.0011  0.0366  1.0000  -4.5057   0.0000   0.0000   0.0000   0.2312
  13.100   1.2141   0.04216   0.03536  -0.0008  0.0365  1.0000  -4.5242   0.0000   0.0000   0.0000   0.2308
  13.200   1.2154   0.04306   0.03630  -0.0006  0.0364  1.0000  -4.5456   0.0000   0.0000   0.0000   0.2304
  13.300   1.2171   0.04392   0.03720  -0.0003  0.0363  1.0000  -4.5687   0.0000   0.0000   0.0000   0.2300
  13.400   1.2191   0.04475   0.03807  -0.0001  0.0362  1.0000  -4.5926   0.0000   0.0000   0.0000   0.2296
  13.500   1.2211   0.04558   0.03893   0.0002  0.0361  1.0000  -4.6170   0.0000   0.0000   0.0000   0.2291
  13.600   1.2231   0.04641   0.03979   0.0004  0.0359  1.0000  -4.6416   0.0000   0.0000   0.0000   0.2288
  13.700   1.2251   0.04725   0.04066   0.0007  0.0358  1.0000  -4.6662   0.0000   0.0000   0.0000   0.2284
  13.800   1.2270   0.04809   0.04155   0.0009  0.0356  1.0000  -4.6906   0.0000   0.0000   0.0000   0.2280
  13.900   1.2288   0.04896   0.04245   0.0011  0.0355  1.0000  -4.7146   0.0000   0.0000   0.0000   0.2276
  14.000   1.2304   0.04985   0.04337   0.0013  0.0353  1.0000  -4.7380   0.0000   0.0000   0.0000   0.2273
  14.100   1.2318   0.05076   0.04433   0.0014  0.0352  1.0000  -4.7609   0.0000   0.0000   0.0000   0.2269
  14.200   1.2329   0.05172   0.04532   0.0015  0.0350  1.0000  -4.7828   0.0000   0.0000   0.0000   0.2266
  14.300   1.2337   0.05271   0.04635   0.0016  0.0349  1.0000  -4.8036   0.0000   0.0000   0.0000   0.2263
  14.400   1.2336   0.05383   0.04751   0.0017  0.0347  1.0000  -4.8210   0.0000   0.0000   0.0000   0.2261
  14.500   1.2308   0.05533   0.04906   0.0015  0.0346  1.0000  -4.8279   0.0000   0.0000   0.0000   0.2260
  14.600   1.2297   0.05663   0.05041   0.0014  0.0345  1.0000  -4.8410   0.0000   0.0000   0.0000   0.2258
  14.700   1.2295   0.05780   0.05161   0.0013  0.0344  1.0000  -4.8577   0.0000   0.0000   0.0000   0.2257
  14.800   1.2297   0.05890   0.05275   0.0013  0.0342  1.0000  -4.8756   0.0000   0.0000   0.0000   0.2255
  14.900   1.2298   0.05996   0.05385   0.0013  0.0341  1.0000  -4.8937   0.0000   0.0000   0.0000   0.2252
  15.000   1.2300   0.06103   0.05495   0.0013  0.0339  1.0000  -4.9116   0.0000   0.0000   0.0000   0.2250
  15.100   1.2301   0.06210   0.05607   0.0013  0.0338  1.0000  -4.9294   0.0000   0.0000   0.0000   0.2248
  15.200   1.2301   0.06321   0.05721   0.0013  0.0336  1.0000  -4.9468   0.0000   0.0000   0.0000   0.2246
  15.300   1.2300   0.06436   0.05840   0.0012  0.0335  1.0000  -4.9634   0.0000   0.0000   0.0000   0.2244
  15.400   1.2296   0.06555   0.05963   0.0012  0.0333  1.0000  -4.9789   0.0000   0.0000   0.0000   0.2242
  15.500   1.2290   0.06681   0.06093   0.0010  0.0332  1.0000  -4.9930   0.0000   0.0000   0.0000   0.2241
  15.600   1.2281   0.06815   0.06232   0.0008  0.0331  1.0000  -5.0060   0.0000   0.0000   0.0000   0.2241
  15.700   1.2267   0.06959   0.06380   0.0005  0.0329  1.0000  -5.0164   0.0000   0.0000   0.0000   0.2241
  15.800   1.2231   0.07142   0.06568  -0.0000  0.0328  1.0000  -5.0169   0.0000   0.0000   0.0000   0.2242
  15.900   1.2157   0.07389   0.06822  -0.0010  0.0328  1.0000  -5.0006   0.0000   0.0000   0.0000   0.2248
  16.000   1.2129   0.07560   0.06998  -0.0015  0.0327  1.0000  -5.0042   0.0000   0.0000   0.0000   0.2249
  16.100   1.2113   0.07712   0.07154  -0.0018  0.0326  1.0000  -5.0125   0.0000   0.0000   0.0000   0.2250
  16.200   1.2101   0.07857   0.07304  -0.0022  0.0324  1.0000  -5.0227   0.0000   0.0000   0.0000   0.2250
  16.300   1.2091   0.08000   0.07450  -0.0025  0.0323  1.0000  -5.0333   0.0000   0.0000   0.0000   0.2251
  16.400   1.2083   0.08144   0.07598  -0.0029  0.0321  1.0000  -5.0443   0.0000   0.0000   0.0000   0.2251
  16.500   1.2075   0.08290   0.07748  -0.0032  0.0319  1.0000  -5.0549   0.0000   0.0000   0.0000   0.2252
  16.600   1.2064   0.08439   0.07902  -0.0036  0.0318  1.0000  -5.0642   0.0000   0.0000   0.0000   0.2253
  16.700   1.2050   0.08595   0.08061  -0.0041  0.0316  1.0000  -5.0718   0.0000   0.0000   0.0000   0.2254
  16.800   1.2031   0.08758   0.08229  -0.0046  0.0315  1.0000  -5.0770   0.0000   0.0000   0.0000   0.2256
  16.900   1.2006   0.08931   0.08407  -0.0052  0.0314  1.0000  -5.0791   0.0000   0.0000   0.0000   0.2259
  17.000   1.1973   0.09119   0.08600  -0.0059  0.0312  1.0000  -5.0768   0.0000   0.0000   0.0000   0.2262
  17.100   1.1928   0.09329   0.08816  -0.0067  0.0312  1.0000  -5.0683   0.0000   0.0000   0.0000   0.2267
  17.200   1.1782   0.09726   0.09224  -0.0088  0.0313  1.0000  -5.0095   0.0000   0.0000   0.0000   0.2283
  17.300   1.1717   0.09986   0.09490  -0.0101  0.0312  1.0000  -4.9886   0.0000   0.0000   0.0000   0.2291
  17.400   1.1684   0.10185   0.09694  -0.0109  0.0311  1.0000  -4.9830   0.0000   0.0000   0.0000   0.2296
  17.500   1.1658   0.10367   0.09880  -0.0117  0.0310  1.0000  -4.9812   0.0000   0.0000   0.0000   0.2300
  17.600   1.1636   0.10541   0.10058  -0.0124  0.0308  1.0000  -4.9808   0.0000   0.0000   0.0000   0.2304
  17.700   1.1615   0.10713   0.10234  -0.0130  0.0307  1.0000  -4.9804   0.0000   0.0000   0.0000   0.2308
  17.800   1.1593   0.10886   0.10411  -0.0137  0.0305  1.0000  -4.9794   0.0000   0.0000   0.0000   0.2312
  17.900   1.1570   0.11061   0.10590  -0.0145  0.0304  1.0000  -4.9771   0.0000   0.0000   0.0000   0.2316
  18.000   1.1544   0.11243   0.10776  -0.0153  0.0302  1.0000  -4.9722   0.0000   0.0000   0.0000   0.2321
  18.100   1.1513   0.11432   0.10970  -0.0161  0.0301  1.0000  -4.9645   0.0000   0.0000   0.0000   0.2327
  18.200   1.1477   0.11632   0.11176  -0.0171  0.0300  1.0000  -4.9530   0.0000   0.0000   0.0000   0.2333
  18.300   1.1433   0.11848   0.11397  -0.0182  0.0298  1.0000  -4.9365   0.0000   0.0000   0.0000   0.2341
  18.400   1.1381   0.12088   0.11642  -0.0194  0.0297  1.0000  -4.9138   0.0000   0.0000   0.0000   0.2350
  18.500   1.1305   0.12387   0.11948  -0.0211  0.0297  1.0000  -4.8749   0.0000   0.0000   0.0000   0.2364
  18.600   1.1177   0.12805   0.12376  -0.0236  0.0298  1.0000  -4.8021   0.0000   0.0000   0.0000   0.2387
  18.700   1.1085   0.13131   0.12709  -0.0255  0.0299  1.0000  -4.7493   0.0000   0.0000   0.0000   0.2405
  18.800   1.0985   0.13466   0.13051  -0.0276  0.0299  1.0000  -4.6882   0.0000   0.0000   0.0000   0.2424
  18.900   1.0715   0.14165   0.13766  -0.0321  0.0304  1.0000  -4.5042   0.0000   0.0000   0.0000   0.2471
  19.900   0.8798   0.21631   0.21273  -0.0671  0.0308  1.0000  -2.3608   0.0000   0.0000   0.0000   0.2957
  20.000   0.8837   0.21686   0.21328  -0.0675  0.0303  1.0000  -2.4020   0.0000   0.0000   0.0000   0.2955
  20.100   0.8882   0.21721   0.21363  -0.0678  0.0298  1.0000  -2.4514   0.0000   0.0000   0.0000   0.2951
  20.200   0.8929   0.21741   0.21383  -0.0681  0.0293  1.0000  -2.5071   0.0000   0.0000   0.0000   0.2947
  20.300   0.8977   0.21757   0.21398  -0.0683  0.0288  1.0000  -2.5654   0.0000   0.0000   0.0000   0.2942
  20.400   0.9021   0.21784   0.21425  -0.0686  0.0283  1.0000  -2.6199   0.0000   0.0000   0.0000   0.2939
  20.500   0.9052   0.21853   0.21493  -0.0691  0.0277  1.0000  -2.6596   0.0000   0.0000   0.0000   0.2938
  20.600   0.9047   0.22050   0.21690  -0.0699  0.0269  1.0000  -2.6527   0.0000   0.0000   0.0000   0.2945
  20.700   0.8814   0.23108   0.22744  -0.0735  0.0247  1.0000  -2.3606   0.0000   0.0000   0.0000   0.3011
  20.800   0.8865   0.23143   0.22779  -0.0740  0.0245  1.0000  -2.4169   0.0000   0.0000   0.0000   0.3009
  20.900   0.8915   0.23185   0.22821  -0.0744  0.0243  1.0000  -2.4719   0.0000   0.0000   0.0000   0.3006
  21.000   0.8963   0.23233   0.22868  -0.0749  0.0240  1.0000  -2.5255   0.0000   0.0000   0.0000   0.3004
  21.100   0.9009   0.23288   0.22923  -0.0753  0.0237  1.0000  -2.5776   0.0000   0.0000   0.0000   0.3002
  21.200   0.9054   0.23351   0.22986  -0.0758  0.0234  1.0000  -2.6277   0.0000   0.0000   0.0000   0.3000
  21.300   0.9096   0.23424   0.23058  -0.0763  0.0230  1.0000  -2.6753   0.0000   0.0000   0.0000   0.2999
  21.400   0.9135   0.23509   0.23143  -0.0768  0.0225  1.0000  -2.7194   0.0000   0.0000   0.0000   0.2998
  21.500   0.9171   0.23610   0.23244  -0.0774  0.0220  1.0000  -2.7590   0.0000   0.0000   0.0000   0.2999
  21.600   0.9201   0.23733   0.23367  -0.0780  0.0213  1.0000  -2.7927   0.0000   0.0000   0.0000   0.3000
  21.700   0.9225   0.23887   0.23520  -0.0787  0.0206  1.0000  -2.8180   0.0000   0.0000   0.0000   0.3003
  21.800   0.9239   0.24081   0.23714  -0.0795  0.0197  1.0000  -2.8323   0.0000   0.0000   0.0000   0.3009
  21.900   0.9244   0.24316   0.23950  -0.0804  0.0187  1.0000  -2.8350   0.0000   0.0000   0.0000   0.3017
  22.000   0.9243   0.24575   0.24208  -0.0814  0.0179  1.0000  -2.8302   0.0000   0.0000   0.0000   0.3026
  22.100   0.9239   0.24844   0.24477  -0.0823  0.0172  1.0000  -2.8198   0.0000   0.0000   0.0000   0.3035
  22.200   0.9233   0.25124   0.24757  -0.0833  0.0167  1.0000  -2.8034   0.0000   0.0000   0.0000   0.3045
  22.300   0.9217   0.25451   0.25084  -0.0843  0.0164  1.0000  -2.7674   0.0000   0.0000   0.0000   0.3057
  22.400   0.9179   0.25895   0.25528  -0.0855  0.0162  1.0000  -2.6862   0.0000   0.0000   0.0000   0.3074
  22.500   0.8887   0.27750   0.27386  -0.0885  0.0196  1.0000  -2.0718   0.0000   0.0000   0.0000   0.3152
  22.600   0.8834   0.28268   0.27905  -0.0891  0.0217  1.0000  -1.9626   0.0000   0.0000   0.0000   0.3166
  22.700   0.8633   0.29704   0.29343  -0.0887  0.0249  1.0000  -1.6605   0.0000   0.0000   0.0000   0.3191
  22.800   0.8638   0.29963   0.29603  -0.0891  0.0249  1.0000  -1.6484   0.0000   0.0000   0.0000   0.3195
  22.900   0.8643   0.30218   0.29857  -0.0896  0.0249  1.0000  -1.6372   0.0000   0.0000   0.0000   0.3199
  23.000   0.8648   0.30469   0.30109  -0.0901  0.0249  1.0000  -1.6266   0.0000   0.0000   0.0000   0.3203
  23.100   0.8652   0.30717   0.30358  -0.0906  0.0249  1.0000  -1.6165   0.0000   0.0000   0.0000   0.3206
  23.200   0.8656   0.30964   0.30604  -0.0911  0.0249  1.0000  -1.6067   0.0000   0.0000   0.0000   0.3210
  23.300   0.8660   0.31208   0.30848  -0.0915  0.0250  1.0000  -1.5972   0.0000   0.0000   0.0000   0.3213
  23.400   0.8663   0.31450   0.31091  -0.0920  0.0250  1.0000  -1.5880   0.0000   0.0000   0.0000   0.3217
  23.500   0.8666   0.31690   0.31331  -0.0924  0.0250  1.0000  -1.5789   0.0000   0.0000   0.0000   0.3220
  23.600   0.8669   0.31928   0.31570  -0.0928  0.0250  1.0000  -1.5700   0.0000   0.0000   0.0000   0.3224
  23.700   0.8670   0.32165   0.31807  -0.0932  0.0250  1.0000  -1.5612   0.0000   0.0000   0.0000   0.3227
  23.800   0.8671   0.32399   0.32041  -0.0936  0.0250  1.0000  -1.5525   0.0000   0.0000   0.0000   0.3230
  23.900   0.8672   0.32631   0.32274  -0.0940  0.0250  1.0000  -1.5439   0.0000   0.0000   0.0000   0.3233
  24.000   0.8671   0.32861   0.32504  -0.0944  0.0250  1.0000  -1.5353   0.0000   0.0000   0.0000   0.3237
  24.100   0.8669   0.33088   0.32732  -0.0947  0.0250  1.0000  -1.5266   0.0000   0.0000   0.0000   0.3240
  24.200   0.8667   0.33313   0.32957  -0.0951  0.0250  1.0000  -1.5180   0.0000   0.0000   0.0000   0.3243
  24.300   0.8663   0.33535   0.33180  -0.0954  0.0250  1.0000  -1.5093   0.0000   0.0000   0.0000   0.3246
  24.400   0.8659   0.33754   0.33399  -0.0957  0.0250  1.0000  -1.5006   0.0000   0.0000   0.0000   0.3248
  24.500   0.8652   0.33969   0.33614  -0.0959  0.0250  1.0000  -1.4917   0.0000   0.0000   0.0000   0.3251
  24.600   0.8645   0.34179   0.33826  -0.0962  0.0250  1.0000  -1.4826   0.0000   0.0000   0.0000   0.3254
  24.700   0.8634   0.34375   0.34021  -0.0964  0.0250  1.0000  -1.4729   0.0000   0.0000   0.0000   0.3257
  24.800   0.8619   0.34546   0.34193  -0.0967  0.0249  1.0000  -1.4621   0.0000   0.0000   0.0000   0.3261
  24.900   0.8601   0.34710   0.34358  -0.0969  0.0249  1.0000  -1.4511   0.0000   0.0000   0.0000   0.3265
  25.000   0.8581   0.34864   0.34513  -0.0971  0.0249  1.0000  -1.4398   0.0000   0.0000   0.0000   0.3269
  25.100   0.8557   0.35007   0.34657  -0.0972  0.0249  1.0000  -1.4282   0.0000   0.0000   0.0000   0.3273
  25.200   0.8529   0.35136   0.34786  -0.0972  0.0249  1.0000  -1.4160   0.0000   0.0000   0.0000   0.3276
  25.300   0.8495   0.35246   0.34897  -0.0972  0.0248  1.0000  -1.4028   0.0000   0.0000   0.0000   0.3280
  25.400   0.7937   0.33926   0.33586  -0.0884  0.0248  1.0000  -1.2829   0.0000   0.0000   0.0000   0.3268
  25.500   0.7858   0.33821   0.33483  -0.0876  0.0248  1.0000  -1.2612   0.0000   0.0000   0.0000   0.3270
  25.600   0.7798   0.33760   0.33423  -0.0870  0.0248  1.0000  -1.2434   0.0000   0.0000   0.0000   0.3273
  25.700   0.7748   0.33722   0.33386  -0.0866  0.0247  1.0000  -1.2281   0.0000   0.0000   0.0000   0.3275
  25.800   0.7705   0.33698   0.33363  -0.0863  0.0247  1.0000  -1.2145   0.0000   0.0000   0.0000   0.3278
  25.900   0.7667   0.33681   0.33348  -0.0861  0.0246  1.0000  -1.2021   0.0000   0.0000   0.0000   0.3281
  26.000   0.7633   0.33672   0.33340  -0.0859  0.0246  1.0000  -1.1909   0.0000   0.0000   0.0000   0.3285
  26.100   0.7603   0.33669   0.33337  -0.0859  0.0245  1.0000  -1.1809   0.0000   0.0000   0.0000   0.3288
  26.200   0.7576   0.33669   0.33338  -0.0858  0.0245  1.0000  -1.1721   0.0000   0.0000   0.0000   0.3291
  26.300   0.7553   0.33673   0.33343  -0.0858  0.0244  1.0000  -1.1645   0.0000   0.0000   0.0000   0.3294
  26.400   0.7533   0.33677   0.33348  -0.0859  0.0243  1.0000  -1.1579   0.0000   0.0000   0.0000   0.3298
  26.500   0.7515   0.33681   0.33353  -0.0860  0.0242  1.0000  -1.1523   0.0000   0.0000   0.0000   0.3301
  26.600   0.7502   0.33687   0.33359  -0.0862  0.0240  1.0000  -1.1485   0.0000   0.0000   0.0000   0.3305
  26.700   0.7495   0.33694   0.33366  -0.0865  0.0238  1.0000  -1.1472   0.0000   0.0000   0.0000   0.3309
  26.800   0.7493   0.33701   0.33374  -0.0870  0.0234  1.0000  -1.1442   0.0000   0.0000   0.0000   0.3316
  26.900   0.7515   0.33754   0.33428  -0.0882  0.0224  1.0000  -1.1429   0.0000   0.0000   0.0000   0.3325
  27.000   0.7539   0.33867   0.33541  -0.0892  0.0206  1.0000  -1.1363   0.0000   0.0000   0.0000   0.3334
  27.100   0.7535   0.33925   0.33600  -0.0895  0.0193  1.0000  -1.1349   0.0000   0.0000   0.0000   0.3338
  27.200   0.7527   0.33963   0.33638  -0.0897  0.0184  1.0000  -1.1381   0.0000   0.0000   0.0000   0.3340
  27.300   0.7519   0.33990   0.33666  -0.0899  0.0176  1.0000  -1.1445   0.0000   0.0000   0.0000   0.3342
  27.400   0.7511   0.34013   0.33689  -0.0900  0.0169  1.0000  -1.1535   0.0000   0.0000   0.0000   0.3344
  27.500   0.7505   0.34031   0.33708  -0.0901  0.0164  1.0000  -1.1648   0.0000   0.0000   0.0000   0.3345
  27.600   0.7500   0.34046   0.33723  -0.0902  0.0159  1.0000  -1.1782   0.0000   0.0000   0.0000   0.3346
  27.700   0.7495   0.34058   0.33735  -0.0904  0.0155  1.0000  -1.1935   0.0000   0.0000   0.0000   0.3346
  27.800   0.7492   0.34066   0.33744  -0.0905  0.0151  1.0000  -1.2106   0.0000   0.0000   0.0000   0.3347
  27.900   0.7490   0.34072   0.33751  -0.0906  0.0148  1.0000  -1.2293   0.0000   0.0000   0.0000   0.3346
  28.000   0.7488   0.34076   0.33754  -0.0906  0.0146  1.0000  -1.2494   0.0000   0.0000   0.0000   0.3346
  28.100   0.7487   0.34077   0.33756  -0.0907  0.0143  1.0000  -1.2710   0.0000   0.0000   0.0000   0.3345
  28.200   0.7487   0.34075   0.33755  -0.0908  0.0141  1.0000  -1.2939   0.0000   0.0000   0.0000   0.3343
  28.300   0.7488   0.34072   0.33752  -0.0908  0.0139  1.0000  -1.3181   0.0000   0.0000   0.0000   0.3341
  28.400   0.7489   0.34067   0.33747  -0.0908  0.0137  1.0000  -1.3436   0.0000   0.0000   0.0000   0.3339
  28.500   0.7490   0.34062   0.33742  -0.0907  0.0136  1.0000  -1.3704   0.0000   0.0000   0.0000   0.3336
  28.600   0.7492   0.34057   0.33738  -0.0906  0.0134  1.0000  -1.3986   0.0000   0.0000   0.0000   0.3332
  28.700   0.7323   0.34274   0.33953  -0.0887  0.0125  1.0000  -1.2260   0.0000   0.0000   0.0000   0.3345
  28.800   0.7309   0.34326   0.34007  -0.0889  0.0125  1.0000  -1.2120   0.0000   0.0000   0.0000   0.3350
  28.900   0.7296   0.34379   0.34060  -0.0892  0.0125  1.0000  -1.1986   0.0000   0.0000   0.0000   0.3354
  29.000   0.7284   0.34433   0.34115  -0.0894  0.0124  1.0000  -1.1856   0.0000   0.0000   0.0000   0.3359
  29.100   0.7272   0.34486   0.34169  -0.0896  0.0124  1.0000  -1.1732   0.0000   0.0000   0.0000   0.3363
  29.200   0.7261   0.34541   0.34224  -0.0898  0.0124  1.0000  -1.1611   0.0000   0.0000   0.0000   0.3368
  29.300   0.7250   0.34595   0.34279  -0.0901  0.0124  1.0000  -1.1495   0.0000   0.0000   0.0000   0.3372
  29.400   0.7240   0.34650   0.34335  -0.0903  0.0124  1.0000  -1.1383   0.0000   0.0000   0.0000   0.3376
  29.500   0.7230   0.34705   0.34391  -0.0905  0.0123  1.0000  -1.1269   0.0000   0.0000   0.0000   0.3381
  29.600   0.7221   0.34760   0.34446  -0.0908  0.0123  1.0000  -1.1156   0.0000   0.0000   0.0000   0.3385
  29.700   0.7212   0.34815   0.34502  -0.0911  0.0123  1.0000  -1.1048   0.0000   0.0000   0.0000   0.3389
  29.800   0.7203   0.34870   0.34559  -0.0913  0.0123  1.0000  -1.0943   0.0000   0.0000   0.0000   0.3394
  29.900   0.7195   0.34926   0.34615  -0.0916  0.0123  1.0000  -1.0841   0.0000   0.0000   0.0000   0.3398
  30.000   0.7187   0.34983   0.34672  -0.0918  0.0123  1.0000  -1.0743   0.0000   0.0000   0.0000   0.3402


