xflr5 v6.61

 Calculated polar for: NACA 65-206

 1 1 Reynolds number fixed          Mach number fixed         

 xtrf =   1.000 (top)        1.000 (bottom)
 Mach =   0.000     Re =     0.450 e 6     Ncrit =   9.000

  alpha     CL        CD       CDp       Cm    Top Xtr Bot Xtr   Cpmin    Chinge    XCp    
 ------- -------- --------- --------- -------- ------- ------- -------- --------- ---------
 -10.000  -0.3821   0.04496   0.04310   0.0401  0.8640  0.0079  -0.8958   0.0000   0.0000   0.0000   0.3575
  -9.900  -0.3826   0.04438   0.04252   0.0403  0.8618  0.0079  -0.9084   0.0000   0.0000   0.0000   0.3580
  -9.800  -0.3830   0.04376   0.04191   0.0405  0.8596  0.0079  -0.9212   0.0000   0.0000   0.0000   0.3584
  -9.700  -0.3834   0.04200   0.04017   0.0421  0.8550  0.0083  -0.9107   0.0000   0.0000   0.0000   0.3624
  -9.600  -0.3787   0.04056   0.03875   0.0423  0.8501  0.0086  -0.8179   0.0000   0.0000   0.0000   0.3646
  -9.500  -0.3746   0.03901   0.03721   0.0420  0.8488  0.0089  -0.7741   0.0000   0.0000   0.0000   0.3651
  -9.400  -0.3707   0.03751   0.03571   0.0415  0.8473  0.0091  -0.7455   0.0000   0.0000   0.0000   0.3651
  -9.300  -0.3669   0.03603   0.03424   0.0410  0.8455  0.0095  -0.7257   0.0000   0.0000   0.0000   0.3649
  -9.200  -0.3632   0.03458   0.03279   0.0404  0.8435  0.0098  -0.7120   0.0000   0.0000   0.0000   0.3645
  -9.100  -0.3595   0.03315   0.03137   0.0398  0.8412  0.0101  -0.7035   0.0000   0.0000   0.0000   0.3641
  -9.000  -0.3561   0.03181   0.03003   0.0392  0.8387  0.0105  -0.7001   0.0000   0.0000   0.0000   0.3636
  -8.900  -0.3529   0.03056   0.02878   0.0387  0.8363  0.0109  -0.7019   0.0000   0.0000   0.0000   0.3630
  -8.800  -0.3501   0.02942   0.02765   0.0381  0.8338  0.0113  -0.7095   0.0000   0.0000   0.0000   0.3623
  -8.700  -0.3478   0.02842   0.02665   0.0375  0.8316  0.0117  -0.7227   0.0000   0.0000   0.0000   0.3613
  -8.600  -0.3460   0.02754   0.02577   0.0368  0.8295  0.0120  -0.7396   0.0000   0.0000   0.0000   0.3599
  -8.500  -0.3443   0.02677   0.02500   0.0361  0.8276  0.0123  -0.7560   0.0000   0.0000   0.0000   0.3585
  -8.400  -0.3422   0.02614   0.02437   0.0356  0.8259  0.0126  -0.7607   0.0000   0.0000   0.0000   0.3577
  -8.300  -0.3403   0.02547   0.02370   0.0352  0.8241  0.0127  -0.7636   0.0000   0.0000   0.0000   0.3570
  -8.200  -0.3389   0.02475   0.02299   0.0348  0.8221  0.0128  -0.7684   0.0000   0.0000   0.0000   0.3564
  -8.100  -0.3378   0.02402   0.02225   0.0345  0.8201  0.0129  -0.7748   0.0000   0.0000   0.0000   0.3559
  -8.000  -0.3370   0.02329   0.02153   0.0343  0.8182  0.0129  -0.7823   0.0000   0.0000   0.0000   0.3555
  -7.900  -0.3364   0.02257   0.02081   0.0341  0.8162  0.0130  -0.7907   0.0000   0.0000   0.0000   0.3552
  -7.800  -0.3360   0.02187   0.02012   0.0340  0.8144  0.0130  -0.7998   0.0000   0.0000   0.0000   0.3549
  -7.700  -0.3357   0.02119   0.01943   0.0339  0.8125  0.0130  -0.8095   0.0000   0.0000   0.0000   0.3546
  -7.600  -0.3377   0.01991   0.01818   0.0339  0.8099  0.0132  -0.8730   0.0000   0.0000   0.0000   0.3539
  -7.500  -0.3406   0.01836   0.01663   0.0340  0.8062  0.0136  -0.9416   0.0000   0.0000   0.0000   0.3535
  -7.400  -0.3374   0.01683   0.01512   0.0342  0.7999  0.0144  -0.8953   0.0000   0.0000   0.0000   0.3550
  -7.300  -0.4800   0.07117   0.06845  -0.0313  1.0000  0.0080  -2.4134   0.0000   0.0000   0.0000   0.1833
  -7.200  -0.4854   0.06906   0.06632  -0.0317  1.0000  0.0081  -2.4892   0.0000   0.0000   0.0000   0.1832
  -7.100  -0.4887   0.06740   0.06465  -0.0318  1.0000  0.0082  -2.5031   0.0000   0.0000   0.0000   0.1835
  -7.000  -0.4904   0.06611   0.06337  -0.0316  1.0000  0.0083  -2.4618   0.0000   0.0000   0.0000   0.1842
  -6.900  -0.4911   0.06495   0.06220  -0.0314  1.0000  0.0085  -2.4085   0.0000   0.0000   0.0000   0.1848
  -6.800  -0.4912   0.06380   0.06105  -0.0313  1.0000  0.0086  -2.3590   0.0000   0.0000   0.0000   0.1851
  -6.700  -0.4909   0.06260   0.05985  -0.0313  1.0000  0.0087  -2.3190   0.0000   0.0000   0.0000   0.1851
  -6.600  -0.4901   0.06137   0.05860  -0.0314  1.0000  0.0089  -2.2858   0.0000   0.0000   0.0000   0.1849
  -6.500  -0.4889   0.06009   0.05731  -0.0315  1.0000  0.0090  -2.2592   0.0000   0.0000   0.0000   0.1846
  -6.400  -0.4873   0.05879   0.05598  -0.0316  1.0000  0.0092  -2.2377   0.0000   0.0000   0.0000   0.1842
  -6.300  -0.4855   0.05747   0.05463  -0.0316  1.0000  0.0094  -2.2205   0.0000   0.0000   0.0000   0.1839
  -6.200  -0.4832   0.05612   0.05326  -0.0317  1.0000  0.0096  -2.2070   0.0000   0.0000   0.0000   0.1835
  -6.100  -0.4805   0.05477   0.05187  -0.0317  1.0000  0.0099  -2.1973   0.0000   0.0000   0.0000   0.1831
  -6.000  -0.4773   0.05340   0.05046  -0.0317  1.0000  0.0102  -2.1916   0.0000   0.0000   0.0000   0.1828
  -5.900  -0.4738   0.05204   0.04906  -0.0316  1.0000  0.0105  -2.1909   0.0000   0.0000   0.0000   0.1825
  -5.800  -0.4693   0.05071   0.04767  -0.0314  1.0000  0.0109  -2.1967   0.0000   0.0000   0.0000   0.1822
  -5.700  -0.4629   0.04953   0.04643  -0.0312  1.0000  0.0115  -2.2068   0.0000   0.0000   0.0000   0.1818
  -5.600  -0.4521   0.04917   0.04599  -0.0307  1.0000  0.0123  -2.1961   0.0000   0.0000   0.0000   0.1813
  -5.500  -0.4418   0.04921   0.04596  -0.0300  1.0000  0.0128  -2.1557   0.0000   0.0000   0.0000   0.1812
  -5.400  -0.4362   0.04839   0.04505  -0.0295  1.0000  0.0129  -2.1503   0.0000   0.0000   0.0000   0.1816
  -5.300  -0.4312   0.04735   0.04392  -0.0290  1.0000  0.0130  -2.1511   0.0000   0.0000   0.0000   0.1819
  -5.200  -0.4228   0.04093   0.03724  -0.0322  0.9982  0.0137  -2.4144   0.0000   0.0000   0.0000   0.1729
  -5.100  -0.4157   0.03786   0.03409  -0.0337  0.9969  0.0145  -2.3889   0.0000   0.0000   0.0000   0.1680
  -5.000  -0.4076   0.03659   0.03284  -0.0346  0.9958  0.0153  -2.2363   0.0000   0.0000   0.0000   0.1644
  -4.900  -0.3977   0.03548   0.03170  -0.0354  0.9945  0.0163  -2.1093   0.0000   0.0000   0.0000   0.1603
  -4.800  -0.3862   0.03433   0.03050  -0.0362  0.9930  0.0176  -2.0116   0.0000   0.0000   0.0000   0.1556
  -4.700  -0.3732   0.03318   0.02926  -0.0369  0.9911  0.0192  -1.9376   0.0000   0.0000   0.0000   0.1503
  -4.600  -0.3592   0.03183   0.02780  -0.0376  0.9888  0.0203  -1.8986   0.0000   0.0000   0.0000   0.1445
  -4.500  -0.3452   0.03059   0.02644  -0.0382  0.9864  0.0214  -1.8616   0.0000   0.0000   0.0000   0.1386
  -4.400  -0.3310   0.02967   0.02542  -0.0386  0.9841  0.0226  -1.8136   0.0000   0.0000   0.0000   0.1326
  -4.300  -0.3162   0.02951   0.02519  -0.0387  0.9820  0.0241  -1.7345   0.0000   0.0000   0.0000   0.1267
  -4.200  -0.3010   0.02993   0.02553  -0.0388  0.9800  0.0251  -1.6335   0.0000   0.0000   0.0000   0.1205
  -4.100  -0.2879   0.02904   0.02451  -0.0391  0.9779  0.0253  -1.5874   0.0000   0.0000   0.0000   0.1134
  -4.000  -0.2751   0.02783   0.02317  -0.0395  0.9758  0.0254  -1.5525   0.0000   0.0000   0.0000   0.1056
  -3.500  -0.2083   0.01426   0.00821  -0.0407  0.9632  0.0148  -2.0108   0.0000   0.0000   0.0000   0.0533
  -3.400  -0.1936   0.01428   0.00817  -0.0409  0.9610  0.0134  -1.9121   0.0000   0.0000   0.0000   0.0373
  -3.300  -0.1800   0.01309   0.00687  -0.0410  0.9587  0.0133  -1.9060   0.0000   0.0000   0.0000   0.0205
  -3.200  -0.1681   0.01101   0.00467  -0.0411  0.9562  0.0164  -1.9769   0.0000   0.0000   0.0000   0.0042
  -3.100  -0.1549   0.01113   0.00487  -0.0418  0.9539  0.0195  -1.7623   0.0000   0.0000   0.0000  -0.0212
  -3.000  -0.1418   0.01104   0.00480  -0.0424  0.9512  0.0213  -1.5815   0.0000   0.0000   0.0000  -0.0503
  -2.900  -0.1307   0.01087   0.00463  -0.0425  0.9488  0.0223  -1.4424   0.0000   0.0000   0.0000  -0.0765
  -2.800  -0.1206   0.01069   0.00444  -0.0423  0.9464  0.0229  -1.3907   0.0000   0.0000   0.0000  -0.1021
  -2.600  -0.0993   0.01093   0.00473  -0.0424  0.9410  0.0267  -1.2068   0.0000   0.0000   0.0000  -0.1789
  -2.500  -0.0889   0.01055   0.00433  -0.0423  0.9377  0.0268  -1.1821   0.0000   0.0000   0.0000  -0.2279
  -2.400  -0.0781   0.01035   0.00413  -0.0423  0.9343  0.0264  -1.1469   0.0000   0.0000   0.0000  -0.2941
  -2.300  -0.0671   0.01015   0.00392  -0.0424  0.9310  0.0261  -1.1132   0.0000   0.0000   0.0000  -0.3828
  -2.200  -0.0562   0.00993   0.00370  -0.0424  0.9277  0.0258  -1.0814   0.0000   0.0000   0.0000  -0.5072
  -2.000  -0.0342   0.00934   0.00305  -0.0425  0.9210  0.0255  -1.0376   0.0000   0.0000   0.0000  -0.9940
  -1.900  -0.0232   0.00906   0.00273  -0.0426  0.9176  0.0255  -1.0177   0.0000   0.0000   0.0000  -1.5886
  -1.800  -0.0121   0.00883   0.00247  -0.0427  0.9143  0.0255  -0.9943   0.0000   0.0000   0.0000  -3.2820
  -1.700  -0.0010   0.00865   0.00225  -0.0427  0.9109  0.0255  -0.9682   0.0000   0.0000   0.0000  -43.7757
  -1.600   0.0101   0.00845   0.00201  -0.0428  0.9074  0.0259  -0.9491   0.0000   0.0000   0.0000   4.4779
  -1.400   0.0326   0.00792   0.00134  -0.0428  0.8995  0.0569  -1.0247   0.0000   0.0000   0.0000   1.5642
  -1.300   0.0392   0.00596   0.00119  -0.0434  0.8973  0.5797  -1.0062   0.0000   0.0000   0.0000   1.3600
  -1.200   0.0474   0.00560   0.00125  -0.0429  0.8951  0.6968  -0.9660   0.0000   0.0000   0.0000   1.1576
  -1.100   0.0561   0.00546   0.00130  -0.0424  0.8927  0.7487  -0.9213   0.0000   0.0000   0.0000   1.0066
  -1.000   0.0644   0.00536   0.00135  -0.0417  0.8899  0.7854  -0.8764   0.0000   0.0000   0.0000   0.8982
  -0.900   0.0720   0.00529   0.00140  -0.0407  0.8867  0.8207  -0.8325   0.0000   0.0000   0.0000   0.8167
  -0.800   0.0800   0.00528   0.00145  -0.0399  0.8835  0.8477  -0.7876   0.0000   0.0000   0.0000   0.7495
  -0.700   0.0876   0.00525   0.00147  -0.0390  0.8802  0.8658  -0.7439   0.0000   0.0000   0.0000   0.6955
  -0.600   0.0971   0.00524   0.00147  -0.0386  0.8769  0.8727  -0.6965   0.0000   0.0000   0.0000   0.6483
  -0.500   0.1073   0.00523   0.00145  -0.0385  0.8735  0.8770  -0.6481   0.0000   0.0000   0.0000   0.6091
  -0.400   0.1175   0.00523   0.00144  -0.0384  0.8699  0.8808  -0.5999   0.0000   0.0000   0.0000   0.5767
  -0.300   0.1279   0.00523   0.00142  -0.0383  0.8662  0.8842  -0.5519   0.0000   0.0000   0.0000   0.5495
  -0.200   0.1384   0.00523   0.00140  -0.0383  0.8624  0.8870  -0.5042   0.0000   0.0000   0.0000   0.5264
  -0.100   0.1491   0.00523   0.00139  -0.0382  0.8587  0.8892  -0.4569   0.0000   0.0000   0.0000   0.5066
   0.000   0.1598   0.00524   0.00138  -0.0383  0.8549  0.8909  -0.4100   0.0000   0.0000   0.0000   0.4895
   0.100   0.1707   0.00525   0.00137  -0.0384  0.8513  0.8924  -0.4198   0.0000   0.0000   0.0000   0.4747
   0.200   0.1817   0.00526   0.00137  -0.0385  0.8492  0.8939  -0.4696   0.0000   0.0000   0.0000   0.4618
   0.300   0.1927   0.00526   0.00137  -0.0386  0.8469  0.8949  -0.5196   0.0000   0.0000   0.0000   0.4503
   0.400   0.2036   0.00526   0.00138  -0.0387  0.8458  0.8974  -0.5718   0.0000   0.0000   0.0000   0.4401
   0.500   0.2145   0.00527   0.00139  -0.0388  0.8445  0.8995  -0.6251   0.0000   0.0000   0.0000   0.4309
   0.600   0.2251   0.00527   0.00140  -0.0389  0.8428  0.9030  -0.6784   0.0000   0.0000   0.0000   0.4224
   0.700   0.2355   0.00526   0.00140  -0.0388  0.8407  0.9064  -0.7322   0.0000   0.0000   0.0000   0.4146
   0.800   0.2459   0.00526   0.00141  -0.0388  0.8383  0.9096  -0.7867   0.0000   0.0000   0.0000   0.4074
   0.900   0.2564   0.00526   0.00142  -0.0388  0.8353  0.9127  -0.8418   0.0000   0.0000   0.0000   0.4008
   1.000   0.2668   0.00526   0.00143  -0.0387  0.8317  0.9157  -0.8975   0.0000   0.0000   0.0000   0.3947
   1.100   0.2771   0.00526   0.00144  -0.0386  0.8273  0.9188  -0.9537   0.0000   0.0000   0.0000   0.3889
   1.200   0.2873   0.00527   0.00144  -0.0385  0.8217  0.9219  -1.0101   0.0000   0.0000   0.0000   0.3834
   1.300   0.2970   0.00529   0.00142  -0.0381  0.8119  0.9252  -1.0656   0.0000   0.0000   0.0000   0.3780
   1.400   0.3062   0.00533   0.00139  -0.0377  0.7952  0.9285  -1.1205   0.0000   0.0000   0.0000   0.3726
   1.500   0.3145   0.00539   0.00133  -0.0369  0.7622  0.9320  -1.1731   0.0000   0.0000   0.0000   0.3669
   1.600   0.3227   0.00551   0.00128  -0.0363  0.7208  0.9353  -1.2253   0.0000   0.0000   0.0000   0.3617
   1.700   0.3311   0.00567   0.00125  -0.0357  0.6766  0.9385  -1.2768   0.0000   0.0000   0.0000   0.3570
   1.800   0.3384   0.00597   0.00124  -0.0349  0.6086  0.9418  -1.3240   0.0000   0.0000   0.0000   0.3525
   1.900   0.3428   0.00672   0.00131  -0.0339  0.4485  0.9455  -1.3602   0.0000   0.0000   0.0000   0.3481
   2.000   0.3455   0.00802   0.00161  -0.0331  0.1953  0.9491  -1.3838   0.0000   0.0000   0.0000   0.3450
   2.100   0.3527   0.00912   0.00212  -0.0327  0.0243  0.9557  -1.2969   0.0000   0.0000   0.0000   0.3419
   2.200   0.3645   0.00923   0.00226  -0.0330  0.0240  0.9603  -1.3381   0.0000   0.0000   0.0000   0.3396
   2.300   0.3764   0.00935   0.00243  -0.0333  0.0237  0.9654  -1.3777   0.0000   0.0000   0.0000   0.3375
   2.400   0.3883   0.00951   0.00262  -0.0336  0.0235  0.9709  -1.4156   0.0000   0.0000   0.0000   0.3355
   2.500   0.4002   0.00969   0.00285  -0.0338  0.0234  0.9769  -1.4519   0.0000   0.0000   0.0000   0.3336
   2.600   0.4118   0.00990   0.00309  -0.0341  0.0233  0.9835  -1.4861   0.0000   0.0000   0.0000   0.3317
   2.700   0.4230   0.01014   0.00338  -0.0342  0.0233  0.9912  -1.5179   0.0000   0.0000   0.0000   0.3298
   2.800   0.4336   0.01042   0.00369  -0.0342  0.0233  1.0000  -1.5472   0.0000   0.0000   0.0000   0.3278
   2.900   0.4433   0.01073   0.00403  -0.0340  0.0234  1.0000  -1.5734   0.0000   0.0000   0.0000   0.3257
   3.000   0.4529   0.01109   0.00441  -0.0338  0.0235  1.0000  -1.5975   0.0000   0.0000   0.0000   0.3235
   3.100   0.4623   0.01149   0.00484  -0.0336  0.0236  1.0000  -1.6192   0.0000   0.0000   0.0000   0.3214
   3.200   0.4717   0.01195   0.00534  -0.0333  0.0237  1.0000  -1.6376   0.0000   0.0000   0.0000   0.3193
   3.300   0.4810   0.01251   0.00592  -0.0330  0.0239  1.0000  -1.6512   0.0000   0.0000   0.0000   0.3173
   3.400   0.4904   0.01319   0.00663  -0.0327  0.0241  1.0000  -1.6591   0.0000   0.0000   0.0000   0.3152
   3.500   0.5018   0.01289   0.00630  -0.0329  0.0233  1.0000  -1.7636   0.0000   0.0000   0.0000   0.3142
   3.600   0.5132   0.01258   0.00594  -0.0333  0.0216  1.0000  -1.8868   0.0000   0.0000   0.0000   0.3133
   3.700   0.5237   0.01265   0.00600  -0.0333  0.0204  1.0000  -1.9707   0.0000   0.0000   0.0000   0.3121
   3.800   0.5338   0.01293   0.00628  -0.0332  0.0199  1.0000  -2.0284   0.0000   0.0000   0.0000   0.3107
   3.900   0.5439   0.01318   0.00653  -0.0332  0.0192  1.0000  -2.1587   0.0000   0.0000   0.0000   0.3093
   4.000   0.5542   0.01336   0.00671  -0.0331  0.0181  1.0000  -2.3341   0.0000   0.0000   0.0000   0.3081
   4.100   0.5647   0.01338   0.00669  -0.0332  0.0165  1.0000  -2.5333   0.0000   0.0000   0.0000   0.3070
   4.200   0.5751   0.01335   0.00657  -0.0335  0.0143  1.0000  -2.7546   0.0000   0.0000   0.0000   0.3063
   4.300   0.5817   0.01579   0.00917  -0.0322  0.0117  1.0000  -2.6489   0.0000   0.0000   0.0000   0.3035
   4.400   0.5925   0.01639   0.00984  -0.0319  0.0112  1.0000  -2.7174   0.0000   0.0000   0.0000   0.3018
   4.500   0.6023   0.01857   0.01222  -0.0310  0.0115  1.0000  -2.6374   0.0000   0.0000   0.0000   0.2994
   4.600   0.6155   0.01880   0.01255  -0.0303  0.0143  1.0000  -2.6771   0.0000   0.0000   0.0000   0.2972


