xflr5 v6.61

 Calculated polar for: NACA M19 AIRFOIL

 1 1 Reynolds number fixed          Mach number fixed         

 xtrf =   1.000 (top)        1.000 (bottom)
 Mach =   0.000     Re =     0.130 e 6     Ncrit =   9.000

  alpha     CL        CD       CDp       Cm    Top Xtr Bot Xtr   Cpmin    Chinge    XCp    
 ------- -------- --------- --------- -------- ------- ------- -------- --------- ---------
 -10.000  -0.3743   0.14295   0.13817   0.0116  1.0000  0.0241  -1.1279   0.0000   0.0000   0.0000   0.2794
  -9.900  -0.3717   0.14245   0.13769   0.0106  1.0000  0.0242  -1.1335   0.0000   0.0000   0.0000   0.2770
  -9.800  -0.3692   0.14186   0.13712   0.0096  1.0000  0.0243  -1.1390   0.0000   0.0000   0.0000   0.2746
  -9.700  -0.3668   0.14122   0.13649   0.0087  1.0000  0.0244  -1.1445   0.0000   0.0000   0.0000   0.2722
  -7.500  -0.2726   0.11567   0.11112  -0.0192  0.8683  0.0251  -1.2093   0.0000   0.0000   0.0000   0.1782
  -7.400  -0.2793   0.11101   0.10638  -0.0181  0.8519  0.0256  -1.2981   0.0000   0.0000   0.0000   0.1839
  -7.300  -0.2819   0.10752   0.10284  -0.0174  0.8404  0.0260  -1.3359   0.0000   0.0000   0.0000   0.1868
  -7.200  -0.2816   0.10437   0.09968  -0.0169  0.8338  0.0264  -1.3376   0.0000   0.0000   0.0000   0.1888
  -7.100  -0.2789   0.10109   0.09642  -0.0158  0.8329  0.0269  -1.3051   0.0000   0.0000   0.0000   0.1919
  -7.000  -0.2750   0.09843   0.09378  -0.0152  0.8317  0.0273  -1.2699   0.0000   0.0000   0.0000   0.1932
  -6.900  -0.2708   0.09625   0.09162  -0.0151  0.8291  0.0278  -1.2391   0.0000   0.0000   0.0000   0.1928
  -6.800  -0.2664   0.09436   0.08973  -0.0152  0.8256  0.0282  -1.2119   0.0000   0.0000   0.0000   0.1912
  -6.700  -0.2613   0.09290   0.08827  -0.0162  0.8179  0.0283  -1.2064   0.0000   0.0000   0.0000   0.1863
  -6.600  -0.2554   0.09145   0.08681  -0.0174  0.8099  0.0284  -1.2019   0.0000   0.0000   0.0000   0.1800
  -6.500  -0.2489   0.08998   0.08534  -0.0189  0.8021  0.0285  -1.1965   0.0000   0.0000   0.0000   0.1724
  -6.400  -0.2430   0.08848   0.08383  -0.0200  0.7989  0.0286  -1.1914   0.0000   0.0000   0.0000   0.1658
  -6.300  -0.2373   0.08697   0.08232  -0.0210  0.7972  0.0287  -1.1862   0.0000   0.0000   0.0000   0.1595
  -6.200  -0.2313   0.08546   0.08080  -0.0220  0.7953  0.0289  -1.1804   0.0000   0.0000   0.0000   0.1528
  -6.100  -0.2252   0.08395   0.07928  -0.0230  0.7930  0.0290  -1.1742   0.0000   0.0000   0.0000   0.1457
  -6.000  -0.2189   0.08245   0.07777  -0.0241  0.7905  0.0291  -1.1675   0.0000   0.0000   0.0000   0.1380
  -5.900  -0.2126   0.08095   0.07626  -0.0250  0.7877  0.0293  -1.1603   0.0000   0.0000   0.0000   0.1299
  -5.800  -0.2061   0.07947   0.07477  -0.0260  0.7846  0.0295  -1.1528   0.0000   0.0000   0.0000   0.1214
  -5.700  -0.1995   0.07799   0.07327  -0.0270  0.7814  0.0297  -1.1447   0.0000   0.0000   0.0000   0.1122
  -5.600  -0.1926   0.07651   0.07178  -0.0280  0.7780  0.0299  -1.1361   0.0000   0.0000   0.0000   0.1021
  -5.500  -0.1855   0.07504   0.07030  -0.0290  0.7746  0.0301  -1.1270   0.0000   0.0000   0.0000   0.0909
  -5.400  -0.1781   0.07357   0.06881  -0.0300  0.7711  0.0304  -1.1173   0.0000   0.0000   0.0000   0.0785
  -5.300  -0.1704   0.07211   0.06733  -0.0311  0.7677  0.0307  -1.1070   0.0000   0.0000   0.0000   0.0646
  -5.200  -0.1624   0.07065   0.06585  -0.0322  0.7645  0.0310  -1.0961   0.0000   0.0000   0.0000   0.0488
  -5.100  -0.1541   0.06920   0.06438  -0.0333  0.7614  0.0313  -1.0846   0.0000   0.0000   0.0000   0.0307
  -5.000  -0.1454   0.06775   0.06291  -0.0344  0.7586  0.0318  -1.0724   0.0000   0.0000   0.0000   0.0097
  -4.900  -0.1364   0.06632   0.06145  -0.0356  0.7558  0.0322  -1.0596   0.0000   0.0000   0.0000  -0.0146
  -4.800  -0.1273   0.06490   0.06001  -0.0367  0.7531  0.0328  -1.0463   0.0000   0.0000   0.0000  -0.0425
  -4.700  -0.1181   0.06350   0.05858  -0.0378  0.7504  0.0334  -1.0327   0.0000   0.0000   0.0000  -0.0747
  -4.600  -0.1087   0.06212   0.05716  -0.0389  0.7477  0.0341  -1.0186   0.0000   0.0000   0.0000  -0.1130
  -4.500  -0.0990   0.06075   0.05576  -0.0399  0.7450  0.0349  -1.0040   0.0000   0.0000   0.0000  -0.1594
  -4.400  -0.0890   0.05941   0.05437  -0.0410  0.7422  0.0360  -0.9890   0.0000   0.0000   0.0000  -0.2172
  -4.300  -0.0788   0.05809   0.05300  -0.0420  0.7394  0.0373  -0.9738   0.0000   0.0000   0.0000  -0.2915
  -4.200  -0.0681   0.05680   0.05166  -0.0431  0.7365  0.0389  -0.9586   0.0000   0.0000   0.0000  -0.3921
  -4.100  -0.0567   0.05557   0.05037  -0.0442  0.7333  0.0411  -0.9444   0.0000   0.0000   0.0000  -0.5406
  -4.000  -0.0425   0.05468   0.04938  -0.0455  0.7291  0.0447  -0.9421   0.0000   0.0000   0.0000  -0.8382
  -3.900  -0.0080   0.05785   0.05216  -0.0484  0.7176  0.0496  -0.9830   0.0000   0.0000   0.0000  -5.9167
  -3.800   0.0064   0.05729   0.05146  -0.0493  0.7112  0.0499  -0.9943   0.0000   0.0000   0.0000   8.0546
  -3.700   0.0145   0.05388   0.04798  -0.0506  0.6996  0.0508  -1.0578   0.0000   0.0000   0.0000   3.7888
  -3.600   0.0135   0.04952   0.04371  -0.0508  0.6995  0.0530  -1.0392   0.0000   0.0000   0.0000   4.0787
  -3.500   0.0155   0.04753   0.04187  -0.0504  0.7037  0.0564  -0.9692   0.0000   0.0000   0.0000   3.5595
  -3.400   0.0242   0.04651   0.04087  -0.0508  0.7046  0.0640  -0.9255   0.0000   0.0000   0.0000   2.3837
  -3.300   0.0605   0.05147   0.04538  -0.0532  0.6986  0.0748  -0.9017   0.0000   0.0000   0.0000   1.1445
  -3.200   0.0699   0.04927   0.04310  -0.0540  0.6973  0.0757  -0.8843   0.0000   0.0000   0.0000   1.0348
  -3.100   0.0681   0.04490   0.03895  -0.0544  0.6974  0.0784  -0.8227   0.0000   0.0000   0.0000   1.0604
  -3.000   0.0708   0.04383   0.03806  -0.0543  0.6978  0.0831  -0.7103   0.0000   0.0000   0.0000   1.0284
  -2.900   0.0808   0.04346   0.03769  -0.0548  0.6972  0.0867  -0.6792   0.0000   0.0000   0.0000   0.9382
  -2.800   0.0920   0.04294   0.03715  -0.0554  0.6961  0.0881  -0.6648   0.0000   0.0000   0.0000   0.8607
  -2.700   0.1035   0.04252   0.03669  -0.0560  0.6949  0.0896  -0.6512   0.0000   0.0000   0.0000   0.7983
  -2.600   0.1154   0.04224   0.03637  -0.0565  0.6935  0.0913  -0.6382   0.0000   0.0000   0.0000   0.7465
  -2.500   0.1279   0.04222   0.03629  -0.0571  0.6918  0.0932  -0.6251   0.0000   0.0000   0.0000   0.7022
  -2.400   0.1414   0.04266   0.03666  -0.0576  0.6899  0.0953  -0.6108   0.0000   0.0000   0.0000   0.6627
  -2.300   0.1548   0.04349   0.03742  -0.0578  0.6877  0.0973  -0.6057   0.0000   0.0000   0.0000   0.6286
  -2.200   0.1679   0.04439   0.03827  -0.0580  0.6853  0.0987  -0.6137   0.0000   0.0000   0.0000   0.6001
  -2.100   0.1799   0.04478   0.03860  -0.0582  0.6828  0.0993  -0.6212   0.0000   0.0000   0.0000   0.5780
  -2.000   0.1911   0.04479   0.03856  -0.0585  0.6800  0.0997  -0.6284   0.0000   0.0000   0.0000   0.5600
  -1.900   0.2018   0.04462   0.03833  -0.0587  0.6771  0.0999  -0.6353   0.0000   0.0000   0.0000   0.5445
  -1.800   0.2071   0.03892   0.03253  -0.0604  0.6751  0.1042  -0.6368   0.0000   0.0000   0.0000   0.5453
  -1.700   0.2146   0.03728   0.03089  -0.0608  0.6725  0.1063  -0.6421   0.0000   0.0000   0.0000   0.5366
  -1.600   0.2224   0.03619   0.02981  -0.0609  0.6696  0.1080  -0.6479   0.0000   0.0000   0.0000   0.5270
  -1.500   0.2306   0.03531   0.02894  -0.0610  0.6666  0.1098  -0.6540   0.0000   0.0000   0.0000   0.5175
  -1.400   0.2390   0.03457   0.02821  -0.0610  0.6636  0.1118  -0.6603   0.0000   0.0000   0.0000   0.5082
  -1.300   0.2477   0.03393   0.02756  -0.0611  0.6605  0.1141  -0.6668   0.0000   0.0000   0.0000   0.4992
  -1.200   0.2566   0.03336   0.02698  -0.0611  0.6574  0.1167  -0.6735   0.0000   0.0000   0.0000   0.4905
  -1.100   0.2658   0.03285   0.02645  -0.0611  0.6543  0.1196  -0.6803   0.0000   0.0000   0.0000   0.4821
  -1.000   0.2752   0.03239   0.02596  -0.0611  0.6512  0.1229  -0.6873   0.0000   0.0000   0.0000   0.4741
  -0.900   0.2850   0.03200   0.02553  -0.0611  0.6481  0.1267  -0.6944   0.0000   0.0000   0.0000   0.4664
  -0.800   0.2951   0.03169   0.02517  -0.0611  0.6451  0.1311  -0.7017   0.0000   0.0000   0.0000   0.4589
  -0.700   0.3058   0.03156   0.02497  -0.0611  0.6420  0.1363  -0.7094   0.0000   0.0000   0.0000   0.4515
  -0.600   0.3180   0.03211   0.02541  -0.0610  0.6387  0.1429  -0.7179   0.0000   0.0000   0.0000   0.4435
  -0.500   0.3319   0.03450   0.02769  -0.0604  0.6350  0.1488  -0.7282   0.0000   0.0000   0.0000   0.4334
  -0.400   0.3432   0.03515   0.02826  -0.0601  0.6316  0.1498  -0.7364   0.0000   0.0000   0.0000   0.4265
  -0.300   0.3485   0.03038   0.02342  -0.0614  0.6295  0.1574  -0.7392   0.0000   0.0000   0.0000   0.4273
  -0.200   0.3559   0.02936   0.02245  -0.0613  0.6264  0.1616  -0.7452   0.0000   0.0000   0.0000   0.4233
  -0.100   0.3640   0.02882   0.02193  -0.0612  0.6229  0.1664  -0.7514   0.0000   0.0000   0.0000   0.4191
   0.000   0.3727   0.02861   0.02172  -0.0611  0.6188  0.1725  -0.7576   0.0000   0.0000   0.0000   0.4148
   0.100   0.3822   0.02875   0.02187  -0.0611  0.6142  0.1797  -0.7636   0.0000   0.0000   0.0000   0.4107
   0.200   0.3922   0.02949   0.02263  -0.0613  0.6081  0.1879  -0.7686   0.0000   0.0000   0.0000   0.4068
   0.300   0.4021   0.03162   0.02483  -0.0615  0.5996  0.1959  -0.7751   0.0000   0.0000   0.0000   0.4035
   0.400   0.4139   0.03313   0.02634  -0.0611  0.5988  0.1997  -0.7875   0.0000   0.0000   0.0000   0.3979
   0.700   0.4367   0.02634   0.01950  -0.0627  0.5965  0.2482  -0.8113   0.0000   0.0000   0.0000   0.3936
   0.800   0.4462   0.02593   0.01910  -0.0626  0.5954  0.2619  -0.8214   0.0000   0.0000   0.0000   0.3904
   0.900   0.4562   0.02573   0.01890  -0.0626  0.5940  0.2768  -0.8318   0.0000   0.0000   0.0000   0.3871
   1.000   0.4666   0.02601   0.01920  -0.0624  0.5925  0.2916  -0.8426   0.0000   0.0000   0.0000   0.3836
   1.500   0.5105   0.02195   0.01531  -0.0624  0.5803  0.4113  -0.8898   0.0000   0.0000   0.0000   0.3716
   1.600   0.5211   0.02107   0.01441  -0.0628  0.5773  0.4292  -0.8995   0.0000   0.0000   0.0000   0.3697
   1.700   0.5310   0.02051   0.01388  -0.0628  0.5740  0.4450  -0.9092   0.0000   0.0000   0.0000   0.3674
   1.800   0.5412   0.02011   0.01351  -0.0628  0.5705  0.4582  -0.9191   0.0000   0.0000   0.0000   0.3650
   1.900   0.5522   0.01983   0.01322  -0.0629  0.5670  0.4684  -0.9293   0.0000   0.0000   0.0000   0.3629
   2.000   0.5636   0.01962   0.01299  -0.0631  0.5636  0.4751  -0.9397   0.0000   0.0000   0.0000   0.3608
   2.100   0.5755   0.01949   0.01282  -0.0634  0.5602  0.4786  -0.9504   0.0000   0.0000   0.0000   0.3588
   2.200   0.5877   0.01941   0.01268  -0.0636  0.5570  0.4789  -0.9612   0.0000   0.0000   0.0000   0.3569
   2.300   0.6001   0.01941   0.01260  -0.0639  0.5540  0.4760  -0.9722   0.0000   0.0000   0.0000   0.3551
   2.400   0.6129   0.01948   0.01259  -0.0643  0.5511  0.4681  -0.9834   0.0000   0.0000   0.0000   0.3533
   2.500   0.6261   0.01974   0.01274  -0.0646  0.5484  0.4509  -0.9948   0.0000   0.0000   0.0000   0.3515
   2.600   0.6390   0.02013   0.01305  -0.0648  0.5458  0.4189  -1.0061   0.0000   0.0000   0.0000   0.3496
   2.700   0.6513   0.02034   0.01323  -0.0649  0.5434  0.3934  -1.0170   0.0000   0.0000   0.0000   0.3478
   2.800   0.6671   0.02099   0.01360  -0.0654  0.5416  0.3397  -1.0291   0.0000   0.0000   0.0000   0.3461
   3.700   0.7755   0.02226   0.01377  -0.0643  0.5208  0.1207  -1.1261   0.0000   0.0000   0.0000   0.3303
   3.800   0.7862   0.02242   0.01384  -0.0642  0.5182  0.1123  -1.1357   0.0000   0.0000   0.0000   0.3289
   3.900   0.7962   0.02277   0.01415  -0.0642  0.5153  0.1074  -1.1450   0.0000   0.0000   0.0000   0.3278
   4.000   0.8055   0.02331   0.01469  -0.0643  0.5119  0.1042  -1.1531   0.0000   0.0000   0.0000   0.3269
   4.100   0.8140   0.02411   0.01553  -0.0646  0.5081  0.1020  -1.1597   0.0000   0.0000   0.0000   0.3263
   4.200   0.8209   0.02544   0.01692  -0.0650  0.5037  0.1003  -1.1629   0.0000   0.0000   0.0000   0.3260
   4.300   0.8261   0.02690   0.01842  -0.0655  0.4997  0.0980  -1.1626   0.0000   0.0000   0.0000   0.3261
   4.400   0.8370   0.02660   0.01809  -0.0654  0.4993  0.0951  -1.1739   0.0000   0.0000   0.0000   0.3248
   4.500   0.8475   0.02641   0.01785  -0.0653  0.4988  0.0924  -1.1851   0.0000   0.0000   0.0000   0.3236
   4.600   0.8578   0.02627   0.01765  -0.0652  0.4983  0.0899  -1.1962   0.0000   0.0000   0.0000   0.3225
   4.700   0.8681   0.02618   0.01750  -0.0651  0.4978  0.0875  -1.2071   0.0000   0.0000   0.0000   0.3213
   4.800   0.8782   0.02612   0.01739  -0.0651  0.4972  0.0854  -1.2179   0.0000   0.0000   0.0000   0.3203
   4.900   0.8884   0.02610   0.01732  -0.0650  0.4966  0.0835  -1.2287   0.0000   0.0000   0.0000   0.3192
   5.000   0.8985   0.02612   0.01729  -0.0650  0.4959  0.0819  -1.2393   0.0000   0.0000   0.0000   0.3183
   5.100   0.9085   0.02618   0.01733  -0.0650  0.4952  0.0806  -1.2498   0.0000   0.0000   0.0000   0.3174
   5.200   0.9185   0.02628   0.01740  -0.0650  0.4945  0.0795  -1.2601   0.0000   0.0000   0.0000   0.3165
   5.300   0.9283   0.02641   0.01752  -0.0651  0.4938  0.0786  -1.2701   0.0000   0.0000   0.0000   0.3157
   5.400   0.9411   0.02542   0.01644  -0.0646  0.4912  0.0777  -1.2889   0.0000   0.0000   0.0000   0.3140
   5.500   0.9628   0.01973   0.01020  -0.0611  0.4655  0.0767  -1.3466   0.0000   0.0000   0.0000   0.3086
   5.700   0.9852   0.01829   0.00837  -0.0599  0.4451  0.0764  -1.3837   0.0000   0.0000   0.0000   0.3056
   5.800   0.9956   0.01794   0.00781  -0.0594  0.4352  0.0765  -1.4019   0.0000   0.0000   0.0000   0.3043
   5.900   1.0054   0.01771   0.00732  -0.0589  0.4208  0.0770  -1.4476   0.0000   0.0000   0.0000   0.3031
   6.000   1.0148   0.01753   0.00690  -0.0585  0.3973  0.0777  -1.5462   0.0000   0.0000   0.0000   0.3019
   6.100   1.0201   0.01753   0.00616  -0.0575  0.3129  0.0787  -1.6186   0.0000   0.0000   0.0000   0.3005
   6.300   1.0167   0.02150   0.00836  -0.0563  0.0494  0.0798  -1.6536   0.0000   0.0000   0.0000   0.2992
   6.400   1.0244   0.02209   0.00873  -0.0558  0.0387  0.0814  -1.6976   0.0000   0.0000   0.0000   0.2982
   6.500   1.0333   0.02248   0.00924  -0.0554  0.0341  0.0842  -1.7507   0.0000   0.0000   0.0000   0.2972
   6.600   1.0422   0.02285   0.00976  -0.0550  0.0325  0.0896  -1.8158   0.0000   0.0000   0.0000   0.2962
   6.700   1.0510   0.02322   0.01028  -0.0546  0.0318  0.0953  -1.8876   0.0000   0.0000   0.0000   0.2952
   6.800   1.0596   0.02344   0.01090  -0.0543  0.0317  0.3244  -1.9561   0.0000   0.0000   0.0000   0.2944
   7.000   1.0830   0.02346   0.01232  -0.0550  0.0325  1.0000  -2.1138   0.0000   0.0000   0.0000   0.2935
   7.100   1.0900   0.02399   0.01298  -0.0544  0.0333  1.0000  -2.1734   0.0000   0.0000   0.0000   0.2926
   7.200   1.0965   0.02454   0.01368  -0.0538  0.0342  1.0000  -2.2290   0.0000   0.0000   0.0000   0.2916
   7.300   1.1025   0.02513   0.01443  -0.0532  0.0353  1.0000  -2.2787   0.0000   0.0000   0.0000   0.2905
   7.400   1.1077   0.02578   0.01521  -0.0524  0.0366  1.0000  -2.3201   0.0000   0.0000   0.0000   0.2895
   7.500   1.1117   0.02651   0.01607  -0.0516  0.0380  1.0000  -2.3530   0.0000   0.0000   0.0000   0.2884
   7.600   1.1144   0.02732   0.01697  -0.0506  0.0393  1.0000  -2.3797   0.0000   0.0000   0.0000   0.2873
   7.700   1.1161   0.02815   0.01788  -0.0496  0.0407  1.0000  -2.4026   0.0000   0.0000   0.0000   0.2861
   7.800   1.1174   0.02901   0.01880  -0.0485  0.0422  1.0000  -2.4234   0.0000   0.0000   0.0000   0.2849
   7.900   1.1188   0.02986   0.01969  -0.0473  0.0437  1.0000  -2.4433   0.0000   0.0000   0.0000   0.2836
   8.000   1.1205   0.03071   0.02057  -0.0460  0.0454  1.0000  -2.4624   0.0000   0.0000   0.0000   0.2822
   8.100   1.1230   0.03155   0.02143  -0.0445  0.0471  1.0000  -2.4811   0.0000   0.0000   0.0000   0.2807
   8.200   1.1277   0.03262   0.02251  -0.0430  0.0490  1.0000  -2.4976   0.0000   0.0000   0.0000   0.2790
   8.300   1.1383   0.03318   0.02308  -0.0420  0.0518  1.0000  -2.5495   0.0000   0.0000   0.0000   0.2776
   8.400   1.1568   0.03260   0.02274  -0.0415  0.0593  1.0000  -2.6171   0.0000   0.0000   0.0000   0.2763
   8.500   1.1919   0.03530   0.02584  -0.0400  0.0749  1.0000  -2.5983   0.0000   0.0000   0.0000   0.2738
   8.700   1.2371   0.03531   0.02681  -0.0377  0.1080  1.0000  -2.6422   0.0000   0.0000   0.0000   0.2703
   8.800   1.2515   0.03631   0.02869  -0.0364  0.1287  1.0000  -2.6151   0.0000   0.0000   0.0000   0.2687
   8.900   1.2523   0.03884   0.03170  -0.0354  0.1383  1.0000  -2.5804   0.0000   0.0000   0.0000   0.2678
   9.000   1.2493   0.04159   0.03473  -0.0345  0.1439  1.0000  -2.5514   0.0000   0.0000   0.0000   0.2671
   9.100   1.2433   0.04449   0.03784  -0.0337  0.1469  1.0000  -2.5228   0.0000   0.0000   0.0000   0.2665
   9.200   1.2351   0.04749   0.04101  -0.0330  0.1486  1.0000  -2.4930   0.0000   0.0000   0.0000   0.2660
   9.300   1.2251   0.05060   0.04426  -0.0324  0.1495  1.0000  -2.4605   0.0000   0.0000   0.0000   0.2656
  11.000   1.0838   0.09012   0.08494  -0.0410  0.1662  1.0000  -2.1186   0.0000   0.0000   0.0000   0.2749
  11.100   1.0750   0.09353   0.08836  -0.0423  0.1662  1.0000  -2.0853   0.0000   0.0000   0.0000   0.2763
  11.200   1.0663   0.09708   0.09192  -0.0437  0.1662  1.0000  -2.0496   0.0000   0.0000   0.0000   0.2779
  11.300   1.0576   0.10089   0.09574  -0.0453  0.1666  1.0000  -2.0092   0.0000   0.0000   0.0000   0.2797
  11.400   1.0490   0.10474   0.09959  -0.0469  0.1671  1.0000  -1.9672   0.0000   0.0000   0.0000   0.2815
  11.500   1.0403   0.10844   0.10329  -0.0484  0.1675  1.0000  -1.9265   0.0000   0.0000   0.0000   0.2834
  11.600   1.0316   0.11212   0.10697  -0.0500  0.1679  1.0000  -1.8853   0.0000   0.0000   0.0000   0.2853
  11.700   1.0230   0.11577   0.11063  -0.0516  0.1685  1.0000  -1.8436   0.0000   0.0000   0.0000   0.2872
  11.800   1.0145   0.11942   0.11427  -0.0533  0.1692  1.0000  -1.8014   0.0000   0.0000   0.0000   0.2892
  11.900   1.0060   0.12307   0.11792  -0.0550  0.1701  1.0000  -1.7586   0.0000   0.0000   0.0000   0.2913
  12.000   0.9976   0.12672   0.12157  -0.0567  0.1712  1.0000  -1.7152   0.0000   0.0000   0.0000   0.2934
  12.100   0.9894   0.13039   0.12524  -0.0584  0.1727  1.0000  -1.6714   0.0000   0.0000   0.0000   0.2956
  12.200   0.9814   0.13410   0.12895  -0.0601  0.1748  1.0000  -1.6275   0.0000   0.0000   0.0000   0.2978
  12.300   0.9737   0.13788   0.13272  -0.0617  0.1776  1.0000  -1.5840   0.0000   0.0000   0.0000   0.2999
  12.400   0.9664   0.14178   0.13662  -0.0632  0.1812  1.0000  -1.5420   0.0000   0.0000   0.0000   0.3020
  12.500   0.9594   0.14588   0.14073  -0.0645  0.1853  1.0000  -1.5026   0.0000   0.0000   0.0000   0.3038
  12.600   0.9528   0.15025   0.14510  -0.0657  0.1892  1.0000  -1.4658   0.0000   0.0000   0.0000   0.3054
  12.700   0.9462   0.15498   0.14982  -0.0668  0.1925  1.0000  -1.4300   0.0000   0.0000   0.0000   0.3071
  12.800   0.9394   0.16028   0.15513  -0.0680  0.1952  1.0000  -1.3930   0.0000   0.0000   0.0000   0.3088
  12.900   0.9326   0.16653   0.16139  -0.0694  0.1974  1.0000  -1.3532   0.0000   0.0000   0.0000   0.3108
  13.500   0.9300   0.18478   0.17960  -0.0739  0.1983  1.0000  -1.2884   0.0000   0.0000   0.0000   0.3153
  13.600   0.9319   0.18563   0.18043  -0.0744  0.1977  1.0000  -1.2909   0.0000   0.0000   0.0000   0.3155
  13.700   0.9346   0.18593   0.18073  -0.0747  0.1968  1.0000  -1.2966   0.0000   0.0000   0.0000   0.3155
  13.800   0.9380   0.18576   0.18054  -0.0751  0.1954  1.0000  -1.3052   0.0000   0.0000   0.0000   0.3154
  13.900   0.9418   0.18534   0.18011  -0.0755  0.1934  1.0000  -1.3144   0.0000   0.0000   0.0000   0.3154
  14.000   0.9453   0.18496   0.17972  -0.0761  0.1908  1.0000  -1.3220   0.0000   0.0000   0.0000   0.3155
  14.100   0.9480   0.18478   0.17952  -0.0768  0.1877  1.0000  -1.3263   0.0000   0.0000   0.0000   0.3159
  14.200   0.9499   0.18490   0.17964  -0.0776  0.1844  1.0000  -1.3275   0.0000   0.0000   0.0000   0.3164
  14.300   0.9504   0.18520   0.17993  -0.0784  0.1810  1.0000  -1.3257   0.0000   0.0000   0.0000   0.3170
  14.400   0.9510   0.18585   0.18056  -0.0790  0.1777  1.0000  -1.3249   0.0000   0.0000   0.0000   0.3175
  14.500   0.9523   0.18679   0.18149  -0.0796  0.1746  1.0000  -1.3276   0.0000   0.0000   0.0000   0.3178
  14.600   0.9548   0.18785   0.18254  -0.0798  0.1712  1.0000  -1.3362   0.0000   0.0000   0.0000   0.3177
  14.700   0.9593   0.18899   0.18366  -0.0797  0.1675  1.0000  -1.3556   0.0000   0.0000   0.0000   0.3170
  14.800   0.9709   0.19026   0.18492  -0.0781  0.1622  1.0000  -1.4127   0.0000   0.0000   0.0000   0.3141
  14.900   0.9769   0.20521   0.19981  -0.0739  0.1497  1.0000  -1.4627   0.0000   0.0000   0.0000   0.3092
  15.000   0.9762   0.20603   0.20062  -0.0749  0.1494  1.0000  -1.4538   0.0000   0.0000   0.0000   0.3102
  15.100   0.9756   0.20629   0.20088  -0.0760  0.1489  1.0000  -1.4463   0.0000   0.0000   0.0000   0.3112
  15.200   0.9753   0.20525   0.19982  -0.0773  0.1479  1.0000  -1.4412   0.0000   0.0000   0.0000   0.3124
  15.300   0.9741   0.20213   0.19669  -0.0793  0.1447  1.0000  -1.4314   0.0000   0.0000   0.0000   0.3143
  15.400   0.9706   0.20144   0.19599  -0.0813  0.1410  1.0000  -1.4081   0.0000   0.0000   0.0000   0.3166
  15.500   0.9679   0.20181   0.19636  -0.0830  0.1363  1.0000  -1.3907   0.0000   0.0000   0.0000   0.3184
  15.600   0.9674   0.20264   0.19717  -0.0840  0.1298  1.0000  -1.3893   0.0000   0.0000   0.0000   0.3193
  16.200   0.9877   0.20831   0.20270  -0.0822  0.0851  1.0000  -1.6111   0.0000   0.0000   0.0000   0.3144
  16.300   0.9980   0.21107   0.20538  -0.0758  0.0746  1.0000  -1.8083   0.0000   0.0000   0.0000   0.3067
  16.400   0.9975   0.21274   0.20705  -0.0774  0.0743  1.0000  -1.7862   0.0000   0.0000   0.0000   0.3082
  16.500   0.9970   0.21396   0.20827  -0.0794  0.0736  1.0000  -1.7601   0.0000   0.0000   0.0000   0.3101
  16.600   0.9953   0.21538   0.20969  -0.0818  0.0725  1.0000  -1.7203   0.0000   0.0000   0.0000   0.3126
  16.700   0.9935   0.21717   0.21148  -0.0840  0.0709  1.0000  -1.6798   0.0000   0.0000   0.0000   0.3149
  16.800   0.9926   0.21914   0.21345  -0.0859  0.0685  1.0000  -1.6505   0.0000   0.0000   0.0000   0.3168
  16.900   0.9922   0.22104   0.21534  -0.0872  0.0657  1.0000  -1.6370   0.0000   0.0000   0.0000   0.3180
  17.000   0.9932   0.22258   0.21688  -0.0880  0.0619  1.0000  -1.6490   0.0000   0.0000   0.0000   0.3185
  17.300   0.9978   0.22917   0.22336  -0.0839  0.0496  1.0000  -1.8529   0.0000   0.0000   0.0000   0.3133
  17.400   0.9984   0.23082   0.22501  -0.0855  0.0493  1.0000  -1.8346   0.0000   0.0000   0.0000   0.3147
  17.500   0.9997   0.23191   0.22610  -0.0874  0.0483  1.0000  -1.8131   0.0000   0.0000   0.0000   0.3164
  17.600   1.0000   0.23364   0.22783  -0.0895  0.0471  1.0000  -1.7782   0.0000   0.0000   0.0000   0.3184
  17.700   1.0002   0.23573   0.22992  -0.0912  0.0457  1.0000  -1.7463   0.0000   0.0000   0.0000   0.3200
  17.800   1.0003   0.23793   0.23212  -0.0927  0.0443  1.0000  -1.7211   0.0000   0.0000   0.0000   0.3213
  17.900   1.0006   0.24011   0.23431  -0.0939  0.0427  1.0000  -1.7035   0.0000   0.0000   0.0000   0.3224
  18.000   1.0011   0.24226   0.23645  -0.0949  0.0411  1.0000  -1.6931   0.0000   0.0000   0.0000   0.3232
  18.100   1.0018   0.24434   0.23854  -0.0958  0.0394  1.0000  -1.6894   0.0000   0.0000   0.0000   0.3239
  18.200   1.0027   0.24634   0.24053  -0.0966  0.0377  1.0000  -1.6924   0.0000   0.0000   0.0000   0.3244
  18.300   1.0038   0.24823   0.24243  -0.0972  0.0359  1.0000  -1.7029   0.0000   0.0000   0.0000   0.3248
  18.400   1.0052   0.24997   0.24416  -0.0977  0.0341  1.0000  -1.7238   0.0000   0.0000   0.0000   0.3250
  18.500   1.0071   0.25143   0.24561  -0.0980  0.0322  1.0000  -1.7637   0.0000   0.0000   0.0000   0.3248
  18.600   1.0111   0.25188   0.24603  -0.0970  0.0295  1.0000  -1.8802   0.0000   0.0000   0.0000   0.3232
  18.700   1.0129   0.25290   0.24703  -0.0951  0.0267  1.0000  -2.0262   0.0000   0.0000   0.0000   0.3208
  18.800   1.0092   0.25714   0.25128  -0.0956  0.0258  1.0000  -1.9777   0.0000   0.0000   0.0000   0.3215
  18.900   1.0042   0.26254   0.25669  -0.0965  0.0252  1.0000  -1.8782   0.0000   0.0000   0.0000   0.3229
  19.000   1.0024   0.26622   0.26031  -0.0975  0.0250  1.0000  -1.8220   0.0000   0.0000   0.0000   0.3240
  19.100   1.0034   0.26812   0.26222  -0.0985  0.0249  1.0000  -1.8139   0.0000   0.0000   0.0000   0.3247
  19.200   1.0047   0.26985   0.26395  -0.0995  0.0247  1.0000  -1.8085   0.0000   0.0000   0.0000   0.3254
  19.300   1.0063   0.27132   0.26542  -0.1006  0.0244  1.0000  -1.8071   0.0000   0.0000   0.0000   0.3262
  19.400   1.0086   0.27266   0.26676  -0.1017  0.0240  1.0000  -1.8089   0.0000   0.0000   0.0000   0.3269
  19.500   1.0110   0.27421   0.26831  -0.1027  0.0234  1.0000  -1.8083   0.0000   0.0000   0.0000   0.3275
  19.600   1.0130   0.27603   0.27014  -0.1037  0.0229  1.0000  -1.8026   0.0000   0.0000   0.0000   0.3281
  19.700   1.0141   0.27809   0.27220  -0.1047  0.0224  1.0000  -1.7881   0.0000   0.0000   0.0000   0.3288
  19.800   1.0150   0.28023   0.27434  -0.1056  0.0220  1.0000  -1.7730   0.0000   0.0000   0.0000   0.3295
  19.900   1.0158   0.28240   0.27652  -0.1065  0.0215  1.0000  -1.7593   0.0000   0.0000   0.0000   0.3301
  20.000   1.0166   0.28460   0.27873  -0.1073  0.0211  1.0000  -1.7474   0.0000   0.0000   0.0000   0.3307
  20.100   1.0173   0.28682   0.28095  -0.1080  0.0207  1.0000  -1.7374   0.0000   0.0000   0.0000   0.3312
  20.200   1.0180   0.28903   0.28317  -0.1087  0.0203  1.0000  -1.7292   0.0000   0.0000   0.0000   0.3317
  20.300   1.0187   0.29124   0.28538  -0.1094  0.0198  1.0000  -1.7225   0.0000   0.0000   0.0000   0.3321
  20.400   1.0193   0.29344   0.28759  -0.1100  0.0194  1.0000  -1.7174   0.0000   0.0000   0.0000   0.3324
  20.500   1.0198   0.29562   0.28978  -0.1106  0.0190  1.0000  -1.7136   0.0000   0.0000   0.0000   0.3328
  20.600   1.0203   0.29779   0.29195  -0.1111  0.0186  1.0000  -1.7111   0.0000   0.0000   0.0000   0.3331
  20.700   1.0208   0.29995   0.29411  -0.1116  0.0183  1.0000  -1.7100   0.0000   0.0000   0.0000   0.3334
  20.800   1.0211   0.30208   0.29625  -0.1121  0.0179  1.0000  -1.7101   0.0000   0.0000   0.0000   0.3337
  20.900   1.0215   0.30420   0.29837  -0.1126  0.0175  1.0000  -1.7115   0.0000   0.0000   0.0000   0.3340
  21.000   1.0217   0.30629   0.30047  -0.1130  0.0172  1.0000  -1.7143   0.0000   0.0000   0.0000   0.3342
  21.100   1.0219   0.30836   0.30254  -0.1134  0.0169  1.0000  -1.7185   0.0000   0.0000   0.0000   0.3344
  21.200   1.0220   0.31040   0.30459  -0.1138  0.0165  1.0000  -1.7243   0.0000   0.0000   0.0000   0.3346
  21.300   1.0220   0.31240   0.30660  -0.1142  0.0162  1.0000  -1.7319   0.0000   0.0000   0.0000   0.3347
  21.400   1.0219   0.31438   0.30858  -0.1145  0.0159  1.0000  -1.7414   0.0000   0.0000   0.0000   0.3349
  21.500   1.0217   0.31632   0.31052  -0.1147  0.0156  1.0000  -1.7531   0.0000   0.0000   0.0000   0.3349
  21.600   1.0215   0.31821   0.31242  -0.1149  0.0153  1.0000  -1.7675   0.0000   0.0000   0.0000   0.3350
  21.700   1.0212   0.32007   0.31428  -0.1150  0.0150  1.0000  -1.7852   0.0000   0.0000   0.0000   0.3349
  21.800   1.0208   0.32188   0.31610  -0.1150  0.0147  1.0000  -1.8071   0.0000   0.0000   0.0000   0.3348
  21.900   1.0203   0.32365   0.31787  -0.1149  0.0144  1.0000  -1.8344   0.0000   0.0000   0.0000   0.3346
  22.000   1.0199   0.32541   0.31963  -0.1146  0.0140  1.0000  -1.8697   0.0000   0.0000   0.0000   0.3341
  22.100   1.0192   0.32729   0.32151  -0.1141  0.0137  1.0000  -1.9082   0.0000   0.0000   0.0000   0.3335
  22.200   1.0175   0.32943   0.32366  -0.1135  0.0134  1.0000  -1.9340   0.0000   0.0000   0.0000   0.3330
  22.300   1.0134   0.33203   0.32628  -0.1132  0.0131  1.0000  -1.9104   0.0000   0.0000   0.0000   0.3330
  22.400   1.0064   0.33525   0.32952  -0.1126  0.0128  1.0000  -1.8446   0.0000   0.0000   0.0000   0.3331
  22.500   0.9979   0.33846   0.33268  -0.1119  0.0125  1.0000  -1.7534   0.0000   0.0000   0.0000   0.3333
  22.600   0.9935   0.33977   0.33400  -0.1117  0.0125  1.0000  -1.7338   0.0000   0.0000   0.0000   0.3335
  22.900   0.9308   0.32655   0.32104  -0.1025  0.0129  1.0000  -1.6569   0.0000   0.0000   0.0000   0.3315
  23.000   0.9185   0.32588   0.32041  -0.1009  0.0127  1.0000  -1.5949   0.0000   0.0000   0.0000   0.3314
  23.100   0.9074   0.32582   0.32030  -0.0996  0.0125  1.0000  -1.5207   0.0000   0.0000   0.0000   0.3314
  23.200   0.9021   0.32573   0.32024  -0.0992  0.0125  1.0000  -1.5005   0.0000   0.0000   0.0000   0.3314
  23.300   0.8974   0.32574   0.32027  -0.0989  0.0125  1.0000  -1.4814   0.0000   0.0000   0.0000   0.3315
  23.400   0.8931   0.32582   0.32037  -0.0986  0.0125  1.0000  -1.4633   0.0000   0.0000   0.0000   0.3317
  23.500   0.8890   0.32594   0.32051  -0.0983  0.0125  1.0000  -1.4457   0.0000   0.0000   0.0000   0.3318
  23.600   0.8852   0.32611   0.32069  -0.0981  0.0125  1.0000  -1.4288   0.0000   0.0000   0.0000   0.3319
  23.700   0.8817   0.32632   0.32092  -0.0979  0.0125  1.0000  -1.4126   0.0000   0.0000   0.0000   0.3321
  23.800   0.8784   0.32656   0.32118  -0.0978  0.0125  1.0000  -1.3969   0.0000   0.0000   0.0000   0.3322
  23.900   0.8753   0.32683   0.32147  -0.0977  0.0125  1.0000  -1.3817   0.0000   0.0000   0.0000   0.3324
  24.000   0.8724   0.32713   0.32179  -0.0976  0.0125  1.0000  -1.3671   0.0000   0.0000   0.0000   0.3326
  24.100   0.8696   0.32745   0.32212  -0.0975  0.0125  1.0000  -1.3528   0.0000   0.0000   0.0000   0.3327
  24.200   0.8669   0.32779   0.32248  -0.0975  0.0125  1.0000  -1.3390   0.0000   0.0000   0.0000   0.3329
  24.300   0.8644   0.32814   0.32285  -0.0975  0.0124  1.0000  -1.3256   0.0000   0.0000   0.0000   0.3331
  24.400   0.8620   0.32852   0.32324  -0.0974  0.0124  1.0000  -1.3125   0.0000   0.0000   0.0000   0.3333
  24.500   0.8597   0.32891   0.32364  -0.0974  0.0124  1.0000  -1.2998   0.0000   0.0000   0.0000   0.3335
  24.600   0.8575   0.32931   0.32406  -0.0975  0.0124  1.0000  -1.2874   0.0000   0.0000   0.0000   0.3337
  24.700   0.8554   0.32972   0.32448  -0.0975  0.0124  1.0000  -1.2753   0.0000   0.0000   0.0000   0.3338
  24.800   0.8533   0.33013   0.32491  -0.0975  0.0124  1.0000  -1.2633   0.0000   0.0000   0.0000   0.3340
  24.900   0.8514   0.33055   0.32535  -0.0976  0.0124  1.0000  -1.2517   0.0000   0.0000   0.0000   0.3342
  25.000   0.8495   0.33099   0.32580  -0.0977  0.0124  1.0000  -1.2404   0.0000   0.0000   0.0000   0.3344
  25.100   0.8477   0.33143   0.32626  -0.0977  0.0123  1.0000  -1.2293   0.0000   0.0000   0.0000   0.3346
  25.200   0.8460   0.33188   0.32672  -0.0978  0.0123  1.0000  -1.2184   0.0000   0.0000   0.0000   0.3348
  25.300   0.8442   0.33233   0.32718  -0.0979  0.0123  1.0000  -1.2076   0.0000   0.0000   0.0000   0.3351
  25.400   0.8426   0.33279   0.32766  -0.0980  0.0123  1.0000  -1.1970   0.0000   0.0000   0.0000   0.3353
  25.500   0.8410   0.33326   0.32814  -0.0981  0.0123  1.0000  -1.1867   0.0000   0.0000   0.0000   0.3355
  25.600   0.8395   0.33374   0.32863  -0.0982  0.0123  1.0000  -1.1767   0.0000   0.0000   0.0000   0.3357
  25.700   0.8381   0.33422   0.32913  -0.0984  0.0123  1.0000  -1.1668   0.0000   0.0000   0.0000   0.3359
  25.800   0.8367   0.33471   0.32963  -0.0985  0.0123  1.0000  -1.1572   0.0000   0.0000   0.0000   0.3361
  25.900   0.8353   0.33521   0.33014  -0.0986  0.0122  1.0000  -1.1478   0.0000   0.0000   0.0000   0.3363
  26.000   0.8340   0.33571   0.33066  -0.0988  0.0122  1.0000  -1.1385   0.0000   0.0000   0.0000   0.3365
  26.100   0.8327   0.33621   0.33117  -0.0990  0.0122  1.0000  -1.1290   0.0000   0.0000   0.0000   0.3368
  26.200   0.8314   0.33671   0.33168  -0.0991  0.0122  1.0000  -1.1196   0.0000   0.0000   0.0000   0.3370
  26.300   0.8302   0.33722   0.33221  -0.0993  0.0122  1.0000  -1.1105   0.0000   0.0000   0.0000   0.3372
  26.400   0.8290   0.33773   0.33272  -0.0995  0.0122  1.0000  -1.1005   0.0000   0.0000   0.0000   0.3375
  26.500   0.8278   0.33824   0.33325  -0.0997  0.0122  1.0000  -1.0907   0.0000   0.0000   0.0000   0.3377
  26.600   0.8266   0.33876   0.33378  -0.0999  0.0121  1.0000  -1.0810   0.0000   0.0000   0.0000   0.3380
  26.700   0.8255   0.33928   0.33432  -0.1001  0.0121  1.0000  -1.0717   0.0000   0.0000   0.0000   0.3382
  26.800   0.8244   0.33982   0.33486  -0.1003  0.0121  1.0000  -1.0625   0.0000   0.0000   0.0000   0.3385
  26.900   0.8234   0.34035   0.33541  -0.1005  0.0121  1.0000  -1.0536   0.0000   0.0000   0.0000   0.3387
  27.000   0.8224   0.34090   0.33597  -0.1007  0.0121  1.0000  -1.0448   0.0000   0.0000   0.0000   0.3390
  27.100   0.8214   0.34145   0.33653  -0.1009  0.0121  1.0000  -1.0363   0.0000   0.0000   0.0000   0.3392
  27.200   0.8205   0.34200   0.33710  -0.1011  0.0121  1.0000  -1.0279   0.0000   0.0000   0.0000   0.3394
  27.300   0.8196   0.34256   0.33768  -0.1014  0.0120  1.0000  -1.0198   0.0000   0.0000   0.0000   0.3397
  27.400   0.8187   0.34313   0.33826  -0.1016  0.0120  1.0000  -1.0118   0.0000   0.0000   0.0000   0.3399
  27.500   0.8179   0.34370   0.33884  -0.1018  0.0120  1.0000  -1.0040   0.0000   0.0000   0.0000   0.3401
  27.600   0.8171   0.34428   0.33943  -0.1021  0.0120  1.0000  -0.9964   0.0000   0.0000   0.0000   0.3404
  27.700   0.8163   0.34486   0.34002  -0.1023  0.0120  1.0000  -0.9889   0.0000   0.0000   0.0000   0.3406
  27.800   0.8155   0.34544   0.34062  -0.1025  0.0120  1.0000  -0.9816   0.0000   0.0000   0.0000   0.3408
  27.900   0.8148   0.34603   0.34122  -0.1028  0.0120  1.0000  -0.9745   0.0000   0.0000   0.0000   0.3411
  28.000   0.8141   0.34663   0.34182  -0.1030  0.0119  1.0000  -0.9675   0.0000   0.0000   0.0000   0.3413
  28.100   0.8134   0.34722   0.34243  -0.1033  0.0119  1.0000  -0.9606   0.0000   0.0000   0.0000   0.3415
  28.200   0.8128   0.34782   0.34305  -0.1035  0.0119  1.0000  -0.9539   0.0000   0.0000   0.0000   0.3417
  28.300   0.8121   0.34843   0.34366  -0.1038  0.0119  1.0000  -0.9474   0.0000   0.0000   0.0000   0.3420
  28.400   0.8115   0.34904   0.34428  -0.1040  0.0119  1.0000  -0.9409   0.0000   0.0000   0.0000   0.3422
  28.500   0.8109   0.34965   0.34491  -0.1043  0.0119  1.0000  -0.9346   0.0000   0.0000   0.0000   0.3424
  28.600   0.8104   0.35026   0.34553  -0.1045  0.0118  1.0000  -0.9285   0.0000   0.0000   0.0000   0.3426
  28.700   0.8098   0.35088   0.34616  -0.1048  0.0118  1.0000  -0.9224   0.0000   0.0000   0.0000   0.3428
  28.800   0.8093   0.35150   0.34680  -0.1051  0.0118  1.0000  -0.9165   0.0000   0.0000   0.0000   0.3431
  28.900   0.8087   0.35212   0.34743  -0.1053  0.0118  1.0000  -0.9107   0.0000   0.0000   0.0000   0.3433
  29.000   0.8082   0.35275   0.34807  -0.1056  0.0118  1.0000  -0.9050   0.0000   0.0000   0.0000   0.3435
  29.100   0.8077   0.35337   0.34871  -0.1059  0.0118  1.0000  -0.8994   0.0000   0.0000   0.0000   0.3437


