xflr5 v6.61

 Calculated polar for: NACA65413a=0.8

 1 1 Reynolds number fixed          Mach number fixed         

 xtrf =   1.000 (top)        1.000 (bottom)
 Mach =   0.000     Re =     0.130 e 6     Ncrit =   9.000

  alpha     CL        CD       CDp       Cm    Top Xtr Bot Xtr   Cpmin    Chinge    XCp    
 ------- -------- --------- --------- -------- ------- ------- -------- --------- ---------
 -10.000  -0.4873   0.10321   0.09924  -0.0536  1.0000  0.0863  -2.2182   0.0000   0.0000   0.0000   0.1297
  -9.900  -0.4986   0.10245   0.09850  -0.0531  1.0000  0.0864  -2.2546   0.0000   0.0000   0.0000   0.1335
  -9.800  -0.4706   0.09845   0.09450  -0.0500  1.0000  0.0879  -2.0899   0.0000   0.0000   0.0000   0.1333
  -9.700  -0.4587   0.09780   0.09383  -0.0475  1.0000  0.0888  -1.9829   0.0000   0.0000   0.0000   0.1358
  -9.600  -0.4562   0.09715   0.09319  -0.0460  1.0000  0.0893  -1.9367   0.0000   0.0000   0.0000   0.1387
  -9.500  -0.4565   0.09650   0.09255  -0.0448  1.0000  0.0899  -1.9081   0.0000   0.0000   0.0000   0.1416
  -9.400  -0.4575   0.09585   0.09192  -0.0436  1.0000  0.0904  -1.8848   0.0000   0.0000   0.0000   0.1445
  -9.300  -0.4598   0.09518   0.09126  -0.0426  1.0000  0.0909  -1.8696   0.0000   0.0000   0.0000   0.1474
  -9.200  -0.4631   0.09448   0.09059  -0.0416  1.0000  0.0915  -1.8604   0.0000   0.0000   0.0000   0.1503
  -9.100  -0.4672   0.09377   0.08989  -0.0407  1.0000  0.0920  -1.8559   0.0000   0.0000   0.0000   0.1532
  -9.000  -0.4720   0.09302   0.08917  -0.0399  1.0000  0.0925  -1.8555   0.0000   0.0000   0.0000   0.1560
  -8.900  -0.4774   0.09225   0.08843  -0.0391  1.0000  0.0930  -1.8588   0.0000   0.0000   0.0000   0.1588
  -8.800  -0.4835   0.09145   0.08765  -0.0384  1.0000  0.0936  -1.8656   0.0000   0.0000   0.0000   0.1615
  -8.700  -0.4872   0.09036   0.08658  -0.0385  0.9996  0.0943  -1.8695   0.0000   0.0000   0.0000   0.1622
  -8.600  -0.4838   0.08836   0.08458  -0.0409  0.9976  0.0958  -1.8660   0.0000   0.0000   0.0000   0.1566
  -8.500  -0.4826   0.08607   0.08229  -0.0441  0.9954  0.0974  -1.8809   0.0000   0.0000   0.0000   0.1500
  -8.400  -0.4856   0.08326   0.07949  -0.0484  0.9924  0.0989  -1.9260   0.0000   0.0000   0.0000   0.1418
  -8.300  -0.4940   0.08032   0.07653  -0.0533  0.9883  0.1000  -1.9965   0.0000   0.0000   0.0000   0.1338
  -8.200  -0.5064   0.07695   0.07301  -0.0608  0.9821  0.1023  -2.1229   0.0000   0.0000   0.0000   0.1220
  -8.100  -0.5248   0.07661   0.07221  -0.0668  0.9741  0.1044  -2.2830   0.0000   0.0000   0.0000   0.1150
  -8.000  -0.5274   0.07614   0.07159  -0.0670  0.9696  0.1047  -2.2937   0.0000   0.0000   0.0000   0.1155
  -7.900  -0.5222   0.06962   0.06534  -0.0678  0.9700  0.1065  -2.2632   0.0000   0.0000   0.0000   0.1126
  -7.800  -0.5109   0.06789   0.06370  -0.0679  0.9691  0.1077  -2.1853   0.0000   0.0000   0.0000   0.1095
  -7.700  -0.4996   0.06668   0.06253  -0.0680  0.9679  0.1090  -2.1096   0.0000   0.0000   0.0000   0.1062
  -7.600  -0.4894   0.06552   0.06139  -0.0686  0.9665  0.1106  -2.0464   0.0000   0.0000   0.0000   0.1022
  -7.500  -0.4801   0.06423   0.06007  -0.0698  0.9649  0.1127  -1.9966   0.0000   0.0000   0.0000   0.0970
  -7.400  -0.4726   0.06282   0.05860  -0.0713  0.9630  0.1153  -1.9639   0.0000   0.0000   0.0000   0.0915
  -7.300  -0.4738   0.06182   0.05753  -0.0712  0.9583  0.1177  -1.9604   0.0000   0.0000   0.0000   0.0922
  -7.200  -0.4825   0.06025   0.05544  -0.0745  0.9528  0.1259  -2.0578   0.0000   0.0000   0.0000   0.0881
  -7.100  -0.4702   0.05788   0.05320  -0.0753  0.9522  0.1275  -1.9838   0.0000   0.0000   0.0000   0.0824
  -7.000  -0.4572   0.05641   0.05180  -0.0762  0.9514  0.1293  -1.9063   0.0000   0.0000   0.0000   0.0758
  -6.900  -0.4566   0.05571   0.05104  -0.0749  0.9471  0.1305  -1.8710   0.0000   0.0000   0.0000   0.0785
  -6.800  -0.4494   0.05478   0.05010  -0.0750  0.9445  0.1328  -1.8244   0.0000   0.0000   0.0000   0.0757
  -6.000  -0.3845   0.03864   0.03156  -0.0771  0.9255  0.0679  -2.2017   0.0000   0.0000   0.0000   0.0410
  -5.900  -0.3732   0.03663   0.02944  -0.0779  0.9245  0.0654  -2.2072   0.0000   0.0000   0.0000   0.0328
  -5.800  -0.3600   0.03498   0.02758  -0.0785  0.9235  0.0626  -2.2244   0.0000   0.0000   0.0000   0.0232
  -5.700  -0.3456   0.03331   0.02557  -0.0791  0.9227  0.0597  -2.2683   0.0000   0.0000   0.0000   0.0123
  -5.600  -0.3469   0.03273   0.02481  -0.0768  0.9184  0.0586  -2.2938   0.0000   0.0000   0.0000   0.0197
  -5.500  -0.3399   0.03196   0.02384  -0.0760  0.9156  0.0578  -2.3088   0.0000   0.0000   0.0000   0.0175
  -5.400  -0.3293   0.03120   0.02295  -0.0759  0.9136  0.0576  -2.3032   0.0000   0.0000   0.0000   0.0104
  -5.300  -0.3172   0.03046   0.02210  -0.0762  0.9120  0.0578  -2.2871   0.0000   0.0000   0.0000   0.0006
  -5.200  -0.3039   0.02975   0.02130  -0.0767  0.9106  0.0584  -2.2623   0.0000   0.0000   0.0000  -0.0118
  -5.100  -0.2896   0.02911   0.02058  -0.0774  0.9094  0.0592  -2.2309   0.0000   0.0000   0.0000  -0.0268
  -5.000  -0.2746   0.02852   0.01994  -0.0782  0.9083  0.0602  -2.1937   0.0000   0.0000   0.0000  -0.0446
  -4.900  -0.2588   0.02798   0.01933  -0.0791  0.9074  0.0613  -2.1525   0.0000   0.0000   0.0000  -0.0659
  -4.800  -0.2423   0.02746   0.01875  -0.0801  0.9065  0.0623  -2.1079   0.0000   0.0000   0.0000  -0.0913
  -4.700  -0.2252   0.02697   0.01820  -0.0812  0.9059  0.0633  -2.0596   0.0000   0.0000   0.0000  -0.1218
  -4.600  -0.2341   0.02699   0.01821  -0.0776  0.8994  0.0634  -2.0590   0.0000   0.0000   0.0000  -0.0923
  -4.500  -0.2241   0.02669   0.01787  -0.0775  0.8970  0.0644  -2.0192   0.0000   0.0000   0.0000  -0.1067
  -4.400  -0.2119   0.02651   0.01764  -0.0778  0.8951  0.0667  -1.9664   0.0000   0.0000   0.0000  -0.1284
  -4.300  -0.1984   0.02648   0.01753  -0.0783  0.8934  0.0689  -1.9080   0.0000   0.0000   0.0000  -0.1562
  -4.200  -0.1848   0.02597   0.01700  -0.0788  0.8922  0.0708  -1.8607   0.0000   0.0000   0.0000  -0.1887
  -4.100  -0.1712   0.02528   0.01635  -0.0794  0.8912  0.0726  -1.8131   0.0000   0.0000   0.0000  -0.2267
  -4.000  -0.1567   0.02484   0.01593  -0.0801  0.8903  0.0737  -1.7609   0.0000   0.0000   0.0000  -0.2750
  -3.900  -0.1416   0.02444   0.01554  -0.0809  0.8895  0.0744  -1.7083   0.0000   0.0000   0.0000  -0.3358
  -3.800  -0.1262   0.02408   0.01519  -0.0817  0.8887  0.0754  -1.6521   0.0000   0.0000   0.0000  -0.4134
  -3.700  -0.1106   0.02374   0.01478  -0.0826  0.8880  0.0767  -1.5918   0.0000   0.0000   0.0000  -0.5145
  -3.600  -0.1238   0.02397   0.01500  -0.0784  0.8817  0.0766  -1.5992   0.0000   0.0000   0.0000  -0.3987
  -3.500  -0.1175   0.02381   0.01485  -0.0777  0.8790  0.0776  -1.5643   0.0000   0.0000   0.0000  -0.4273
  -3.400  -0.1076   0.02360   0.01464  -0.0775  0.8770  0.0792  -1.5225   0.0000   0.0000   0.0000  -0.4876
  -3.300  -0.0964   0.02338   0.01441  -0.0777  0.8754  0.0813  -1.4784   0.0000   0.0000   0.0000  -0.5742
  -3.200  -0.0840   0.02316   0.01417  -0.0780  0.8739  0.0841  -1.4333   0.0000   0.0000   0.0000  -0.6987
  -3.100  -0.0710   0.02288   0.01387  -0.0784  0.8727  0.0879  -1.3903   0.0000   0.0000   0.0000  -0.8789
  -3.000  -0.0576   0.02249   0.01353  -0.0790  0.8716  0.0962  -1.3467   0.0000   0.0000   0.0000  -1.1511
  -2.900  -0.0435   0.02207   0.01319  -0.0797  0.8707  0.1144  -1.3425   0.0000   0.0000   0.0000  -1.6192
  -2.800  -0.0407   0.01985   0.01299  -0.0794  0.8698  0.5192  -1.3699   0.0000   0.0000   0.0000  -1.7387
  -2.700  -0.0310   0.02005   0.01351  -0.0781  0.8689  0.6450  -1.3535   0.0000   0.0000   0.0000  -2.3128
  -2.600  -0.0384   0.02033   0.01384  -0.0748  0.8637  0.6535  -1.3497   0.0000   0.0000   0.0000  -1.7334
  -2.500  -0.0369   0.02057   0.01407  -0.0729  0.8599  0.6742  -1.3297   0.0000   0.0000   0.0000  -1.7632
  -2.400  -0.0301   0.02084   0.01435  -0.0716  0.8573  0.6977  -1.2972   0.0000   0.0000   0.0000  -2.1722
  -2.300  -0.0230   0.02110   0.01468  -0.0700  0.8552  0.7164  -1.2614   0.0000   0.0000   0.0000  -2.8488
  -2.200  -0.0144   0.02134   0.01495  -0.0688  0.8535  0.7340  -1.2217   0.0000   0.0000   0.0000  -4.6087
  -2.100  -0.0044   0.02159   0.01518  -0.0680  0.8521  0.7521  -1.1788   0.0000   0.0000   0.0000  -15.5279
  -2.000   0.0030   0.02182   0.01548  -0.0662  0.8509  0.7665  -1.1395   0.0000   0.0000   0.0000  22.8392
  -1.900   0.0101   0.02206   0.01576  -0.0643  0.8499  0.7845  -1.1004   0.0000   0.0000   0.0000   6.7558
  -1.800   0.0168   0.02229   0.01601  -0.0624  0.8489  0.8037  -1.0620   0.0000   0.0000   0.0000   4.0228
  -1.700   0.0225   0.02247   0.01624  -0.0600  0.8481  0.8190  -1.0254   0.0000   0.0000   0.0000   2.9628
  -1.600   0.0069   0.02274   0.01651  -0.0562  0.8417  0.8213  -1.0387   0.0000   0.0000   0.0000   8.5392
  -1.500   0.0047   0.02287   0.01666  -0.0534  0.8385  0.8297  -1.0210   0.0000   0.0000   0.0000  11.8147
  -1.400   0.0068   0.02298   0.01678  -0.0513  0.8362  0.8396  -0.9944   0.0000   0.0000   0.0000   7.9691
  -1.300   0.0135   0.02304   0.01681  -0.0503  0.8344  0.8482  -0.9592   0.0000   0.0000   0.0000   4.0367
  -1.200   0.0210   0.02305   0.01682  -0.0493  0.8328  0.8531  -0.9222   0.0000   0.0000   0.0000   2.6409
  -1.100   0.0321   0.02306   0.01679  -0.0494  0.8315  0.8567  -0.8786   0.0000   0.0000   0.0000   1.8096
  -1.000   0.0450   0.02305   0.01675  -0.0498  0.8304  0.8602  -0.8311   0.0000   0.0000   0.0000   1.3723
  -0.900   0.0593   0.02304   0.01664  -0.0505  0.8293  0.8634  -0.7758   0.0000   0.0000   0.0000   1.1121
  -0.800   0.0749   0.02302   0.01657  -0.0515  0.8284  0.8663  -0.7255   0.0000   0.0000   0.0000   0.9454
  -0.700   0.0905   0.02299   0.01649  -0.0524  0.8276  0.8686  -0.6753   0.0000   0.0000   0.0000   0.8344
  -0.600   0.1063   0.02295   0.01642  -0.0532  0.8269  0.8705  -0.6252   0.0000   0.0000   0.0000   0.7548
  -0.500   0.1223   0.02292   0.01636  -0.0540  0.8263  0.8726  -0.5753   0.0000   0.0000   0.0000   0.6952
  -0.400   0.0977   0.02332   0.01681  -0.0486  0.8183  0.8785  -0.6040   0.0000   0.0000   0.0000   0.7511
  -0.300   0.1034   0.02342   0.01689  -0.0480  0.8157  0.8824  -0.5743   0.0000   0.0000   0.0000   0.7172
  -0.200   0.1124   0.02350   0.01694  -0.0479  0.8138  0.8863  -0.5388   0.0000   0.0000   0.0000   0.6793
  -0.100   0.1218   0.02354   0.01696  -0.0478  0.8121  0.8893  -0.5023   0.0000   0.0000   0.0000   0.6443
   0.000   0.1320   0.02357   0.01698  -0.0477  0.8106  0.8924  -0.4699   0.0000   0.0000   0.0000   0.6129
   0.100   0.1435   0.02360   0.01699  -0.0479  0.8093  0.8956  -0.4750   0.0000   0.0000   0.0000   0.5849
   0.200   0.1559   0.02362   0.01700  -0.0483  0.8081  0.8986  -0.4807   0.0000   0.0000   0.0000   0.5603
   0.300   0.1692   0.02364   0.01699  -0.0488  0.8071  0.9018  -0.4868   0.0000   0.0000   0.0000   0.5389
   0.400   0.1831   0.02365   0.01699  -0.0495  0.8062  0.9049  -0.4935   0.0000   0.0000   0.0000   0.5204
   0.500   0.1973   0.02366   0.01698  -0.0501  0.8054  0.9075  -0.5009   0.0000   0.0000   0.0000   0.5036
   0.600   0.2122   0.02367   0.01699  -0.0508  0.8047  0.9103  -0.5086   0.0000   0.0000   0.0000   0.4889
   0.700   0.2279   0.02368   0.01699  -0.0517  0.8040  0.9135  -0.5168   0.0000   0.0000   0.0000   0.4758
   0.800   0.2442   0.02368   0.01698  -0.0526  0.8034  0.9169  -0.5254   0.0000   0.0000   0.0000   0.4644
   0.900   0.2603   0.02368   0.01696  -0.0535  0.8028  0.9204  -0.5340   0.0000   0.0000   0.0000   0.4543
   1.100   0.2387   0.02458   0.01792  -0.0478  0.7907  0.9370  -0.5157   0.0000   0.0000   0.0000   0.4486
   1.200   0.2522   0.02467   0.01801  -0.0485  0.7891  0.9410  -0.5224   0.0000   0.0000   0.0000   0.4406
   1.300   0.2662   0.02477   0.01811  -0.0494  0.7877  0.9453  -0.5295   0.0000   0.0000   0.0000   0.4334
   1.400   0.2807   0.02485   0.01819  -0.0503  0.7864  0.9499  -0.5369   0.0000   0.0000   0.0000   0.4269
   1.500   0.2974   0.02493   0.01827  -0.0516  0.7853  0.9537  -0.5456   0.0000   0.0000   0.0000   0.4211
   1.600   0.3153   0.02500   0.01834  -0.0531  0.7843  0.9573  -0.5555   0.0000   0.0000   0.0000   0.4160
   1.700   0.3331   0.02507   0.01841  -0.0545  0.7834  0.9614  -0.5655   0.0000   0.0000   0.0000   0.4113
   1.800   0.3520   0.02513   0.01847  -0.0562  0.7827  0.9650  -0.5761   0.0000   0.0000   0.0000   0.4071
   1.900   0.3722   0.02517   0.01852  -0.0581  0.7820  0.9680  -0.5875   0.0000   0.0000   0.0000   0.4034
   2.000   0.3928   0.02518   0.01854  -0.0600  0.7813  0.9713  -0.5997   0.0000   0.0000   0.0000   0.4000
   2.100   0.4138   0.02517   0.01854  -0.0619  0.7807  0.9747  -0.6124   0.0000   0.0000   0.0000   0.3967
   2.200   0.4361   0.02515   0.01852  -0.0640  0.7802  0.9771  -0.6259   0.0000   0.0000   0.0000   0.3939
   2.300   0.4581   0.02509   0.01848  -0.0660  0.7797  0.9798  -0.6394   0.0000   0.0000   0.0000   0.3912
   2.400   0.4788   0.02505   0.01845  -0.0678  0.7791  0.9832  -0.6522   0.0000   0.0000   0.0000   0.3886
   2.500   0.5001   0.02501   0.01849  -0.0698  0.7785  0.9858  -0.6655   0.0000   0.0000   0.0000   0.3863
   3.300   0.5559   0.02661   0.02013  -0.0691  0.7559  1.0000  -0.7729   0.0000   0.0000   0.0000   0.3703
   3.400   0.5745   0.02650   0.02004  -0.0703  0.7552  1.0000  -0.8291   0.0000   0.0000   0.0000   0.3683
   3.500   0.5926   0.02639   0.01995  -0.0714  0.7545  1.0000  -0.8852   0.0000   0.0000   0.0000   0.3664
   3.600   0.6102   0.02626   0.01985  -0.0724  0.7538  1.0000  -0.9410   0.0000   0.0000   0.0000   0.3644
   3.700   0.6278   0.02612   0.01973  -0.0733  0.7531  1.0000  -0.9978   0.0000   0.0000   0.0000   0.3625
   4.300   0.6632   0.02787   0.02155  -0.0710  0.7311  1.0000  -1.1916   0.0000   0.0000   0.0000   0.3521
   4.400   0.6836   0.02754   0.02127  -0.0721  0.7303  1.0000  -1.2580   0.0000   0.0000   0.0000   0.3505
   4.500   0.7039   0.02717   0.02095  -0.0732  0.7295  1.0000  -1.3253   0.0000   0.0000   0.0000   0.3489
   4.600   0.7237   0.02674   0.02057  -0.0741  0.7287  1.0000  -1.3926   0.0000   0.0000   0.0000   0.3472
   4.700   0.7439   0.02628   0.02025  -0.0749  0.7280  1.0000  -1.4591   0.0000   0.0000   0.0000   0.3455
   4.800   0.7611   0.02596   0.01998  -0.0755  0.7264  1.0000  -1.5383   0.0000   0.0000   0.0000   0.3439
   5.000   0.7354   0.02827   0.02227  -0.0704  0.7084  1.0000  -1.5148   0.0000   0.0000   0.0000   0.3401
   5.100   0.7603   0.02745   0.02152  -0.0717  0.7073  1.0000  -1.6195   0.0000   0.0000   0.0000   0.3386
   5.200   0.7935   0.02585   0.02001  -0.0734  0.7063  1.0000  -1.7527   0.0000   0.0000   0.0000   0.3367
   5.300   0.8660   0.01973   0.01390  -0.0762  0.6928  1.0000  -2.0275   0.0000   0.0000   0.0000   0.3322
   5.400   0.8899   0.01795   0.01209  -0.0761  0.6787  1.0000  -2.1409   0.0000   0.0000   0.0000   0.3297
   5.500   0.9100   0.01704   0.01115  -0.0765  0.6695  1.0000  -2.2395   0.0000   0.0000   0.0000   0.3280
   5.600   0.9141   0.01705   0.01122  -0.0752  0.6598  1.0000  -2.2851   0.0000   0.0000   0.0000   0.3262
   5.700   0.9287   0.01651   0.01067  -0.0751  0.6495  1.0000  -2.3655   0.0000   0.0000   0.0000   0.3246
   5.800   0.9420   0.01618   0.01034  -0.0749  0.6402  1.0000  -2.4408   0.0000   0.0000   0.0000   0.3232
   5.900   0.9471   0.01619   0.01042  -0.0738  0.6290  1.0000  -2.4890   0.0000   0.0000   0.0000   0.3214
   6.000   0.9620   0.01572   0.00987  -0.0736  0.6138  1.0000  -2.5694   0.0000   0.0000   0.0000   0.3199
   6.100   0.9652   0.01579   0.01001  -0.0722  0.5977  1.0000  -2.6102   0.0000   0.0000   0.0000   0.3181
   6.200   0.9720   0.01563   0.00981  -0.0710  0.5732  1.0000  -2.6616   0.0000   0.0000   0.0000   0.3162
   6.300   0.9760   0.01553   0.00953  -0.0691  0.5271  1.0000  -2.7016   0.0000   0.0000   0.0000   0.3138
   6.400   0.9716   0.01590   0.00932  -0.0659  0.4324  1.0000  -2.7160   0.0000   0.0000   0.0000   0.3107
   6.500   0.9612   0.01682   0.00964  -0.0625  0.3502  1.0000  -2.7136   0.0000   0.0000   0.0000   0.3077
   6.600   0.9502   0.01785   0.01019  -0.0592  0.2818  1.0000  -2.7081   0.0000   0.0000   0.0000   0.3049
   6.700   0.9391   0.01887   0.01078  -0.0560  0.2206  1.0000  -2.7012   0.0000   0.0000   0.0000   0.3021
   6.800   0.9288   0.02002   0.01148  -0.0532  0.1635  1.0000  -2.6935   0.0000   0.0000   0.0000   0.2995
   6.900   0.9213   0.02112   0.01222  -0.0508  0.1243  1.0000  -2.6869   0.0000   0.0000   0.0000   0.2973
   7.000   0.9185   0.02200   0.01290  -0.0490  0.1057  1.0000  -2.6897   0.0000   0.0000   0.0000   0.2953
   7.100   0.9180   0.02273   0.01354  -0.0475  0.0960  1.0000  -2.7007   0.0000   0.0000   0.0000   0.2936
   7.200   0.9204   0.02330   0.01409  -0.0464  0.0892  1.0000  -2.7238   0.0000   0.0000   0.0000   0.2922
   7.300   0.9211   0.02398   0.01470  -0.0452  0.0841  1.0000  -2.7549   0.0000   0.0000   0.0000   0.2907
   7.400   0.9226   0.02462   0.01533  -0.0441  0.0801  1.0000  -2.7924   0.0000   0.0000   0.0000   0.2893
   7.500   0.9276   0.02504   0.01578  -0.0434  0.0763  1.0000  -2.8482   0.0000   0.0000   0.0000   0.2881
   7.600   0.9318   0.02552   0.01625  -0.0426  0.0728  1.0000  -2.9032   0.0000   0.0000   0.0000   0.2870
   7.700   0.9352   0.02607   0.01691  -0.0418  0.0701  1.0000  -2.9644   0.0000   0.0000   0.0000   0.2858
   7.800   0.9376   0.02671   0.01753  -0.0408  0.0681  1.0000  -3.0126   0.0000   0.0000   0.0000   0.2846
   7.900   0.9396   0.02747   0.01826  -0.0398  0.0663  1.0000  -3.0535   0.0000   0.0000   0.0000   0.2833
   8.000   0.9439   0.02816   0.01892  -0.0390  0.0648  1.0000  -3.1014   0.0000   0.0000   0.0000   0.2821
   8.100   0.9508   0.02859   0.01940  -0.0385  0.0636  1.0000  -3.1636   0.0000   0.0000   0.0000   0.2811
   8.200   0.9581   0.02905   0.01989  -0.0380  0.0623  1.0000  -3.2259   0.0000   0.0000   0.0000   0.2802
   8.300   0.9657   0.02953   0.02040  -0.0375  0.0609  1.0000  -3.2887   0.0000   0.0000   0.0000   0.2793
   8.400   0.9738   0.03002   0.02091  -0.0371  0.0594  1.0000  -3.3533   0.0000   0.0000   0.0000   0.2784
   8.500   0.9825   0.03053   0.02143  -0.0368  0.0579  1.0000  -3.4200   0.0000   0.0000   0.0000   0.2776
   8.600   0.9918   0.03106   0.02195  -0.0365  0.0565  1.0000  -3.4891   0.0000   0.0000   0.0000   0.2769
   8.700   1.0020   0.03161   0.02250  -0.0364  0.0551  1.0000  -3.5620   0.0000   0.0000   0.0000   0.2763
   8.800   1.0141   0.03225   0.02311  -0.0364  0.0538  1.0000  -3.6411   0.0000   0.0000   0.0000   0.2758
   8.900   1.0324   0.03315   0.02396  -0.0372  0.0524  1.0000  -3.7363   0.0000   0.0000   0.0000   0.2758
   9.000   1.0873   0.03620   0.02704  -0.0427  0.0505  1.0000  -3.9093   0.0000   0.0000   0.0000   0.2791
   9.100   1.1055   0.03738   0.02830  -0.0438  0.0503  1.0000  -3.9915   0.0000   0.0000   0.0000   0.2793
   9.200   1.1208   0.03857   0.02960  -0.0444  0.0502  1.0000  -4.0625   0.0000   0.0000   0.0000   0.2792
   9.300   1.1357   0.03992   0.03107  -0.0449  0.0502  1.0000  -4.1272   0.0000   0.0000   0.0000   0.2790
   9.400   1.1503   0.04154   0.03280  -0.0455  0.0503  1.0000  -4.1847   0.0000   0.0000   0.0000   0.2789
   9.500   1.1643   0.04336   0.03478  -0.0460  0.0505  1.0000  -4.2350   0.0000   0.0000   0.0000   0.2787
   9.600   1.1731   0.04417   0.03569  -0.0456  0.0507  1.0000  -4.2877   0.0000   0.0000   0.0000   0.2780
   9.700   1.1814   0.04505   0.03668  -0.0452  0.0509  1.0000  -4.3354   0.0000   0.0000   0.0000   0.2773
   9.800   1.1894   0.04703   0.03881  -0.0450  0.0507  1.0000  -4.3604   0.0000   0.0000   0.0000   0.2768
   9.900   1.1910   0.04789   0.03981  -0.0439  0.0501  1.0000  -4.3852   0.0000   0.0000   0.0000   0.2756
  10.000   1.1912   0.04769   0.03974  -0.0423  0.0495  1.0000  -4.4267   0.0000   0.0000   0.0000   0.2742
  10.100   1.1921   0.04779   0.03998  -0.0409  0.0486  1.0000  -4.4642   0.0000   0.0000   0.0000   0.2728
  10.200   1.1935   0.04815   0.04055  -0.0397  0.0476  1.0000  -4.4951   0.0000   0.0000   0.0000   0.2716
  10.300   1.1952   0.04872   0.04124  -0.0386  0.0465  1.0000  -4.5276   0.0000   0.0000   0.0000   0.2705
  10.400   1.1974   0.04963   0.04227  -0.0375  0.0459  1.0000  -4.5518   0.0000   0.0000   0.0000   0.2695
  10.500   1.1994   0.05084   0.04363  -0.0365  0.0457  1.0000  -4.5610   0.0000   0.0000   0.0000   0.2685
  10.600   1.2004   0.05208   0.04501  -0.0354  0.0455  1.0000  -4.5649   0.0000   0.0000   0.0000   0.2674
  10.700   1.2006   0.05336   0.04643  -0.0342  0.0454  1.0000  -4.5636   0.0000   0.0000   0.0000   0.2663
  10.800   1.1999   0.05468   0.04788  -0.0330  0.0453  1.0000  -4.5572   0.0000   0.0000   0.0000   0.2651
  10.900   1.1983   0.05603   0.04937  -0.0317  0.0453  1.0000  -4.5457   0.0000   0.0000   0.0000   0.2640
  11.000   1.1957   0.05742   0.05089  -0.0303  0.0453  1.0000  -4.5299   0.0000   0.0000   0.0000   0.2628
  11.100   1.1922   0.05884   0.05245  -0.0290  0.0454  1.0000  -4.5103   0.0000   0.0000   0.0000   0.2616
  11.200   1.1880   0.06030   0.05404  -0.0276  0.0455  1.0000  -4.4876   0.0000   0.0000   0.0000   0.2604
  11.300   1.1831   0.06181   0.05566  -0.0263  0.0457  1.0000  -4.4626   0.0000   0.0000   0.0000   0.2592
  11.400   1.1776   0.06335   0.05733  -0.0250  0.0459  1.0000  -4.4360   0.0000   0.0000   0.0000   0.2581
  11.500   1.1716   0.06493   0.05903  -0.0238  0.0462  1.0000  -4.4084   0.0000   0.0000   0.0000   0.2571
  11.600   1.1652   0.06656   0.06077  -0.0226  0.0464  1.0000  -4.3804   0.0000   0.0000   0.0000   0.2561
  11.700   1.1585   0.06824   0.06255  -0.0216  0.0468  1.0000  -4.3522   0.0000   0.0000   0.0000   0.2551
  11.800   1.1515   0.06998   0.06439  -0.0206  0.0471  1.0000  -4.3239   0.0000   0.0000   0.0000   0.2543
  11.900   1.1444   0.07177   0.06628  -0.0198  0.0474  1.0000  -4.2959   0.0000   0.0000   0.0000   0.2535
  12.000   1.1370   0.07365   0.06824  -0.0190  0.0478  1.0000  -4.2678   0.0000   0.0000   0.0000   0.2528
  12.100   1.1297   0.07564   0.07031  -0.0184  0.0482  1.0000  -4.2394   0.0000   0.0000   0.0000   0.2522
  12.200   1.1225   0.07782   0.07257  -0.0180  0.0486  1.0000  -4.2098   0.0000   0.0000   0.0000   0.2518
  12.300   1.0873   0.08200   0.07726  -0.0164  0.0570  1.0000  -3.8919   0.0000   0.0000   0.0000   0.2508
  12.400   1.0730   0.08470   0.08007  -0.0164  0.0583  1.0000  -3.8253   0.0000   0.0000   0.0000   0.2508
  12.500   1.0610   0.08733   0.08278  -0.0166  0.0594  1.0000  -3.7729   0.0000   0.0000   0.0000   0.2510
  12.600   1.0504   0.08997   0.08548  -0.0170  0.0604  1.0000  -3.7277   0.0000   0.0000   0.0000   0.2514
  12.700   1.0416   0.09277   0.08833  -0.0174  0.0616  1.0000  -3.6866   0.0000   0.0000   0.0000   0.2518
  13.000   0.8643   0.13808   0.13405  -0.0480  0.1267  1.0000  -2.3120   0.0000   0.0000   0.0000   0.2911
  13.100   0.9041   0.13170   0.12776  -0.0383  0.1171  1.0000  -2.6035   0.0000   0.0000   0.0000   0.2776
  13.200   0.8813   0.13789   0.13389  -0.0444  0.1159  1.0000  -2.4611   0.0000   0.0000   0.0000   0.2856
  13.300   0.8717   0.14174   0.13772  -0.0474  0.1149  1.0000  -2.3879   0.0000   0.0000   0.0000   0.2896
  13.400   0.8639   0.14515   0.14110  -0.0501  0.1135  1.0000  -2.3262   0.0000   0.0000   0.0000   0.2930
  13.500   0.8586   0.14795   0.14388  -0.0521  0.1112  1.0000  -2.2837   0.0000   0.0000   0.0000   0.2956
  13.600   0.8597   0.14932   0.14526  -0.0526  0.1074  1.0000  -2.2909   0.0000   0.0000   0.0000   0.2960
  13.700   0.8650   0.15014   0.14609  -0.0522  0.1051  1.0000  -2.3213   0.0000   0.0000   0.0000   0.2951
  13.800   0.8733   0.15053   0.14650  -0.0511  0.1032  1.0000  -2.3681   0.0000   0.0000   0.0000   0.2930
  14.100   0.8948   0.15535   0.15135  -0.0468  0.0989  1.0000  -2.4633   0.0000   0.0000   0.0000   0.2864
  14.200   0.8808   0.15919   0.15515  -0.0513  0.0984  1.0000  -2.3623   0.0000   0.0000   0.0000   0.2922
  14.300   0.8625   0.16325   0.15915  -0.0572  0.0964  1.0000  -2.2277   0.0000   0.0000   0.0000   0.3002
  14.400   0.8560   0.16615   0.16203  -0.0600  0.0940  1.0000  -2.1634   0.0000   0.0000   0.0000   0.3039
  14.500   0.8542   0.16840   0.16427  -0.0615  0.0919  1.0000  -2.1319   0.0000   0.0000   0.0000   0.3057
  14.600   0.8546   0.17029   0.16615  -0.0624  0.0900  1.0000  -2.1162   0.0000   0.0000   0.0000   0.3067
  14.700   0.8567   0.17187   0.16773  -0.0629  0.0882  1.0000  -2.1138   0.0000   0.0000   0.0000   0.3070
  14.800   0.8607   0.17312   0.16899  -0.0630  0.0865  1.0000  -2.1267   0.0000   0.0000   0.0000   0.3065
  14.900   0.8672   0.17398   0.16987  -0.0624  0.0851  1.0000  -2.1602   0.0000   0.0000   0.0000   0.3051
  15.000   0.8768   0.17450   0.17041  -0.0609  0.0838  1.0000  -2.2202   0.0000   0.0000   0.0000   0.3024
  15.100   0.8927   0.17500   0.17096  -0.0572  0.0823  1.0000  -2.3338   0.0000   0.0000   0.0000   0.2969
  15.200   0.8914   0.17970   0.17562  -0.0577  0.0814  1.0000  -2.3103   0.0000   0.0000   0.0000   0.2974
  15.300   0.8883   0.18216   0.17807  -0.0598  0.0812  1.0000  -2.2635   0.0000   0.0000   0.0000   0.3000
  15.400   0.8829   0.18464   0.18052  -0.0626  0.0809  1.0000  -2.1954   0.0000   0.0000   0.0000   0.3034
  15.500   0.8737   0.18713   0.18298  -0.0666  0.0801  1.0000  -2.0870   0.0000   0.0000   0.0000   0.3087
  15.600   0.8651   0.18968   0.18549  -0.0707  0.0780  1.0000  -1.9864   0.0000   0.0000   0.0000   0.3140
  15.700   0.8635   0.19179   0.18759  -0.0725  0.0762  1.0000  -1.9472   0.0000   0.0000   0.0000   0.3162
  15.800   0.8639   0.19368   0.18947  -0.0737  0.0747  1.0000  -1.9280   0.0000   0.0000   0.0000   0.3174
  15.900   0.8653   0.19543   0.19122  -0.0747  0.0733  1.0000  -1.9274   0.0000   0.0000   0.0000   0.3183
  16.000   0.8673   0.19707   0.19286  -0.0755  0.0720  1.0000  -1.9352   0.0000   0.0000   0.0000   0.3188
  16.100   0.8700   0.19860   0.19439  -0.0760  0.0709  1.0000  -1.9513   0.0000   0.0000   0.0000   0.3190
  16.200   0.8735   0.20003   0.19583  -0.0764  0.0698  1.0000  -1.9765   0.0000   0.0000   0.0000   0.3190
  16.300   0.8778   0.20137   0.19717  -0.0765  0.0689  1.0000  -2.0127   0.0000   0.0000   0.0000   0.3185
  16.400   0.8832   0.20262   0.19844  -0.0763  0.0680  1.0000  -2.0632   0.0000   0.0000   0.0000   0.3176
  16.500   0.8901   0.20385   0.19968  -0.0756  0.0671  1.0000  -2.1320   0.0000   0.0000   0.0000   0.3160
  16.600   0.8987   0.20529   0.20115  -0.0743  0.0663  1.0000  -2.2253   0.0000   0.0000   0.0000   0.3135
  16.700   0.9051   0.21027   0.20612  -0.0725  0.0651  1.0000  -2.2916   0.0000   0.0000   0.0000   0.3108
  16.800   0.9051   0.21224   0.20809  -0.0740  0.0651  1.0000  -2.2665   0.0000   0.0000   0.0000   0.3124
  16.900   0.9049   0.21412   0.20995  -0.0757  0.0649  1.0000  -2.2380   0.0000   0.0000   0.0000   0.3141
  17.000   0.9032   0.21593   0.21174  -0.0778  0.0648  1.0000  -2.1923   0.0000   0.0000   0.0000   0.3164
  17.100   0.9009   0.21754   0.21333  -0.0801  0.0645  1.0000  -2.1378   0.0000   0.0000   0.0000   0.3191
  17.200   0.8970   0.21893   0.21470  -0.0832  0.0638  1.0000  -2.0586   0.0000   0.0000   0.0000   0.3227
  17.300   0.8933   0.22019   0.21593  -0.0861  0.0626  1.0000  -1.9821   0.0000   0.0000   0.0000   0.3263
  17.400   0.8929   0.22160   0.21733  -0.0880  0.0613  1.0000  -1.9487   0.0000   0.0000   0.0000   0.3282
  17.500   0.8942   0.22312   0.21884  -0.0893  0.0601  1.0000  -1.9361   0.0000   0.0000   0.0000   0.3294
  17.600   0.8962   0.22463   0.22036  -0.0903  0.0591  1.0000  -1.9327   0.0000   0.0000   0.0000   0.3302
  17.700   0.8984   0.22614   0.22186  -0.0913  0.0581  1.0000  -1.9348   0.0000   0.0000   0.0000   0.3308
  17.800   0.9010   0.22761   0.22334  -0.0921  0.0572  1.0000  -1.9412   0.0000   0.0000   0.0000   0.3313
  17.900   0.9038   0.22906   0.22479  -0.0929  0.0563  1.0000  -1.9514   0.0000   0.0000   0.0000   0.3317
  18.000   0.9068   0.23049   0.22622  -0.0936  0.0555  1.0000  -1.9656   0.0000   0.0000   0.0000   0.3320
  18.100   0.9101   0.23190   0.22763  -0.0942  0.0547  1.0000  -1.9845   0.0000   0.0000   0.0000   0.3321
  18.200   0.9137   0.23330   0.22910  -0.0947  0.0540  1.0000  -2.0142   0.0000   0.0000   0.0000   0.3320
  18.300   0.9178   0.23474   0.23054  -0.0950  0.0534  1.0000  -2.0492   0.0000   0.0000   0.0000   0.3317
  18.400   0.9228   0.23628   0.23210  -0.0950  0.0527  1.0000  -2.0935   0.0000   0.0000   0.0000   0.3310
  18.500   0.9309   0.23827   0.23412  -0.0939  0.0519  1.0000  -2.1830   0.0000   0.0000   0.0000   0.3288
  18.600   0.9406   0.24481   0.24067  -0.0909  0.0504  1.0000  -2.3080   0.0000   0.0000   0.0000   0.3244
  18.700   0.9415   0.24612   0.24197  -0.0925  0.0503  1.0000  -2.2792   0.0000   0.0000   0.0000   0.3258
  18.800   0.9413   0.24723   0.24307  -0.0944  0.0502  1.0000  -2.2356   0.0000   0.0000   0.0000   0.3277
  18.900   0.9408   0.24809   0.24392  -0.0966  0.0499  1.0000  -2.1847   0.0000   0.0000   0.0000   0.3299
  19.000   0.9391   0.24865   0.24445  -0.0991  0.0495  1.0000  -2.1181   0.0000   0.0000   0.0000   0.3326
  19.100   0.9366   0.24899   0.24477  -0.1019  0.0489  1.0000  -2.0440   0.0000   0.0000   0.0000   0.3356
  19.200   0.9361   0.24997   0.24573  -0.1042  0.0474  1.0000  -1.9859   0.0000   0.0000   0.0000   0.3380
  19.300   0.9378   0.25141   0.24716  -0.1057  0.0457  1.0000  -1.9653   0.0000   0.0000   0.0000   0.3391
  19.400   0.9403   0.25285   0.24860  -0.1066  0.0440  1.0000  -1.9654   0.0000   0.0000   0.0000   0.3397
  19.500   0.9433   0.25422   0.24998  -0.1074  0.0426  1.0000  -1.9773   0.0000   0.0000   0.0000   0.3400
  19.600   0.9465   0.25558   0.25135  -0.1080  0.0415  1.0000  -1.9955   0.0000   0.0000   0.0000   0.3400
  19.700   0.9498   0.25700   0.25277  -0.1085  0.0407  1.0000  -2.0140   0.0000   0.0000   0.0000   0.3400
  19.800   0.9535   0.25845   0.25422  -0.1089  0.0400  1.0000  -2.0399   0.0000   0.0000   0.0000   0.3398
  19.900   0.9578   0.25996   0.25574  -0.1090  0.0394  1.0000  -2.0780   0.0000   0.0000   0.0000   0.3392
  20.000   0.9635   0.26181   0.25762  -0.1086  0.0387  1.0000  -2.1390   0.0000   0.0000   0.0000   0.3379
  20.100   0.9733   0.26575   0.26160  -0.1064  0.0379  1.0000  -2.2639   0.0000   0.0000   0.0000   0.3343
  20.200   0.9761   0.27131   0.26714  -0.1063  0.0374  1.0000  -2.2560   0.0000   0.0000   0.0000   0.3338
  20.300   0.9781   0.27294   0.26876  -0.1075  0.0373  1.0000  -2.2326   0.0000   0.0000   0.0000   0.3347
  20.400   0.9798   0.27447   0.27029  -0.1088  0.0373  1.0000  -2.2054   0.0000   0.0000   0.0000   0.3356
  20.500   0.9811   0.27589   0.27170  -0.1103  0.0372  1.0000  -2.1733   0.0000   0.0000   0.0000   0.3367
  20.600   0.9824   0.27720   0.27300  -0.1117  0.0371  1.0000  -2.1401   0.0000   0.0000   0.0000   0.3379
  20.700   0.9835   0.27835   0.27414  -0.1133  0.0370  1.0000  -2.1035   0.0000   0.0000   0.0000   0.3392
  20.800   0.9838   0.27921   0.27499  -0.1151  0.0368  1.0000  -2.0599   0.0000   0.0000   0.0000   0.3407
  20.900   0.9838   0.27989   0.27565  -0.1171  0.0366  1.0000  -2.0102   0.0000   0.0000   0.0000   0.3425
  21.000   0.9840   0.28067   0.27642  -0.1191  0.0363  1.0000  -1.9566   0.0000   0.0000   0.0000   0.3444
  21.100   0.9851   0.28178   0.27753  -0.1210  0.0357  1.0000  -1.9082   0.0000   0.0000   0.0000   0.3459
  21.200   0.9871   0.28328   0.27902  -0.1225  0.0349  1.0000  -1.8760   0.0000   0.0000   0.0000   0.3470
  21.300   0.9895   0.28493   0.28067  -0.1236  0.0342  1.0000  -1.8566   0.0000   0.0000   0.0000   0.3477
  21.400   0.9920   0.28661   0.28235  -0.1247  0.0336  1.0000  -1.8439   0.0000   0.0000   0.0000   0.3483
  21.500   0.9946   0.28831   0.28405  -0.1257  0.0330  1.0000  -1.8351   0.0000   0.0000   0.0000   0.3487
  21.600   0.9972   0.29000   0.28574  -0.1266  0.0324  1.0000  -1.8290   0.0000   0.0000   0.0000   0.3491
  21.700   0.9998   0.29168   0.28742  -0.1275  0.0319  1.0000  -1.8249   0.0000   0.0000   0.0000   0.3495
  21.800   1.0025   0.29335   0.28909  -0.1284  0.0314  1.0000  -1.8227   0.0000   0.0000   0.0000   0.3499
  21.900   1.0052   0.29501   0.29076  -0.1293  0.0309  1.0000  -1.8221   0.0000   0.0000   0.0000   0.3502
  22.000   1.0079   0.29666   0.29241  -0.1302  0.0305  1.0000  -1.8231   0.0000   0.0000   0.0000   0.3505
  22.100   1.0107   0.29830   0.29406  -0.1310  0.0301  1.0000  -1.8257   0.0000   0.0000   0.0000   0.3507
  22.200   1.0134   0.29994   0.29570  -0.1318  0.0297  1.0000  -1.8300   0.0000   0.0000   0.0000   0.3510
  22.300   1.0162   0.30157   0.29733  -0.1326  0.0293  1.0000  -1.8361   0.0000   0.0000   0.0000   0.3512
  22.400   1.0190   0.30319   0.29896  -0.1333  0.0289  1.0000  -1.8441   0.0000   0.0000   0.0000   0.3513
  22.500   1.0218   0.30482   0.30059  -0.1341  0.0286  1.0000  -1.8542   0.0000   0.0000   0.0000   0.3515
  22.600   1.0247   0.30646   0.30224  -0.1347  0.0283  1.0000  -1.8668   0.0000   0.0000   0.0000   0.3515
  22.700   1.0276   0.30812   0.30391  -0.1354  0.0280  1.0000  -1.8823   0.0000   0.0000   0.0000   0.3516
  22.800   1.0306   0.30983   0.30562  -0.1359  0.0277  1.0000  -1.9011   0.0000   0.0000   0.0000   0.3515
  22.900   1.0338   0.31163   0.30747  -0.1364  0.0274  1.0000  -1.9230   0.0000   0.0000   0.0000   0.3513
  23.000   1.0371   0.31359   0.30944  -0.1368  0.0272  1.0000  -1.9507   0.0000   0.0000   0.0000   0.3510
  23.100   1.0408   0.31589   0.31175  -0.1369  0.0269  1.0000  -1.9869   0.0000   0.0000   0.0000   0.3505
  23.200   1.0455   0.31912   0.31501  -0.1365  0.0266  1.0000  -2.0394   0.0000   0.0000   0.0000   0.3493
  23.300   1.0520   0.32829   0.32417  -0.1349  0.0261  1.0000  -2.0970   0.0000   0.0000   0.0000   0.3469
  23.400   1.0543   0.33002   0.32590  -0.1359  0.0261  1.0000  -2.0863   0.0000   0.0000   0.0000   0.3474
  23.500   1.0565   0.33173   0.32762  -0.1369  0.0261  1.0000  -2.0756   0.0000   0.0000   0.0000   0.3479
  23.600   1.0588   0.33340   0.32929  -0.1380  0.0260  1.0000  -2.0645   0.0000   0.0000   0.0000   0.3484
  23.700   1.0607   0.33497   0.33086  -0.1391  0.0260  1.0000  -2.0500   0.0000   0.0000   0.0000   0.3490
  23.800   1.0627   0.33651   0.33240  -0.1402  0.0260  1.0000  -2.0356   0.0000   0.0000   0.0000   0.3496
  23.900   1.0647   0.33801   0.33390  -0.1413  0.0260  1.0000  -2.0211   0.0000   0.0000   0.0000   0.3501
  24.000   1.0666   0.33946   0.33535  -0.1425  0.0259  1.0000  -2.0064   0.0000   0.0000   0.0000   0.3508
  24.100   1.0683   0.34082   0.33671  -0.1437  0.0259  1.0000  -1.9901   0.0000   0.0000   0.0000   0.3514
  24.200   1.0699   0.34208   0.33797  -0.1449  0.0259  1.0000  -1.9718   0.0000   0.0000   0.0000   0.3521
  24.300   1.0715   0.34332   0.33921  -0.1462  0.0258  1.0000  -1.9534   0.0000   0.0000   0.0000   0.3529
  24.400   1.0732   0.34455   0.34044  -0.1475  0.0258  1.0000  -1.9349   0.0000   0.0000   0.0000   0.3536
  24.500   1.0748   0.34578   0.34166  -0.1487  0.0258  1.0000  -1.9163   0.0000   0.0000   0.0000   0.3543
  24.600   1.0765   0.34699   0.34288  -0.1500  0.0257  1.0000  -1.8974   0.0000   0.0000   0.0000   0.3551
  24.700   1.0783   0.34821   0.34409  -0.1513  0.0256  1.0000  -1.8782   0.0000   0.0000   0.0000   0.3558
  24.800   1.0801   0.34942   0.34530  -0.1527  0.0256  1.0000  -1.8585   0.0000   0.0000   0.0000   0.3565
  24.900   1.0820   0.35065   0.34653  -0.1540  0.0255  1.0000  -1.8383   0.0000   0.0000   0.0000   0.3573
  25.000   1.0839   0.35191   0.34779  -0.1553  0.0254  1.0000  -1.8178   0.0000   0.0000   0.0000   0.3580
  25.100   1.0860   0.35323   0.34911  -0.1566  0.0252  1.0000  -1.7973   0.0000   0.0000   0.0000   0.3587
  25.200   1.0882   0.35463   0.35051  -0.1579  0.0250  1.0000  -1.7779   0.0000   0.0000   0.0000   0.3593
  25.300   1.0906   0.35613   0.35201  -0.1592  0.0248  1.0000  -1.7604   0.0000   0.0000   0.0000   0.3599
  25.400   1.0930   0.35773   0.35362  -0.1603  0.0246  1.0000  -1.7457   0.0000   0.0000   0.0000   0.3604
  25.500   1.0954   0.35943   0.35532  -0.1614  0.0243  1.0000  -1.7339   0.0000   0.0000   0.0000   0.3609
  25.600   1.0978   0.36119   0.35708  -0.1625  0.0240  1.0000  -1.7248   0.0000   0.0000   0.0000   0.3612
  25.700   1.1003   0.36298   0.35888  -0.1635  0.0238  1.0000  -1.7178   0.0000   0.0000   0.0000   0.3616
  25.800   1.1027   0.36479   0.36069  -0.1644  0.0235  1.0000  -1.7122   0.0000   0.0000   0.0000   0.3619
  25.900   1.1050   0.36661   0.36252  -0.1654  0.0232  1.0000  -1.7078   0.0000   0.0000   0.0000   0.3622
  26.000   1.1074   0.36844   0.36435  -0.1663  0.0230  1.0000  -1.7043   0.0000   0.0000   0.0000   0.3625
  26.100   1.1097   0.37027   0.36619  -0.1673  0.0227  1.0000  -1.7016   0.0000   0.0000   0.0000   0.3628
  26.200   1.1121   0.37210   0.36803  -0.1682  0.0225  1.0000  -1.6994   0.0000   0.0000   0.0000   0.3630
  26.300   1.1144   0.37394   0.36987  -0.1691  0.0223  1.0000  -1.6977   0.0000   0.0000   0.0000   0.3633
  26.400   1.1167   0.37578   0.37171  -0.1700  0.0221  1.0000  -1.6964   0.0000   0.0000   0.0000   0.3635
  26.500   1.1190   0.37761   0.37356  -0.1709  0.0218  1.0000  -1.6955   0.0000   0.0000   0.0000   0.3638
  26.600   1.1212   0.37946   0.37541  -0.1719  0.0216  1.0000  -1.6950   0.0000   0.0000   0.0000   0.3640
  26.700   1.1235   0.38130   0.37725  -0.1728  0.0214  1.0000  -1.6948   0.0000   0.0000   0.0000   0.3642
  26.800   1.1257   0.38314   0.37910  -0.1737  0.0212  1.0000  -1.6949   0.0000   0.0000   0.0000   0.3645
  26.900   1.1279   0.38498   0.38095  -0.1746  0.0210  1.0000  -1.6953   0.0000   0.0000   0.0000   0.3647
  27.000   1.1301   0.38682   0.38280  -0.1755  0.0208  1.0000  -1.6960   0.0000   0.0000   0.0000   0.3649
  27.100   1.1323   0.38868   0.38469  -0.1763  0.0206  1.0000  -1.6972   0.0000   0.0000   0.0000   0.3652
  27.200   1.1345   0.39052   0.38654  -0.1772  0.0205  1.0000  -1.6985   0.0000   0.0000   0.0000   0.3654
  27.300   1.1367   0.39237   0.38839  -0.1781  0.0203  1.0000  -1.7000   0.0000   0.0000   0.0000   0.3656
  27.400   1.1388   0.39421   0.39025  -0.1790  0.0201  1.0000  -1.7018   0.0000   0.0000   0.0000   0.3658
  27.500   1.1410   0.39606   0.39210  -0.1799  0.0200  1.0000  -1.7040   0.0000   0.0000   0.0000   0.3660
  27.600   1.1431   0.39791   0.39395  -0.1808  0.0198  1.0000  -1.7064   0.0000   0.0000   0.0000   0.3662
  27.700   1.1452   0.39976   0.39581  -0.1816  0.0196  1.0000  -1.7091   0.0000   0.0000   0.0000   0.3664
  27.800   1.1473   0.40161   0.39767  -0.1825  0.0195  1.0000  -1.7121   0.0000   0.0000   0.0000   0.3666
  27.900   1.1493   0.40346   0.39953  -0.1834  0.0193  1.0000  -1.7154   0.0000   0.0000   0.0000   0.3668
  28.000   1.1514   0.40531   0.40139  -0.1843  0.0192  1.0000  -1.7191   0.0000   0.0000   0.0000   0.3670
  28.100   1.1534   0.40716   0.40325  -0.1851  0.0190  1.0000  -1.7232   0.0000   0.0000   0.0000   0.3671
  28.200   1.1554   0.40902   0.40511  -0.1860  0.0189  1.0000  -1.7276   0.0000   0.0000   0.0000   0.3673
  28.300   1.1574   0.41088   0.40698  -0.1868  0.0188  1.0000  -1.7324   0.0000   0.0000   0.0000   0.3675
  28.400   1.1594   0.41274   0.40885  -0.1877  0.0186  1.0000  -1.7377   0.0000   0.0000   0.0000   0.3677
  28.500   1.1614   0.41461   0.41073  -0.1885  0.0185  1.0000  -1.7433   0.0000   0.0000   0.0000   0.3678
  28.600   1.1633   0.41649   0.41261  -0.1894  0.0184  1.0000  -1.7495   0.0000   0.0000   0.0000   0.3680
  28.700   1.1653   0.41837   0.41451  -0.1902  0.0183  1.0000  -1.7562   0.0000   0.0000   0.0000   0.3681
  28.800   1.1672   0.42026   0.41641  -0.1910  0.0181  1.0000  -1.7635   0.0000   0.0000   0.0000   0.3682
  28.900   1.1691   0.42217   0.41832  -0.1918  0.0180  1.0000  -1.7714   0.0000   0.0000   0.0000   0.3684
  29.000   1.1709   0.42409   0.42025  -0.1926  0.0179  1.0000  -1.7800   0.0000   0.0000   0.0000   0.3685
  29.100   1.1728   0.42604   0.42221  -0.1934  0.0178  1.0000  -1.7893   0.0000   0.0000   0.0000   0.3686
  29.200   1.1746   0.42801   0.42419  -0.1941  0.0177  1.0000  -1.7994   0.0000   0.0000   0.0000   0.3687
  29.300   1.1764   0.43003   0.42622  -0.1949  0.0176  1.0000  -1.8132   0.0000   0.0000   0.0000   0.3687
  29.400   1.1782   0.43209   0.42829  -0.1956  0.0175  1.0000  -1.8338   0.0000   0.0000   0.0000   0.3688
  29.500   1.1800   0.43423   0.43044  -0.1962  0.0174  1.0000  -1.8554   0.0000   0.0000   0.0000   0.3688
  29.600   1.1818   0.43648   0.43270  -0.1969  0.0173  1.0000  -1.8783   0.0000   0.0000   0.0000   0.3688
  29.700   1.1836   0.43889   0.43512  -0.1974  0.0172  1.0000  -1.9026   0.0000   0.0000   0.0000   0.3687
  29.800   1.1853   0.44150   0.43775  -0.1979  0.0171  1.0000  -1.9290   0.0000   0.0000   0.0000   0.3686
  29.900   1.1872   0.44447   0.44074  -0.1983  0.0170  1.0000  -1.9579   0.0000   0.0000   0.0000   0.3684
  30.000   1.1891   0.44811   0.44439  -0.1985  0.0169  1.0000  -1.9906   0.0000   0.0000   0.0000   0.3680


