xflr5 v6.61

 Calculated polar for: NACA65-012

 1 1 Reynolds number fixed          Mach number fixed         

 xtrf =   1.000 (top)        1.000 (bottom)
 Mach =   0.000     Re =     0.200 e 6     Ncrit =   9.000

  alpha     CL        CD       CDp       Cm    Top Xtr Bot Xtr   Cpmin    Chinge    XCp    
 ------- -------- --------- --------- -------- ------- ------- -------- --------- ---------
  -8.000  -0.7982   0.03511   0.02812  -0.0130  1.0000  0.0392  -3.8608   0.0000   0.0000   0.0000   0.2265
  -7.900  -0.7898   0.03351   0.02650  -0.0129  1.0000  0.0388  -3.8196   0.0000   0.0000   0.0000   0.2265
  -7.800  -0.7822   0.03228   0.02519  -0.0125  1.0000  0.0386  -3.7819   0.0000   0.0000   0.0000   0.2269
  -7.700  -0.7752   0.03128   0.02408  -0.0120  1.0000  0.0386  -3.7465   0.0000   0.0000   0.0000   0.2276
  -7.600  -0.7698   0.03068   0.02329  -0.0110  1.0000  0.0389  -3.7145   0.0000   0.0000   0.0000   0.2287
  -7.500  -0.7670   0.03053   0.02293  -0.0096  1.0000  0.0393  -3.6844   0.0000   0.0000   0.0000   0.2306
  -7.400  -0.7603   0.02891   0.02130  -0.0092  1.0000  0.0398  -3.6415   0.0000   0.0000   0.0000   0.2311
  -7.300  -0.7535   0.02811   0.02058  -0.0088  1.0000  0.0405  -3.5658   0.0000   0.0000   0.0000   0.2316
  -7.200  -0.7483   0.02755   0.02001  -0.0079  1.0000  0.0409  -3.5067   0.0000   0.0000   0.0000   0.2328
  -7.100  -0.7438   0.02694   0.01933  -0.0069  1.0000  0.0410  -3.4740   0.0000   0.0000   0.0000   0.2343
  -7.000  -0.7393   0.02627   0.01856  -0.0057  1.0000  0.0408  -3.4606   0.0000   0.0000   0.0000   0.2359
  -6.900  -0.7347   0.02566   0.01786  -0.0046  1.0000  0.0408  -3.4408   0.0000   0.0000   0.0000   0.2374
  -6.800  -0.7297   0.02510   0.01724  -0.0036  1.0000  0.0409  -3.4130   0.0000   0.0000   0.0000   0.2388
  -6.700  -0.7245   0.02458   0.01667  -0.0026  1.0000  0.0410  -3.3801   0.0000   0.0000   0.0000   0.2402
  -6.600  -0.7172   0.02403   0.01608  -0.0020  0.9997  0.0412  -3.3390   0.0000   0.0000   0.0000   0.2410
  -6.500  -0.7019   0.02333   0.01533  -0.0029  0.9981  0.0417  -3.2742   0.0000   0.0000   0.0000   0.2397
  -6.400  -0.6866   0.02268   0.01461  -0.0038  0.9966  0.0422  -3.2073   0.0000   0.0000   0.0000   0.2383
  -6.300  -0.6713   0.02207   0.01395  -0.0047  0.9949  0.0428  -3.1393   0.0000   0.0000   0.0000   0.2369
  -6.200  -0.6559   0.02150   0.01333  -0.0056  0.9934  0.0435  -3.0699   0.0000   0.0000   0.0000   0.2354
  -6.100  -0.6407   0.02098   0.01276  -0.0065  0.9917  0.0443  -2.9997   0.0000   0.0000   0.0000   0.2339
  -6.000  -0.6250   0.02067   0.01234  -0.0075  0.9898  0.0455  -2.9228   0.0000   0.0000   0.0000   0.2322
  -5.900  -0.6110   0.01990   0.01166  -0.0084  0.9883  0.0470  -2.8445   0.0000   0.0000   0.0000   0.2305
  -5.800  -0.5960   0.01944   0.01124  -0.0094  0.9866  0.0485  -2.7574   0.0000   0.0000   0.0000   0.2285
  -5.700  -0.5811   0.01901   0.01081  -0.0103  0.9847  0.0498  -2.6784   0.0000   0.0000   0.0000   0.2265
  -5.600  -0.5657   0.01856   0.01034  -0.0113  0.9832  0.0509  -2.6025   0.0000   0.0000   0.0000   0.2243
  -5.500  -0.5508   0.01817   0.00992  -0.0122  0.9810  0.0520  -2.5284   0.0000   0.0000   0.0000   0.2222
  -5.400  -0.5364   0.01760   0.00936  -0.0132  0.9794  0.0534  -2.4544   0.0000   0.0000   0.0000   0.2198
  -5.300  -0.5232   0.01714   0.00895  -0.0140  0.9767  0.0550  -2.3781   0.0000   0.0000   0.0000   0.2178
  -5.200  -0.5085   0.01676   0.00858  -0.0149  0.9748  0.0570  -2.3102   0.0000   0.0000   0.0000   0.2151
  -5.100  -0.4951   0.01645   0.00824  -0.0156  0.9718  0.0592  -2.2542   0.0000   0.0000   0.0000   0.2130
  -5.000  -0.4817   0.01599   0.00783  -0.0165  0.9696  0.0621  -2.1932   0.0000   0.0000   0.0000   0.2104
  -4.900  -0.4692   0.01571   0.00756  -0.0170  0.9663  0.0661  -2.1337   0.0000   0.0000   0.0000   0.2084
  -4.800  -0.4560   0.01532   0.00720  -0.0177  0.9640  0.0708  -2.0744   0.0000   0.0000   0.0000   0.2057
  -4.700  -0.4448   0.01500   0.00689  -0.0180  0.9603  0.0768  -2.0234   0.0000   0.0000   0.0000   0.2042
  -4.600  -0.4333   0.01459   0.00654  -0.0183  0.9574  0.0869  -1.9738   0.0000   0.0000   0.0000   0.2024
  -4.500  -0.4255   0.01389   0.00611  -0.0182  0.9533  0.1243  -1.9405   0.0000   0.0000   0.0000   0.2021
  -4.400  -0.4281   0.01232   0.00554  -0.0169  0.9475  0.3120  -1.9310   0.0000   0.0000   0.0000   0.2054
  -4.300  -0.4309   0.01122   0.00541  -0.0149  0.9420  0.5034  -1.9124   0.0000   0.0000   0.0000   0.2104
  -4.100  -0.4147   0.01112   0.00564  -0.0132  0.9350  0.6164  -1.8031   0.0000   0.0000   0.0000   0.2133
  -4.000  -0.4044   0.01118   0.00572  -0.0128  0.9322  0.6378  -1.7399   0.0000   0.0000   0.0000   0.2135
  -3.900  -0.3947   0.01125   0.00581  -0.0124  0.9289  0.6530  -1.6780   0.0000   0.0000   0.0000   0.2140
  -3.800  -0.3847   0.01133   0.00586  -0.0120  0.9258  0.6653  -1.6155   0.0000   0.0000   0.0000   0.2143
  -3.700  -0.3742   0.01140   0.00590  -0.0116  0.9235  0.6768  -1.5585   0.0000   0.0000   0.0000   0.2143
  -3.600  -0.3647   0.01149   0.00601  -0.0111  0.9198  0.6854  -1.5064   0.0000   0.0000   0.0000   0.2151
  -3.500  -0.3546   0.01157   0.00607  -0.0107  0.9170  0.6939  -1.4531   0.0000   0.0000   0.0000   0.2155
  -3.400  -0.3448   0.01166   0.00613  -0.0102  0.9143  0.7032  -1.4009   0.0000   0.0000   0.0000   0.2160
  -3.300  -0.3356   0.01183   0.00633  -0.0094  0.9109  0.7131  -1.3493   0.0000   0.0000   0.0000   0.2175
  -3.200  -0.3265   0.01206   0.00659  -0.0084  0.9083  0.7258  -1.2978   0.0000   0.0000   0.0000   0.2199
  -3.100  -0.3178   0.01236   0.00693  -0.0072  0.9057  0.7384  -1.2470   0.0000   0.0000   0.0000   0.2230
  -3.000  -0.3093   0.01267   0.00728  -0.0060  0.9024  0.7495  -1.1972   0.0000   0.0000   0.0000   0.2264
  -2.900  -0.3004   0.01290   0.00749  -0.0050  0.8999  0.7587  -1.1474   0.0000   0.0000   0.0000   0.2293
  -2.800  -0.2905   0.01307   0.00765  -0.0042  0.8980  0.7644  -1.0965   0.0000   0.0000   0.0000   0.2314
  -2.700  -0.2812   0.01309   0.00764  -0.0039  0.8943  0.7694  -1.0492   0.0000   0.0000   0.0000   0.2320
  -2.600  -0.2708   0.01314   0.00768  -0.0035  0.8918  0.7717  -0.9988   0.0000   0.0000   0.0000   0.2330
  -2.500  -0.2605   0.01317   0.00769  -0.0032  0.8897  0.7743  -0.9494   0.0000   0.0000   0.0000   0.2339
  -2.400  -0.2505   0.01318   0.00767  -0.0029  0.8868  0.7775  -0.9019   0.0000   0.0000   0.0000   0.2343
  -2.300  -0.2408   0.01314   0.00758  -0.0028  0.8837  0.7813  -0.8558   0.0000   0.0000   0.0000   0.2344
  -2.200  -0.2303   0.01316   0.00759  -0.0025  0.8814  0.7831  -0.8078   0.0000   0.0000   0.0000   0.2354
  -2.100  -0.2200   0.01317   0.00758  -0.0021  0.8796  0.7851  -0.7640   0.0000   0.0000   0.0000   0.2365
  -2.000  -0.2096   0.01318   0.00758  -0.0020  0.8763  0.7874  -0.7239   0.0000   0.0000   0.0000   0.2365
  -1.900  -0.1994   0.01316   0.00752  -0.0019  0.8736  0.7902  -0.6845   0.0000   0.0000   0.0000   0.2366
  -1.800  -0.1892   0.01309   0.00740  -0.0018  0.8715  0.7933  -0.6458   0.0000   0.0000   0.0000   0.2364
  -1.700  -0.1787   0.01309   0.00738  -0.0016  0.8698  0.7947  -0.6061   0.0000   0.0000   0.0000   0.2375
  -1.600  -0.1682   0.01311   0.00740  -0.0015  0.8666  0.7964  -0.5672   0.0000   0.0000   0.0000   0.2373
  -1.500  -0.1577   0.01311   0.00738  -0.0014  0.8640  0.7983  -0.5288   0.0000   0.0000   0.0000   0.2376
  -1.400  -0.1473   0.01308   0.00733  -0.0012  0.8618  0.8006  -0.4911   0.0000   0.0000   0.0000   0.2381
  -1.300  -0.1370   0.01303   0.00724  -0.0011  0.8600  0.8034  -0.4542   0.0000   0.0000   0.0000   0.2383
  -1.200  -0.1265   0.01302   0.00721  -0.0011  0.8570  0.8056  -0.4174   0.0000   0.0000   0.0000   0.2375
  -1.100  -0.1160   0.01302   0.00722  -0.0010  0.8544  0.8071  -0.3845   0.0000   0.0000   0.0000   0.2378
  -1.000  -0.1054   0.01302   0.00721  -0.0008  0.8523  0.8088  -0.3795   0.0000   0.0000   0.0000   0.2385
  -0.900  -0.0949   0.01301   0.00718  -0.0007  0.8505  0.8108  -0.3746   0.0000   0.0000   0.0000   0.2394
  -0.800  -0.0844   0.01299   0.00714  -0.0006  0.8486  0.8133  -0.3700   0.0000   0.0000   0.0000   0.2396
  -0.700  -0.0739   0.01296   0.00709  -0.0008  0.8454  0.8164  -0.3656   0.0000   0.0000   0.0000   0.2361
  -0.600  -0.0633   0.01297   0.00710  -0.0006  0.8431  0.8178  -0.3606   0.0000   0.0000   0.0000   0.2372
  -0.500  -0.0528   0.01297   0.00710  -0.0004  0.8411  0.8194  -0.3557   0.0000   0.0000   0.0000   0.2391
  -0.400  -0.0423   0.01296   0.00708  -0.0002  0.8394  0.8213  -0.3510   0.0000   0.0000   0.0000   0.2421
  -0.300  -0.0317   0.01296   0.00708  -0.0001  0.8372  0.8237  -0.3465   0.0000   0.0000   0.0000   0.2419
  -0.200  -0.0211   0.01295   0.00706  -0.0003  0.8344  0.8266  -0.3421   0.0000   0.0000   0.0000   0.2331
  -0.100  -0.0105   0.01295   0.00706  -0.0002  0.8321  0.8286  -0.3376   0.0000   0.0000   0.0000   0.2272
   0.000  -0.0000   0.01295   0.00707   0.0000  0.8302  0.8302  -0.3329   0.0000   0.0000   0.0000   0.4833
   0.100   0.0105   0.01295   0.00706   0.0002  0.8286  0.8321  -0.3376   0.0000   0.0000   0.0000   0.2272
   0.200   0.0211   0.01295   0.00706   0.0003  0.8266  0.8344  -0.3421   0.0000   0.0000   0.0000   0.2331
   0.300   0.0317   0.01296   0.00708   0.0001  0.8237  0.8372  -0.3465   0.0000   0.0000   0.0000   0.2419
   0.400   0.0423   0.01296   0.00708   0.0002  0.8213  0.8394  -0.3510   0.0000   0.0000   0.0000   0.2421
   0.500   0.0528   0.01297   0.00710   0.0004  0.8194  0.8411  -0.3557   0.0000   0.0000   0.0000   0.2391
   0.600   0.0633   0.01297   0.00710   0.0006  0.8178  0.8431  -0.3606   0.0000   0.0000   0.0000   0.2372
   0.700   0.0739   0.01296   0.00709   0.0008  0.8164  0.8454  -0.3656   0.0000   0.0000   0.0000   0.2361
   0.800   0.0844   0.01299   0.00714   0.0006  0.8133  0.8486  -0.3700   0.0000   0.0000   0.0000   0.2396
   0.900   0.0949   0.01301   0.00718   0.0007  0.8108  0.8505  -0.3746   0.0000   0.0000   0.0000   0.2394
   1.000   0.1054   0.01302   0.00721   0.0008  0.8088  0.8523  -0.3795   0.0000   0.0000   0.0000   0.2385
   1.100   0.1160   0.01302   0.00722   0.0010  0.8071  0.8544  -0.3845   0.0000   0.0000   0.0000   0.2378
   1.200   0.1265   0.01302   0.00721   0.0011  0.8056  0.8570  -0.4174   0.0000   0.0000   0.0000   0.2375
   1.300   0.1370   0.01303   0.00724   0.0011  0.8034  0.8600  -0.4542   0.0000   0.0000   0.0000   0.2383
   1.400   0.1473   0.01308   0.00733   0.0012  0.8006  0.8618  -0.4911   0.0000   0.0000   0.0000   0.2381
   1.500   0.1577   0.01311   0.00738   0.0014  0.7983  0.8639  -0.5288   0.0000   0.0000   0.0000   0.2376
   1.600   0.1682   0.01311   0.00740   0.0015  0.7964  0.8666  -0.5672   0.0000   0.0000   0.0000   0.2373
   1.700   0.1787   0.01309   0.00738   0.0016  0.7947  0.8698  -0.6061   0.0000   0.0000   0.0000   0.2375
   1.800   0.1892   0.01309   0.00740   0.0018  0.7933  0.8715  -0.6458   0.0000   0.0000   0.0000   0.2364
   1.900   0.1994   0.01316   0.00752   0.0019  0.7902  0.8736  -0.6845   0.0000   0.0000   0.0000   0.2366
   2.000   0.2096   0.01318   0.00758   0.0020  0.7874  0.8763  -0.7239   0.0000   0.0000   0.0000   0.2365
   2.100   0.2200   0.01317   0.00758   0.0021  0.7851  0.8796  -0.7640   0.0000   0.0000   0.0000   0.2365
   2.200   0.2303   0.01316   0.00759   0.0025  0.7831  0.8814  -0.8078   0.0000   0.0000   0.0000   0.2354
   2.300   0.2408   0.01314   0.00758   0.0028  0.7813  0.8837  -0.8559   0.0000   0.0000   0.0000   0.2344
   2.400   0.2505   0.01318   0.00767   0.0029  0.7775  0.8868  -0.9019   0.0000   0.0000   0.0000   0.2343
   2.500   0.2605   0.01317   0.00769   0.0032  0.7743  0.8897  -0.9494   0.0000   0.0000   0.0000   0.2339
   2.600   0.2708   0.01314   0.00768   0.0035  0.7717  0.8918  -0.9988   0.0000   0.0000   0.0000   0.2330
   2.700   0.2812   0.01309   0.00764   0.0039  0.7694  0.8943  -1.0492   0.0000   0.0000   0.0000   0.2320
   2.800   0.2905   0.01307   0.00765   0.0042  0.7644  0.8980  -1.0965   0.0000   0.0000   0.0000   0.2314
   2.900   0.3004   0.01290   0.00749   0.0050  0.7587  0.8999  -1.1474   0.0000   0.0000   0.0000   0.2293
   3.000   0.3093   0.01267   0.00728   0.0060  0.7495  0.9024  -1.1972   0.0000   0.0000   0.0000   0.2264
   3.100   0.3178   0.01236   0.00693   0.0072  0.7384  0.9057  -1.2470   0.0000   0.0000   0.0000   0.2230
   3.200   0.3265   0.01206   0.00659   0.0084  0.7258  0.9083  -1.2978   0.0000   0.0000   0.0000   0.2199
   3.300   0.3356   0.01183   0.00633   0.0094  0.7131  0.9109  -1.3493   0.0000   0.0000   0.0000   0.2175
   3.400   0.3448   0.01166   0.00613   0.0102  0.7032  0.9143  -1.4009   0.0000   0.0000   0.0000   0.2160
   3.500   0.3546   0.01157   0.00607   0.0107  0.6939  0.9170  -1.4531   0.0000   0.0000   0.0000   0.2155
   3.600   0.3647   0.01149   0.00601   0.0111  0.6854  0.9198  -1.5064   0.0000   0.0000   0.0000   0.2151
   3.700   0.3742   0.01140   0.00590   0.0116  0.6768  0.9235  -1.5585   0.0000   0.0000   0.0000   0.2143
   3.800   0.3847   0.01133   0.00586   0.0120  0.6653  0.9258  -1.6155   0.0000   0.0000   0.0000   0.2143
   3.900   0.3947   0.01125   0.00581   0.0124  0.6530  0.9289  -1.6780   0.0000   0.0000   0.0000   0.2140
   4.000   0.4044   0.01118   0.00572   0.0128  0.6378  0.9322  -1.7399   0.0000   0.0000   0.0000   0.2135
   4.100   0.4147   0.01112   0.00564   0.0133  0.6164  0.9350  -1.8031   0.0000   0.0000   0.0000   0.2133
   4.300   0.4309   0.01122   0.00540   0.0149  0.5034  0.9420  -1.9124   0.0000   0.0000   0.0000   0.2104
   4.400   0.4281   0.01232   0.00554   0.0169  0.3120  0.9475  -1.9310   0.0000   0.0000   0.0000   0.2054
   4.500   0.4256   0.01389   0.00611   0.0182  0.1243  0.9533  -1.9405   0.0000   0.0000   0.0000   0.2021
   4.600   0.4333   0.01459   0.00654   0.0183  0.0869  0.9574  -1.9738   0.0000   0.0000   0.0000   0.2024
   4.700   0.4448   0.01500   0.00689   0.0180  0.0768  0.9603  -2.0235   0.0000   0.0000   0.0000   0.2042
   4.800   0.4560   0.01532   0.00720   0.0177  0.0708  0.9640  -2.0744   0.0000   0.0000   0.0000   0.2057
   4.900   0.4692   0.01571   0.00756   0.0170  0.0661  0.9663  -2.1337   0.0000   0.0000   0.0000   0.2084
   5.000   0.4817   0.01599   0.00783   0.0165  0.0621  0.9696  -2.1933   0.0000   0.0000   0.0000   0.2104
   5.100   0.4952   0.01645   0.00824   0.0156  0.0592  0.9718  -2.2542   0.0000   0.0000   0.0000   0.2130
   5.200   0.5086   0.01676   0.00858   0.0149  0.0570  0.9748  -2.3102   0.0000   0.0000   0.0000   0.2151
   5.300   0.5232   0.01714   0.00895   0.0139  0.0550  0.9767  -2.3782   0.0000   0.0000   0.0000   0.2178
   5.400   0.5364   0.01760   0.00936   0.0132  0.0534  0.9794  -2.4545   0.0000   0.0000   0.0000   0.2198
   5.500   0.5509   0.01817   0.00992   0.0122  0.0520  0.9811  -2.5286   0.0000   0.0000   0.0000   0.2222
   5.600   0.5657   0.01856   0.01034   0.0113  0.0509  0.9832  -2.6025   0.0000   0.0000   0.0000   0.2243
   5.700   0.5811   0.01901   0.01081   0.0103  0.0498  0.9847  -2.6786   0.0000   0.0000   0.0000   0.2265
   5.800   0.5961   0.01944   0.01124   0.0094  0.0484  0.9866  -2.7575   0.0000   0.0000   0.0000   0.2285
   5.900   0.6110   0.01990   0.01166   0.0084  0.0470  0.9883  -2.8446   0.0000   0.0000   0.0000   0.2305
   6.000   0.6251   0.02067   0.01234   0.0075  0.0455  0.9898  -2.9229   0.0000   0.0000   0.0000   0.2322
   6.100   0.6408   0.02098   0.01276   0.0065  0.0443  0.9917  -2.9998   0.0000   0.0000   0.0000   0.2339
   6.200   0.6560   0.02150   0.01333   0.0056  0.0435  0.9935  -3.0700   0.0000   0.0000   0.0000   0.2355
   6.300   0.6714   0.02207   0.01395   0.0047  0.0428  0.9949  -3.1394   0.0000   0.0000   0.0000   0.2370
   6.400   0.6867   0.02268   0.01461   0.0038  0.0422  0.9966  -3.2075   0.0000   0.0000   0.0000   0.2384
   6.600   0.7328   0.03353   0.02712   0.0086  0.1212  0.9938  -2.5193   0.0000   0.0000   0.0000   0.2325
   6.800   0.7296   0.02509   0.01723   0.0036  0.0409  1.0000  -3.4128   0.0000   0.0000   0.0000   0.2388
   6.900   0.7346   0.02565   0.01785   0.0046  0.0408  1.0000  -3.4406   0.0000   0.0000   0.0000   0.2374
   7.000   0.7393   0.02627   0.01855   0.0057  0.0408  1.0000  -3.4605   0.0000   0.0000   0.0000   0.2358
   7.100   0.7438   0.02693   0.01933   0.0069  0.0410  1.0000  -3.4739   0.0000   0.0000   0.0000   0.2342
   7.200   0.7482   0.02755   0.02001   0.0080  0.0409  1.0000  -3.5065   0.0000   0.0000   0.0000   0.2328
   7.300   0.7534   0.02811   0.02057   0.0088  0.0405  1.0000  -3.5655   0.0000   0.0000   0.0000   0.2316
   7.400   0.7603   0.02890   0.02130   0.0092  0.0398  1.0000  -3.6413   0.0000   0.0000   0.0000   0.2311
   7.500   0.7670   0.03053   0.02293   0.0096  0.0393  1.0000  -3.6843   0.0000   0.0000   0.0000   0.2306
   7.600   0.7698   0.03067   0.02329   0.0110  0.0389  1.0000  -3.7145   0.0000   0.0000   0.0000   0.2287
   7.700   0.7752   0.03128   0.02408   0.0120  0.0386  1.0000  -3.7465   0.0000   0.0000   0.0000   0.2276
   7.800   0.7822   0.03228   0.02519   0.0125  0.0386  1.0000  -3.7819   0.0000   0.0000   0.0000   0.2269
   7.900   0.7898   0.03351   0.02650   0.0129  0.0388  1.0000  -3.8196   0.0000   0.0000   0.0000   0.2265
   8.000   0.7983   0.03511   0.02812   0.0130  0.0392  1.0000  -3.8609   0.0000   0.0000   0.0000   0.2265
  28.100   1.0958   0.35668   0.35324  -0.1589  0.0112  1.0000  -1.9411   0.0000   0.0000   0.0000   0.3576
  28.200   1.0987   0.35780   0.35436  -0.1600  0.0111  1.0000  -1.9504   0.0000   0.0000   0.0000   0.3579
  28.300   1.1017   0.35891   0.35548  -0.1610  0.0109  1.0000  -1.9601   0.0000   0.0000   0.0000   0.3582
  28.400   1.1045   0.36001   0.35658  -0.1620  0.0108  1.0000  -1.9704   0.0000   0.0000   0.0000   0.3585
  28.500   1.1074   0.36110   0.35767  -0.1631  0.0107  1.0000  -1.9812   0.0000   0.0000   0.0000   0.3588
  28.600   1.1103   0.36218   0.35876  -0.1641  0.0106  1.0000  -1.9927   0.0000   0.0000   0.0000   0.3591
  28.700   1.1131   0.36325   0.35983  -0.1651  0.0105  1.0000  -2.0050   0.0000   0.0000   0.0000   0.3594
  28.800   1.1159   0.36430   0.36089  -0.1662  0.0104  1.0000  -2.0181   0.0000   0.0000   0.0000   0.3597
  28.900   1.1186   0.36535   0.36195  -0.1672  0.0104  1.0000  -2.0322   0.0000   0.0000   0.0000   0.3599
  29.000   1.1214   0.36639   0.36300  -0.1682  0.0103  1.0000  -2.0475   0.0000   0.0000   0.0000   0.3602
  29.100   1.1241   0.36755   0.36415  -0.1692  0.0102  1.0000  -2.0642   0.0000   0.0000   0.0000   0.3604
  29.200   1.1267   0.36862   0.36524  -0.1702  0.0101  1.0000  -2.0826   0.0000   0.0000   0.0000   0.3607
  29.300   1.1293   0.36972   0.36634  -0.1711  0.0101  1.0000  -2.1032   0.0000   0.0000   0.0000   0.3609
  29.400   1.1319   0.37088   0.36750  -0.1720  0.0100  1.0000  -2.1264   0.0000   0.0000   0.0000   0.3610
  29.500   1.1344   0.37213   0.36876  -0.1729  0.0099  1.0000  -2.1531   0.0000   0.0000   0.0000   0.3611
  29.600   1.1370   0.37358   0.37022  -0.1736  0.0099  1.0000  -2.1842   0.0000   0.0000   0.0000   0.3612
  29.700   1.1396   0.37544   0.37208  -0.1742  0.0098  1.0000  -2.2216   0.0000   0.0000   0.0000   0.3610
  29.800   1.1424   0.37809   0.37475  -0.1746  0.0098  1.0000  -2.2675   0.0000   0.0000   0.0000   0.3607


