xflr5 v6.61

 Calculated polar for: NACA 65-206

 1 1 Reynolds number fixed          Mach number fixed         

 xtrf =   1.000 (top)        1.000 (bottom)
 Mach =   0.000     Re =     0.625 e 6     Ncrit =   9.000

  alpha     CL        CD       CDp       Cm    Top Xtr Bot Xtr   Cpmin    Chinge    XCp    
 ------- -------- --------- --------- -------- ------- ------- -------- --------- ---------
  -5.700  -0.4348   0.04598   0.04305  -0.0360  0.9962  0.0079  -2.5350   0.0000   0.0000   0.0000   0.1662
  -5.600  -0.4244   0.04416   0.04112  -0.0367  0.9949  0.0079  -2.5717   0.0000   0.0000   0.0000   0.1625
  -5.500  -0.4247   0.03960   0.03643  -0.0380  0.9929  0.0084  -2.7424   0.0000   0.0000   0.0000   0.1594
  -5.400  -0.4167   0.03843   0.03523  -0.0390  0.9908  0.0087  -2.5770   0.0000   0.0000   0.0000   0.1555
  -5.300  -0.4073   0.03738   0.03415  -0.0398  0.9885  0.0091  -2.4319   0.0000   0.0000   0.0000   0.1514
  -5.200  -0.3970   0.03620   0.03291  -0.0404  0.9861  0.0096  -2.3320   0.0000   0.0000   0.0000   0.1472
  -5.100  -0.3856   0.03495   0.03158  -0.0410  0.9836  0.0103  -2.2693   0.0000   0.0000   0.0000   0.1428
  -5.000  -0.3721   0.03391   0.03045  -0.0412  0.9812  0.0114  -2.2363   0.0000   0.0000   0.0000   0.1383
  -4.900  -0.3534   0.03509   0.03156  -0.0409  0.9789  0.0128  -2.1050   0.0000   0.0000   0.0000   0.1333
  -4.800  -0.3402   0.03451   0.03083  -0.0411  0.9759  0.0130  -2.0621   0.0000   0.0000   0.0000   0.1282
  -4.700  -0.3356   0.02865   0.02462  -0.0420  0.9721  0.0139  -2.3595   0.0000   0.0000   0.0000   0.1237
  -4.600  -0.3267   0.02657   0.02248  -0.0429  0.9690  0.0149  -2.2740   0.0000   0.0000   0.0000   0.1175
  -4.500  -0.3161   0.02577   0.02169  -0.0438  0.9659  0.0160  -2.0964   0.0000   0.0000   0.0000   0.1106
  -4.400  -0.3041   0.02476   0.02062  -0.0443  0.9627  0.0169  -1.9994   0.0000   0.0000   0.0000   0.1033
  -4.300  -0.2914   0.02359   0.01935  -0.0447  0.9594  0.0176  -1.9409   0.0000   0.0000   0.0000   0.0955
  -4.200  -0.2786   0.02249   0.01813  -0.0451  0.9558  0.0183  -1.8847   0.0000   0.0000   0.0000   0.0871
  -4.100  -0.2656   0.02145   0.01698  -0.0454  0.9520  0.0192  -1.8303   0.0000   0.0000   0.0000   0.0781
  -4.000  -0.2541   0.02056   0.01598  -0.0453  0.9489  0.0201  -1.7784   0.0000   0.0000   0.0000   0.0707
  -3.500  -0.1972   0.01259   0.00695  -0.0419  0.9295  0.0110  -2.1050   0.0000   0.0000   0.0000   0.0359
  -3.400  -0.1864   0.01084   0.00500  -0.0411  0.9243  0.0103  -2.2143   0.0000   0.0000   0.0000   0.0278
  -3.300  -0.1756   0.01030   0.00440  -0.0409  0.9188  0.0113  -2.1491   0.0000   0.0000   0.0000   0.0157
  -3.200  -0.1638   0.01075   0.00488  -0.0409  0.9132  0.0129  -1.9526   0.0000   0.0000   0.0000  -0.0013
  -3.100  -0.1548   0.00946   0.00350  -0.0406  0.9067  0.0159  -1.9155   0.0000   0.0000   0.0000  -0.0136
  -3.000  -0.1443   0.00944   0.00350  -0.0406  0.9004  0.0173  -1.7278   0.0000   0.0000   0.0000  -0.0331
  -2.900  -0.1337   0.00936   0.00343  -0.0406  0.8971  0.0183  -1.5636   0.0000   0.0000   0.0000  -0.0555
  -2.800  -0.1232   0.00923   0.00330  -0.0406  0.8934  0.0190  -1.4995   0.0000   0.0000   0.0000  -0.0814
  -2.700  -0.1127   0.00907   0.00314  -0.0406  0.8893  0.0196  -1.4456   0.0000   0.0000   0.0000  -0.1120
  -2.600  -0.1021   0.00902   0.00310  -0.0406  0.8852  0.0207  -1.3732   0.0000   0.0000   0.0000  -0.1497
  -2.500  -0.0915   0.00906   0.00316  -0.0407  0.8810  0.0223  -1.2883   0.0000   0.0000   0.0000  -0.1967
  -2.400  -0.0810   0.00895   0.00305  -0.0407  0.8764  0.0230  -1.2350   0.0000   0.0000   0.0000  -0.2540
  -2.300  -0.0706   0.00870   0.00275  -0.0406  0.8713  0.0228  -1.2121   0.0000   0.0000   0.0000  -0.3262
  -2.200  -0.0603   0.00848   0.00248  -0.0405  0.8662  0.0227  -1.1881   0.0000   0.0000   0.0000  -0.4233
  -2.100  -0.0499   0.00829   0.00224  -0.0404  0.8610  0.0225  -1.1627   0.0000   0.0000   0.0000  -0.5612
  -2.000  -0.0395   0.00813   0.00202  -0.0403  0.8558  0.0225  -1.1360   0.0000   0.0000   0.0000  -0.7731
  -1.900  -0.0289   0.00799   0.00183  -0.0402  0.8509  0.0224  -1.1078   0.0000   0.0000   0.0000  -1.1442
  -1.800  -0.0181   0.00786   0.00167  -0.0403  0.8482  0.0224  -1.0779   0.0000   0.0000   0.0000  -1.9849
  -1.700  -0.0072   0.00774   0.00152  -0.0403  0.8456  0.0225  -1.0470   0.0000   0.0000   0.0000  -5.3926
  -1.600   0.0037   0.00764   0.00139  -0.0404  0.8427  0.0226  -1.0153   0.0000   0.0000   0.0000  11.0784
  -1.500   0.0146   0.00756   0.00128  -0.0404  0.8396  0.0228  -0.9831   0.0000   0.0000   0.0000   3.0198
  -1.400   0.0255   0.00748   0.00118  -0.0405  0.8362  0.0232  -0.9505   0.0000   0.0000   0.0000   1.8402
  -1.300   0.0363   0.00742   0.00109  -0.0405  0.8328  0.0237  -0.9177   0.0000   0.0000   0.0000   1.3662
  -1.200   0.0472   0.00737   0.00101  -0.0405  0.8293  0.0245  -0.8847   0.0000   0.0000   0.0000   1.1105
  -1.000   0.0668   0.00575   0.00075  -0.0413  0.8213  0.4619  -0.8619   0.0000   0.0000   0.0000   0.8697
  -0.900   0.0758   0.00520   0.00077  -0.0413  0.8174  0.6284  -0.8195   0.0000   0.0000   0.0000   0.7955
  -0.800   0.0851   0.00501   0.00080  -0.0410  0.8132  0.7006  -0.7739   0.0000   0.0000   0.0000   0.7324
  -0.700   0.0942   0.00489   0.00083  -0.0406  0.8085  0.7469  -0.7278   0.0000   0.0000   0.0000   0.6812
  -0.600   0.1042   0.00486   0.00083  -0.0404  0.8038  0.7629  -0.6800   0.0000   0.0000   0.0000   0.6382
  -0.500   0.1139   0.00482   0.00085  -0.0401  0.7998  0.7842  -0.6328   0.0000   0.0000   0.0000   0.6027
  -0.400   0.1243   0.00480   0.00086  -0.0401  0.7978  0.7993  -0.5842   0.0000   0.0000   0.0000   0.5725
  -0.300   0.1340   0.00475   0.00088  -0.0398  0.7957  0.8151  -0.5376   0.0000   0.0000   0.0000   0.5472
  -0.200   0.1442   0.00473   0.00089  -0.0397  0.7938  0.8246  -0.4904   0.0000   0.0000   0.0000   0.5252
  -0.100   0.1549   0.00473   0.00090  -0.0397  0.7920  0.8291  -0.4425   0.0000   0.0000   0.0000   0.5063
   0.000   0.1659   0.00473   0.00090  -0.0398  0.7900  0.8296  -0.3946   0.0000   0.0000   0.0000   0.4900
   0.100   0.1771   0.00474   0.00089  -0.0400  0.7876  0.8290  -0.4285   0.0000   0.0000   0.0000   0.4758
   0.200   0.1882   0.00475   0.00089  -0.0402  0.7849  0.8274  -0.4788   0.0000   0.0000   0.0000   0.4632
   0.300   0.1993   0.00476   0.00089  -0.0403  0.7811  0.8259  -0.5294   0.0000   0.0000   0.0000   0.4520
   0.400   0.2103   0.00476   0.00090  -0.0404  0.7808  0.8278  -0.5823   0.0000   0.0000   0.0000   0.4420
   0.500   0.2213   0.00477   0.00091  -0.0405  0.7800  0.8302  -0.6361   0.0000   0.0000   0.0000   0.4329
   0.600   0.2318   0.00479   0.00091  -0.0405  0.7730  0.8329  -0.6898   0.0000   0.0000   0.0000   0.4244
   0.700   0.2416   0.00486   0.00090  -0.0403  0.7571  0.8358  -0.7424   0.0000   0.0000   0.0000   0.4164
   0.800   0.2517   0.00491   0.00089  -0.0401  0.7393  0.8384  -0.7964   0.0000   0.0000   0.0000   0.4091
   0.900   0.2611   0.00502   0.00088  -0.0398  0.7102  0.8409  -0.8493   0.0000   0.0000   0.0000   0.4022
   1.000   0.2713   0.00510   0.00088  -0.0397  0.6902  0.8430  -0.9039   0.0000   0.0000   0.0000   0.3961
   1.100   0.2816   0.00517   0.00089  -0.0397  0.6722  0.8448  -0.9593   0.0000   0.0000   0.0000   0.3905
   1.200   0.2914   0.00530   0.00091  -0.0395  0.6462  0.8464  -1.0132   0.0000   0.0000   0.0000   0.3852
   1.300   0.3009   0.00547   0.00092  -0.0393  0.6061  0.8481  -1.0659   0.0000   0.0000   0.0000   0.3802
   1.400   0.3069   0.00622   0.00101  -0.0387  0.4437  0.8502  -1.1079   0.0000   0.0000   0.0000   0.3756
   1.500   0.3120   0.00729   0.00125  -0.0383  0.2218  0.8543  -1.1438   0.0000   0.0000   0.0000   0.3720
   1.600   0.3183   0.00821   0.00149  -0.0379  0.0382  0.8587  -1.1788   0.0000   0.0000   0.0000   0.3685
   1.700   0.3284   0.00829   0.00156  -0.0378  0.0235  0.8625  -1.2107   0.0000   0.0000   0.0000   0.3644
   1.800   0.3386   0.00834   0.00163  -0.0377  0.0221  0.8664  -1.2506   0.0000   0.0000   0.0000   0.3605
   1.900   0.3489   0.00840   0.00171  -0.0376  0.0213  0.8704  -1.2917   0.0000   0.0000   0.0000   0.3569
   2.000   0.3591   0.00847   0.00180  -0.0374  0.0207  0.8746  -1.3325   0.0000   0.0000   0.0000   0.3535
   2.100   0.3693   0.00855   0.00190  -0.0373  0.0203  0.8788  -1.3725   0.0000   0.0000   0.0000   0.3503
   2.200   0.3794   0.00864   0.00202  -0.0372  0.0201  0.8831  -1.4120   0.0000   0.0000   0.0000   0.3472
   2.300   0.3896   0.00873   0.00215  -0.0371  0.0199  0.8873  -1.4509   0.0000   0.0000   0.0000   0.3443
   2.400   0.3998   0.00885   0.00230  -0.0370  0.0198  0.8914  -1.4891   0.0000   0.0000   0.0000   0.3415
   2.500   0.4099   0.00898   0.00247  -0.0368  0.0198  0.8952  -1.5264   0.0000   0.0000   0.0000   0.3388
   2.600   0.4200   0.00913   0.00265  -0.0367  0.0198  0.8988  -1.5628   0.0000   0.0000   0.0000   0.3363
   2.700   0.4295   0.00928   0.00285  -0.0364  0.0199  0.9045  -1.5973   0.0000   0.0000   0.0000   0.3336
   2.800   0.4384   0.00944   0.00306  -0.0359  0.0200  0.9118  -1.6299   0.0000   0.0000   0.0000   0.3308
   2.900   0.4472   0.00963   0.00329  -0.0355  0.0201  0.9196  -1.6612   0.0000   0.0000   0.0000   0.3281
   3.000   0.4561   0.00984   0.00355  -0.0350  0.0202  0.9272  -1.6915   0.0000   0.0000   0.0000   0.3256
   3.100   0.4651   0.01009   0.00385  -0.0346  0.0204  0.9342  -1.7202   0.0000   0.0000   0.0000   0.3231
   3.200   0.4740   0.01038   0.00417  -0.0342  0.0205  0.9401  -1.7476   0.0000   0.0000   0.0000   0.3208
   3.300   0.4833   0.01058   0.00439  -0.0339  0.0202  0.9448  -1.7950   0.0000   0.0000   0.0000   0.3187
   3.400   0.4932   0.01062   0.00442  -0.0338  0.0191  0.9484  -1.8778   0.0000   0.0000   0.0000   0.3171
   3.500   0.5040   0.01062   0.00438  -0.0340  0.0177  0.9533  -1.9776   0.0000   0.0000   0.0000   0.3159
   3.600   0.5151   0.01079   0.00455  -0.0341  0.0172  0.9613  -2.0480   0.0000   0.0000   0.0000   0.3147
   3.700   0.5265   0.01098   0.00475  -0.0344  0.0167  0.9700  -2.1186   0.0000   0.0000   0.0000   0.3137
   3.800   0.5381   0.01115   0.00492  -0.0347  0.0161  0.9787  -2.2017   0.0000   0.0000   0.0000   0.3128
   3.900   0.5495   0.01129   0.00504  -0.0349  0.0153  0.9881  -2.3755   0.0000   0.0000   0.0000   0.3119
   4.000   0.5602   0.01151   0.00524  -0.0351  0.0142  0.9985  -2.5678   0.0000   0.0000   0.0000   0.3108
   4.100   0.5675   0.01260   0.00639  -0.0345  0.0126  1.0000  -2.6494   0.0000   0.0000   0.0000   0.3089
   4.200   0.5782   0.01266   0.00644  -0.0345  0.0112  1.0000  -2.8369   0.0000   0.0000   0.0000   0.3077
   4.300   0.5897   0.01250   0.00625  -0.0346  0.0096  1.0000  -3.0329   0.0000   0.0000   0.0000   0.3067
   4.400   0.5999   0.01282   0.00656  -0.0344  0.0087  1.0000  -3.1718   0.0000   0.0000   0.0000   0.3053
   4.500   0.6091   0.01365   0.00746  -0.0339  0.0084  1.0000  -3.2355   0.0000   0.0000   0.0000   0.3035
   5.000   0.6587   0.02559   0.02078  -0.0272  0.0171  1.0000  -2.4912   0.0000   0.0000   0.0000   0.2891
   5.100   0.6675   0.02666   0.02195  -0.0266  0.0165  1.0000  -2.5510   0.0000   0.0000   0.0000   0.2877
   5.200   0.6760   0.02776   0.02314  -0.0261  0.0160  1.0000  -2.6121   0.0000   0.0000   0.0000   0.2864
   5.300   0.6841   0.02888   0.02436  -0.0256  0.0155  1.0000  -2.6754   0.0000   0.0000   0.0000   0.2851
   5.400   0.6919   0.03004   0.02560  -0.0251  0.0151  1.0000  -2.7410   0.0000   0.0000   0.0000   0.2839
   5.500   0.6994   0.03122   0.02686  -0.0246  0.0147  1.0000  -2.8085   0.0000   0.0000   0.0000   0.2827
   5.600   0.7064   0.03244   0.02816  -0.0241  0.0144  1.0000  -2.8773   0.0000   0.0000   0.0000   0.2816
   5.700   0.7132   0.03373   0.02951  -0.0236  0.0141  1.0000  -2.9460   0.0000   0.0000   0.0000   0.2806
   5.800   0.7189   0.03501   0.03083  -0.0233  0.0136  1.0000  -3.0449   0.0000   0.0000   0.0000   0.2798
   5.900   0.7213   0.03724   0.03315  -0.0228  0.0129  1.0000  -3.0820   0.0000   0.0000   0.0000   0.2790
   6.000   0.7129   0.04319   0.03938  -0.0214  0.0121  1.0000  -2.7827   0.0000   0.0000   0.0000   0.2774
   6.100   0.7132   0.04585   0.04220  -0.0203  0.0120  1.0000  -2.6820   0.0000   0.0000   0.0000   0.2759
   6.200   0.7182   0.04687   0.04335  -0.0195  0.0119  1.0000  -2.6995   0.0000   0.0000   0.0000   0.2745
   6.300   0.7264   0.04710   0.04370  -0.0187  0.0117  1.0000  -2.7558   0.0000   0.0000   0.0000   0.2730
   6.400   0.7448   0.04578   0.04243  -0.0181  0.0104  1.0000  -2.9118   0.0000   0.0000   0.0000   0.2715
   6.500   0.7527   0.04690   0.04363  -0.0174  0.0097  1.0000  -2.9327   0.0000   0.0000   0.0000   0.2703
   6.600   0.7580   0.04823   0.04504  -0.0168  0.0092  1.0000  -2.9597   0.0000   0.0000   0.0000   0.2693
   6.700   0.7622   0.04955   0.04643  -0.0162  0.0088  1.0000  -2.9975   0.0000   0.0000   0.0000   0.2684
   6.800   0.7657   0.05083   0.04777  -0.0157  0.0085  1.0000  -3.0472   0.0000   0.0000   0.0000   0.2676
   6.900   0.7686   0.05205   0.04904  -0.0152  0.0083  1.0000  -3.1099   0.0000   0.0000   0.0000   0.2668
   7.000   0.7711   0.05320   0.05022  -0.0148  0.0080  1.0000  -3.1887   0.0000   0.0000   0.0000   0.2662
   7.100   0.7732   0.05430   0.05136  -0.0144  0.0078  1.0000  -3.2787   0.0000   0.0000   0.0000   0.2655
   7.200   0.7744   0.05542   0.05250  -0.0140  0.0077  1.0000  -3.3684   0.0000   0.0000   0.0000   0.2649
   7.300   0.7747   0.05656   0.05367  -0.0135  0.0075  1.0000  -3.4617   0.0000   0.0000   0.0000   0.2643
   7.400   0.7731   0.05797   0.05512  -0.0130  0.0074  1.0000  -3.5145   0.0000   0.0000   0.0000   0.2636
   7.500   0.7688   0.05986   0.05707  -0.0123  0.0073  1.0000  -3.4859   0.0000   0.0000   0.0000   0.2627
   7.600   0.7611   0.06218   0.05945  -0.0115  0.0072  1.0000  -3.3920   0.0000   0.0000   0.0000   0.2618
   7.700   0.7487   0.06516   0.06250  -0.0105  0.0071  1.0000  -3.2003   0.0000   0.0000   0.0000   0.2607


