xflr5 v6.61

 Calculated polar for: NACA65-015

 1 1 Reynolds number fixed          Mach number fixed         

 xtrf =   1.000 (top)        1.000 (bottom)
 Mach =   0.000     Re =     0.130 e 6     Ncrit =   9.000

  alpha     CL        CD       CDp       Cm    Top Xtr Bot Xtr   Cpmin    Chinge    XCp    
 ------- -------- --------- --------- -------- ------- ------- -------- --------- ---------
 -10.000  -0.9327   0.04602   0.03863  -0.0225  1.0000  0.0562  -4.0100   0.0000   0.0000   0.0000   0.2146
  -9.900  -0.9305   0.04508   0.03752  -0.0216  1.0000  0.0564  -3.9964   0.0000   0.0000   0.0000   0.2156
  -9.800  -0.9284   0.04424   0.03650  -0.0207  1.0000  0.0565  -3.9814   0.0000   0.0000   0.0000   0.2166
  -9.700  -0.9238   0.04295   0.03512  -0.0201  1.0000  0.0567  -3.9568   0.0000   0.0000   0.0000   0.2172
  -9.600  -0.9171   0.04157   0.03368  -0.0199  1.0000  0.0570  -3.9211   0.0000   0.0000   0.0000   0.2173
  -9.500  -0.9113   0.04050   0.03252  -0.0194  1.0000  0.0571  -3.8889   0.0000   0.0000   0.0000   0.2179
  -9.400  -0.9067   0.03963   0.03153  -0.0186  1.0000  0.0570  -3.8629   0.0000   0.0000   0.0000   0.2187
  -9.300  -0.9038   0.03897   0.03075  -0.0174  1.0000  0.0568  -3.8413   0.0000   0.0000   0.0000   0.2201
  -9.200  -0.9021   0.03840   0.03008  -0.0160  1.0000  0.0567  -3.8197   0.0000   0.0000   0.0000   0.2217
  -9.100  -0.9006   0.03782   0.02941  -0.0145  1.0000  0.0567  -3.7970   0.0000   0.0000   0.0000   0.2234
  -9.000  -0.8990   0.03721   0.02872  -0.0131  1.0000  0.0567  -3.7728   0.0000   0.0000   0.0000   0.2250
  -8.900  -0.8967   0.03655   0.02799  -0.0118  1.0000  0.0567  -3.7464   0.0000   0.0000   0.0000   0.2265
  -8.800  -0.8936   0.03583   0.02722  -0.0107  1.0000  0.0567  -3.7169   0.0000   0.0000   0.0000   0.2279
  -8.700  -0.8894   0.03508   0.02641  -0.0097  1.0000  0.0568  -3.6834   0.0000   0.0000   0.0000   0.2290
  -8.600  -0.8844   0.03433   0.02562  -0.0089  1.0000  0.0570  -3.6457   0.0000   0.0000   0.0000   0.2300
  -8.500  -0.8789   0.03361   0.02487  -0.0081  1.0000  0.0572  -3.6138   0.0000   0.0000   0.0000   0.2308
  -8.400  -0.8734   0.03297   0.02420  -0.0074  1.0000  0.0575  -3.5809   0.0000   0.0000   0.0000   0.2317
  -8.300  -0.8678   0.03239   0.02360  -0.0066  1.0000  0.0578  -3.5464   0.0000   0.0000   0.0000   0.2326
  -8.200  -0.8624   0.03186   0.02304  -0.0059  1.0000  0.0581  -3.5114   0.0000   0.0000   0.0000   0.2336
  -8.100  -0.8570   0.03137   0.02253  -0.0051  1.0000  0.0585  -3.4756   0.0000   0.0000   0.0000   0.2345
  -8.000  -0.8444   0.03073   0.02187  -0.0056  0.9991  0.0590  -3.4211   0.0000   0.0000   0.0000   0.2339
  -7.900  -0.8277   0.03002   0.02113  -0.0067  0.9976  0.0598  -3.3572   0.0000   0.0000   0.0000   0.2325
  -7.800  -0.8113   0.02940   0.02048  -0.0079  0.9961  0.0610  -3.2908   0.0000   0.0000   0.0000   0.2309
  -7.700  -0.7953   0.02886   0.01985  -0.0090  0.9942  0.0626  -3.2269   0.0000   0.0000   0.0000   0.2294
  -7.600  -0.7796   0.02842   0.01926  -0.0100  0.9921  0.0640  -3.1677   0.0000   0.0000   0.0000   0.2279
  -7.500  -0.7620   0.02755   0.01851  -0.0113  0.9914  0.0654  -3.0934   0.0000   0.0000   0.0000   0.2259
  -7.400  -0.7452   0.02695   0.01796  -0.0125  0.9900  0.0668  -3.0205   0.0000   0.0000   0.0000   0.2240
  -7.300  -0.7287   0.02640   0.01742  -0.0136  0.9885  0.0681  -2.9532   0.0000   0.0000   0.0000   0.2221
  -7.200  -0.7118   0.02587   0.01686  -0.0148  0.9872  0.0696  -2.8867   0.0000   0.0000   0.0000   0.2201
  -7.100  -0.6960   0.02539   0.01634  -0.0158  0.9852  0.0711  -2.8245   0.0000   0.0000   0.0000   0.2182
  -7.000  -0.6801   0.02480   0.01578  -0.0169  0.9838  0.0728  -2.7603   0.0000   0.0000   0.0000   0.2162
  -6.900  -0.6663   0.02422   0.01531  -0.0178  0.9816  0.0747  -2.6953   0.0000   0.0000   0.0000   0.2143
  -6.800  -0.6516   0.02372   0.01484  -0.0188  0.9796  0.0772  -2.6308   0.0000   0.0000   0.0000   0.2121
  -6.700  -0.6378   0.02329   0.01437  -0.0197  0.9771  0.0799  -2.5750   0.0000   0.0000   0.0000   0.2102
  -6.600  -0.6253   0.02268   0.01386  -0.0206  0.9749  0.0831  -2.5259   0.0000   0.0000   0.0000   0.2081
  -6.500  -0.6131   0.02226   0.01344  -0.0214  0.9720  0.0876  -2.4790   0.0000   0.0000   0.0000   0.2063
  -6.400  -0.6007   0.02169   0.01294  -0.0223  0.9698  0.0927  -2.4318   0.0000   0.0000   0.0000   0.2041
  -6.300  -0.5904   0.02123   0.01250  -0.0227  0.9664  0.0990  -2.3928   0.0000   0.0000   0.0000   0.2028
  -6.200  -0.5792   0.02065   0.01197  -0.0234  0.9640  0.1080  -2.3533   0.0000   0.0000   0.0000   0.2010
  -6.100  -0.5728   0.02006   0.01150  -0.0232  0.9598  0.1204  -2.3261   0.0000   0.0000   0.0000   0.2010
  -6.000  -0.5697   0.01919   0.01094  -0.0226  0.9555  0.1529  -2.3117   0.0000   0.0000   0.0000   0.2019
  -5.900  -0.5747   0.01783   0.01029  -0.0211  0.9505  0.2527  -2.3127   0.0000   0.0000   0.0000   0.2050
  -5.800  -0.5826   0.01654   0.00986  -0.0188  0.9454  0.3888  -2.3131   0.0000   0.0000   0.0000   0.2096
  -5.700  -0.5852   0.01625   0.01028  -0.0162  0.9404  0.5165  -2.2955   0.0000   0.0000   0.0000   0.2146
  -5.600  -0.5746   0.01650   0.01064  -0.0156  0.9382  0.5720  -2.2428   0.0000   0.0000   0.0000   0.2152
  -5.500  -0.5676   0.01677   0.01091  -0.0145  0.9342  0.5944  -2.1962   0.0000   0.0000   0.0000   0.2168
  -5.400  -0.5552   0.01709   0.01122  -0.0143  0.9320  0.6132  -2.1338   0.0000   0.0000   0.0000   0.2167
  -5.300  -0.5437   0.01740   0.01151  -0.0140  0.9295  0.6265  -2.0731   0.0000   0.0000   0.0000   0.2168
  -5.200  -0.5342   0.01767   0.01174  -0.0134  0.9263  0.6371  -2.0178   0.0000   0.0000   0.0000   0.2175
  -5.100  -0.5227   0.01791   0.01191  -0.0132  0.9241  0.6482  -1.9575   0.0000   0.0000   0.0000   0.2174
  -5.000  -0.5066   0.01841   0.01242  -0.0133  0.9227  0.6563  -1.8828   0.0000   0.0000   0.0000   0.2164
  -4.900  -0.4993   0.01862   0.01259  -0.0124  0.9188  0.6639  -1.8343   0.0000   0.0000   0.0000   0.2179
  -4.800  -0.4844   0.01910   0.01305  -0.0123  0.9171  0.6712  -1.7637   0.0000   0.0000   0.0000   0.2174
  -4.700  -0.4697   0.01964   0.01358  -0.0121  0.9155  0.6800  -1.6983   0.0000   0.0000   0.0000   0.2171
  -4.600  -0.4622   0.02007   0.01398  -0.0109  0.9122  0.6901  -1.6545   0.0000   0.0000   0.0000   0.2193
  -4.500  -0.4420   0.02143   0.01540  -0.0102  0.9113  0.7008  -1.5754   0.0000   0.0000   0.0000   0.2198
  -4.400  -0.4146   0.02320   0.01721  -0.0098  0.9116  0.7100  -1.4781   0.0000   0.0000   0.0000   0.2189
  -4.300  -0.4053   0.02353   0.01751  -0.0090  0.9090  0.7179  -1.4317   0.0000   0.0000   0.0000   0.2205
  -4.200  -0.3824   0.02435   0.01830  -0.0095  0.9085  0.7204  -1.3522   0.0000   0.0000   0.0000   0.2177
  -4.100  -0.3652   0.02473   0.01864  -0.0098  0.9074  0.7233  -1.2889   0.0000   0.0000   0.0000   0.2157
  -4.000  -0.3684   0.02435   0.01822  -0.0082  0.9026  0.7303  -1.2761   0.0000   0.0000   0.0000   0.2204
  -3.900  -0.3506   0.02473   0.01854  -0.0086  0.9012  0.7317  -1.2123   0.0000   0.0000   0.0000   0.2181
  -3.800  -0.3339   0.02500   0.01877  -0.0090  0.8998  0.7333  -1.1522   0.0000   0.0000   0.0000   0.2157
  -3.700  -0.3186   0.02518   0.01891  -0.0092  0.8983  0.7354  -1.0961   0.0000   0.0000   0.0000   0.2134
  -3.600  -0.3260   0.02467   0.01836  -0.0073  0.8930  0.7426  -1.0936   0.0000   0.0000   0.0000   0.2203
  -3.500  -0.3105   0.02485   0.01851  -0.0076  0.8914  0.7438  -1.0377   0.0000   0.0000   0.0000   0.2182
  -3.400  -0.2951   0.02500   0.01862  -0.0079  0.8899  0.7451  -0.9830   0.0000   0.0000   0.0000   0.2158
  -3.300  -0.2802   0.02511   0.01870  -0.0082  0.8886  0.7465  -0.9302   0.0000   0.0000   0.0000   0.2132
  -3.200  -0.2704   0.02519   0.01876  -0.0080  0.8855  0.7486  -0.8891   0.0000   0.0000   0.0000   0.2129
  -3.000  -0.2620   0.02475   0.01824  -0.0066  0.8802  0.7564  -0.8329   0.0000   0.0000   0.0000   0.2177
  -2.900  -0.2474   0.02484   0.01829  -0.0069  0.8790  0.7575  -0.7826   0.0000   0.0000   0.0000   0.2149
  -2.800  -0.2366   0.02495   0.01839  -0.0068  0.8760  0.7590  -0.7437   0.0000   0.0000   0.0000   0.2139
  -2.700  -0.2255   0.02499   0.01840  -0.0068  0.8737  0.7608  -0.7065   0.0000   0.0000   0.0000   0.2126
  -2.600  -0.2165   0.02492   0.01830  -0.0065  0.8716  0.7635  -0.6738   0.0000   0.0000   0.0000   0.2125
  -2.500  -0.2167   0.02450   0.01784  -0.0053  0.8692  0.7685  -0.6584   0.0000   0.0000   0.0000   0.2183
  -2.400  -0.2060   0.02463   0.01795  -0.0053  0.8662  0.7697  -0.6226   0.0000   0.0000   0.0000   0.2173
  -2.300  -0.1938   0.02469   0.01800  -0.0054  0.8641  0.7710  -0.5847   0.0000   0.0000   0.0000   0.2151
  -2.200  -0.1820   0.02471   0.01800  -0.0054  0.8622  0.7725  -0.5479   0.0000   0.0000   0.0000   0.2129
  -2.100  -0.1715   0.02466   0.01792  -0.0054  0.8606  0.7744  -0.5140   0.0000   0.0000   0.0000   0.2113
  -2.000  -0.1650   0.02447   0.01770  -0.0049  0.8590  0.7774  -0.4915   0.0000   0.0000   0.0000   0.2130
  -1.900  -0.1657   0.02430   0.01752  -0.0038  0.8549  0.7812  -0.4909   0.0000   0.0000   0.0000   0.2202
  -1.800  -0.1538   0.02434   0.01754  -0.0039  0.8530  0.7823  -0.4829   0.0000   0.0000   0.0000   0.2178
  -1.700  -0.1417   0.02434   0.01752  -0.0040  0.8514  0.7835  -0.4749   0.0000   0.0000   0.0000   0.2146
  -1.600  -0.1301   0.02431   0.01747  -0.0041  0.8499  0.7849  -0.4677   0.0000   0.0000   0.0000   0.2115
  -1.500  -0.1196   0.02424   0.01737  -0.0040  0.8486  0.7867  -0.4614   0.0000   0.0000   0.0000   0.2092
  -1.400  -0.1202   0.02413   0.01726  -0.0029  0.8444  0.7905  -0.4620   0.0000   0.0000   0.0000   0.2190
  -1.300  -0.1147   0.02399   0.01710  -0.0024  0.8420  0.7932  -0.4590   0.0000   0.0000   0.0000   0.2225
  -1.200  -0.1025   0.02400   0.01710  -0.0025  0.8406  0.7942  -0.4518   0.0000   0.0000   0.0000   0.2186
  -1.100  -0.0905   0.02399   0.01708  -0.0026  0.8393  0.7954  -0.4450   0.0000   0.0000   0.0000   0.2137
  -1.000  -0.0788   0.02396   0.01703  -0.0027  0.8382  0.7968  -0.4386   0.0000   0.0000   0.0000   0.2079
  -0.900  -0.0731   0.02402   0.01710  -0.0023  0.8351  0.7989  -0.4358   0.0000   0.0000   0.0000   0.2114
  -0.800  -0.0695   0.02392   0.01699  -0.0016  0.8322  0.8020  -0.4347   0.0000   0.0000   0.0000   0.2204
  -0.700  -0.0636   0.02377   0.01682  -0.0011  0.8301  0.8048  -0.4329   0.0000   0.0000   0.0000   0.2263
  -0.600  -0.0512   0.02377   0.01681  -0.0012  0.8288  0.8059  -0.4267   0.0000   0.0000   0.0000   0.2191
  -0.500  -0.0390   0.02376   0.01679  -0.0014  0.8277  0.8070  -0.4207   0.0000   0.0000   0.0000   0.2077
  -0.400  -0.0303   0.02381   0.01685  -0.0012  0.8255  0.8086  -0.4169   0.0000   0.0000   0.0000   0.2031
  -0.300  -0.0246   0.02388   0.01692  -0.0008  0.8226  0.8106  -0.4149   0.0000   0.0000   0.0000   0.2123
  -0.200  -0.0190   0.02381   0.01684  -0.0003  0.8204  0.8135  -0.4135   0.0000   0.0000   0.0000   0.2301
  -0.100  -0.0124   0.02369   0.01671   0.0001  0.8185  0.8163  -0.4116   0.0000   0.0000   0.0000   0.2562
   0.000   0.0000   0.02369   0.01672  -0.0000  0.8173  0.8173  -0.4056   0.0000   0.0000   0.0000   0.5147
   0.100   0.0124   0.02369   0.01671  -0.0001  0.8163  0.8185  -0.4116   0.0000   0.0000   0.0000   0.2562
   0.200   0.0190   0.02381   0.01684   0.0003  0.8135  0.8204  -0.4135   0.0000   0.0000   0.0000   0.2301
   0.300   0.0246   0.02388   0.01692   0.0008  0.8107  0.8226  -0.4149   0.0000   0.0000   0.0000   0.2124
   0.400   0.0303   0.02381   0.01684   0.0012  0.8086  0.8255  -0.4169   0.0000   0.0000   0.0000   0.2031
   0.500   0.0390   0.02376   0.01679   0.0014  0.8070  0.8277  -0.4207   0.0000   0.0000   0.0000   0.2077
   0.600   0.0512   0.02377   0.01681   0.0012  0.8059  0.8288  -0.4267   0.0000   0.0000   0.0000   0.2191
   0.700   0.0636   0.02377   0.01682   0.0011  0.8048  0.8301  -0.4329   0.0000   0.0000   0.0000   0.2263
   0.800   0.0695   0.02392   0.01699   0.0016  0.8020  0.8322  -0.4347   0.0000   0.0000   0.0000   0.2205
   0.900   0.0731   0.02402   0.01710   0.0023  0.7989  0.8351  -0.4358   0.0000   0.0000   0.0000   0.2115
   1.000   0.0788   0.02396   0.01703   0.0027  0.7968  0.8382  -0.4386   0.0000   0.0000   0.0000   0.2079
   1.100   0.0905   0.02399   0.01708   0.0026  0.7954  0.8393  -0.4450   0.0000   0.0000   0.0000   0.2137
   1.200   0.1025   0.02400   0.01710   0.0025  0.7942  0.8406  -0.4518   0.0000   0.0000   0.0000   0.2186
   1.300   0.1147   0.02399   0.01710   0.0024  0.7932  0.8420  -0.4590   0.0000   0.0000   0.0000   0.2225
   1.400   0.1203   0.02412   0.01726   0.0029  0.7906  0.8444  -0.4620   0.0000   0.0000   0.0000   0.2190
   1.500   0.1196   0.02424   0.01737   0.0040  0.7867  0.8486  -0.4614   0.0000   0.0000   0.0000   0.2093
   1.600   0.1301   0.02431   0.01747   0.0041  0.7849  0.8499  -0.4677   0.0000   0.0000   0.0000   0.2115
   1.700   0.1418   0.02434   0.01752   0.0040  0.7835  0.8514  -0.4749   0.0000   0.0000   0.0000   0.2147
   1.800   0.1538   0.02434   0.01754   0.0039  0.7823  0.8530  -0.4829   0.0000   0.0000   0.0000   0.2178
   1.900   0.1657   0.02430   0.01752   0.0038  0.7812  0.8549  -0.4909   0.0000   0.0000   0.0000   0.2202
   2.100   0.1715   0.02466   0.01792   0.0054  0.7744  0.8606  -0.5140   0.0000   0.0000   0.0000   0.2113
   2.200   0.1820   0.02471   0.01799   0.0054  0.7725  0.8622  -0.5480   0.0000   0.0000   0.0000   0.2129
   2.300   0.1938   0.02469   0.01800   0.0054  0.7710  0.8641  -0.5847   0.0000   0.0000   0.0000   0.2151
   2.400   0.2060   0.02462   0.01795   0.0053  0.7697  0.8662  -0.6226   0.0000   0.0000   0.0000   0.2173
   2.500   0.2167   0.02450   0.01783   0.0053  0.7685  0.8692  -0.6584   0.0000   0.0000   0.0000   0.2183
   2.600   0.2166   0.02492   0.01830   0.0065  0.7635  0.8716  -0.6739   0.0000   0.0000   0.0000   0.2126
   2.700   0.2255   0.02499   0.01840   0.0068  0.7608  0.8737  -0.7065   0.0000   0.0000   0.0000   0.2126
   2.800   0.2366   0.02495   0.01839   0.0068  0.7590  0.8760  -0.7437   0.0000   0.0000   0.0000   0.2139
   2.900   0.2474   0.02483   0.01829   0.0069  0.7576  0.8790  -0.7826   0.0000   0.0000   0.0000   0.2150
   3.000   0.2620   0.02475   0.01824   0.0066  0.7564  0.8802  -0.8329   0.0000   0.0000   0.0000   0.2177
   3.200   0.2705   0.02519   0.01875   0.0080  0.7486  0.8855  -0.8892   0.0000   0.0000   0.0000   0.2130
   3.300   0.2803   0.02511   0.01870   0.0082  0.7465  0.8886  -0.9302   0.0000   0.0000   0.0000   0.2132
   3.400   0.2952   0.02500   0.01862   0.0079  0.7451  0.8899  -0.9831   0.0000   0.0000   0.0000   0.2158
   3.500   0.3105   0.02485   0.01851   0.0076  0.7438  0.8914  -1.0378   0.0000   0.0000   0.0000   0.2182
   3.600   0.3260   0.02467   0.01836   0.0073  0.7426  0.8930  -1.0934   0.0000   0.0000   0.0000   0.2203
   3.700   0.3186   0.02517   0.01891   0.0092  0.7354  0.8983  -1.0962   0.0000   0.0000   0.0000   0.2135
   3.800   0.3340   0.02500   0.01877   0.0090  0.7333  0.8998  -1.1523   0.0000   0.0000   0.0000   0.2157
   3.900   0.3506   0.02472   0.01854   0.0086  0.7317  0.9012  -1.2123   0.0000   0.0000   0.0000   0.2181
   4.000   0.3685   0.02435   0.01822   0.0082  0.7303  0.9026  -1.2761   0.0000   0.0000   0.0000   0.2204
   4.100   0.3652   0.02473   0.01864   0.0098  0.7233  0.9074  -1.2890   0.0000   0.0000   0.0000   0.2157
   4.200   0.3824   0.02434   0.01830   0.0095  0.7204  0.9085  -1.3523   0.0000   0.0000   0.0000   0.2177
   4.300   0.4054   0.02353   0.01751   0.0090  0.7179  0.9091  -1.4318   0.0000   0.0000   0.0000   0.2205
   4.400   0.4147   0.02320   0.01721   0.0098  0.7100  0.9116  -1.4782   0.0000   0.0000   0.0000   0.2189
   4.500   0.4420   0.02143   0.01540   0.0102  0.7008  0.9113  -1.5754   0.0000   0.0000   0.0000   0.2198
   4.600   0.4622   0.02007   0.01398   0.0109  0.6902  0.9122  -1.6544   0.0000   0.0000   0.0000   0.2193
   4.700   0.4697   0.01964   0.01358   0.0121  0.6800  0.9155  -1.6984   0.0000   0.0000   0.0000   0.2171
   4.800   0.4844   0.01910   0.01305   0.0123  0.6712  0.9171  -1.7637   0.0000   0.0000   0.0000   0.2174
   4.900   0.4993   0.01862   0.01259   0.0124  0.6639  0.9188  -1.8343   0.0000   0.0000   0.0000   0.2179
   5.000   0.5065   0.01841   0.01242   0.0133  0.6563  0.9227  -1.8826   0.0000   0.0000   0.0000   0.2164
   5.100   0.5227   0.01791   0.01191   0.0132  0.6482  0.9241  -1.9575   0.0000   0.0000   0.0000   0.2174
   5.200   0.5342   0.01767   0.01174   0.0134  0.6371  0.9263  -2.0178   0.0000   0.0000   0.0000   0.2175
   5.300   0.5437   0.01740   0.01151   0.0140  0.6265  0.9296  -2.0730   0.0000   0.0000   0.0000   0.2168
   5.400   0.5552   0.01709   0.01122   0.0143  0.6132  0.9320  -2.1339   0.0000   0.0000   0.0000   0.2167
   5.500   0.5676   0.01676   0.01091   0.0145  0.5945  0.9342  -2.1962   0.0000   0.0000   0.0000   0.2168
   5.600   0.5746   0.01650   0.01064   0.0156  0.5721  0.9382  -2.2428   0.0000   0.0000   0.0000   0.2152
   5.700   0.5852   0.01625   0.01028   0.0161  0.5165  0.9404  -2.2955   0.0000   0.0000   0.0000   0.2146
   5.800   0.5826   0.01654   0.00986   0.0188  0.3886  0.9454  -2.3131   0.0000   0.0000   0.0000   0.2096
   5.900   0.5747   0.01782   0.01029   0.0211  0.2528  0.9506  -2.3127   0.0000   0.0000   0.0000   0.2050
   6.000   0.5698   0.01919   0.01094   0.0226  0.1529  0.9556  -2.3117   0.0000   0.0000   0.0000   0.2019
   6.100   0.5729   0.02006   0.01150   0.0232  0.1204  0.9598  -2.3261   0.0000   0.0000   0.0000   0.2010
   6.200   0.5792   0.02065   0.01197   0.0234  0.1080  0.9640  -2.3534   0.0000   0.0000   0.0000   0.2010
   6.300   0.5905   0.02123   0.01250   0.0227  0.0990  0.9664  -2.3929   0.0000   0.0000   0.0000   0.2029
   6.400   0.6008   0.02169   0.01294   0.0223  0.0927  0.9698  -2.4320   0.0000   0.0000   0.0000   0.2041
   6.500   0.6132   0.02226   0.01344   0.0214  0.0876  0.9721  -2.4791   0.0000   0.0000   0.0000   0.2064
   6.600   0.6254   0.02268   0.01385   0.0206  0.0831  0.9749  -2.5262   0.0000   0.0000   0.0000   0.2082
   6.700   0.6379   0.02329   0.01437   0.0197  0.0799  0.9771  -2.5752   0.0000   0.0000   0.0000   0.2102
   6.800   0.6518   0.02372   0.01483   0.0188  0.0771  0.9796  -2.6311   0.0000   0.0000   0.0000   0.2122
   6.900   0.6664   0.02422   0.01530   0.0178  0.0747  0.9816  -2.6956   0.0000   0.0000   0.0000   0.2144
   7.000   0.6803   0.02480   0.01578   0.0168  0.0728  0.9838  -2.7606   0.0000   0.0000   0.0000   0.2162
   7.100   0.6961   0.02539   0.01634   0.0158  0.0711  0.9852  -2.8248   0.0000   0.0000   0.0000   0.2183
   7.200   0.7119   0.02586   0.01685   0.0148  0.0696  0.9872  -2.8870   0.0000   0.0000   0.0000   0.2201
   7.300   0.7288   0.02640   0.01742   0.0136  0.0681  0.9885  -2.9535   0.0000   0.0000   0.0000   0.2222
   7.400   0.7454   0.02695   0.01796   0.0125  0.0668  0.9901  -3.0208   0.0000   0.0000   0.0000   0.2241
   7.500   0.7622   0.02755   0.01851   0.0113  0.0654  0.9914  -3.0938   0.0000   0.0000   0.0000   0.2260
   7.600   0.7797   0.02842   0.01926   0.0100  0.0640  0.9921  -3.1680   0.0000   0.0000   0.0000   0.2279
   7.700   0.7954   0.02886   0.01985   0.0090  0.0626  0.9943  -3.2272   0.0000   0.0000   0.0000   0.2294
   7.800   0.8114   0.02940   0.02047   0.0079  0.0610  0.9962  -3.2911   0.0000   0.0000   0.0000   0.2310
   7.900   0.8279   0.03002   0.02113   0.0067  0.0598  0.9977  -3.3575   0.0000   0.0000   0.0000   0.2325
   8.000   0.8446   0.03073   0.02187   0.0055  0.0590  0.9991  -3.4214   0.0000   0.0000   0.0000   0.2340
   8.100   0.8569   0.03136   0.02252   0.0051  0.0585  1.0000  -3.4752   0.0000   0.0000   0.0000   0.2345
   8.200   0.8623   0.03185   0.02303   0.0059  0.0581  1.0000  -3.5110   0.0000   0.0000   0.0000   0.2335
   8.300   0.8677   0.03238   0.02359   0.0067  0.0578  1.0000  -3.5460   0.0000   0.0000   0.0000   0.2326
   8.400   0.8732   0.03296   0.02419   0.0074  0.0575  1.0000  -3.5805   0.0000   0.0000   0.0000   0.2317
   8.500   0.8787   0.03360   0.02486   0.0082  0.0572  1.0000  -3.6134   0.0000   0.0000   0.0000   0.2308
   8.600   0.8842   0.03432   0.02561   0.0089  0.0570  1.0000  -3.6452   0.0000   0.0000   0.0000   0.2299
   8.700   0.8893   0.03507   0.02640   0.0097  0.0568  1.0000  -3.6829   0.0000   0.0000   0.0000   0.2290
   8.800   0.8935   0.03582   0.02721   0.0107  0.0567  1.0000  -3.7165   0.0000   0.0000   0.0000   0.2278
   8.900   0.8966   0.03654   0.02798   0.0119  0.0567  1.0000  -3.7460   0.0000   0.0000   0.0000   0.2265
   9.000   0.8988   0.03720   0.02871   0.0132  0.0567  1.0000  -3.7724   0.0000   0.0000   0.0000   0.2250
   9.100   0.9005   0.03781   0.02941   0.0146  0.0567  1.0000  -3.7967   0.0000   0.0000   0.0000   0.2234
   9.200   0.9020   0.03839   0.03007   0.0160  0.0567  1.0000  -3.8195   0.0000   0.0000   0.0000   0.2217
   9.300   0.9037   0.03897   0.03074   0.0174  0.0568  1.0000  -3.8412   0.0000   0.0000   0.0000   0.2201
   9.400   0.9067   0.03963   0.03153   0.0186  0.0570  1.0000  -3.8629   0.0000   0.0000   0.0000   0.2187
   9.500   0.9113   0.04050   0.03252   0.0194  0.0571  1.0000  -3.8890   0.0000   0.0000   0.0000   0.2179
   9.600   0.9172   0.04158   0.03368   0.0199  0.0570  1.0000  -3.9212   0.0000   0.0000   0.0000   0.2174
   9.700   0.9238   0.04296   0.03512   0.0201  0.0567  1.0000  -3.9570   0.0000   0.0000   0.0000   0.2172
   9.800   0.9284   0.04424   0.03650   0.0206  0.0565  1.0000  -3.9815   0.0000   0.0000   0.0000   0.2166
   9.900   0.9306   0.04508   0.03752   0.0216  0.0564  1.0000  -3.9966   0.0000   0.0000   0.0000   0.2156
  10.000   0.9328   0.04602   0.03863   0.0225  0.0562  1.0000  -4.0101   0.0000   0.0000   0.0000   0.2146
  10.100   0.9351   0.04708   0.03985   0.0233  0.0561  1.0000  -4.0230   0.0000   0.0000   0.0000   0.2137
  10.200   0.9380   0.04830   0.04122   0.0239  0.0561  1.0000  -4.0374   0.0000   0.0000   0.0000   0.2130
  10.300   0.9443   0.04981   0.04280   0.0241  0.0563  1.0000  -4.0658   0.0000   0.0000   0.0000   0.2129
  10.400   0.9189   0.05209   0.04588   0.0283  0.0607  1.0000  -3.8348   0.0000   0.0000   0.0000   0.2075
  10.500   0.9193   0.05387   0.04778   0.0289  0.0619  1.0000  -3.8247   0.0000   0.0000   0.0000   0.2067
  10.600   0.9234   0.05561   0.04957   0.0291  0.0628  1.0000  -3.8403   0.0000   0.0000   0.0000   0.2065
  15.300   0.4424   0.14646   0.14247   0.0024  0.0906  1.0000  -1.3054   0.0000   0.0000   0.0000   0.2314
  15.400   0.4536   0.14787   0.14389   0.0029  0.0897  1.0000  -1.3620   0.0000   0.0000   0.0000   0.2302
  15.500   0.4729   0.15010   0.14613   0.0045  0.0890  1.0000  -1.4645   0.0000   0.0000   0.0000   0.2270
  15.600   0.4562   0.15078   0.14679   0.0018  0.0886  1.0000  -1.3490   0.0000   0.0000   0.0000   0.2326
  15.700   0.4428   0.15129   0.14729  -0.0005  0.0874  1.0000  -1.2556   0.0000   0.0000   0.0000   0.2377
  15.800   0.4403   0.15229   0.14828  -0.0016  0.0858  1.0000  -1.2263   0.0000   0.0000   0.0000   0.2401
  15.900   0.4413   0.15333   0.14933  -0.0022  0.0844  1.0000  -1.2198   0.0000   0.0000   0.0000   0.2415
  16.000   0.4438   0.15437   0.15037  -0.0027  0.0832  1.0000  -1.2240   0.0000   0.0000   0.0000   0.2425
  16.100   0.4478   0.15543   0.15144  -0.0029  0.0822  1.0000  -1.2391   0.0000   0.0000   0.0000   0.2429
  16.200   0.4545   0.15665   0.15267  -0.0028  0.0814  1.0000  -1.2782   0.0000   0.0000   0.0000   0.2425
  17.000   0.6920   0.19902   0.19449  -0.0318  0.0650  1.0000  -1.8911   0.0000   0.0000   0.0000   0.2749
  17.100   0.7026   0.20077   0.19627  -0.0307  0.0645  1.0000  -1.9716   0.0000   0.0000   0.0000   0.2727
  17.200   0.7136   0.20297   0.19849  -0.0294  0.0641  1.0000  -2.0569   0.0000   0.0000   0.0000   0.2701
  17.300   0.7055   0.20446   0.19994  -0.0329  0.0638  1.0000  -1.9398   0.0000   0.0000   0.0000   0.2754
  17.400   0.6984   0.20564   0.20108  -0.0362  0.0631  1.0000  -1.8358   0.0000   0.0000   0.0000   0.2803
  17.500   0.6980   0.20713   0.20256  -0.0380  0.0620  1.0000  -1.7954   0.0000   0.0000   0.0000   0.2827
  17.600   0.7002   0.20859   0.20403  -0.0391  0.0609  1.0000  -1.7861   0.0000   0.0000   0.0000   0.2840
  17.700   0.7032   0.20998   0.20542  -0.0400  0.0600  1.0000  -1.7873   0.0000   0.0000   0.0000   0.2848
  17.800   0.7066   0.21133   0.20677  -0.0407  0.0592  1.0000  -1.7956   0.0000   0.0000   0.0000   0.2854
  17.900   0.7106   0.21263   0.20808  -0.0413  0.0585  1.0000  -1.8111   0.0000   0.0000   0.0000   0.2857
  18.000   0.7152   0.21396   0.20941  -0.0416  0.0579  1.0000  -1.8356   0.0000   0.0000   0.0000   0.2857
  18.100   0.7209   0.21537   0.21083  -0.0417  0.0574  1.0000  -1.8734   0.0000   0.0000   0.0000   0.2852
  18.200   0.7294   0.21723   0.21271  -0.0410  0.0570  1.0000  -1.9377   0.0000   0.0000   0.0000   0.2836
  18.300   0.7429   0.22029   0.21578  -0.0392  0.0566  1.0000  -2.0469   0.0000   0.0000   0.0000   0.2801
  18.400   0.7376   0.22117   0.21664  -0.0422  0.0564  1.0000  -1.9525   0.0000   0.0000   0.0000   0.2842
  18.500   0.7326   0.22190   0.21734  -0.0451  0.0561  1.0000  -1.8599   0.0000   0.0000   0.0000   0.2884
  18.600   0.7311   0.22312   0.21854  -0.0475  0.0554  1.0000  -1.7945   0.0000   0.0000   0.0000   0.2915
  18.700   0.7329   0.22454   0.21996  -0.0489  0.0545  1.0000  -1.7710   0.0000   0.0000   0.0000   0.2931
  18.800   0.7357   0.22594   0.22136  -0.0499  0.0536  1.0000  -1.7631   0.0000   0.0000   0.0000   0.2941
  18.900   0.7388   0.22731   0.22273  -0.0508  0.0529  1.0000  -1.7647   0.0000   0.0000   0.0000   0.2949
  19.000   0.7422   0.22865   0.22407  -0.0516  0.0522  1.0000  -1.7743   0.0000   0.0000   0.0000   0.2955
  19.100   0.7459   0.22996   0.22538  -0.0524  0.0516  1.0000  -1.7887   0.0000   0.0000   0.0000   0.2960
  19.200   0.7498   0.23125   0.22668  -0.0530  0.0511  1.0000  -1.8085   0.0000   0.0000   0.0000   0.2963
  19.300   0.7542   0.23259   0.22802  -0.0534  0.0506  1.0000  -1.8355   0.0000   0.0000   0.0000   0.2963
  19.400   0.7592   0.23404   0.22948  -0.0536  0.0502  1.0000  -1.8729   0.0000   0.0000   0.0000   0.2960
  19.500   0.7659   0.23588   0.23134  -0.0534  0.0498  1.0000  -1.9288   0.0000   0.0000   0.0000   0.2949
  19.600   0.7777   0.23934   0.23484  -0.0519  0.0495  1.0000  -2.0347   0.0000   0.0000   0.0000   0.2920
  19.700   0.7770   0.24034   0.23582  -0.0538  0.0494  1.0000  -1.9915   0.0000   0.0000   0.0000   0.2942
  19.800   0.7739   0.24067   0.23612  -0.0564  0.0492  1.0000  -1.9120   0.0000   0.0000   0.0000   0.2977
  19.900   0.7725   0.24150   0.23693  -0.0590  0.0487  1.0000  -1.8414   0.0000   0.0000   0.0000   0.3008
  20.000   0.7740   0.24271   0.23814  -0.0607  0.0479  1.0000  -1.8072   0.0000   0.0000   0.0000   0.3027
  20.100   0.7768   0.24406   0.23949  -0.0618  0.0471  1.0000  -1.7983   0.0000   0.0000   0.0000   0.3037
  20.200   0.7799   0.24536   0.24079  -0.0628  0.0463  1.0000  -1.7994   0.0000   0.0000   0.0000   0.3045
  20.300   0.7834   0.24665   0.24207  -0.0637  0.0455  1.0000  -1.8070   0.0000   0.0000   0.0000   0.3051
  20.400   0.7870   0.24791   0.24334  -0.0644  0.0448  1.0000  -1.8206   0.0000   0.0000   0.0000   0.3055
  20.500   0.7909   0.24915   0.24458  -0.0651  0.0442  1.0000  -1.8411   0.0000   0.0000   0.0000   0.3057
  20.600   0.7952   0.25043   0.24587  -0.0655  0.0437  1.0000  -1.8703   0.0000   0.0000   0.0000   0.3056
  20.700   0.8002   0.25190   0.24736  -0.0657  0.0433  1.0000  -1.9114   0.0000   0.0000   0.0000   0.3052
  20.800   0.8067   0.25396   0.24943  -0.0654  0.0430  1.0000  -1.9722   0.0000   0.0000   0.0000   0.3040
  28.500   1.0473   0.34926   0.34490  -0.1461  0.0223  1.0000  -1.9447   0.0000   0.0000   0.0000   0.3451
  28.600   1.0503   0.35035   0.34599  -0.1471  0.0221  1.0000  -1.9473   0.0000   0.0000   0.0000   0.3455
  28.700   1.0532   0.35143   0.34708  -0.1482  0.0219  1.0000  -1.9507   0.0000   0.0000   0.0000   0.3458
  28.800   1.0562   0.35250   0.34815  -0.1492  0.0217  1.0000  -1.9550   0.0000   0.0000   0.0000   0.3461
  28.900   1.0591   0.35356   0.34922  -0.1502  0.0215  1.0000  -1.9601   0.0000   0.0000   0.0000   0.3464
  29.000   1.0620   0.35461   0.35028  -0.1512  0.0213  1.0000  -1.9704   0.0000   0.0000   0.0000   0.3466
  29.100   1.0649   0.35566   0.35133  -0.1522  0.0211  1.0000  -1.9834   0.0000   0.0000   0.0000   0.3469
  29.200   1.0678   0.35678   0.35246  -0.1532  0.0210  1.0000  -1.9977   0.0000   0.0000   0.0000   0.3471
  29.300   1.0706   0.35786   0.35354  -0.1542  0.0208  1.0000  -2.0137   0.0000   0.0000   0.0000   0.3473
  29.400   1.0735   0.35897   0.35467  -0.1551  0.0207  1.0000  -2.0318   0.0000   0.0000   0.0000   0.3475
  29.500   1.0763   0.36014   0.35584  -0.1559  0.0205  1.0000  -2.0526   0.0000   0.0000   0.0000   0.3476
  29.600   1.0791   0.36144   0.35715  -0.1567  0.0204  1.0000  -2.0768   0.0000   0.0000   0.0000   0.3477
  29.700   1.0821   0.36296   0.35868  -0.1574  0.0203  1.0000  -2.1058   0.0000   0.0000   0.0000   0.3476
  29.800   1.0852   0.36494   0.36067  -0.1579  0.0202  1.0000  -2.1411   0.0000   0.0000   0.0000   0.3474
  29.900   1.0887   0.36777   0.36351  -0.1582  0.0202  1.0000  -2.1850   0.0000   0.0000   0.0000   0.3469


