xflr5 v6.61

 Calculated polar for: NACA 23012  12%

 1 1 Reynolds number fixed          Mach number fixed         

 xtrf =   1.000 (top)        1.000 (bottom)
 Mach =   0.000     Re =     0.160 e 6     Ncrit =   9.000

  alpha     CL        CD       CDp       Cm    Top Xtr Bot Xtr   Cpmin    Chinge    XCp    
 ------- -------- --------- --------- -------- ------- ------- -------- --------- ---------
 -10.000  -0.5632   0.09802   0.09380  -0.0261  1.0000  0.0725  -2.1383   0.0000   0.0000   0.0000   0.1956
  -9.400  -0.5818   0.07986   0.07578  -0.0293  1.0000  0.0772  -2.2028   0.0000   0.0000   0.0000   0.1921
  -9.300  -0.5748   0.07909   0.07504  -0.0285  1.0000  0.0781  -2.1384   0.0000   0.0000   0.0000   0.1930
  -9.200  -0.5752   0.07771   0.07367  -0.0288  1.0000  0.0785  -2.1232   0.0000   0.0000   0.0000   0.1928
  -9.100  -0.5775   0.07624   0.07219  -0.0291  1.0000  0.0790  -2.1190   0.0000   0.0000   0.0000   0.1925
  -9.000  -0.5806   0.07478   0.07072  -0.0293  1.0000  0.0794  -2.1188   0.0000   0.0000   0.0000   0.1926
  -8.900  -0.5842   0.07337   0.06931  -0.0293  1.0000  0.0798  -2.1196   0.0000   0.0000   0.0000   0.1930
  -8.800  -0.5877   0.07202   0.06795  -0.0292  1.0000  0.0802  -2.1193   0.0000   0.0000   0.0000   0.1936
  -8.700  -0.5902   0.07065   0.06656  -0.0291  1.0000  0.0806  -2.1157   0.0000   0.0000   0.0000   0.1940
  -8.600  -0.5921   0.06926   0.06515  -0.0291  1.0000  0.0811  -2.1104   0.0000   0.0000   0.0000   0.1943
  -8.500  -0.5936   0.06790   0.06377  -0.0290  1.0000  0.0817  -2.1035   0.0000   0.0000   0.0000   0.1947
  -8.400  -0.5947   0.06657   0.06241  -0.0289  1.0000  0.0823  -2.0945   0.0000   0.0000   0.0000   0.1951
  -8.300  -0.5956   0.06525   0.06107  -0.0287  1.0000  0.0829  -2.0849   0.0000   0.0000   0.0000   0.1956
  -8.200  -0.5962   0.06395   0.05974  -0.0285  1.0000  0.0835  -2.0747   0.0000   0.0000   0.0000   0.1962
  -8.100  -0.5966   0.06267   0.05842  -0.0282  1.0000  0.0843  -2.0638   0.0000   0.0000   0.0000   0.1968
  -8.000  -0.5968   0.06141   0.05713  -0.0278  1.0000  0.0850  -2.0521   0.0000   0.0000   0.0000   0.1974
  -7.900  -0.5968   0.06018   0.05585  -0.0274  1.0000  0.0859  -2.0399   0.0000   0.0000   0.0000   0.1982
  -7.800  -0.5966   0.05898   0.05461  -0.0269  1.0000  0.0867  -2.0272   0.0000   0.0000   0.0000   0.1990
  -7.700  -0.5963   0.05782   0.05340  -0.0264  1.0000  0.0877  -2.0140   0.0000   0.0000   0.0000   0.2000
  -7.600  -0.5957   0.05671   0.05223  -0.0258  1.0000  0.0887  -2.0002   0.0000   0.0000   0.0000   0.2011
  -7.500  -0.5950   0.05566   0.05111  -0.0251  1.0000  0.0898  -1.9945   0.0000   0.0000   0.0000   0.2022
  -7.400  -0.5939   0.05470   0.05008  -0.0243  1.0000  0.0910  -1.9927   0.0000   0.0000   0.0000   0.2035
  -7.300  -0.5922   0.05387   0.04918  -0.0235  1.0000  0.0923  -1.9892   0.0000   0.0000   0.0000   0.2048
  -7.200  -0.5891   0.05331   0.04854  -0.0226  1.0000  0.0939  -1.9815   0.0000   0.0000   0.0000   0.2062
  -7.100  -0.5837   0.05355   0.04868  -0.0216  1.0000  0.0960  -1.9644   0.0000   0.0000   0.0000   0.2076
  -7.000  -0.5738   0.05679   0.05177  -0.0200  1.0000  0.0987  -1.9138   0.0000   0.0000   0.0000   0.2098
  -6.900  -0.5704   0.05671   0.05160  -0.0189  1.0000  0.0990  -1.8992   0.0000   0.0000   0.0000   0.2116
  -6.700  -0.5865   0.04982   0.04444  -0.0168  1.0000  0.1014  -1.9840   0.0000   0.0000   0.0000   0.2162
  -6.600  -0.5894   0.04648   0.04108  -0.0162  1.0000  0.1033  -1.9951   0.0000   0.0000   0.0000   0.2174
  -6.500  -0.5865   0.04490   0.03951  -0.0155  1.0000  0.1045  -1.9798   0.0000   0.0000   0.0000   0.2185
  -6.400  -0.5810   0.04369   0.03835  -0.0150  1.0000  0.1056  -1.9546   0.0000   0.0000   0.0000   0.2193
  -6.300  -0.5758   0.04268   0.03735  -0.0143  1.0000  0.1067  -1.9300   0.0000   0.0000   0.0000   0.2202
  -6.200  -0.5709   0.04177   0.03646  -0.0136  1.0000  0.1078  -1.9067   0.0000   0.0000   0.0000   0.2214
  -6.100  -0.5663   0.04093   0.03562  -0.0128  1.0000  0.1090  -1.8847   0.0000   0.0000   0.0000   0.2226
  -6.000  -0.5617   0.04015   0.03482  -0.0119  1.0000  0.1102  -1.8639   0.0000   0.0000   0.0000   0.2240
  -5.900  -0.5572   0.03940   0.03405  -0.0110  1.0000  0.1116  -1.8444   0.0000   0.0000   0.0000   0.2254
  -5.700  -0.5440   0.03422   0.02780  -0.0067  1.0000  0.0671  -2.1261   0.0000   0.0000   0.0000   0.2327
  -5.600  -0.5403   0.03243   0.02586  -0.0056  1.0000  0.0640  -2.1502   0.0000   0.0000   0.0000   0.2347
  -5.500  -0.5356   0.03064   0.02385  -0.0044  1.0000  0.0603  -2.1938   0.0000   0.0000   0.0000   0.2369
  -5.400  -0.5296   0.02835   0.02106  -0.0026  1.0000  0.0548  -2.3084   0.0000   0.0000   0.0000   0.2401
  -5.300  -0.5219   0.02759   0.02012  -0.0016  1.0000  0.0532  -2.3233   0.0000   0.0000   0.0000   0.2420
  -5.200  -0.5144   0.02708   0.01951  -0.0008  1.0000  0.0526  -2.3141   0.0000   0.0000   0.0000   0.2436
  -5.100  -0.5069   0.02657   0.01892  -0.0000  1.0000  0.0522  -2.3013   0.0000   0.0000   0.0000   0.2451
  -5.000  -0.4995   0.02585   0.01795   0.0007  1.0000  0.0521  -2.3062   0.0000   0.0000   0.0000   0.2466
  -4.900  -0.4918   0.02529   0.01732   0.0014  1.0000  0.0519  -2.2913   0.0000   0.0000   0.0000   0.2481
  -4.800  -0.4840   0.02467   0.01663   0.0021  1.0000  0.0518  -2.2779   0.0000   0.0000   0.0000   0.2495
  -4.700  -0.4760   0.02398   0.01587   0.0027  1.0000  0.0518  -2.2673   0.0000   0.0000   0.0000   0.2509
  -4.600  -0.4679   0.02320   0.01502   0.0033  1.0000  0.0520  -2.2599   0.0000   0.0000   0.0000   0.2523
  -4.500  -0.4595   0.02236   0.01411   0.0038  1.0000  0.0525  -2.2550   0.0000   0.0000   0.0000   0.2536
  -4.400  -0.4510   0.02154   0.01325   0.0043  1.0000  0.0534  -2.2492   0.0000   0.0000   0.0000   0.2549
  -4.300  -0.4426   0.02086   0.01255   0.0048  1.0000  0.0546  -2.2371   0.0000   0.0000   0.0000   0.2562
  -4.200  -0.4345   0.02036   0.01207   0.0053  1.0000  0.0562  -2.2173   0.0000   0.0000   0.0000   0.2576
  -4.100  -0.4266   0.02001   0.01173   0.0058  1.0000  0.0581  -2.1939   0.0000   0.0000   0.0000   0.2590
  -4.000  -0.4187   0.01974   0.01147   0.0063  1.0000  0.0608  -2.1712   0.0000   0.0000   0.0000   0.2605
  -3.900  -0.4106   0.01952   0.01125   0.0068  1.0000  0.0641  -2.1495   0.0000   0.0000   0.0000   0.2620
  -3.800  -0.4024   0.01936   0.01108   0.0073  1.0000  0.0673  -2.1241   0.0000   0.0000   0.0000   0.2636
  -3.700  -0.3919   0.01924   0.01095   0.0073  0.9995  0.0698  -2.0877   0.0000   0.0000   0.0000   0.2641
  -3.600  -0.3727   0.01921   0.01088   0.0057  0.9970  0.0719  -2.0254   0.0000   0.0000   0.0000   0.2607
  -3.500  -0.3558   0.01867   0.01033   0.0045  0.9947  0.0739  -1.9791   0.0000   0.0000   0.0000   0.2581
  -3.400  -0.3402   0.01779   0.00946   0.0035  0.9928  0.0771  -1.9416   0.0000   0.0000   0.0000   0.2558
  -3.300  -0.3225   0.01737   0.00910   0.0020  0.9904  0.0818  -1.8755   0.0000   0.0000   0.0000   0.2516
  -3.200  -0.3045   0.01716   0.00895   0.0004  0.9873  0.0867  -1.8030   0.0000   0.0000   0.0000   0.2467
  -3.100  -0.2870   0.01694   0.00875  -0.0009  0.9836  0.0908  -1.7390   0.0000   0.0000   0.0000   0.2420
  -3.000  -0.2687   0.01665   0.00846  -0.0023  0.9803  0.0938  -1.6805   0.0000   0.0000   0.0000   0.2364
  -2.900  -0.2496   0.01636   0.00816  -0.0039  0.9776  0.0967  -1.6229   0.0000   0.0000   0.0000   0.2295
  -2.800  -0.2305   0.01614   0.00793  -0.0054  0.9749  0.0995  -1.5630   0.0000   0.0000   0.0000   0.2213
  -2.700  -0.2181   0.01546   0.00726  -0.0057  0.9700  0.1088  -1.5320   0.0000   0.0000   0.0000   0.2186
  -2.600  -0.2016   0.01510   0.00694  -0.0068  0.9657  0.1180  -1.4774   0.0000   0.0000   0.0000   0.2109
  -2.500  -0.1828   0.01483   0.00664  -0.0083  0.9622  0.1281  -1.4163   0.0000   0.0000   0.0000   0.1989
  -2.400  -0.1636   0.01421   0.00625  -0.0099  0.9592  0.1690  -1.3632   0.0000   0.0000   0.0000   0.1834
  -2.300  -0.1564   0.01228   0.00610  -0.0100  0.9567  0.5335  -1.3304   0.0000   0.0000   0.0000   0.1804
  -2.200  -0.1498   0.01183   0.00615  -0.0086  0.9491  0.6395  -1.2907   0.0000   0.0000   0.0000   0.1870
  -2.100  -0.1349   0.01160   0.00616  -0.0087  0.9438  0.7045  -1.2304   0.0000   0.0000   0.0000   0.1798
  -2.000  -0.1181   0.01145   0.00617  -0.0091  0.9394  0.7501  -1.1647   0.0000   0.0000   0.0000   0.1666
  -1.900  -0.1007   0.01136   0.00621  -0.0095  0.9358  0.7883  -1.0972   0.0000   0.0000   0.0000   0.1487
  -1.800  -0.0849   0.01134   0.00628  -0.0096  0.9313  0.8162  -1.0339   0.0000   0.0000   0.0000   0.1294
  -1.700  -0.0763   0.01133   0.00629  -0.0085  0.9230  0.8367  -0.9880   0.0000   0.0000   0.0000   0.1303
  -1.600  -0.0609   0.01138   0.00639  -0.0085  0.9176  0.8565  -0.9264   0.0000   0.0000   0.0000   0.1013
  -1.500  -0.0469   0.01140   0.00640  -0.0084  0.9125  0.8741  -0.8689   0.0000   0.0000   0.0000   0.0600
  -1.400  -0.0274   0.01146   0.00646  -0.0093  0.9089  0.8856  -0.8185   0.0000   0.0000   0.0000  -0.1053
  -1.300  -0.0107   0.01149   0.00639  -0.0098  0.9050  0.8972  -0.7875   0.0000   0.0000   0.0000  -0.7033
  -1.200  -0.0007   0.01154   0.00643  -0.0091  0.8964  0.9073  -0.7553   0.0000   0.0000   0.0000  -13.0636
  -1.100   0.0184   0.01163   0.00651  -0.0100  0.8899  0.9154  -0.7092   0.0000   0.0000   0.0000   0.8117
  -1.000   0.0357   0.01172   0.00656  -0.0106  0.8834  0.9257  -0.6663   0.0000   0.0000   0.0000   0.5529
  -0.900   0.0542   0.01180   0.00659  -0.0113  0.8775  0.9354  -0.6220   0.0000   0.0000   0.0000   0.4619
  -0.800   0.0840   0.01192   0.00666  -0.0142  0.8725  0.9416  -0.5984   0.0000   0.0000   0.0000   0.4204
  -0.700   0.1051   0.01198   0.00670  -0.0158  0.8628  0.9481  -0.6180   0.0000   0.0000   0.0000   0.4007
  -0.600   0.1179   0.01199   0.00667  -0.0158  0.8520  0.9559  -0.6322   0.0000   0.0000   0.0000   0.3837
  -0.500   0.1390   0.01195   0.00655  -0.0174  0.8417  0.9589  -0.6522   0.0000   0.0000   0.0000   0.3744
  -0.400   0.1586   0.01190   0.00644  -0.0188  0.8309  0.9618  -0.6711   0.0000   0.0000   0.0000   0.3675
  -0.300   0.1766   0.01188   0.00637  -0.0200  0.8173  0.9657  -0.6889   0.0000   0.0000   0.0000   0.3620
  -0.200   0.1927   0.01185   0.00627  -0.0207  0.8041  0.9704  -0.7056   0.0000   0.0000   0.0000   0.3561
  -0.100   0.2063   0.01185   0.00618  -0.0210  0.7922  0.9757  -0.7207   0.0000   0.0000   0.0000   0.3500
   0.000   0.2256   0.01181   0.00609  -0.0225  0.7778  0.9784  -0.7427   0.0000   0.0000   0.0000   0.3482
   0.100   0.2432   0.01177   0.00598  -0.0237  0.7636  0.9817  -0.7640   0.0000   0.0000   0.0000   0.3456
   0.200   0.2594   0.01176   0.00586  -0.0246  0.7504  0.9852  -0.7843   0.0000   0.0000   0.0000   0.3427
   0.300   0.2752   0.01175   0.00581  -0.0256  0.7365  0.9893  -0.8041   0.0000   0.0000   0.0000   0.3408
   0.400   0.2935   0.01171   0.00569  -0.0270  0.7206  0.9919  -0.8262   0.0000   0.0000   0.0000   0.3396
   0.500   0.3110   0.01171   0.00556  -0.0282  0.7053  0.9951  -0.8479   0.0000   0.0000   0.0000   0.3382
   0.600   0.3297   0.01167   0.00549  -0.0298  0.6901  0.9983  -0.8703   0.0000   0.0000   0.0000   0.3378
   0.700   0.3436   0.01166   0.00539  -0.0304  0.6740  1.0000  -0.8889   0.0000   0.0000   0.0000   0.3359
   0.800   0.3520   0.01169   0.00530  -0.0299  0.6597  1.0000  -0.9032   0.0000   0.0000   0.0000   0.3322
   0.900   0.3608   0.01168   0.00525  -0.0296  0.6467  1.0000  -0.9176   0.0000   0.0000   0.0000   0.3292
   1.000   0.3695   0.01169   0.00519  -0.0292  0.6321  1.0000  -0.9320   0.0000   0.0000   0.0000   0.3262
   1.100   0.3781   0.01172   0.00513  -0.0288  0.6172  1.0000  -0.9464   0.0000   0.0000   0.0000   0.3231
   1.200   0.3869   0.01178   0.00507  -0.0284  0.6028  1.0000  -0.9610   0.0000   0.0000   0.0000   0.3203
   1.300   0.3959   0.01178   0.00505  -0.0281  0.5893  1.0000  -0.9756   0.0000   0.0000   0.0000   0.3178
   1.400   0.4047   0.01182   0.00501  -0.0277  0.5742  1.0000  -0.9903   0.0000   0.0000   0.0000   0.3152
   1.500   0.4133   0.01191   0.00496  -0.0273  0.5588  1.0000  -1.0049   0.0000   0.0000   0.0000   0.3126
   1.600   0.4224   0.01196   0.00496  -0.0270  0.5453  1.0000  -1.0196   0.0000   0.0000   0.0000   0.3104
   1.700   0.4314   0.01200   0.00495  -0.0267  0.5305  1.0000  -1.0344   0.0000   0.0000   0.0000   0.3082
   1.800   0.4400   0.01209   0.00492  -0.0262  0.5148  1.0000  -1.0490   0.0000   0.0000   0.0000   0.3059
   1.900   0.4487   0.01222   0.00498  -0.0258  0.4990  1.0000  -1.0637   0.0000   0.0000   0.0000   0.3038
   2.000   0.4578   0.01225   0.00499  -0.0255  0.4860  1.0000  -1.0786   0.0000   0.0000   0.0000   0.3019
   2.100   0.4666   0.01234   0.00499  -0.0252  0.4712  1.0000  -1.0933   0.0000   0.0000   0.0000   0.3000
   2.200   0.4750   0.01249   0.00499  -0.0247  0.4560  1.0000  -1.1077   0.0000   0.0000   0.0000   0.2980
   2.300   0.4838   0.01259   0.00502  -0.0244  0.4435  1.0000  -1.1222   0.0000   0.0000   0.0000   0.2962
   2.400   0.4927   0.01265   0.00506  -0.0240  0.4322  1.0000  -1.1369   0.0000   0.0000   0.0000   0.2945
   2.500   0.5014   0.01275   0.00508  -0.0236  0.4205  1.0000  -1.1514   0.0000   0.0000   0.0000   0.2928
   2.600   0.5098   0.01291   0.00511  -0.0232  0.4089  1.0000  -1.1657   0.0000   0.0000   0.0000   0.2910
   2.700   0.5183   0.01312   0.00520  -0.0228  0.3966  1.0000  -1.1823   0.0000   0.0000   0.0000   0.2894
   2.800   0.5275   0.01317   0.00526  -0.0224  0.3903  1.0000  -1.2011   0.0000   0.0000   0.0000   0.2880
   2.900   0.5365   0.01324   0.00533  -0.0221  0.3829  1.0000  -1.2198   0.0000   0.0000   0.0000   0.2865
   3.000   0.5453   0.01335   0.00539  -0.0217  0.3752  1.0000  -1.2384   0.0000   0.0000   0.0000   0.2850
   3.100   0.5540   0.01348   0.00545  -0.0213  0.3677  1.0000  -1.2570   0.0000   0.0000   0.0000   0.2836
   3.200   0.5625   0.01364   0.00552  -0.0209  0.3602  1.0000  -1.2754   0.0000   0.0000   0.0000   0.2822
   3.300   0.5711   0.01389   0.00566  -0.0205  0.3513  1.0000  -1.2933   0.0000   0.0000   0.0000   0.2808
   3.400   0.5802   0.01407   0.00581  -0.0201  0.3453  1.0000  -1.3118   0.0000   0.0000   0.0000   0.2796
   3.500   0.5893   0.01413   0.00590  -0.0198  0.3418  1.0000  -1.3309   0.0000   0.0000   0.0000   0.2784
   3.600   0.5983   0.01422   0.00599  -0.0194  0.3378  1.0000  -1.3500   0.0000   0.0000   0.0000   0.2772
   3.700   0.6073   0.01431   0.00609  -0.0190  0.3335  1.0000  -1.3691   0.0000   0.0000   0.0000   0.2760
   3.800   0.6163   0.01442   0.00619  -0.0187  0.3291  1.0000  -1.3882   0.0000   0.0000   0.0000   0.2748
   3.900   0.6252   0.01453   0.00628  -0.0183  0.3247  1.0000  -1.4074   0.0000   0.0000   0.0000   0.2737
   4.000   0.6340   0.01466   0.00638  -0.0179  0.3202  1.0000  -1.4265   0.0000   0.0000   0.0000   0.2725
   4.100   0.6427   0.01482   0.00649  -0.0174  0.3158  1.0000  -1.4455   0.0000   0.0000   0.0000   0.2714
   4.200   0.6513   0.01501   0.00662  -0.0170  0.3111  1.0000  -1.4643   0.0000   0.0000   0.0000   0.2703
   4.300   0.6601   0.01528   0.00684  -0.0166  0.3055  1.0000  -1.4826   0.0000   0.0000   0.0000   0.2693
   4.400   0.6693   0.01575   0.00726  -0.0164  0.2984  1.0000  -1.4998   0.0000   0.0000   0.0000   0.2685
   4.500   0.6783   0.01582   0.00735  -0.0160  0.2965  1.0000  -1.5238   0.0000   0.0000   0.0000   0.2675
   4.600   0.6873   0.01589   0.00744  -0.0156  0.2943  1.0000  -1.5488   0.0000   0.0000   0.0000   0.2665
   4.700   0.6962   0.01596   0.00754  -0.0152  0.2916  1.0000  -1.5738   0.0000   0.0000   0.0000   0.2656
   4.800   0.7052   0.01606   0.00765  -0.0148  0.2886  1.0000  -1.5988   0.0000   0.0000   0.0000   0.2646
   4.900   0.7142   0.01616   0.00776  -0.0144  0.2854  1.0000  -1.6240   0.0000   0.0000   0.0000   0.2637
   5.000   0.7231   0.01628   0.00789  -0.0140  0.2822  1.0000  -1.6492   0.0000   0.0000   0.0000   0.2628
   5.100   0.7321   0.01641   0.00802  -0.0136  0.2791  1.0000  -1.6745   0.0000   0.0000   0.0000   0.2620
   5.200   0.7410   0.01655   0.00816  -0.0133  0.2762  1.0000  -1.6998   0.0000   0.0000   0.0000   0.2611
   5.300   0.7500   0.01670   0.00830  -0.0129  0.2734  1.0000  -1.7252   0.0000   0.0000   0.0000   0.2603
   5.400   0.7589   0.01686   0.00845  -0.0125  0.2706  1.0000  -1.7506   0.0000   0.0000   0.0000   0.2595
   5.500   0.7677   0.01704   0.00862  -0.0121  0.2677  1.0000  -1.7760   0.0000   0.0000   0.0000   0.2587
   5.600   0.7765   0.01726   0.00881  -0.0117  0.2646  1.0000  -1.8013   0.0000   0.0000   0.0000   0.2579
   5.700   0.7854   0.01754   0.00906  -0.0113  0.2612  1.0000  -1.8263   0.0000   0.0000   0.0000   0.2572
   5.800   0.7943   0.01795   0.00945  -0.0110  0.2572  1.0000  -1.8504   0.0000   0.0000   0.0000   0.2565
   5.900   0.8031   0.01871   0.01042  -0.0108  0.2519  1.0000  -1.8659   0.0000   0.0000   0.0000   0.2560
   6.000   0.8122   0.01886   0.01061  -0.0104  0.2505  1.0000  -1.9017   0.0000   0.0000   0.0000   0.2553
   6.100   0.8213   0.01896   0.01074  -0.0100  0.2493  1.0000  -1.9382   0.0000   0.0000   0.0000   0.2546
   6.200   0.8302   0.01907   0.01090  -0.0096  0.2477  1.0000  -1.9737   0.0000   0.0000   0.0000   0.2539
   6.300   0.8392   0.01921   0.01107  -0.0093  0.2459  1.0000  -2.0087   0.0000   0.0000   0.0000   0.2532
   6.400   0.8481   0.01935   0.01126  -0.0089  0.2438  1.0000  -2.0436   0.0000   0.0000   0.0000   0.2525
   6.500   0.8569   0.01949   0.01143  -0.0085  0.2414  1.0000  -2.0786   0.0000   0.0000   0.0000   0.2518
   6.600   0.8658   0.01963   0.01160  -0.0081  0.2387  1.0000  -2.1137   0.0000   0.0000   0.0000   0.2512
   6.700   0.8746   0.01977   0.01175  -0.0077  0.2358  1.0000  -2.1492   0.0000   0.0000   0.0000   0.2505
   6.800   0.8835   0.01990   0.01189  -0.0073  0.2329  1.0000  -2.1849   0.0000   0.0000   0.0000   0.2499
   6.900   0.8924   0.02003   0.01202  -0.0069  0.2299  1.0000  -2.2210   0.0000   0.0000   0.0000   0.2492
   7.000   0.9012   0.02016   0.01215  -0.0065  0.2271  1.0000  -2.2573   0.0000   0.0000   0.0000   0.2486
   7.100   0.9100   0.02031   0.01229  -0.0062  0.2244  1.0000  -2.2953   0.0000   0.0000   0.0000   0.2480
   7.200   0.9187   0.02050   0.01247  -0.0058  0.2217  1.0000  -2.3432   0.0000   0.0000   0.0000   0.2474
   7.300   0.9275   0.02077   0.01272  -0.0055  0.2191  1.0000  -2.3910   0.0000   0.0000   0.0000   0.2469
   7.400   0.9362   0.02115   0.01308  -0.0051  0.2161  1.0000  -2.4381   0.0000   0.0000   0.0000   0.2464
   7.500   0.9448   0.02176   0.01370  -0.0049  0.2125  1.0000  -2.4830   0.0000   0.0000   0.0000   0.2459
   7.600   0.9513   0.02313   0.01516  -0.0045  0.2075  1.0000  -2.5166   0.0000   0.0000   0.0000   0.2454
   7.700   0.9605   0.02319   0.01526  -0.0042  0.2068  1.0000  -2.5671   0.0000   0.0000   0.0000   0.2449
   7.800   0.9696   0.02328   0.01539  -0.0038  0.2058  1.0000  -2.6177   0.0000   0.0000   0.0000   0.2444
   7.900   0.9786   0.02338   0.01554  -0.0035  0.2045  1.0000  -2.6682   0.0000   0.0000   0.0000   0.2439
   8.000   0.9876   0.02351   0.01572  -0.0031  0.2031  1.0000  -2.7186   0.0000   0.0000   0.0000   0.2434
   8.100   0.9964   0.02366   0.01593  -0.0028  0.2013  1.0000  -2.7686   0.0000   0.0000   0.0000   0.2428
   8.200   1.0050   0.02382   0.01614  -0.0024  0.1993  1.0000  -2.8185   0.0000   0.0000   0.0000   0.2423
   8.300   1.0137   0.02397   0.01633  -0.0020  0.1969  1.0000  -2.8692   0.0000   0.0000   0.0000   0.2418
   8.400   1.0223   0.02409   0.01648  -0.0017  0.1942  1.0000  -2.9207   0.0000   0.0000   0.0000   0.2413
   8.500   1.0310   0.02418   0.01660  -0.0013  0.1913  1.0000  -2.9732   0.0000   0.0000   0.0000   0.2408
   8.600   1.0398   0.02424   0.01667  -0.0009  0.1883  1.0000  -3.0269   0.0000   0.0000   0.0000   0.2403
   8.700   1.0486   0.02428   0.01671  -0.0006  0.1853  1.0000  -3.0815   0.0000   0.0000   0.0000   0.2398
   8.800   1.0574   0.02433   0.01674  -0.0002  0.1824  1.0000  -3.1365   0.0000   0.0000   0.0000   0.2393
   8.900   1.0659   0.02441   0.01681   0.0001  0.1797  1.0000  -3.1912   0.0000   0.0000   0.0000   0.2388
   9.000   1.0743   0.02461   0.01697   0.0005  0.1768  1.0000  -3.2446   0.0000   0.0000   0.0000   0.2383
   9.100   1.0823   0.02501   0.01735   0.0009  0.1735  1.0000  -3.2954   0.0000   0.0000   0.0000   0.2378
   9.200   1.0887   0.02616   0.01851   0.0012  0.1686  1.0000  -3.3343   0.0000   0.0000   0.0000   0.2374
   9.300   1.0947   0.02706   0.01950   0.0017  0.1656  1.0000  -3.3735   0.0000   0.0000   0.0000   0.2368
   9.400   1.1036   0.02697   0.01944   0.0021  0.1645  1.0000  -3.4445   0.0000   0.0000   0.0000   0.2364
   9.500   1.1117   0.02727   0.01999   0.0025  0.1635  1.0000  -3.5024   0.0000   0.0000   0.0000   0.2359
   9.600   1.1200   0.02736   0.02014   0.0029  0.1620  1.0000  -3.5666   0.0000   0.0000   0.0000   0.2354
   9.700   1.1280   0.02747   0.02032   0.0033  0.1600  1.0000  -3.6371   0.0000   0.0000   0.0000   0.2349
   9.800   1.1359   0.02759   0.02049   0.0037  0.1578  1.0000  -3.7088   0.0000   0.0000   0.0000   0.2344
   9.900   1.1438   0.02769   0.02064   0.0042  0.1552  1.0000  -3.7818   0.0000   0.0000   0.0000   0.2339
  10.000   1.1518   0.02775   0.02074   0.0046  0.1523  1.0000  -3.8568   0.0000   0.0000   0.0000   0.2334
  10.100   1.1599   0.02776   0.02076   0.0050  0.1493  1.0000  -3.9341   0.0000   0.0000   0.0000   0.2329
  10.200   1.1681   0.02772   0.02072   0.0054  0.1463  1.0000  -4.0137   0.0000   0.0000   0.0000   0.2324
  10.300   1.1762   0.02764   0.02062   0.0059  0.1433  1.0000  -4.0944   0.0000   0.0000   0.0000   0.2319
  10.400   1.1838   0.02760   0.02055   0.0063  0.1403  1.0000  -4.1742   0.0000   0.0000   0.0000   0.2313
  10.500   1.1908   0.02771   0.02060   0.0068  0.1371  1.0000  -4.2504   0.0000   0.0000   0.0000   0.2308
  10.600   1.1967   0.02824   0.02109   0.0074  0.1328  1.0000  -4.3169   0.0000   0.0000   0.0000   0.2302
  10.700   1.1993   0.02992   0.02283   0.0080  0.1274  1.0000  -4.3541   0.0000   0.0000   0.0000   0.2295
  10.800   1.2068   0.02991   0.02287   0.0085  0.1264  1.0000  -4.4319   0.0000   0.0000   0.0000   0.2290
  10.900   1.2137   0.02995   0.02299   0.0091  0.1251  1.0000  -4.5068   0.0000   0.0000   0.0000   0.2284
  11.000   1.2204   0.03006   0.02316   0.0096  0.1234  1.0000  -4.5801   0.0000   0.0000   0.0000   0.2278
  11.100   1.2267   0.03020   0.02337   0.0102  0.1213  1.0000  -4.6522   0.0000   0.0000   0.0000   0.2272
  11.200   1.2329   0.03038   0.02360   0.0108  0.1189  1.0000  -4.7235   0.0000   0.0000   0.0000   0.2266
  11.300   1.2389   0.03055   0.02382   0.0114  0.1163  1.0000  -4.7948   0.0000   0.0000   0.0000   0.2260
  11.400   1.2448   0.03068   0.02399   0.0120  0.1135  1.0000  -4.8670   0.0000   0.0000   0.0000   0.2254
  11.500   1.2506   0.03078   0.02409   0.0127  0.1107  1.0000  -4.9402   0.0000   0.0000   0.0000   0.2247
  11.600   1.2560   0.03084   0.02415   0.0133  0.1079  1.0000  -5.0133   0.0000   0.0000   0.0000   0.2241
  11.700   1.2605   0.03095   0.02422   0.0141  0.1050  1.0000  -5.0830   0.0000   0.0000   0.0000   0.2233
  11.800   1.2636   0.03122   0.02444   0.0150  0.1018  1.0000  -5.1441   0.0000   0.0000   0.0000   0.2225
  11.900   1.2640   0.03188   0.02506   0.0161  0.0979  1.0000  -5.1868   0.0000   0.0000   0.0000   0.2214
  12.000   1.2603   0.03381   0.02705   0.0174  0.0925  1.0000  -5.1890   0.0000   0.0000   0.0000   0.2202
  12.100   1.2638   0.03380   0.02710   0.0183  0.0916  1.0000  -5.2550   0.0000   0.0000   0.0000   0.2193
  12.200   1.2668   0.03388   0.02723   0.0192  0.0904  1.0000  -5.3183   0.0000   0.0000   0.0000   0.2185
  12.300   1.2696   0.03404   0.02744   0.0200  0.0887  1.0000  -5.3795   0.0000   0.0000   0.0000   0.2177
  12.400   1.2722   0.03427   0.02772   0.0208  0.0867  1.0000  -5.4387   0.0000   0.0000   0.0000   0.2169
  12.500   1.2745   0.03456   0.02805   0.0215  0.0845  1.0000  -5.4964   0.0000   0.0000   0.0000   0.2162
  12.600   1.2766   0.03488   0.02839   0.0222  0.0820  1.0000  -5.5534   0.0000   0.0000   0.0000   0.2154
  12.700   1.2784   0.03523   0.02877   0.0229  0.0796  1.0000  -5.6094   0.0000   0.0000   0.0000   0.2148
  12.800   1.2799   0.03564   0.02919   0.0234  0.0773  1.0000  -5.6636   0.0000   0.0000   0.0000   0.2141
  12.900   1.2803   0.03617   0.02970   0.0240  0.0750  1.0000  -5.7115   0.0000   0.0000   0.0000   0.2135
  13.000   1.2793   0.03687   0.03038   0.0246  0.0728  1.0000  -5.7504   0.0000   0.0000   0.0000   0.2128
  13.100   1.2765   0.03777   0.03127   0.0251  0.0705  1.0000  -5.7767   0.0000   0.0000   0.0000   0.2121
  13.200   1.2718   0.03896   0.03246   0.0257  0.0680  1.0000  -5.7871   0.0000   0.0000   0.0000   0.2114
  13.300   1.2643   0.04066   0.03420   0.0265  0.0649  1.0000  -5.7716   0.0000   0.0000   0.0000   0.2105
  13.400   1.2547   0.04284   0.03647   0.0272  0.0623  1.0000  -5.7352   0.0000   0.0000   0.0000   0.2095
  13.500   1.2549   0.04366   0.03735   0.0273  0.0617  1.0000  -5.7756   0.0000   0.0000   0.0000   0.2093
  13.600   1.2543   0.04461   0.03838   0.0273  0.0611  1.0000  -5.8094   0.0000   0.0000   0.0000   0.2091
  13.700   1.2532   0.04567   0.03951   0.0272  0.0604  1.0000  -5.8393   0.0000   0.0000   0.0000   0.2089
  13.800   1.2514   0.04685   0.04077   0.0271  0.0596  1.0000  -5.8635   0.0000   0.0000   0.0000   0.2087
  13.900   1.2488   0.04815   0.04215   0.0268  0.0587  1.0000  -5.8821   0.0000   0.0000   0.0000   0.2087
  14.000   1.2459   0.04955   0.04362   0.0266  0.0578  1.0000  -5.8973   0.0000   0.0000   0.0000   0.2086
  14.100   1.2420   0.05108   0.04523   0.0262  0.0570  1.0000  -5.9063   0.0000   0.0000   0.0000   0.2086
  14.200   1.2379   0.05268   0.04690   0.0257  0.0562  1.0000  -5.9129   0.0000   0.0000   0.0000   0.2087
  14.300   1.2316   0.05464   0.04908   0.0253  0.0561  1.0000  -5.9103   0.0000   0.0000   0.0000   0.2087
  14.400   1.2255   0.05655   0.05106   0.0246  0.0556  1.0000  -5.9045   0.0000   0.0000   0.0000   0.2090
  14.500   1.2194   0.05845   0.05304   0.0239  0.0551  1.0000  -5.8971   0.0000   0.0000   0.0000   0.2092
  14.600   1.2125   0.06051   0.05518   0.0231  0.0546  1.0000  -5.8836   0.0000   0.0000   0.0000   0.2095
  14.700   1.2054   0.06268   0.05743   0.0222  0.0542  1.0000  -5.8669   0.0000   0.0000   0.0000   0.2100
  14.800   1.1982   0.06493   0.05975   0.0212  0.0538  1.0000  -5.8485   0.0000   0.0000   0.0000   0.2105
  14.900   1.1896   0.06747   0.06237   0.0199  0.0534  1.0000  -5.8194   0.0000   0.0000   0.0000   0.2112
  15.000   1.1813   0.07004   0.06502   0.0186  0.0530  1.0000  -5.7898   0.0000   0.0000   0.0000   0.2120
  15.100   1.1724   0.07276   0.06781   0.0171  0.0526  1.0000  -5.7545   0.0000   0.0000   0.0000   0.2129
  15.300   1.1556   0.07822   0.07327   0.0140  0.0514  1.0000  -5.6828   0.0000   0.0000   0.0000   0.2149
  15.400   1.1408   0.08214   0.07729   0.0117  0.0515  1.0000  -5.6006   0.0000   0.0000   0.0000   0.2165
  15.500   1.1251   0.08630   0.08154   0.0094  0.0517  1.0000  -5.5077   0.0000   0.0000   0.0000   0.2183
  15.600   1.0997   0.09235   0.08772   0.0057  0.0524  1.0000  -5.3374   0.0000   0.0000   0.0000   0.2213
  15.700   1.0438   0.10443   0.10000  -0.0017  0.0549  1.0000  -4.9133   0.0000   0.0000   0.0000   0.2282
  15.900   0.8264   0.15642   0.15197  -0.0284  0.0606  1.0000  -2.8094   0.0000   0.0000   0.0000   0.2636
  16.000   0.8248   0.15892   0.15447  -0.0297  0.0599  1.0000  -2.7783   0.0000   0.0000   0.0000   0.2652
  16.100   0.8228   0.16157   0.15712  -0.0311  0.0591  1.0000  -2.7418   0.0000   0.0000   0.0000   0.2669
  16.200   0.8207   0.16431   0.15986  -0.0324  0.0583  1.0000  -2.7022   0.0000   0.0000   0.0000   0.2686
  16.300   0.8185   0.16709   0.16263  -0.0338  0.0574  1.0000  -2.6616   0.0000   0.0000   0.0000   0.2704
  16.400   0.8165   0.16985   0.16539  -0.0352  0.0566  1.0000  -2.6221   0.0000   0.0000   0.0000   0.2721
  16.500   0.8147   0.17256   0.16810  -0.0365  0.0558  1.0000  -2.5846   0.0000   0.0000   0.0000   0.2738
  16.600   0.8132   0.17523   0.17077  -0.0377  0.0551  1.0000  -2.5490   0.0000   0.0000   0.0000   0.2753
  16.700   0.8117   0.17792   0.17346  -0.0389  0.0548  1.0000  -2.5131   0.0000   0.0000   0.0000   0.2768
  16.800   0.8105   0.18056   0.17610  -0.0400  0.0546  1.0000  -2.4792   0.0000   0.0000   0.0000   0.2783
  16.900   0.8096   0.18312   0.17867  -0.0411  0.0544  1.0000  -2.4487   0.0000   0.0000   0.0000   0.2796
  17.000   0.8090   0.18561   0.18116  -0.0422  0.0542  1.0000  -2.4208   0.0000   0.0000   0.0000   0.2809
  17.100   0.8085   0.18805   0.18360  -0.0432  0.0540  1.0000  -2.3947   0.0000   0.0000   0.0000   0.2821
  17.200   0.8082   0.19044   0.18600  -0.0442  0.0537  1.0000  -2.3703   0.0000   0.0000   0.0000   0.2833
  17.300   0.8080   0.19282   0.18838  -0.0452  0.0533  1.0000  -2.3453   0.0000   0.0000   0.0000   0.2845
  17.400   0.8077   0.19519   0.19075  -0.0463  0.0529  1.0000  -2.3196   0.0000   0.0000   0.0000   0.2858
  17.500   0.8076   0.19750   0.19306  -0.0473  0.0523  1.0000  -2.2956   0.0000   0.0000   0.0000   0.2869
  17.600   0.8078   0.19971   0.19528  -0.0483  0.0515  1.0000  -2.2737   0.0000   0.0000   0.0000   0.2880
  17.700   0.8083   0.20178   0.19735  -0.0492  0.0505  1.0000  -2.2563   0.0000   0.0000   0.0000   0.2890
  17.800   0.8097   0.20352   0.19910  -0.0499  0.0490  1.0000  -2.2493   0.0000   0.0000   0.0000   0.2897
  17.900   0.8128   0.20459   0.20018  -0.0504  0.0471  1.0000  -2.2675   0.0000   0.0000   0.0000   0.2898
  18.000   0.8191   0.20435   0.19994  -0.0502  0.0449  1.0000  -2.3398   0.0000   0.0000   0.0000   0.2888
  18.100   0.8297   0.20235   0.19796  -0.0493  0.0428  1.0000  -2.4878   0.0000   0.0000   0.0000   0.2864
  18.200   0.8375   0.20112   0.19675  -0.0488  0.0412  1.0000  -2.6057   0.0000   0.0000   0.0000   0.2848
  18.300   0.8428   0.20074   0.19638  -0.0485  0.0398  1.0000  -2.6918   0.0000   0.0000   0.0000   0.2837
  18.400   0.8343   0.20598   0.20160  -0.0498  0.0383  1.0000  -2.5531   0.0000   0.0000   0.0000   0.2858
  18.500   0.8236   0.21308   0.20870  -0.0515  0.0378  1.0000  -2.3454   0.0000   0.0000   0.0000   0.2890
  18.600   0.8257   0.21432   0.20989  -0.0527  0.0371  1.0000  -2.3472   0.0000   0.0000   0.0000   0.2902
  18.700   0.8263   0.21670   0.21227  -0.0537  0.0367  1.0000  -2.3108   0.0000   0.0000   0.0000   0.2912
  18.800   0.8259   0.21951   0.21508  -0.0546  0.0366  1.0000  -2.2608   0.0000   0.0000   0.0000   0.2923
  18.900   0.8251   0.22259   0.21817  -0.0555  0.0366  1.0000  -2.2050   0.0000   0.0000   0.0000   0.2934
  19.200   0.8347   0.22809   0.22373  -0.0562  0.0389  1.0000  -2.1792   0.0000   0.0000   0.0000   0.2930
  19.500   0.8152   0.25279   0.24842  -0.0604  0.0611  1.0000  -1.6227   0.0000   0.0000   0.0000   0.3010
  19.600   0.8161   0.25443   0.25006  -0.0612  0.0609  1.0000  -1.6105   0.0000   0.0000   0.0000   0.3018
  19.700   0.8167   0.25577   0.25141  -0.0621  0.0605  1.0000  -1.5965   0.0000   0.0000   0.0000   0.3027
  19.800   0.8149   0.25608   0.25171  -0.0639  0.0594  1.0000  -1.5633   0.0000   0.0000   0.0000   0.3049
  19.900   0.8136   0.25666   0.25229  -0.0663  0.0559  1.0000  -1.5184   0.0000   0.0000   0.0000   0.3079
  20.000   0.8144   0.25856   0.25419  -0.0672  0.0545  1.0000  -1.5054   0.0000   0.0000   0.0000   0.3088
  20.100   0.8153   0.26048   0.25611  -0.0679  0.0534  1.0000  -1.4961   0.0000   0.0000   0.0000   0.3094
  20.200   0.8163   0.26239   0.25803  -0.0686  0.0525  1.0000  -1.4888   0.0000   0.0000   0.0000   0.3100
  20.300   0.8173   0.26429   0.25993  -0.0692  0.0516  1.0000  -1.4828   0.0000   0.0000   0.0000   0.3105
  20.400   0.8183   0.26617   0.26182  -0.0698  0.0508  1.0000  -1.4780   0.0000   0.0000   0.0000   0.3110
  20.500   0.8194   0.26803   0.26369  -0.0703  0.0501  1.0000  -1.4741   0.0000   0.0000   0.0000   0.3115
  20.600   0.8204   0.26988   0.26554  -0.0709  0.0494  1.0000  -1.4710   0.0000   0.0000   0.0000   0.3119
  20.700   0.8214   0.27170   0.26737  -0.0714  0.0488  1.0000  -1.4687   0.0000   0.0000   0.0000   0.3123
  20.800   0.8225   0.27350   0.26918  -0.0719  0.0481  1.0000  -1.4671   0.0000   0.0000   0.0000   0.3126
  20.900   0.8235   0.27529   0.27097  -0.0724  0.0475  1.0000  -1.4661   0.0000   0.0000   0.0000   0.3129
  21.000   0.8244   0.27705   0.27274  -0.0729  0.0470  1.0000  -1.4658   0.0000   0.0000   0.0000   0.3133
  21.100   0.8254   0.27880   0.27449  -0.0733  0.0464  1.0000  -1.4661   0.0000   0.0000   0.0000   0.3135
  21.200   0.8264   0.28052   0.27622  -0.0737  0.0459  1.0000  -1.4670   0.0000   0.0000   0.0000   0.3138
  21.300   0.8273   0.28222   0.27793  -0.0741  0.0454  1.0000  -1.4685   0.0000   0.0000   0.0000   0.3140
  21.400   0.8282   0.28391   0.27962  -0.0745  0.0450  1.0000  -1.4705   0.0000   0.0000   0.0000   0.3143
  21.500   0.8291   0.28557   0.28128  -0.0749  0.0445  1.0000  -1.4732   0.0000   0.0000   0.0000   0.3144
  21.600   0.8300   0.28720   0.28293  -0.0752  0.0441  1.0000  -1.4764   0.0000   0.0000   0.0000   0.3146
  21.700   0.8308   0.28882   0.28455  -0.0756  0.0437  1.0000  -1.4801   0.0000   0.0000   0.0000   0.3147
  21.800   0.8316   0.29041   0.28616  -0.0759  0.0433  1.0000  -1.4845   0.0000   0.0000   0.0000   0.3149
  21.900   0.8324   0.29199   0.28773  -0.0761  0.0430  1.0000  -1.4895   0.0000   0.0000   0.0000   0.3149
  22.000   0.8331   0.29354   0.28929  -0.0764  0.0426  1.0000  -1.4950   0.0000   0.0000   0.0000   0.3150
  22.100   0.8339   0.29507   0.29083  -0.0766  0.0423  1.0000  -1.5012   0.0000   0.0000   0.0000   0.3150
  22.200   0.8346   0.29658   0.29236  -0.0768  0.0420  1.0000  -1.5079   0.0000   0.0000   0.0000   0.3150
  22.300   0.8352   0.29808   0.29386  -0.0770  0.0417  1.0000  -1.5151   0.0000   0.0000   0.0000   0.3150
  22.400   0.8359   0.29956   0.29536  -0.0771  0.0414  1.0000  -1.5230   0.0000   0.0000   0.0000   0.3149
  22.500   0.8365   0.30104   0.29685  -0.0772  0.0411  1.0000  -1.5314   0.0000   0.0000   0.0000   0.3148
  22.600   0.8371   0.30252   0.29833  -0.0773  0.0408  1.0000  -1.5404   0.0000   0.0000   0.0000   0.3147
  22.700   0.8377   0.30400   0.29983  -0.0773  0.0405  1.0000  -1.5500   0.0000   0.0000   0.0000   0.3145
  22.800   0.8383   0.30551   0.30135  -0.0773  0.0403  1.0000  -1.5601   0.0000   0.0000   0.0000   0.3143
  22.900   0.8389   0.30707   0.30292  -0.0773  0.0400  1.0000  -1.5708   0.0000   0.0000   0.0000   0.3140
  23.000   0.8396   0.30872   0.30458  -0.0772  0.0398  1.0000  -1.5821   0.0000   0.0000   0.0000   0.3136
  23.100   0.8405   0.31053   0.30641  -0.0770  0.0395  1.0000  -1.5939   0.0000   0.0000   0.0000   0.3132
  23.200   0.8412   0.31267   0.30857  -0.0769  0.0392  1.0000  -1.6032   0.0000   0.0000   0.0000   0.3128
  23.300   0.8379   0.31601   0.31191  -0.0766  0.0386  1.0000  -1.5826   0.0000   0.0000   0.0000   0.3129
  23.400   0.8233   0.32384   0.31970  -0.0763  0.0377  1.0000  -1.4487   0.0000   0.0000   0.0000   0.3146
  23.500   0.8194   0.32451   0.32039  -0.0761  0.0377  1.0000  -1.4327   0.0000   0.0000   0.0000   0.3148
  23.600   0.8048   0.32182   0.31773  -0.0743  0.0377  1.0000  -1.3953   0.0000   0.0000   0.0000   0.3145
  23.700   0.7938   0.31988   0.31581  -0.0730  0.0377  1.0000  -1.3653   0.0000   0.0000   0.0000   0.3144
  23.800   0.7868   0.31901   0.31496  -0.0723  0.0377  1.0000  -1.3434   0.0000   0.0000   0.0000   0.3144
  23.900   0.7813   0.31857   0.31454  -0.0719  0.0377  1.0000  -1.3247   0.0000   0.0000   0.0000   0.3145
  24.000   0.7767   0.31836   0.31434  -0.0716  0.0376  1.0000  -1.3080   0.0000   0.0000   0.0000   0.3147
  24.100   0.7727   0.31829   0.31429  -0.0714  0.0376  1.0000  -1.2926   0.0000   0.0000   0.0000   0.3149
  24.200   0.7691   0.31832   0.31433  -0.0712  0.0376  1.0000  -1.2782   0.0000   0.0000   0.0000   0.3152
  24.300   0.7659   0.31841   0.31444  -0.0711  0.0376  1.0000  -1.2646   0.0000   0.0000   0.0000   0.3154
  24.400   0.7630   0.31856   0.31461  -0.0711  0.0376  1.0000  -1.2517   0.0000   0.0000   0.0000   0.3157
  24.500   0.7603   0.31876   0.31481  -0.0711  0.0376  1.0000  -1.2393   0.0000   0.0000   0.0000   0.3160
  24.600   0.7577   0.31898   0.31505  -0.0711  0.0376  1.0000  -1.2273   0.0000   0.0000   0.0000   0.3163
  24.700   0.7554   0.31923   0.31532  -0.0711  0.0376  1.0000  -1.2158   0.0000   0.0000   0.0000   0.3166
  24.800   0.7532   0.31951   0.31560  -0.0712  0.0376  1.0000  -1.2047   0.0000   0.0000   0.0000   0.3169
  24.900   0.7510   0.31978   0.31588  -0.0712  0.0375  1.0000  -1.1938   0.0000   0.0000   0.0000   0.3172
  25.000   0.7490   0.32006   0.31617  -0.0713  0.0375  1.0000  -1.1831   0.0000   0.0000   0.0000   0.3176
  25.100   0.7470   0.32035   0.31648  -0.0714  0.0375  1.0000  -1.1809   0.0000   0.0000   0.0000   0.3179
  25.200   0.7452   0.32065   0.31679  -0.0716  0.0375  1.0000  -1.1826   0.0000   0.0000   0.0000   0.3183
  25.300   0.7434   0.32102   0.31724  -0.0717  0.0375  1.0000  -1.1769   0.0000   0.0000   0.0000   0.3186
  25.400   0.7417   0.32134   0.31758  -0.0718  0.0375  1.0000  -1.1771   0.0000   0.0000   0.0000   0.3190
  25.500   0.7401   0.32167   0.31792  -0.0720  0.0375  1.0000  -1.1780   0.0000   0.0000   0.0000   0.3193
  25.600   0.7385   0.32201   0.31826  -0.0721  0.0375  1.0000  -1.1793   0.0000   0.0000   0.0000   0.3197
  25.700   0.7370   0.32232   0.31859  -0.0723  0.0374  1.0000  -1.1806   0.0000   0.0000   0.0000   0.3201
  25.800   0.7355   0.32258   0.31886  -0.0725  0.0374  1.0000  -1.1817   0.0000   0.0000   0.0000   0.3205
  25.900   0.7340   0.32276   0.31905  -0.0727  0.0374  1.0000  -1.1826   0.0000   0.0000   0.0000   0.3209
  26.000   0.7324   0.32287   0.31918  -0.0729  0.0373  1.0000  -1.1831   0.0000   0.0000   0.0000   0.3213
  26.100   0.7307   0.32288   0.31919  -0.0732  0.0373  1.0000  -1.1830   0.0000   0.0000   0.0000   0.3218
  26.200   0.7290   0.32275   0.31907  -0.0734  0.0372  1.0000  -1.1819   0.0000   0.0000   0.0000   0.3223
  26.300   0.7272   0.32255   0.31889  -0.0737  0.0372  1.0000  -1.1805   0.0000   0.0000   0.0000   0.3228
  26.400   0.7253   0.32225   0.31859  -0.0740  0.0371  1.0000  -1.1783   0.0000   0.0000   0.0000   0.3234
  26.500   0.7230   0.32174   0.31809  -0.0744  0.0369  1.0000  -1.1721   0.0000   0.0000   0.0000   0.3242
  26.600   0.7209   0.32129   0.31765  -0.0747  0.0368  1.0000  -1.1662   0.0000   0.0000   0.0000   0.3249
  26.700   0.7192   0.32101   0.31738  -0.0752  0.0367  1.0000  -1.1609   0.0000   0.0000   0.0000   0.3257
  26.800   0.7178   0.32094   0.31732  -0.0756  0.0365  1.0000  -1.1564   0.0000   0.0000   0.0000   0.3263
  26.900   0.7165   0.32085   0.31724  -0.0760  0.0363  1.0000  -1.1506   0.0000   0.0000   0.0000   0.3271
  27.000   0.7154   0.32074   0.31714  -0.0766  0.0360  1.0000  -1.1427   0.0000   0.0000   0.0000   0.3279
  27.100   0.7147   0.32069   0.31710  -0.0773  0.0355  1.0000  -1.1309   0.0000   0.0000   0.0000   0.3290
  27.200   0.7149   0.32107   0.31748  -0.0784  0.0342  1.0000  -1.1135   0.0000   0.0000   0.0000   0.3303
  27.300   0.7152   0.32182   0.31824  -0.0791  0.0322  1.0000  -1.1019   0.0000   0.0000   0.0000   0.3312
  27.400   0.7151   0.32245   0.31888  -0.0795  0.0303  1.0000  -1.0981   0.0000   0.0000   0.0000   0.3317
  27.500   0.7149   0.32295   0.31939  -0.0799  0.0286  1.0000  -1.0982   0.0000   0.0000   0.0000   0.3320
  27.600   0.7147   0.32337   0.31982  -0.0801  0.0271  1.0000  -1.1009   0.0000   0.0000   0.0000   0.3323
  27.700   0.7146   0.32372   0.32018  -0.0804  0.0258  1.0000  -1.1062   0.0000   0.0000   0.0000   0.3325
  27.800   0.7147   0.32402   0.32048  -0.0806  0.0247  1.0000  -1.1143   0.0000   0.0000   0.0000   0.3326
  27.900   0.7148   0.32426   0.32073  -0.0808  0.0237  1.0000  -1.1251   0.0000   0.0000   0.0000   0.3327
  28.000   0.7150   0.32445   0.32094  -0.0810  0.0230  1.0000  -1.1387   0.0000   0.0000   0.0000   0.3326
  28.100   0.7152   0.32461   0.32111  -0.0811  0.0223  1.0000  -1.1550   0.0000   0.0000   0.0000   0.3325
  28.200   0.7156   0.32475   0.32126  -0.0812  0.0218  1.0000  -1.1741   0.0000   0.0000   0.0000   0.3323
  28.300   0.7161   0.32490   0.32142  -0.0812  0.0213  1.0000  -1.1961   0.0000   0.0000   0.0000   0.3320
  28.400   0.7167   0.32513   0.32166  -0.0811  0.0209  1.0000  -1.2208   0.0000   0.0000   0.0000   0.3316
  28.500   0.7175   0.32556   0.32210  -0.0809  0.0204  1.0000  -1.2482   0.0000   0.0000   0.0000   0.3310
  28.600   0.7187   0.32671   0.32327  -0.0805  0.0200  1.0000  -1.2778   0.0000   0.0000   0.0000   0.3300
  28.700   0.7115   0.33224   0.32875  -0.0798  0.0191  1.0000  -1.1536   0.0000   0.0000   0.0000   0.3307
  28.800   0.7107   0.33279   0.32931  -0.0801  0.0191  1.0000  -1.1373   0.0000   0.0000   0.0000   0.3312
  28.900   0.7099   0.33335   0.32988  -0.0804  0.0191  1.0000  -1.1223   0.0000   0.0000   0.0000   0.3317
  29.000   0.7092   0.33392   0.33046  -0.0807  0.0190  1.0000  -1.1083   0.0000   0.0000   0.0000   0.3321
  29.100   0.7085   0.33449   0.33104  -0.0810  0.0190  1.0000  -1.0953   0.0000   0.0000   0.0000   0.3326
  29.200   0.7079   0.33507   0.33162  -0.0813  0.0190  1.0000  -1.0830   0.0000   0.0000   0.0000   0.3330
  29.300   0.7073   0.33565   0.33221  -0.0816  0.0190  1.0000  -1.0715   0.0000   0.0000   0.0000   0.3335
  29.400   0.7067   0.33623   0.33280  -0.0820  0.0190  1.0000  -1.0605   0.0000   0.0000   0.0000   0.3339
  29.500   0.7062   0.33681   0.33338  -0.0823  0.0190  1.0000  -1.0501   0.0000   0.0000   0.0000   0.3343
  29.600   0.7057   0.33738   0.33396  -0.0826  0.0190  1.0000  -1.0400   0.0000   0.0000   0.0000   0.3348
  29.700   0.7052   0.33793   0.33452  -0.0829  0.0189  1.0000  -1.0302   0.0000   0.0000   0.0000   0.3352
  29.800   0.7047   0.33849   0.33509  -0.0833  0.0189  1.0000  -1.0208   0.0000   0.0000   0.0000   0.3356
  29.900   0.7042   0.33904   0.33565  -0.0836  0.0189  1.0000  -1.0118   0.0000   0.0000   0.0000   0.3361
  30.000   0.7037   0.33960   0.33621  -0.0839  0.0189  1.0000  -1.0031   0.0000   0.0000   0.0000   0.3365


