xflr5 v6.61

 Calculated polar for: NACA6409 9%

 1 1 Reynolds number fixed          Mach number fixed         

 xtrf =   1.000 (top)        1.000 (bottom)
 Mach =   0.000     Re =     0.100 e 6     Ncrit =   9.000

  alpha     CL        CD       CDp       Cm    Top Xtr Bot Xtr   Cpmin    Chinge    XCp    
 ------- -------- --------- --------- -------- ------- ------- -------- --------- ---------
 -10.000  -0.3002   0.13709   0.13214  -0.0378  1.0000  0.0494  -1.2781   0.0000   0.0000   0.0000   0.1145
  -9.900  -0.3023   0.13665   0.13173  -0.0374  1.0000  0.0495  -1.2877   0.0000   0.0000   0.0000   0.1169
  -9.800  -0.3041   0.13614   0.13125  -0.0369  1.0000  0.0495  -1.2953   0.0000   0.0000   0.0000   0.1192
  -9.700  -0.3058   0.13561   0.13074  -0.0365  1.0000  0.0496  -1.3024   0.0000   0.0000   0.0000   0.1216
  -9.600  -0.3077   0.13507   0.13023  -0.0360  1.0000  0.0496  -1.3097   0.0000   0.0000   0.0000   0.1241
  -9.500  -0.3097   0.13452   0.12971  -0.0355  1.0000  0.0497  -1.3170   0.0000   0.0000   0.0000   0.1267
  -9.400  -0.3118   0.13398   0.12919  -0.0350  1.0000  0.0497  -1.3244   0.0000   0.0000   0.0000   0.1293
  -9.300  -0.3140   0.13343   0.12867  -0.0344  1.0000  0.0497  -1.3320   0.0000   0.0000   0.0000   0.1321
  -9.200  -0.3164   0.13288   0.12815  -0.0339  1.0000  0.0498  -1.3396   0.0000   0.0000   0.0000   0.1349
  -9.100  -0.3189   0.13233   0.12763  -0.0333  1.0000  0.0498  -1.3474   0.0000   0.0000   0.0000   0.1377
  -9.000  -0.3215   0.13179   0.12711  -0.0327  1.0000  0.0498  -1.3553   0.0000   0.0000   0.0000   0.1407
  -8.900  -0.3243   0.13126   0.12661  -0.0321  1.0000  0.0498  -1.3634   0.0000   0.0000   0.0000   0.1437
  -8.800  -0.3273   0.13073   0.12611  -0.0314  1.0000  0.0499  -1.3717   0.0000   0.0000   0.0000   0.1467
  -8.700  -0.3304   0.13021   0.12562  -0.0307  1.0000  0.0499  -1.3800   0.0000   0.0000   0.0000   0.1499
  -8.600  -0.3337   0.12970   0.12514  -0.0301  1.0000  0.0499  -1.3886   0.0000   0.0000   0.0000   0.1531
  -8.500  -0.3372   0.12920   0.12467  -0.0293  1.0000  0.0499  -1.3973   0.0000   0.0000   0.0000   0.1564
  -8.400  -0.3409   0.12872   0.12421  -0.0286  1.0000  0.0499  -1.4063   0.0000   0.0000   0.0000   0.1597
  -8.300  -0.3448   0.12825   0.12378  -0.0278  1.0000  0.0500  -1.4154   0.0000   0.0000   0.0000   0.1631
  -8.200  -0.3489   0.12780   0.12335  -0.0270  1.0000  0.0500  -1.4248   0.0000   0.0000   0.0000   0.1666
  -8.100  -0.3532   0.12735   0.12294  -0.0262  1.0000  0.0500  -1.4343   0.0000   0.0000   0.0000   0.1700
  -8.000  -0.3575   0.12690   0.12251  -0.0254  1.0000  0.0500  -1.4440   0.0000   0.0000   0.0000   0.1734
  -7.900  -0.3616   0.12640   0.12205  -0.0246  1.0000  0.0500  -1.4537   0.0000   0.0000   0.0000   0.1763
  -7.800  -0.3650   0.12582   0.12149  -0.0241  1.0000  0.0500  -1.4632   0.0000   0.0000   0.0000   0.1786
  -7.700  -0.3523   0.11500   0.11070  -0.0240  1.0000  0.0522  -1.4496   0.0000   0.0000   0.0000   0.1760
  -7.600  -0.3461   0.11278   0.10846  -0.0231  1.0000  0.0530  -1.4037   0.0000   0.0000   0.0000   0.1774
  -7.500  -0.3450   0.11155   0.10724  -0.0222  1.0000  0.0534  -1.3811   0.0000   0.0000   0.0000   0.1799
  -7.400  -0.3459   0.11063   0.10634  -0.0213  1.0000  0.0538  -1.3667   0.0000   0.0000   0.0000   0.1828
  -7.300  -0.3481   0.10991   0.10564  -0.0204  1.0000  0.0541  -1.3572   0.0000   0.0000   0.0000   0.1858
  -7.200  -0.3516   0.10936   0.10510  -0.0195  1.0000  0.0542  -1.3521   0.0000   0.0000   0.0000   0.1890
  -6.800  -0.3732   0.10777   0.10344  -0.0159  1.0000  0.0540  -1.3709   0.0000   0.0000   0.0000   0.2027
  -6.700  -0.3751   0.10697   0.10267  -0.0150  1.0000  0.0545  -1.3620   0.0000   0.0000   0.0000   0.2054
  -6.600  -0.3683   0.10546   0.10115  -0.0157  0.9986  0.0554  -1.3369   0.0000   0.0000   0.0000   0.2027
  -6.500  -0.3582   0.10375   0.09944  -0.0174  0.9963  0.0567  -1.3120   0.0000   0.0000   0.0000   0.1965
  -6.400  -0.3488   0.10215   0.09783  -0.0194  0.9936  0.0580  -1.2941   0.0000   0.0000   0.0000   0.1895
  -6.300  -0.3389   0.10055   0.09623  -0.0217  0.9909  0.0596  -1.2806   0.0000   0.0000   0.0000   0.1809
  -6.200  -0.3293   0.09900   0.09467  -0.0242  0.9882  0.0614  -1.2720   0.0000   0.0000   0.0000   0.1714
  -6.100  -0.3213   0.09755   0.09322  -0.0265  0.9846  0.0633  -1.2690   0.0000   0.0000   0.0000   0.1625
  -6.000  -0.3113   0.09603   0.09170  -0.0296  0.9810  0.0658  -1.2704   0.0000   0.0000   0.0000   0.1496
  -5.900  -0.2959   0.09464   0.09028  -0.0355  0.9773  0.0695  -1.2882   0.0000   0.0000   0.0000   0.1246
  -5.800  -0.2710   0.09536   0.09094  -0.0482  0.9685  0.0734  -1.3651   0.0000   0.0000   0.0000   0.0664
  -5.700  -0.2511   0.09455   0.09007  -0.0544  0.9641  0.0741  -1.3793   0.0000   0.0000   0.0000   0.0271
  -5.600  -0.2329   0.09298   0.08844  -0.0594  0.9611  0.0744  -1.3822   0.0000   0.0000   0.0000  -0.0120
  -5.400  -0.2249   0.08428   0.07980  -0.0630  0.9582  0.0768  -1.4115   0.0000   0.0000   0.0000  -0.0369
  -5.300  -0.2284   0.08288   0.07849  -0.0558  0.9577  0.0800  -1.2812   0.0000   0.0000   0.0000  -0.0013
  -5.200  -0.2300   0.08261   0.07826  -0.0515  0.9541  0.0841  -1.1986   0.0000   0.0000   0.0000   0.0192
  -5.100  -0.2253   0.08203   0.07769  -0.0511  0.9501  0.0893  -1.1528   0.0000   0.0000   0.0000   0.0166
  -5.000  -0.2129   0.08115   0.07679  -0.0546  0.9457  0.0956  -1.1461   0.0000   0.0000   0.0000  -0.0132
  -4.900  -0.1593   0.08343   0.07879  -0.0731  0.9396  0.1030  -1.2100   0.0000   0.0000   0.0000  -0.2175
  -4.800  -0.1399   0.08207   0.07735  -0.0772  0.9375  0.1033  -1.2102   0.0000   0.0000   0.0000  -0.3120
  -4.700  -0.1332   0.07669   0.07199  -0.0809  0.9362  0.1047  -1.2516   0.0000   0.0000   0.0000  -0.3682
  -4.600  -0.1290   0.07312   0.06848  -0.0810  0.9351  0.1062  -1.2343   0.0000   0.0000   0.0000  -0.3888
  -4.500  -0.1279   0.07166   0.06705  -0.0798  0.9314  0.1070  -1.2166   0.0000   0.0000   0.0000  -0.3843
  -4.400  -0.1287   0.07059   0.06600  -0.0783  0.9262  0.1076  -1.2033   0.0000   0.0000   0.0000  -0.3688
  -4.300  -0.1238   0.06929   0.06473  -0.0777  0.9226  0.1086  -1.1794   0.0000   0.0000   0.0000  -0.3879
  -4.200  -0.1162   0.06800   0.06345  -0.0776  0.9195  0.1099  -1.1533   0.0000   0.0000   0.0000  -0.4293
  -4.100  -0.1062   0.06671   0.06216  -0.0782  0.9168  0.1114  -1.1271   0.0000   0.0000   0.0000  -0.4986
  -4.000  -0.0940   0.06541   0.06085  -0.0793  0.9145  0.1134  -1.1019   0.0000   0.0000   0.0000  -0.6080
  -3.900  -0.0795   0.06406   0.05949  -0.0811  0.9124  0.1158  -1.0790   0.0000   0.0000   0.0000  -0.7858
  -3.800  -0.0626   0.06267   0.05806  -0.0837  0.9106  0.1188  -1.0593   0.0000   0.0000   0.0000  -1.1061
  -3.700  -0.0426   0.06122   0.05655  -0.0871  0.9090  0.1229  -1.0441   0.0000   0.0000   0.0000  -1.8249
  -3.600   0.0157   0.06342   0.05831  -0.0996  0.9071  0.1358  -1.0596   0.0000   0.0000   0.0000   6.6899
  -3.300   0.0220   0.05629   0.05117  -0.1008  0.8923  0.1396  -1.0910   0.0000   0.0000   0.0000   4.8760
  -3.200   0.0302   0.05451   0.04944  -0.1009  0.8893  0.1411  -1.0697   0.0000   0.0000   0.0000   3.6313
  -3.100   0.0411   0.05302   0.04797  -0.1015  0.8866  0.1428  -1.0459   0.0000   0.0000   0.0000   2.7464
  -3.000   0.0544   0.05166   0.04661  -0.1025  0.8842  0.1448  -1.0216   0.0000   0.0000   0.0000   2.1518
  -2.900   0.0700   0.05036   0.04530  -0.1038  0.8822  0.1473  -0.9982   0.0000   0.0000   0.0000   1.7483
  -2.800   0.0881   0.04906   0.04396  -0.1057  0.8804  0.1505  -0.9776   0.0000   0.0000   0.0000   1.4626
  -2.700   0.1088   0.04771   0.04254  -0.1083  0.8788  0.1545  -0.9621   0.0000   0.0000   0.0000   1.2547
  -2.600   0.1711   0.03691   0.03036  -0.1221  0.8801  0.0793  -1.4267   0.0000   0.0000   0.0000   0.9697
  -2.500   0.1948   0.03559   0.02868  -0.1240  0.8787  0.0761  -1.4743   0.0000   0.0000   0.0000   0.8920
  -2.400   0.2162   0.03388   0.02671  -0.1260  0.8775  0.0759  -1.5033   0.0000   0.0000   0.0000   0.8379
  -2.300   0.2376   0.03136   0.02385  -0.1284  0.8767  0.0781  -1.5601   0.0000   0.0000   0.0000   0.7951
  -2.200   0.2573   0.03047   0.02294  -0.1301  0.8754  0.0847  -1.5410   0.0000   0.0000   0.0000   0.7599
  -2.100   0.2781   0.03003   0.02240  -0.1317  0.8742  0.0947  -1.5275   0.0000   0.0000   0.0000   0.7269
  -2.000   0.2675   0.03021   0.02258  -0.1280  0.8637  0.0949  -1.5329   0.0000   0.0000   0.0000   0.7320
  -1.900   0.2779   0.03019   0.02244  -0.1277  0.8587  0.1006  -1.5086   0.0000   0.0000   0.0000   0.7127
  -1.800   0.2921   0.02933   0.02151  -0.1287  0.8556  0.1102  -1.4625   0.0000   0.0000   0.0000   0.6934
  -1.700   0.3063   0.02914   0.02137  -0.1293  0.8525  0.1164  -1.3918   0.0000   0.0000   0.0000   0.6748
  -1.600   0.3232   0.02851   0.02061  -0.1302  0.8502  0.1189  -1.3428   0.0000   0.0000   0.0000   0.6552
  -1.500   0.3419   0.02747   0.01919  -0.1314  0.8485  0.1153  -1.2727   0.0000   0.0000   0.0000   0.6363
  -1.400   0.3590   0.02713   0.01882  -0.1323  0.8464  0.1233  -1.2208   0.0000   0.0000   0.0000   0.6202
  -1.300   0.3777   0.02657   0.01812  -0.1333  0.8448  0.1310  -1.1858   0.0000   0.0000   0.0000   0.6045
  -1.200   0.3970   0.02570   0.01709  -0.1345  0.8435  0.1409  -1.1539   0.0000   0.0000   0.0000   0.5903
  -1.100   0.4154   0.02517   0.01661  -0.1358  0.8422  0.1530  -1.0932   0.0000   0.0000   0.0000   0.5780
  -1.000   0.4346   0.02493   0.01632  -0.1370  0.8409  0.1672  -1.0273   0.0000   0.0000   0.0000   0.5661
  -0.900   0.4537   0.02439   0.01581  -0.1384  0.8398  0.1848  -0.9602   0.0000   0.0000   0.0000   0.5558
  -0.800   0.4728   0.02406   0.01549  -0.1396  0.8386  0.1999  -0.8933   0.0000   0.0000   0.0000   0.5459
  -0.700   0.4921   0.02381   0.01513  -0.1407  0.8374  0.2119  -0.8304   0.0000   0.0000   0.0000   0.5365
  -0.600   0.4717   0.02451   0.01589  -0.1356  0.8235  0.2093  -0.8550   0.0000   0.0000   0.0000   0.5379
  -0.500   0.4836   0.02409   0.01548  -0.1357  0.8196  0.2212  -0.8106   0.0000   0.0000   0.0000   0.5310
  -0.400   0.4968   0.02382   0.01526  -0.1360  0.8162  0.2350  -0.7558   0.0000   0.0000   0.0000   0.5239
  -0.300   0.5120   0.02360   0.01500  -0.1365  0.8134  0.2507  -0.7375   0.0000   0.0000   0.0000   0.5167
  -0.200   0.5277   0.02315   0.01465  -0.1372  0.8112  0.2723  -0.7482   0.0000   0.0000   0.0000   0.5099
  -0.100   0.5439   0.02289   0.01439  -0.1379  0.8090  0.2958  -0.7593   0.0000   0.0000   0.0000   0.5033
   0.000   0.5606   0.02240   0.01400  -0.1387  0.8071  0.3241  -0.7708   0.0000   0.0000   0.0000   0.4970
   0.100   0.5783   0.02197   0.01361  -0.1397  0.8054  0.3582  -0.7828   0.0000   0.0000   0.0000   0.4909
   0.200   0.5960   0.02141   0.01326  -0.1407  0.8038  0.4141  -0.7950   0.0000   0.0000   0.0000   0.4853
   0.400   0.6326   0.01969   0.01260  -0.1423  0.8010  1.0000  -0.8206   0.0000   0.0000   0.0000   0.4740
   0.500   0.6505   0.01956   0.01233  -0.1433  0.7993  1.0000  -0.8330   0.0000   0.0000   0.0000   0.4692
   0.600   0.6683   0.01946   0.01211  -0.1442  0.7974  1.0000  -0.8453   0.0000   0.0000   0.0000   0.4646
   0.700   0.6663   0.01994   0.01258  -0.1422  0.7900  1.0000  -0.8437   0.0000   0.0000   0.0000   0.4621
   0.800   0.6675   0.02030   0.01290  -0.1406  0.7826  1.0000  -0.8443   0.0000   0.0000   0.0000   0.4592
   0.900   0.6768   0.02038   0.01293  -0.1402  0.7777  1.0000  -0.8507   0.0000   0.0000   0.0000   0.4557
   1.000   0.6890   0.02035   0.01283  -0.1402  0.7738  1.0000  -0.8594   0.0000   0.0000   0.0000   0.4519
   1.100   0.7027   0.02025   0.01267  -0.1405  0.7705  1.0000  -0.8693   0.0000   0.0000   0.0000   0.4482
   1.200   0.7176   0.02010   0.01246  -0.1409  0.7675  1.0000  -0.8814   0.0000   0.0000   0.0000   0.4445
   1.300   0.7336   0.01993   0.01222  -0.1415  0.7649  1.0000  -0.8943   0.0000   0.0000   0.0000   0.4409
   1.400   0.7501   0.01974   0.01197  -0.1421  0.7624  1.0000  -0.9076   0.0000   0.0000   0.0000   0.4374
   1.500   0.7668   0.01956   0.01173  -0.1428  0.7600  1.0000  -0.9211   0.0000   0.0000   0.0000   0.4341
   1.600   0.7834   0.01940   0.01152  -0.1435  0.7576  1.0000  -0.9345   0.0000   0.0000   0.0000   0.4309
   1.700   0.7998   0.01932   0.01138  -0.1442  0.7551  1.0000  -0.9477   0.0000   0.0000   0.0000   0.4279
   1.800   0.8136   0.01941   0.01142  -0.1446  0.7520  1.0000  -0.9588   0.0000   0.0000   0.0000   0.4252
   1.900   0.8125   0.01987   0.01191  -0.1428  0.7459  1.0000  -0.9589   0.0000   0.0000   0.0000   0.4231
   2.000   0.8164   0.02019   0.01233  -0.1417  0.7403  1.0000  -0.9627   0.0000   0.0000   0.0000   0.4208
   2.100   0.8239   0.02038   0.01250  -0.1411  0.7356  1.0000  -0.9691   0.0000   0.0000   0.0000   0.4184
   2.200   0.8339   0.02049   0.01258  -0.1409  0.7315  1.0000  -0.9774   0.0000   0.0000   0.0000   0.4160
   2.300   0.8453   0.02053   0.01259  -0.1409  0.7279  1.0000  -0.9869   0.0000   0.0000   0.0000   0.4136
   2.400   0.8578   0.02053   0.01256  -0.1410  0.7247  1.0000  -0.9973   0.0000   0.0000   0.0000   0.4112
   2.500   0.8711   0.02050   0.01250  -0.1413  0.7218  1.0000  -1.0082   0.0000   0.0000   0.0000   0.4089
   2.600   0.8850   0.02046   0.01243  -0.1416  0.7191  1.0000  -1.0196   0.0000   0.0000   0.0000   0.4066
   2.700   0.8991   0.02041   0.01235  -0.1420  0.7166  1.0000  -1.0312   0.0000   0.0000   0.0000   0.4044
   2.800   0.9135   0.02039   0.01229  -0.1424  0.7141  1.0000  -1.0430   0.0000   0.0000   0.0000   0.4023
   2.900   0.9277   0.02040   0.01226  -0.1428  0.7115  1.0000  -1.0547   0.0000   0.0000   0.0000   0.4002
   3.000   0.9421   0.02048   0.01231  -0.1433  0.7088  1.0000  -1.0670   0.0000   0.0000   0.0000   0.3982
   3.100   0.9544   0.02075   0.01255  -0.1435  0.7055  1.0000  -1.0786   0.0000   0.0000   0.0000   0.3964
   3.200   0.9573   0.02111   0.01294  -0.1423  0.7017  1.0000  -1.0828   0.0000   0.0000   0.0000   0.3946
   3.300   0.9609   0.02146   0.01332  -0.1412  0.6972  1.0000  -1.0877   0.0000   0.0000   0.0000   0.3928
   3.400   0.9665   0.02174   0.01361  -0.1404  0.6927  1.0000  -1.0941   0.0000   0.0000   0.0000   0.3910
   3.500   0.9741   0.02193   0.01381  -0.1398  0.6884  1.0000  -1.1023   0.0000   0.0000   0.0000   0.3891
   3.600   0.9835   0.02205   0.01393  -0.1395  0.6844  1.0000  -1.1119   0.0000   0.0000   0.0000   0.3873
   3.700   0.9942   0.02210   0.01398  -0.1394  0.6807  1.0000  -1.1227   0.0000   0.0000   0.0000   0.3855
   3.800   1.0060   0.02213   0.01400  -0.1394  0.6774  1.0000  -1.1343   0.0000   0.0000   0.0000   0.3838
   3.900   1.0182   0.02215   0.01401  -0.1395  0.6745  1.0000  -1.1463   0.0000   0.0000   0.0000   0.3821
   4.000   1.0308   0.02218   0.01404  -0.1396  0.6717  1.0000  -1.1585   0.0000   0.0000   0.0000   0.3805
   4.100   1.0437   0.02220   0.01406  -0.1398  0.6692  1.0000  -1.1711   0.0000   0.0000   0.0000   0.3789
   4.200   1.0569   0.02225   0.01409  -0.1401  0.6666  1.0000  -1.1838   0.0000   0.0000   0.0000   0.3773
   4.300   1.0701   0.02232   0.01416  -0.1404  0.6641  1.0000  -1.1973   0.0000   0.0000   0.0000   0.3758
   4.400   1.0832   0.02249   0.01431  -0.1407  0.6613  1.0000  -1.2118   0.0000   0.0000   0.0000   0.3744
   4.500   1.0956   0.02286   0.01468  -0.1410  0.6581  1.0000  -1.2308   0.0000   0.0000   0.0000   0.3731
   4.600   1.1016   0.02329   0.01515  -0.1403  0.6552  1.0000  -1.2652   0.0000   0.0000   0.0000   0.3717
   4.700   1.1060   0.02367   0.01558  -0.1394  0.6524  1.0000  -1.2961   0.0000   0.0000   0.0000   0.3702
   4.800   1.1100   0.02409   0.01605  -0.1385  0.6492  1.0000  -1.3265   0.0000   0.0000   0.0000   0.3688
   4.900   1.1144   0.02449   0.01650  -0.1376  0.6456  1.0000  -1.3580   0.0000   0.0000   0.0000   0.3674
   5.000   1.1199   0.02484   0.01690  -0.1368  0.6419  1.0000  -1.3923   0.0000   0.0000   0.0000   0.3659
   5.100   1.1268   0.02511   0.01720  -0.1362  0.6381  1.0000  -1.4303   0.0000   0.0000   0.0000   0.3645
   5.200   1.1353   0.02530   0.01741  -0.1357  0.6344  1.0000  -1.4725   0.0000   0.0000   0.0000   0.3631
   5.300   1.1452   0.02540   0.01754  -0.1355  0.6309  1.0000  -1.5187   0.0000   0.0000   0.0000   0.3617
   5.400   1.1564   0.02544   0.01760  -0.1354  0.6276  1.0000  -1.5684   0.0000   0.0000   0.0000   0.3604
   5.500   1.1685   0.02545   0.01762  -0.1354  0.6246  1.0000  -1.6208   0.0000   0.0000   0.0000   0.3591
   5.600   1.1811   0.02546   0.01766  -0.1355  0.6218  1.0000  -1.6828   0.0000   0.0000   0.0000   0.3578
   5.700   1.1937   0.02552   0.01773  -0.1357  0.6192  1.0000  -1.7638   0.0000   0.0000   0.0000   0.3566
   5.800   1.2067   0.02563   0.01825  -0.1358  0.6166  1.0000  -1.8950   0.0000   0.0000   0.0000   0.3554
   5.900   1.2198   0.02576   0.01842  -0.1361  0.6140  1.0000  -1.9926   0.0000   0.0000   0.0000   0.3542
   6.000   1.2323   0.02600   0.01869  -0.1363  0.6112  1.0000  -2.0824   0.0000   0.0000   0.0000   0.3531
   6.100   1.2432   0.02659   0.01930  -0.1364  0.6074  1.0000  -2.1640   0.0000   0.0000   0.0000   0.3521
   6.200   1.2477   0.02713   0.01990  -0.1355  0.6044  1.0000  -2.2207   0.0000   0.0000   0.0000   0.3509
   6.300   1.2509   0.02750   0.02036  -0.1344  0.6015  1.0000  -2.2726   0.0000   0.0000   0.0000   0.3496
   6.400   1.2540   0.02790   0.02083  -0.1333  0.5980  1.0000  -2.3246   0.0000   0.0000   0.0000   0.3483
   6.500   1.2572   0.02831   0.02131  -0.1322  0.5940  1.0000  -2.3769   0.0000   0.0000   0.0000   0.3470
   6.600   1.2613   0.02868   0.02174  -0.1312  0.5899  1.0000  -2.4335   0.0000   0.0000   0.0000   0.3458
   6.700   1.2673   0.02898   0.02209  -0.1304  0.5858  1.0000  -2.4979   0.0000   0.0000   0.0000   0.3445
   6.800   1.2750   0.02920   0.02237  -0.1299  0.5821  1.0000  -2.5699   0.0000   0.0000   0.0000   0.3433
   6.900   1.2846   0.02931   0.02253  -0.1296  0.5785  1.0000  -2.6509   0.0000   0.0000   0.0000   0.3422
   7.000   1.2998   0.02895   0.02220  -0.1297  0.5741  1.0000  -2.7579   0.0000   0.0000   0.0000   0.3410
   7.100   1.3305   0.02722   0.02041  -0.1312  0.5658  1.0000  -2.9396   0.0000   0.0000   0.0000   0.3396
   7.200   1.3566   0.02633   0.01936  -0.1324  0.5527  1.0000  -3.1041   0.0000   0.0000   0.0000   0.3383
   7.300   1.3584   0.02615   0.01926  -0.1305  0.5464  1.0000  -3.1598   0.0000   0.0000   0.0000   0.3367
   7.400   1.3635   0.02584   0.01900  -0.1290  0.5377  1.0000  -3.2310   0.0000   0.0000   0.0000   0.3351
   7.500   1.3737   0.02530   0.01845  -0.1282  0.5278  1.0000  -3.3262   0.0000   0.0000   0.0000   0.3336
   7.600   1.3864   0.02477   0.01788  -0.1278  0.5188  1.0000  -3.4330   0.0000   0.0000   0.0000   0.3322
   7.700   1.4028   0.02426   0.01726  -0.1280  0.5087  1.0000  -3.5572   0.0000   0.0000   0.0000   0.3311
   7.800   1.4148   0.02428   0.01722  -0.1278  0.4991  1.0000  -3.6590   0.0000   0.0000   0.0000   0.3300
   7.900   1.4174   0.02431   0.01737  -0.1263  0.4935  1.0000  -3.7184   0.0000   0.0000   0.0000   0.3286
   8.000   1.4215   0.02435   0.01749  -0.1249  0.4866  1.0000  -3.7847   0.0000   0.0000   0.0000   0.3272
   8.100   1.4272   0.02435   0.01757  -0.1238  0.4793  1.0000  -3.8581   0.0000   0.0000   0.0000   0.3260
   8.200   1.4338   0.02427   0.01753  -0.1228  0.4713  1.0000  -3.9365   0.0000   0.0000   0.0000   0.3247
   8.300   1.4429   0.02411   0.01733  -0.1220  0.4617  1.0000  -4.0269   0.0000   0.0000   0.0000   0.3234
   8.400   1.4556   0.02403   0.01709  -0.1218  0.4487  1.0000  -4.1328   0.0000   0.0000   0.0000   0.3224
   8.500   1.4560   0.02412   0.01733  -0.1199  0.4418  1.0000  -4.1810   0.0000   0.0000   0.0000   0.3209
   8.600   1.4565   0.02422   0.01755  -0.1180  0.4317  1.0000  -4.2291   0.0000   0.0000   0.0000   0.3194
   8.700   1.4578   0.02423   0.01761  -0.1161  0.4176  1.0000  -4.2804   0.0000   0.0000   0.0000   0.3178
   8.800   1.4593   0.02422   0.01740  -0.1140  0.3981  1.0000  -4.3330   0.0000   0.0000   0.0000   0.3161
   8.900   1.4558   0.02443   0.01770  -0.1114  0.3802  1.0000  -4.3581   0.0000   0.0000   0.0000   0.3144
   9.000   1.4491   0.02471   0.01784  -0.1082  0.3523  1.0000  -4.3714   0.0000   0.0000   0.0000   0.3123
   9.100   1.4406   0.02524   0.01815  -0.1049  0.3151  1.0000  -4.3744   0.0000   0.0000   0.0000   0.3104
   9.200   1.4295   0.02605   0.01864  -0.1016  0.2782  1.0000  -4.3682   0.0000   0.0000   0.0000   0.3084
   9.300   1.4176   0.02708   0.01936  -0.0984  0.2450  1.0000  -4.3586   0.0000   0.0000   0.0000   0.3066
   9.400   1.4059   0.02828   0.02029  -0.0955  0.2094  1.0000  -4.3471   0.0000   0.0000   0.0000   0.3050
   9.500   1.3944   0.02962   0.02136  -0.0929  0.1814  1.0000  -4.3341   0.0000   0.0000   0.0000   0.3035
   9.600   1.3831   0.03103   0.02254  -0.0905  0.1597  1.0000  -4.3208   0.0000   0.0000   0.0000   0.3021
   9.700   1.3735   0.03241   0.02376  -0.0883  0.1415  1.0000  -4.3072   0.0000   0.0000   0.0000   0.3008
   9.800   1.3639   0.03385   0.02503  -0.0862  0.1289  1.0000  -4.2951   0.0000   0.0000   0.0000   0.2996
   9.900   1.3562   0.03521   0.02632  -0.0844  0.1171  1.0000  -4.2835   0.0000   0.0000   0.0000   0.2985
  10.000   1.3518   0.03637   0.02747  -0.0830  0.1078  1.0000  -4.2904   0.0000   0.0000   0.0000   0.2975
  10.100   1.3459   0.03767   0.02868  -0.0816  0.1007  1.0000  -4.2950   0.0000   0.0000   0.0000   0.2965
  10.200   1.3388   0.03910   0.03003  -0.0801  0.0941  1.0000  -4.2907   0.0000   0.0000   0.0000   0.2956
  10.300   1.3312   0.04060   0.03150  -0.0786  0.0877  1.0000  -4.2741   0.0000   0.0000   0.0000   0.2946
  10.400   1.3317   0.04148   0.03246  -0.0777  0.0832  1.0000  -4.2953   0.0000   0.0000   0.0000   0.2938
  10.500   1.3300   0.04255   0.03359  -0.0768  0.0787  1.0000  -4.3019   0.0000   0.0000   0.0000   0.2929
  10.600   1.3274   0.04370   0.03478  -0.0758  0.0743  1.0000  -4.3052   0.0000   0.0000   0.0000   0.2922
  10.700   1.3235   0.04499   0.03605  -0.0748  0.0702  1.0000  -4.3023   0.0000   0.0000   0.0000   0.2914
  10.800   1.3177   0.04647   0.03749  -0.0737  0.0663  1.0000  -4.2842   0.0000   0.0000   0.0000   0.2906
  10.900   1.3106   0.04829   0.03924  -0.0715  0.0596  1.0000  -4.1986   0.0000   0.0000   0.0000   0.2891
  11.000   1.3116   0.04921   0.04025  -0.0708  0.0567  1.0000  -4.1858   0.0000   0.0000   0.0000   0.2884
  11.100   1.3135   0.05017   0.04126  -0.0698  0.0535  1.0000  -4.1684   0.0000   0.0000   0.0000   0.2874
  11.200   1.3162   0.05113   0.04226  -0.0689  0.0510  1.0000  -4.1614   0.0000   0.0000   0.0000   0.2864
  11.300   1.3203   0.05203   0.04319  -0.0681  0.0491  1.0000  -4.1645   0.0000   0.0000   0.0000   0.2855
  11.500   1.3284   0.05400   0.04546  -0.0665  0.0450  1.0000  -4.1303   0.0000   0.0000   0.0000   0.2836
  11.600   1.3354   0.05483   0.04633  -0.0658  0.0441  1.0000  -4.1523   0.0000   0.0000   0.0000   0.2827
  11.700   1.3449   0.05564   0.04718  -0.0652  0.0433  1.0000  -4.1811   0.0000   0.0000   0.0000   0.2818
  11.800   1.3545   0.05655   0.04815  -0.0646  0.0428  1.0000  -4.2103   0.0000   0.0000   0.0000   0.2808
  11.900   1.3642   0.05755   0.04923  -0.0641  0.0425  1.0000  -4.2393   0.0000   0.0000   0.0000   0.2800
  12.000   1.3733   0.05863   0.05041  -0.0636  0.0423  1.0000  -4.2666   0.0000   0.0000   0.0000   0.2791
  12.100   1.3814   0.05981   0.05170  -0.0631  0.0423  1.0000  -4.2907   0.0000   0.0000   0.0000   0.2784
  12.200   1.3879   0.06107   0.05308  -0.0626  0.0423  1.0000  -4.3104   0.0000   0.0000   0.0000   0.2776
  12.300   1.3927   0.06241   0.05454  -0.0620  0.0424  1.0000  -4.3249   0.0000   0.0000   0.0000   0.2769
  12.400   1.3962   0.06381   0.05608  -0.0615  0.0426  1.0000  -4.3351   0.0000   0.0000   0.0000   0.2762
  12.500   1.3984   0.06527   0.05769  -0.0609  0.0428  1.0000  -4.3408   0.0000   0.0000   0.0000   0.2756
  12.600   1.3994   0.06680   0.05937  -0.0603  0.0431  1.0000  -4.3422   0.0000   0.0000   0.0000   0.2750
  12.700   1.3992   0.06840   0.06112  -0.0597  0.0434  1.0000  -4.3395   0.0000   0.0000   0.0000   0.2744
  12.800   1.3980   0.07006   0.06293  -0.0591  0.0437  1.0000  -4.3329   0.0000   0.0000   0.0000   0.2739
  12.900   1.3955   0.07179   0.06481  -0.0586  0.0440  1.0000  -4.3228   0.0000   0.0000   0.0000   0.2734
  13.000   1.3921   0.07357   0.06673  -0.0581  0.0444  1.0000  -4.3096   0.0000   0.0000   0.0000   0.2729
  13.100   1.3879   0.07540   0.06871  -0.0576  0.0447  1.0000  -4.2940   0.0000   0.0000   0.0000   0.2726
  13.200   1.3831   0.07729   0.07073  -0.0573  0.0450  1.0000  -4.2764   0.0000   0.0000   0.0000   0.2723
  13.300   1.3777   0.07922   0.07279  -0.0570  0.0454  1.0000  -4.2571   0.0000   0.0000   0.0000   0.2721
  13.400   1.3716   0.08119   0.07490  -0.0568  0.0457  1.0000  -4.2358   0.0000   0.0000   0.0000   0.2719
  13.500   1.3637   0.08321   0.07705  -0.0567  0.0460  1.0000  -4.2100   0.0000   0.0000   0.0000   0.2719
  13.600   1.3556   0.08529   0.07925  -0.0567  0.0463  1.0000  -4.1831   0.0000   0.0000   0.0000   0.2720
  13.700   1.3475   0.08741   0.08149  -0.0568  0.0466  1.0000  -4.1550   0.0000   0.0000   0.0000   0.2722
  13.800   1.3389   0.08957   0.08377  -0.0571  0.0468  1.0000  -4.1258   0.0000   0.0000   0.0000   0.2725
  13.900   1.3301   0.09178   0.08609  -0.0574  0.0471  1.0000  -4.0953   0.0000   0.0000   0.0000   0.2729
  14.000   1.3213   0.09403   0.08845  -0.0579  0.0474  1.0000  -4.0637   0.0000   0.0000   0.0000   0.2733
  14.100   1.3120   0.09625   0.09077  -0.0585  0.0476  1.0000  -4.0308   0.0000   0.0000   0.0000   0.2740
  14.200   1.3024   0.09852   0.09314  -0.0593  0.0479  1.0000  -3.9962   0.0000   0.0000   0.0000   0.2747
  14.300   1.2928   0.10090   0.09562  -0.0602  0.0481  1.0000  -3.9601   0.0000   0.0000   0.0000   0.2756
  14.400   1.2830   0.10343   0.09824  -0.0613  0.0483  1.0000  -3.9219   0.0000   0.0000   0.0000   0.2766
  14.500   1.2727   0.10613   0.10103  -0.0626  0.0486  1.0000  -3.8812   0.0000   0.0000   0.0000   0.2779
  14.600   1.2625   0.10898   0.10397  -0.0641  0.0488  1.0000  -3.8381   0.0000   0.0000   0.0000   0.2793
  14.700   1.2521   0.11200   0.10707  -0.0657  0.0490  1.0000  -3.7921   0.0000   0.0000   0.0000   0.2808
  14.800   1.2410   0.11525   0.11039  -0.0675  0.0492  1.0000  -3.7422   0.0000   0.0000   0.0000   0.2826
  14.900   1.2301   0.11869   0.11392  -0.0695  0.0494  1.0000  -3.6887   0.0000   0.0000   0.0000   0.2846
  15.000   1.2186   0.12240   0.11769  -0.0718  0.0497  1.0000  -3.6302   0.0000   0.0000   0.0000   0.2869
  15.100   1.2067   0.12642   0.12178  -0.0743  0.0499  1.0000  -3.5654   0.0000   0.0000   0.0000   0.2894
  15.200   1.1947   0.13071   0.12613  -0.0769  0.0502  1.0000  -3.4944   0.0000   0.0000   0.0000   0.2922
  15.300   1.1817   0.13549   0.13096  -0.0800  0.0505  1.0000  -3.4127   0.0000   0.0000   0.0000   0.2954
  15.400   1.1687   0.14065   0.13617  -0.0832  0.0509  1.0000  -3.3217   0.0000   0.0000   0.0000   0.2989
  15.500   1.1550   0.14642   0.14197  -0.0867  0.0514  1.0000  -3.2161   0.0000   0.0000   0.0000   0.3028
  15.600   1.1421   0.15250   0.14807  -0.0903  0.0520  1.0000  -3.1018   0.0000   0.0000   0.0000   0.3068
  15.700   1.1302   0.15879   0.15436  -0.0937  0.0529  1.0000  -2.9830   0.0000   0.0000   0.0000   0.3107
  15.800   1.1202   0.16481   0.16037  -0.0967  0.0541  1.0000  -2.8735   0.0000   0.0000   0.0000   0.3142
  15.900   1.1139   0.16964   0.16495  -0.0988  0.0553  1.0000  -2.8192   0.0000   0.0000   0.0000   0.3166
  16.000   1.1082   0.17430   0.16960  -0.1008  0.0563  1.0000  -2.7423   0.0000   0.0000   0.0000   0.3188
  16.100   1.1034   0.17859   0.17388  -0.1023  0.0574  1.0000  -2.6768   0.0000   0.0000   0.0000   0.3205
  16.500   1.0757   0.22089   0.21623  -0.1152  0.1202  1.0000  -1.8790   0.0000   0.0000   0.0000   0.3358
  16.600   1.0747   0.22271   0.21804  -0.1164  0.1198  1.0000  -1.8602   0.0000   0.0000   0.0000   0.3369
  16.700   1.0611   0.22031   0.21560  -0.1216  0.1118  1.0000  -1.7821   0.0000   0.0000   0.0000   0.3431
  16.800   1.0600   0.22268   0.21796  -0.1227  0.1107  1.0000  -1.7627   0.0000   0.0000   0.0000   0.3442
  16.900   1.0590   0.22501   0.22029  -0.1237  0.1096  1.0000  -1.7452   0.0000   0.0000   0.0000   0.3451
  17.000   1.0584   0.22732   0.22260  -0.1247  0.1085  1.0000  -1.7298   0.0000   0.0000   0.0000   0.3459
  17.100   1.0580   0.22961   0.22489  -0.1255  0.1074  1.0000  -1.7165   0.0000   0.0000   0.0000   0.3466
  17.200   1.0579   0.23187   0.22715  -0.1263  0.1063  1.0000  -1.7049   0.0000   0.0000   0.0000   0.3473
  17.300   1.0579   0.23410   0.22939  -0.1271  0.1051  1.0000  -1.6951   0.0000   0.0000   0.0000   0.3478
  17.400   1.0582   0.23630   0.23159  -0.1278  0.1040  1.0000  -1.6871   0.0000   0.0000   0.0000   0.3483
  17.500   1.0587   0.23847   0.23376  -0.1284  0.1029  1.0000  -1.6809   0.0000   0.0000   0.0000   0.3486
  17.600   1.0593   0.24059   0.23589  -0.1289  0.1018  1.0000  -1.6766   0.0000   0.0000   0.0000   0.3489
  17.700   1.0602   0.24268   0.23798  -0.1294  0.1007  1.0000  -1.6744   0.0000   0.0000   0.0000   0.3491
  17.800   1.0614   0.24472   0.24003  -0.1299  0.0996  1.0000  -1.6744   0.0000   0.0000   0.0000   0.3492
  17.900   1.0628   0.24672   0.24203  -0.1302  0.0985  1.0000  -1.6769   0.0000   0.0000   0.0000   0.3492
  18.000   1.0645   0.24868   0.24400  -0.1304  0.0974  1.0000  -1.6822   0.0000   0.0000   0.0000   0.3491
  18.100   1.0667   0.25060   0.24593  -0.1306  0.0964  1.0000  -1.6908   0.0000   0.0000   0.0000   0.3488
  18.200   1.0693   0.25250   0.24784  -0.1306  0.0954  1.0000  -1.7031   0.0000   0.0000   0.0000   0.3483
  18.300   1.0727   0.25440   0.24975  -0.1305  0.0944  1.0000  -1.7199   0.0000   0.0000   0.0000   0.3476
  18.400   1.0770   0.25633   0.25170  -0.1302  0.0934  1.0000  -1.7430   0.0000   0.0000   0.0000   0.3466
  18.500   1.0818   0.25834   0.25372  -0.1297  0.0925  1.0000  -1.7704   0.0000   0.0000   0.0000   0.3455
  18.600   1.0864   0.26052   0.25614  -0.1292  0.0916  1.0000  -1.7825   0.0000   0.0000   0.0000   0.3443
  18.700   1.0920   0.26317   0.25883  -0.1284  0.0906  1.0000  -1.8151   0.0000   0.0000   0.0000   0.3427
  18.800   1.0825   0.27524   0.27085  -0.1287  0.0879  1.0000  -1.7482   0.0000   0.0000   0.0000   0.3441
  18.900   1.0817   0.27755   0.27317  -0.1295  0.0879  1.0000  -1.7340   0.0000   0.0000   0.0000   0.3447
  19.000   1.0807   0.27982   0.27544  -0.1303  0.0878  1.0000  -1.7199   0.0000   0.0000   0.0000   0.3454
  19.100   1.0797   0.28202   0.27765  -0.1310  0.0877  1.0000  -1.7057   0.0000   0.0000   0.0000   0.3461
  19.200   1.0785   0.28416   0.27979  -0.1318  0.0876  1.0000  -1.6915   0.0000   0.0000   0.0000   0.3468
  19.300   1.0772   0.28621   0.28185  -0.1325  0.0875  1.0000  -1.6772   0.0000   0.0000   0.0000   0.3474
  19.400   1.0757   0.28817   0.28382  -0.1332  0.0874  1.0000  -1.6669   0.0000   0.0000   0.0000   0.3481
  19.500   1.0740   0.29000   0.28566  -0.1340  0.0873  1.0000  -1.6635   0.0000   0.0000   0.0000   0.3489
  19.600   1.0721   0.29168   0.28734  -0.1347  0.0871  1.0000  -1.6589   0.0000   0.0000   0.0000   0.3496
  19.700   1.0697   0.29314   0.28881  -0.1355  0.0868  1.0000  -1.6524   0.0000   0.0000   0.0000   0.3505
  19.800   1.0655   0.29428   0.28996  -0.1364  0.0864  1.0000  -1.6344   0.0000   0.0000   0.0000   0.3517
  19.900   1.0591   0.29502   0.29071  -0.1374  0.0858  1.0000  -1.6040   0.0000   0.0000   0.0000   0.3533
  20.000   1.0499   0.29543   0.29112  -0.1385  0.0849  1.0000  -1.5590   0.0000   0.0000   0.0000   0.3554
  20.100   1.0408   0.29600   0.29169  -0.1395  0.0837  1.0000  -1.5152   0.0000   0.0000   0.0000   0.3575
  20.200   1.0320   0.29669   0.29241  -0.1400  0.0824  1.0000  -1.4804   0.0000   0.0000   0.0000   0.3590
  20.300   1.0018   0.29282   0.28862  -0.1374  0.0818  1.0000  -1.4006   0.0000   0.0000   0.0000   0.3607
  20.400   0.9889   0.29182   0.28765  -0.1368  0.0807  1.0000  -1.3655   0.0000   0.0000   0.0000   0.3620
  20.500   0.9802   0.29154   0.28740  -0.1366  0.0796  1.0000  -1.3440   0.0000   0.0000   0.0000   0.3629
  20.600   0.9734   0.29154   0.28743  -0.1365  0.0785  1.0000  -1.3295   0.0000   0.0000   0.0000   0.3637
  20.700   0.9676   0.29169   0.28761  -0.1365  0.0774  1.0000  -1.3195   0.0000   0.0000   0.0000   0.3644
  20.800   0.9626   0.29193   0.28787  -0.1364  0.0763  1.0000  -1.3125   0.0000   0.0000   0.0000   0.3650
  20.900   0.9583   0.29222   0.28818  -0.1364  0.0752  1.0000  -1.3080   0.0000   0.0000   0.0000   0.3655
  21.000   0.9545   0.29253   0.28851  -0.1364  0.0740  1.0000  -1.3066   0.0000   0.0000   0.0000   0.3660
  21.100   0.9513   0.29283   0.28883  -0.1364  0.0725  1.0000  -1.3097   0.0000   0.0000   0.0000   0.3663
  21.200   0.9489   0.29307   0.28909  -0.1363  0.0706  1.0000  -1.3202   0.0000   0.0000   0.0000   0.3664
  21.300   0.9482   0.29312   0.28917  -0.1359  0.0681  1.0000  -1.3499   0.0000   0.0000   0.0000   0.3659
  21.500   0.9625   0.30136   0.29743  -0.1315  0.0596  1.0000  -1.5459   0.0000   0.0000   0.0000   0.3587
  21.600   0.9583   0.30152   0.29760  -0.1317  0.0595  1.0000  -1.5259   0.0000   0.0000   0.0000   0.3595
  21.700   0.9541   0.30158   0.29768  -0.1320  0.0594  1.0000  -1.5051   0.0000   0.0000   0.0000   0.3603
  21.800   0.9501   0.30156   0.29767  -0.1323  0.0593  1.0000  -1.4831   0.0000   0.0000   0.0000   0.3611
  21.900   0.9460   0.30137   0.29750  -0.1327  0.0591  1.0000  -1.4596   0.0000   0.0000   0.0000   0.3620
  22.000   0.9407   0.30083   0.29697  -0.1332  0.0588  1.0000  -1.4288   0.0000   0.0000   0.0000   0.3632
  22.100   0.9341   0.29995   0.29610  -0.1339  0.0584  1.0000  -1.3910   0.0000   0.0000   0.0000   0.3648
  22.200   0.9276   0.29908   0.29524  -0.1348  0.0578  1.0000  -1.3487   0.0000   0.0000   0.0000   0.3667
  22.300   0.9222   0.29869   0.29485  -0.1359  0.0567  1.0000  -1.3041   0.0000   0.0000   0.0000   0.3687
  22.400   0.9187   0.29911   0.29528  -0.1370  0.0549  1.0000  -1.2667   0.0000   0.0000   0.0000   0.3703
  22.500   0.9165   0.29983   0.29601  -0.1377  0.0529  1.0000  -1.2424   0.0000   0.0000   0.0000   0.3713
  22.600   0.9147   0.30055   0.29674  -0.1381  0.0512  1.0000  -1.2255   0.0000   0.0000   0.0000   0.3719
  22.700   0.9131   0.30123   0.29743  -0.1385  0.0496  1.0000  -1.2125   0.0000   0.0000   0.0000   0.3724
  22.800   0.9116   0.30187   0.29809  -0.1387  0.0482  1.0000  -1.2023   0.0000   0.0000   0.0000   0.3728
  22.900   0.9103   0.30248   0.29871  -0.1389  0.0469  1.0000  -1.1944   0.0000   0.0000   0.0000   0.3731
  23.000   0.9092   0.30307   0.29931  -0.1391  0.0458  1.0000  -1.1886   0.0000   0.0000   0.0000   0.3733
  23.100   0.9082   0.30362   0.29988  -0.1392  0.0448  1.0000  -1.1851   0.0000   0.0000   0.0000   0.3734
  23.200   0.9073   0.30416   0.30043  -0.1393  0.0438  1.0000  -1.1839   0.0000   0.0000   0.0000   0.3735
  23.300   0.9066   0.30467   0.30096  -0.1394  0.0429  1.0000  -1.1850   0.0000   0.0000   0.0000   0.3735
  23.400   0.9061   0.30517   0.30147  -0.1394  0.0421  1.0000  -1.1888   0.0000   0.0000   0.0000   0.3735
  23.500   0.9057   0.30565   0.30197  -0.1394  0.0414  1.0000  -1.1955   0.0000   0.0000   0.0000   0.3733
  23.600   0.9057   0.30614   0.30247  -0.1393  0.0407  1.0000  -1.2059   0.0000   0.0000   0.0000   0.3730
  23.700   0.9059   0.30668   0.30303  -0.1391  0.0400  1.0000  -1.2208   0.0000   0.0000   0.0000   0.3726
  23.800   0.9068   0.30737   0.30374  -0.1388  0.0394  1.0000  -1.2418   0.0000   0.0000   0.0000   0.3719
  23.900   0.9090   0.30857   0.30496  -0.1382  0.0387  1.0000  -1.2733   0.0000   0.0000   0.0000   0.3706
  24.000   0.9144   0.31279   0.30920  -0.1371  0.0377  1.0000  -1.3157   0.0000   0.0000   0.0000   0.3683
  24.100   0.9097   0.31733   0.31369  -0.1374  0.0370  1.0000  -1.2521   0.0000   0.0000   0.0000   0.3694
  24.200   0.9084   0.31806   0.31443  -0.1377  0.0370  1.0000  -1.2387   0.0000   0.0000   0.0000   0.3698
  24.300   0.9071   0.31875   0.31513  -0.1381  0.0369  1.0000  -1.2256   0.0000   0.0000   0.0000   0.3703
  24.400   0.9058   0.31942   0.31581  -0.1384  0.0369  1.0000  -1.2128   0.0000   0.0000   0.0000   0.3707
  24.500   0.9046   0.32008   0.31649  -0.1388  0.0369  1.0000  -1.2004   0.0000   0.0000   0.0000   0.3712
  24.600   0.9034   0.32073   0.31714  -0.1392  0.0368  1.0000  -1.1883   0.0000   0.0000   0.0000   0.3716
  24.700   0.9022   0.32136   0.31778  -0.1396  0.0368  1.0000  -1.1764   0.0000   0.0000   0.0000   0.3721
  24.800   0.9011   0.32196   0.31840  -0.1399  0.0368  1.0000  -1.1648   0.0000   0.0000   0.0000   0.3726
  24.900   0.8998   0.32252   0.31897  -0.1403  0.0367  1.0000  -1.1531   0.0000   0.0000   0.0000   0.3730
  25.000   0.8987   0.32307   0.31952  -0.1407  0.0367  1.0000  -1.1417   0.0000   0.0000   0.0000   0.3735
  25.100   0.8975   0.32359   0.32005  -0.1411  0.0366  1.0000  -1.1305   0.0000   0.0000   0.0000   0.3740
  25.200   0.8963   0.32408   0.32055  -0.1415  0.0366  1.0000  -1.1194   0.0000   0.0000   0.0000   0.3744
  25.300   0.8950   0.32450   0.32099  -0.1419  0.0365  1.0000  -1.1077   0.0000   0.0000   0.0000   0.3749
  25.400   0.8932   0.32476   0.32125  -0.1424  0.0365  1.0000  -1.0930   0.0000   0.0000   0.0000   0.3756
  25.500   0.8914   0.32497   0.32147  -0.1429  0.0364  1.0000  -1.0776   0.0000   0.0000   0.0000   0.3763
  25.600   0.8896   0.32517   0.32168  -0.1434  0.0363  1.0000  -1.0623   0.0000   0.0000   0.0000   0.3770
  25.700   0.8878   0.32538   0.32190  -0.1439  0.0362  1.0000  -1.0470   0.0000   0.0000   0.0000   0.3778
  25.800   0.8862   0.32559   0.32213  -0.1445  0.0361  1.0000  -1.0315   0.0000   0.0000   0.0000   0.3785
  25.900   0.8846   0.32583   0.32237  -0.1450  0.0359  1.0000  -1.0159   0.0000   0.0000   0.0000   0.3793
  26.000   0.8831   0.32611   0.32266  -0.1457  0.0357  1.0000  -0.9999   0.0000   0.0000   0.0000   0.3800
  26.100   0.8818   0.32645   0.32301  -0.1463  0.0355  1.0000  -0.9836   0.0000   0.0000   0.0000   0.3808
  26.200   0.8808   0.32691   0.32347  -0.1470  0.0352  1.0000  -0.9670   0.0000   0.0000   0.0000   0.3816
  26.300   0.8799   0.32750   0.32407  -0.1477  0.0348  1.0000  -0.9506   0.0000   0.0000   0.0000   0.3824
  26.400   0.8794   0.32823   0.32481  -0.1484  0.0344  1.0000  -0.9356   0.0000   0.0000   0.0000   0.3831
  26.500   0.8790   0.32905   0.32564  -0.1490  0.0338  1.0000  -0.9227   0.0000   0.0000   0.0000   0.3837
  26.600   0.8787   0.32990   0.32650  -0.1496  0.0333  1.0000  -0.9119   0.0000   0.0000   0.0000   0.3841
  26.700   0.8784   0.33075   0.32736  -0.1501  0.0327  1.0000  -0.9030   0.0000   0.0000   0.0000   0.3845
  26.800   0.8781   0.33159   0.32821  -0.1505  0.0322  1.0000  -0.8954   0.0000   0.0000   0.0000   0.3849
  26.900   0.8778   0.33242   0.32905  -0.1509  0.0316  1.0000  -0.8889   0.0000   0.0000   0.0000   0.3852
  27.000   0.8775   0.33323   0.32987  -0.1513  0.0311  1.0000  -0.8832   0.0000   0.0000   0.0000   0.3855
  27.100   0.8772   0.33403   0.33069  -0.1517  0.0307  1.0000  -0.8782   0.0000   0.0000   0.0000   0.3858
  27.200   0.8770   0.33483   0.33149  -0.1521  0.0302  1.0000  -0.8736   0.0000   0.0000   0.0000   0.3861
  27.300   0.8767   0.33561   0.33229  -0.1525  0.0297  1.0000  -0.8694   0.0000   0.0000   0.0000   0.3864
  27.400   0.8764   0.33639   0.33308  -0.1528  0.0293  1.0000  -0.8657   0.0000   0.0000   0.0000   0.3866
  27.500   0.8761   0.33716   0.33386  -0.1532  0.0289  1.0000  -0.8622   0.0000   0.0000   0.0000   0.3869
  27.600   0.8758   0.33793   0.33464  -0.1536  0.0285  1.0000  -0.8591   0.0000   0.0000   0.0000   0.3871
  27.700   0.8755   0.33869   0.33541  -0.1539  0.0281  1.0000  -0.8563   0.0000   0.0000   0.0000   0.3873
  27.800   0.8753   0.33944   0.33617  -0.1543  0.0277  1.0000  -0.8537   0.0000   0.0000   0.0000   0.3875
  27.900   0.8750   0.34019   0.33694  -0.1546  0.0274  1.0000  -0.8514   0.0000   0.0000   0.0000   0.3878
  28.000   0.8748   0.34094   0.33769  -0.1550  0.0270  1.0000  -0.8494   0.0000   0.0000   0.0000   0.3880
  28.100   0.8745   0.34168   0.33845  -0.1553  0.0267  1.0000  -0.8476   0.0000   0.0000   0.0000   0.3882
  28.200   0.8743   0.34242   0.33928  -0.1557  0.0263  1.0000  -0.8415   0.0000   0.0000   0.0000   0.3884
  28.300   0.8741   0.34315   0.34002  -0.1560  0.0260  1.0000  -0.8392   0.0000   0.0000   0.0000   0.3886
  28.400   0.8738   0.34387   0.34076  -0.1563  0.0256  1.0000  -0.8377   0.0000   0.0000   0.0000   0.3888
  28.500   0.8736   0.34459   0.34149  -0.1567  0.0253  1.0000  -0.8366   0.0000   0.0000   0.0000   0.3890
  28.600   0.8734   0.34531   0.34222  -0.1570  0.0250  1.0000  -0.8359   0.0000   0.0000   0.0000   0.3891
  28.700   0.8732   0.34602   0.34294  -0.1573  0.0248  1.0000  -0.8356   0.0000   0.0000   0.0000   0.3893
  28.800   0.8730   0.34672   0.34365  -0.1577  0.0245  1.0000  -0.8356   0.0000   0.0000   0.0000   0.3895
  28.900   0.8728   0.34742   0.34436  -0.1580  0.0242  1.0000  -0.8360   0.0000   0.0000   0.0000   0.3897
  29.000   0.8726   0.34811   0.34507  -0.1583  0.0239  1.0000  -0.8368   0.0000   0.0000   0.0000   0.3898
  29.100   0.8724   0.34880   0.34576  -0.1586  0.0237  1.0000  -0.8379   0.0000   0.0000   0.0000   0.3900
  29.200   0.8722   0.34948   0.34645  -0.1589  0.0234  1.0000  -0.8393   0.0000   0.0000   0.0000   0.3901
  29.300   0.8720   0.35015   0.34714  -0.1593  0.0232  1.0000  -0.8412   0.0000   0.0000   0.0000   0.3902
  29.400   0.8718   0.35081   0.34781  -0.1596  0.0229  1.0000  -0.8435   0.0000   0.0000   0.0000   0.3903
  29.500   0.8716   0.35147   0.34848  -0.1599  0.0227  1.0000  -0.8463   0.0000   0.0000   0.0000   0.3905
  29.600   0.8715   0.35212   0.34914  -0.1601  0.0225  1.0000  -0.8496   0.0000   0.0000   0.0000   0.3906
  29.700   0.8713   0.35276   0.34980  -0.1604  0.0223  1.0000  -0.8535   0.0000   0.0000   0.0000   0.3906
  29.800   0.8711   0.35340   0.35045  -0.1607  0.0220  1.0000  -0.8580   0.0000   0.0000   0.0000   0.3907
  29.900   0.8710   0.35403   0.35109  -0.1609  0.0218  1.0000  -0.8632   0.0000   0.0000   0.0000   0.3907
  30.000   0.8709   0.35466   0.35173  -0.1612  0.0216  1.0000  -0.8690   0.0000   0.0000   0.0000   0.3908


