xflr5 v6.61

 Calculated polar for: NACA 0012-34

 1 1 Reynolds number fixed          Mach number fixed         

 xtrf =   1.000 (top)        1.000 (bottom)
 Mach =   0.000     Re =     0.100 e 6     Ncrit =   9.000

  alpha     CL        CD       CDp       Cm    Top Xtr Bot Xtr   Cpmin    Chinge    XCp    
 ------- -------- --------- --------- -------- ------- ------- -------- --------- ---------
 -10.000  -0.5652   0.10348   0.09756  -0.0186  1.0000  0.1631  -1.3716   0.0000   0.0000   0.0000   0.2084
  -9.900  -0.5592   0.10224   0.09632  -0.0178  1.0000  0.1660  -1.3435   0.0000   0.0000   0.0000   0.2096
  -9.800  -0.5554   0.10099   0.09509  -0.0174  1.0000  0.1690  -1.3250   0.0000   0.0000   0.0000   0.2103
  -9.700  -0.5529   0.09976   0.09387  -0.0172  1.0000  0.1722  -1.3125   0.0000   0.0000   0.0000   0.2105
  -9.600  -0.5512   0.09855   0.09268  -0.0172  1.0000  0.1755  -1.3042   0.0000   0.0000   0.0000   0.2105
  -9.500  -0.5501   0.09739   0.09153  -0.0175  1.0000  0.1790  -1.2991   0.0000   0.0000   0.0000   0.2102
  -6.800  -0.7100   0.05141   0.04476  -0.0050  1.0000  0.1449  -1.7913   0.0000   0.0000   0.0000   0.2381
  -6.700  -0.7174   0.04819   0.04146  -0.0034  1.0000  0.1383  -1.8263   0.0000   0.0000   0.0000   0.2405
  -6.600  -0.7233   0.04563   0.03874  -0.0015  1.0000  0.1293  -1.8670   0.0000   0.0000   0.0000   0.2432
  -6.500  -0.7210   0.04435   0.03662   0.0019  1.0000  0.0948  -2.0050   0.0000   0.0000   0.0000   0.2477
  -6.400  -0.7266   0.04131   0.03332   0.0041  1.0000  0.0888  -2.0615   0.0000   0.0000   0.0000   0.2507
  -6.300  -0.7248   0.03963   0.03080   0.0077  1.0000  0.0722  -2.1893   0.0000   0.0000   0.0000   0.2556
  -6.200  -0.7220   0.03695   0.02797   0.0090  1.0000  0.0675  -2.2111   0.0000   0.0000   0.0000   0.2575
  -6.100  -0.7174   0.03479   0.02547   0.0109  1.0000  0.0613  -2.2531   0.0000   0.0000   0.0000   0.2602
  -6.000  -0.7084   0.03364   0.02365   0.0133  1.0000  0.0532  -2.3241   0.0000   0.0000   0.0000   0.2638
  -5.900  -0.6984   0.03467   0.02465   0.0144  1.0000  0.0505  -2.2485   0.0000   0.0000   0.0000   0.2658
  -5.800  -0.6890   0.03203   0.02181   0.0150  1.0000  0.0480  -2.2570   0.0000   0.0000   0.0000   0.2671
  -5.700  -0.6797   0.03018   0.01980   0.0158  1.0000  0.0464  -2.2486   0.0000   0.0000   0.0000   0.2686
  -5.600  -0.6692   0.02867   0.01814   0.0165  1.0000  0.0451  -2.2279   0.0000   0.0000   0.0000   0.2700
  -5.500  -0.6579   0.02735   0.01670   0.0170  1.0000  0.0440  -2.2022   0.0000   0.0000   0.0000   0.2713
  -5.400  -0.6470   0.02620   0.01545   0.0177  1.0000  0.0433  -2.1766   0.0000   0.0000   0.0000   0.2727
  -5.300  -0.6368   0.02518   0.01435   0.0183  1.0000  0.0431  -2.1477   0.0000   0.0000   0.0000   0.2743
  -5.200  -0.6284   0.02431   0.01342   0.0193  1.0000  0.0433  -2.1186   0.0000   0.0000   0.0000   0.2762
  -5.100  -0.6215   0.02356   0.01260   0.0204  1.0000  0.0440  -2.0905   0.0000   0.0000   0.0000   0.2785
  -5.000  -0.6157   0.02288   0.01187   0.0216  1.0000  0.0452  -2.0640   0.0000   0.0000   0.0000   0.2809
  -4.900  -0.6105   0.02228   0.01119   0.0230  1.0000  0.0470  -2.0395   0.0000   0.0000   0.0000   0.2836
  -4.800  -0.6051   0.02179   0.01061   0.0243  1.0000  0.0494  -2.0115   0.0000   0.0000   0.0000   0.2862
  -4.700  -0.6028   0.02085   0.00958   0.0262  1.0000  0.0559  -2.0185   0.0000   0.0000   0.0000   0.2896
  -4.600  -0.5982   0.02021   0.00902   0.0275  1.0000  0.0666  -1.9844   0.0000   0.0000   0.0000   0.2920
  -4.500  -0.5924   0.01971   0.00859   0.0285  1.0000  0.0794  -1.9376   0.0000   0.0000   0.0000   0.2943
  -4.400  -0.5880   0.01889   0.00808   0.0296  1.0000  0.1164  -1.8990   0.0000   0.0000   0.0000   0.2967
  -4.300  -0.5911   0.01713   0.00757   0.0314  1.0000  0.2939  -1.8817   0.0000   0.0000   0.0000   0.2996
  -4.200  -0.5937   0.01595   0.00744   0.0339  1.0000  0.4581  -1.8484   0.0000   0.0000   0.0000   0.3036
  -4.100  -0.5911   0.01545   0.00761   0.0359  1.0000  0.5702  -1.7836   0.0000   0.0000   0.0000   0.3075
  -4.000  -0.5853   0.01543   0.00820   0.0383  1.0000  0.6768  -1.6975   0.0000   0.0000   0.0000   0.3121
  -3.900  -0.5729   0.01609   0.00923   0.0401  1.0000  0.7496  -1.6461   0.0000   0.0000   0.0000   0.3168
  -3.800  -0.5666   0.01657   0.00975   0.0421  1.0000  0.7800  -1.6092   0.0000   0.0000   0.0000   0.3212
  -3.700  -0.5641   0.01680   0.00995   0.0442  1.0000  0.7946  -1.5815   0.0000   0.0000   0.0000   0.3253
  -3.600  -0.5495   0.01729   0.01044   0.0446  1.0000  0.8153  -1.5282   0.0000   0.0000   0.0000   0.3281
  -3.500  -0.4885   0.01994   0.01302   0.0394  1.0000  0.8494  -1.3751   0.0000   0.0000   0.0000   0.3274
  -3.400  -0.4634   0.02054   0.01353   0.0374  1.0000  0.8603  -1.3054   0.0000   0.0000   0.0000   0.3273
  -3.300  -0.4507   0.02066   0.01361   0.0370  1.0000  0.8688  -1.2625   0.0000   0.0000   0.0000   0.3288
  -3.200  -0.4446   0.02069   0.01359   0.0378  1.0000  0.8778  -1.2324   0.0000   0.0000   0.0000   0.3317
  -3.100  -0.4466   0.02063   0.01352   0.0401  1.0000  0.8871  -1.2176   0.0000   0.0000   0.0000   0.3366
  -3.000  -0.4569   0.02051   0.01340   0.0440  1.0000  0.8960  -1.2180   0.0000   0.0000   0.0000   0.3432
  -2.900  -0.4535   0.02046   0.01332   0.0452  1.0000  0.9014  -1.1935   0.0000   0.0000   0.0000   0.3467
  -2.800  -0.4283   0.02055   0.01334   0.0421  1.0000  0.9044  -1.1301   0.0000   0.0000   0.0000   0.3453
  -2.700  -0.4027   0.02067   0.01338   0.0389  1.0000  0.9071  -1.0674   0.0000   0.0000   0.0000   0.3436
  -2.600  -0.3754   0.02082   0.01347   0.0353  1.0000  0.9100  -1.0029   0.0000   0.0000   0.0000   0.3411
  -2.500  -0.3474   0.02100   0.01359   0.0317  1.0000  0.9136  -0.9385   0.0000   0.0000   0.0000   0.3383
  -2.400  -0.3212   0.02117   0.01371   0.0285  1.0000  0.9179  -0.8784   0.0000   0.0000   0.0000   0.3355
  -2.300  -0.2985   0.02131   0.01380   0.0258  1.0000  0.9230  -0.8251   0.0000   0.0000   0.0000   0.3334
  -2.200  -0.2798   0.02140   0.01385   0.0239  1.0000  0.9286  -0.7795   0.0000   0.0000   0.0000   0.3323
  -2.100  -0.2656   0.02146   0.01389   0.0228  1.0000  0.9347  -0.7417   0.0000   0.0000   0.0000   0.3328
  -2.000  -0.2569   0.02153   0.01394   0.0228  1.0000  0.9412  -0.7128   0.0000   0.0000   0.0000   0.3357
  -1.900  -0.2560   0.02170   0.01410   0.0243  1.0000  0.9482  -0.6961   0.0000   0.0000   0.0000   0.3422
  -1.800  -0.2408   0.02161   0.01398   0.0229  1.0000  0.9520  -0.6582   0.0000   0.0000   0.0000   0.3421
  -1.700  -0.2181   0.02145   0.01379   0.0199  1.0000  0.9546  -0.6098   0.0000   0.0000   0.0000   0.3381
  -1.600  -0.1964   0.02134   0.01365   0.0170  1.0000  0.9574  -0.5636   0.0000   0.0000   0.0000   0.3337
  -1.500  -0.1757   0.02126   0.01355   0.0144  1.0000  0.9603  -0.5197   0.0000   0.0000   0.0000   0.3287
  -1.400  -0.1560   0.02120   0.01347   0.0119  1.0000  0.9636  -0.4779   0.0000   0.0000   0.0000   0.3232
  -1.300  -0.1372   0.02116   0.01341   0.0097  1.0000  0.9671  -0.4381   0.0000   0.0000   0.0000   0.3170
  -1.200  -0.1194   0.02112   0.01336   0.0076  1.0000  0.9708  -0.4053   0.0000   0.0000   0.0000   0.3098
  -1.100  -0.1025   0.02110   0.01333   0.0057  1.0000  0.9748  -0.3938   0.0000   0.0000   0.0000   0.3013
  -1.000  -0.0863   0.02109   0.01331   0.0039  1.0000  0.9789  -0.3828   0.0000   0.0000   0.0000   0.2906
  -0.900  -0.0705   0.02110   0.01331   0.0021  1.0000  0.9831  -0.3719   0.0000   0.0000   0.0000   0.2758
  -0.800  -0.0537   0.02113   0.01334   0.0002  1.0000  0.9875  -0.3606   0.0000   0.0000   0.0000   0.2494
  -0.700  -0.0360   0.02119   0.01339  -0.0018  1.0000  0.9919  -0.3488   0.0000   0.0000   0.0000   0.1928
  -0.600  -0.0176   0.02129   0.01349  -0.0040  1.0000  0.9959  -0.3369   0.0000   0.0000   0.0000   0.0099
  -0.500   0.0013   0.02143   0.01362  -0.0063  1.0000  0.9993  -0.3272   0.0000   0.0000   0.0000   5.2180
  -0.400   0.0051   0.02146   0.01365  -0.0058  1.0000  1.0000  -0.3249   0.0000   0.0000   0.0000   1.4223
  -0.300   0.0038   0.02144   0.01364  -0.0043  1.0000  1.0000  -0.3250   0.0000   0.0000   0.0000   1.4245
  -0.200   0.0025   0.02143   0.01362  -0.0029  1.0000  1.0000  -0.3251   0.0000   0.0000   0.0000   1.4187
  -0.100   0.0013   0.02141   0.01361  -0.0014  1.0000  1.0000  -0.3251   0.0000   0.0000   0.0000   1.4268
   0.000  -0.0000   0.02141   0.01361   0.0000  1.0000  1.0000  -0.3251   0.0000   0.0000   0.0000   0.3678
   0.100  -0.0013   0.02141   0.01361   0.0014  1.0000  1.0000  -0.3251   0.0000   0.0000   0.0000   1.4267
   0.200  -0.0025   0.02142   0.01362   0.0029  1.0000  1.0000  -0.3251   0.0000   0.0000   0.0000   1.4185
   0.300  -0.0038   0.02144   0.01363   0.0043  1.0000  1.0000  -0.3250   0.0000   0.0000   0.0000   1.4241
   0.400  -0.0051   0.02145   0.01364   0.0058  1.0000  1.0000  -0.3249   0.0000   0.0000   0.0000   1.4215
   0.500  -0.0014   0.02142   0.01361   0.0063  0.9993  1.0000  -0.3271   0.0000   0.0000   0.0000   4.8097
   0.600   0.0175   0.02128   0.01347   0.0041  0.9959  1.0000  -0.3368   0.0000   0.0000   0.0000   0.0063
   0.700   0.0359   0.02118   0.01338   0.0019  0.9919  1.0000  -0.3488   0.0000   0.0000   0.0000   0.1917
   0.800   0.0536   0.02112   0.01332  -0.0002  0.9875  1.0000  -0.3605   0.0000   0.0000   0.0000   0.2487
   0.900   0.0703   0.02108   0.01329  -0.0021  0.9831  1.0000  -0.3718   0.0000   0.0000   0.0000   0.2753
   1.000   0.0861   0.02108   0.01329  -0.0038  0.9789  1.0000  -0.3827   0.0000   0.0000   0.0000   0.2903
   1.100   0.1023   0.02108   0.01331  -0.0056  0.9748  1.0000  -0.3937   0.0000   0.0000   0.0000   0.3010
   1.200   0.1192   0.02110   0.01334  -0.0075  0.9709  1.0000  -0.4052   0.0000   0.0000   0.0000   0.3095
   1.300   0.1369   0.02114   0.01339  -0.0096  0.9671  1.0000  -0.4377   0.0000   0.0000   0.0000   0.3167
   1.400   0.1556   0.02118   0.01345  -0.0119  0.9636  1.0000  -0.4774   0.0000   0.0000   0.0000   0.3230
   1.500   0.1753   0.02124   0.01352  -0.0143  0.9604  1.0000  -0.5192   0.0000   0.0000   0.0000   0.3285
   1.600   0.1960   0.02132   0.01363  -0.0170  0.9574  1.0000  -0.5631   0.0000   0.0000   0.0000   0.3334
   1.700   0.2177   0.02143   0.01376  -0.0198  0.9546  1.0000  -0.6092   0.0000   0.0000   0.0000   0.3379
   1.800   0.2404   0.02158   0.01395  -0.0228  0.9520  1.0000  -0.6575   0.0000   0.0000   0.0000   0.3419
   1.900   0.2561   0.02168   0.01408  -0.0244  0.9483  1.0000  -0.6963   0.0000   0.0000   0.0000   0.3422
   2.000   0.2568   0.02151   0.01392  -0.0228  0.9413  1.0000  -0.7127   0.0000   0.0000   0.0000   0.3356
   2.100   0.2654   0.02144   0.01387  -0.0228  0.9348  1.0000  -0.7413   0.0000   0.0000   0.0000   0.3327
   2.200   0.2795   0.02137   0.01383  -0.0239  0.9288  1.0000  -0.7791   0.0000   0.0000   0.0000   0.3322
   2.300   0.2981   0.02128   0.01377  -0.0257  0.9231  1.0000  -0.8246   0.0000   0.0000   0.0000   0.3332
   2.400   0.3208   0.02115   0.01368  -0.0284  0.9180  1.0000  -0.8777   0.0000   0.0000   0.0000   0.3354
   2.500   0.3469   0.02098   0.01357  -0.0316  0.9136  1.0000  -0.9377   0.0000   0.0000   0.0000   0.3381
   2.600   0.3749   0.02080   0.01344  -0.0352  0.9101  1.0000  -1.0021   0.0000   0.0000   0.0000   0.3410
   2.700   0.4023   0.02065   0.01336  -0.0388  0.9072  1.0000  -1.0667   0.0000   0.0000   0.0000   0.3435
   2.800   0.4279   0.02053   0.01331  -0.0420  0.9044  1.0000  -1.1293   0.0000   0.0000   0.0000   0.3452
   2.900   0.4531   0.02044   0.01329  -0.0451  0.9015  1.0000  -1.1927   0.0000   0.0000   0.0000   0.3466
   3.000   0.4571   0.02048   0.01337  -0.0440  0.8961  1.0000  -1.2184   0.0000   0.0000   0.0000   0.3433
   3.100   0.4468   0.02060   0.01349  -0.0401  0.8873  1.0000  -1.2179   0.0000   0.0000   0.0000   0.3366
   3.200   0.4447   0.02066   0.01357  -0.0378  0.8780  1.0000  -1.2326   0.0000   0.0000   0.0000   0.3318
   3.300   0.4507   0.02064   0.01358  -0.0370  0.8690  1.0000  -1.2624   0.0000   0.0000   0.0000   0.3288
   3.400   0.4632   0.02051   0.01351  -0.0373  0.8605  1.0000  -1.3050   0.0000   0.0000   0.0000   0.3273
   3.500   0.4880   0.01992   0.01301  -0.0393  0.8496  1.0000  -1.3741   0.0000   0.0000   0.0000   0.3273
   3.600   0.5485   0.01731   0.01046  -0.0444  0.8160  1.0000  -1.5261   0.0000   0.0000   0.0000   0.3280
   3.700   0.5638   0.01679   0.00994  -0.0442  0.7948  1.0000  -1.5809   0.0000   0.0000   0.0000   0.3253
   3.800   0.5664   0.01657   0.00974  -0.0421  0.7803  1.0000  -1.6086   0.0000   0.0000   0.0000   0.3212
   3.900   0.5725   0.01609   0.00924  -0.0401  0.7504  1.0000  -1.6451   0.0000   0.0000   0.0000   0.3168
   4.000   0.5851   0.01542   0.00820  -0.0382  0.6781  1.0000  -1.6969   0.0000   0.0000   0.0000   0.3121
   4.100   0.5908   0.01543   0.00760  -0.0359  0.5723  1.0000  -1.7820   0.0000   0.0000   0.0000   0.3074
   4.200   0.5935   0.01592   0.00743  -0.0338  0.4610  1.0000  -1.8472   0.0000   0.0000   0.0000   0.3035
   4.300   0.5909   0.01709   0.00755  -0.0314  0.2980  1.0000  -1.8811   0.0000   0.0000   0.0000   0.2996
   4.400   0.5877   0.01885   0.00805  -0.0296  0.1182  1.0000  -1.8986   0.0000   0.0000   0.0000   0.2966
   4.500   0.5921   0.01968   0.00857  -0.0284  0.0798  1.0000  -1.9369   0.0000   0.0000   0.0000   0.2942
   4.600   0.5979   0.02019   0.00900  -0.0274  0.0668  1.0000  -1.9834   0.0000   0.0000   0.0000   0.2920
   4.700   0.6025   0.02082   0.00955  -0.0262  0.0560  1.0000  -2.0183   0.0000   0.0000   0.0000   0.2895
   4.800   0.6048   0.02177   0.01059  -0.0243  0.0495  1.0000  -2.0108   0.0000   0.0000   0.0000   0.2861
   4.900   0.6102   0.02226   0.01117  -0.0230  0.0470  1.0000  -2.0390   0.0000   0.0000   0.0000   0.2835
   5.000   0.6153   0.02286   0.01184  -0.0216  0.0452  1.0000  -2.0635   0.0000   0.0000   0.0000   0.2809
   5.100   0.6211   0.02353   0.01258  -0.0203  0.0440  1.0000  -2.0899   0.0000   0.0000   0.0000   0.2784
   5.200   0.6280   0.02429   0.01339  -0.0192  0.0433  1.0000  -2.1181   0.0000   0.0000   0.0000   0.2762
   5.300   0.6364   0.02515   0.01432  -0.0183  0.0431  1.0000  -2.1471   0.0000   0.0000   0.0000   0.2742
   5.400   0.6466   0.02617   0.01541  -0.0176  0.0433  1.0000  -2.1761   0.0000   0.0000   0.0000   0.2727
   5.500   0.6575   0.02732   0.01666  -0.0170  0.0440  1.0000  -2.2017   0.0000   0.0000   0.0000   0.2712
   5.600   0.6688   0.02864   0.01810  -0.0164  0.0450  1.0000  -2.2273   0.0000   0.0000   0.0000   0.2699
   5.700   0.6793   0.03014   0.01975  -0.0158  0.0464  1.0000  -2.2483   0.0000   0.0000   0.0000   0.2685
   5.800   0.6886   0.03197   0.02176  -0.0150  0.0480  1.0000  -2.2570   0.0000   0.0000   0.0000   0.2670
   5.900   0.6980   0.03469   0.02467  -0.0144  0.0505  1.0000  -2.2465   0.0000   0.0000   0.0000   0.2657
   6.000   0.7080   0.03365   0.02365  -0.0132  0.0531  1.0000  -2.3232   0.0000   0.0000   0.0000   0.2638
   6.100   0.7171   0.03474   0.02540  -0.0108  0.0611  1.0000  -2.2547   0.0000   0.0000   0.0000   0.2601
   6.200   0.7217   0.03690   0.02791  -0.0090  0.0674  1.0000  -2.2115   0.0000   0.0000   0.0000   0.2575
   6.300   0.7245   0.03954   0.03071  -0.0076  0.0721  1.0000  -2.1899   0.0000   0.0000   0.0000   0.2555
   6.400   0.7265   0.04124   0.03324  -0.0041  0.0887  1.0000  -2.0630   0.0000   0.0000   0.0000   0.2506
   6.500   0.7209   0.04428   0.03654  -0.0019  0.0947  1.0000  -2.0060   0.0000   0.0000   0.0000   0.2476
   8.700   0.6088   0.08449   0.07883   0.0236  0.2098  1.0000  -1.4390   0.0000   0.0000   0.0000   0.2050
   9.600   0.5545   0.09865   0.09277   0.0168  0.1749  1.0000  -1.3095   0.0000   0.0000   0.0000   0.2115
   9.700   0.5563   0.09986   0.09397   0.0167  0.1716  1.0000  -1.3187   0.0000   0.0000   0.0000   0.2115
   9.800   0.5591   0.10110   0.09519   0.0169  0.1685  1.0000  -1.3323   0.0000   0.0000   0.0000   0.2112
   9.900   0.5633   0.10235   0.09643   0.0174  0.1655  1.0000  -1.3524   0.0000   0.0000   0.0000   0.2105
  10.000   0.5700   0.10359   0.09767   0.0184  0.1625  1.0000  -1.3839   0.0000   0.0000   0.0000   0.2091
  10.100   0.5844   0.10483   0.09891   0.0209  0.1587  1.0000  -1.4501   0.0000   0.0000   0.0000   0.2057
  10.200   0.5894   0.11557   0.10956   0.0252  0.1500  1.0000  -1.4786   0.0000   0.0000   0.0000   0.1990
  10.300   0.5845   0.11717   0.11116   0.0239  0.1498  1.0000  -1.4584   0.0000   0.0000   0.0000   0.2005
  10.400   0.5799   0.11875   0.11273   0.0226  0.1496  1.0000  -1.4375   0.0000   0.0000   0.0000   0.2024
  10.500   0.5757   0.12014   0.11410   0.0212  0.1493  1.0000  -1.4179   0.0000   0.0000   0.0000   0.2043
  10.600   0.5717   0.12116   0.11512   0.0198  0.1489  1.0000  -1.3994   0.0000   0.0000   0.0000   0.2063
  10.700   0.5677   0.12149   0.11543   0.0183  0.1479  1.0000  -1.3811   0.0000   0.0000   0.0000   0.2085
  10.800   0.5634   0.12087   0.11479   0.0162  0.1454  1.0000  -1.3604   0.0000   0.0000   0.0000   0.2115
  10.900   0.5575   0.12122   0.11512   0.0143  0.1426  1.0000  -1.3321   0.0000   0.0000   0.0000   0.2144
  11.000   0.5531   0.12218   0.11605   0.0128  0.1398  1.0000  -1.3092   0.0000   0.0000   0.0000   0.2167
  11.100   0.5502   0.12341   0.11727   0.0117  0.1370  1.0000  -1.2929   0.0000   0.0000   0.0000   0.2184
  11.200   0.5482   0.12479   0.11863   0.0108  0.1343  1.0000  -1.2816   0.0000   0.0000   0.0000   0.2198
  11.300   0.5471   0.12623   0.12007   0.0101  0.1316  1.0000  -1.2741   0.0000   0.0000   0.0000   0.2209
  11.400   0.5466   0.12771   0.12153   0.0096  0.1289  1.0000  -1.2699   0.0000   0.0000   0.0000   0.2217
  11.500   0.5466   0.12919   0.12300   0.0091  0.1263  1.0000  -1.2687   0.0000   0.0000   0.0000   0.2225
  11.600   0.5472   0.13066   0.12447   0.0087  0.1238  1.0000  -1.2705   0.0000   0.0000   0.0000   0.2230
  11.700   0.5483   0.13213   0.12592   0.0085  0.1214  1.0000  -1.2755   0.0000   0.0000   0.0000   0.2234
  11.800   0.5500   0.13359   0.12737   0.0084  0.1189  1.0000  -1.2843   0.0000   0.0000   0.0000   0.2235
  11.900   0.5526   0.13505   0.12882   0.0084  0.1166  1.0000  -1.2977   0.0000   0.0000   0.0000   0.2235
  12.000   0.5561   0.13652   0.13029   0.0086  0.1142  1.0000  -1.3172   0.0000   0.0000   0.0000   0.2231
  12.100   0.5613   0.13806   0.13182   0.0092  0.1118  1.0000  -1.3468   0.0000   0.0000   0.0000   0.2222
  12.200   0.5690   0.13978   0.13353   0.0102  0.1092  1.0000  -1.3911   0.0000   0.0000   0.0000   0.2205
  12.300   0.5798   0.14209   0.13585   0.0121  0.1063  1.0000  -1.4568   0.0000   0.0000   0.0000   0.2176
  12.400   0.5849   0.14651   0.14027   0.0136  0.1032  1.0000  -1.4918   0.0000   0.0000   0.0000   0.2153
  12.900   0.5676   0.16156   0.15521   0.0084  0.0993  1.0000  -1.3484   0.0000   0.0000   0.0000   0.2231
  13.000   0.5678   0.16201   0.15565   0.0075  0.0988  1.0000  -1.3429   0.0000   0.0000   0.0000   0.2245
  13.100   0.5683   0.16191   0.15554   0.0065  0.0980  1.0000  -1.3388   0.0000   0.0000   0.0000   0.2261
  13.200   0.5694   0.16140   0.15502   0.0053  0.0966  1.0000  -1.3349   0.0000   0.0000   0.0000   0.2280
  13.300   0.5689   0.16129   0.15490   0.0040  0.0950  1.0000  -1.3222   0.0000   0.0000   0.0000   0.2301
  13.400   0.5686   0.16165   0.15525   0.0027  0.0933  1.0000  -1.3088   0.0000   0.0000   0.0000   0.2321
  13.500   0.5685   0.16238   0.15596   0.0016  0.0915  1.0000  -1.2976   0.0000   0.0000   0.0000   0.2339
  13.600   0.5691   0.16335   0.15693   0.0007  0.0898  1.0000  -1.2906   0.0000   0.0000   0.0000   0.2353
  13.700   0.5702   0.16449   0.15806  -0.0001  0.0881  1.0000  -1.2879   0.0000   0.0000   0.0000   0.2365
  13.800   0.5717   0.16571   0.15927  -0.0007  0.0864  1.0000  -1.2893   0.0000   0.0000   0.0000   0.2374
  13.900   0.5738   0.16701   0.16057  -0.0011  0.0848  1.0000  -1.2955   0.0000   0.0000   0.0000   0.2381
  14.000   0.5765   0.16839   0.16194  -0.0014  0.0832  1.0000  -1.3076   0.0000   0.0000   0.0000   0.2384
  14.100   0.5835   0.16995   0.16349  -0.0006  0.0802  1.0000  -1.3604   0.0000   0.0000   0.0000   0.2371
  14.200   0.6028   0.17990   0.17341   0.0047  0.0748  1.0000  -1.5164   0.0000   0.0000   0.0000   0.2285
  14.300   0.6023   0.18078   0.17428   0.0035  0.0746  1.0000  -1.4984   0.0000   0.0000   0.0000   0.2303
  14.400   0.6008   0.18148   0.17497   0.0021  0.0744  1.0000  -1.4745   0.0000   0.0000   0.0000   0.2324
  14.500   0.5988   0.18200   0.17548   0.0006  0.0741  1.0000  -1.4472   0.0000   0.0000   0.0000   0.2347
  14.600   0.5969   0.18229   0.17576  -0.0010  0.0737  1.0000  -1.4176   0.0000   0.0000   0.0000   0.2372
  14.700   0.5951   0.18241   0.17588  -0.0027  0.0731  1.0000  -1.3855   0.0000   0.0000   0.0000   0.2399
  14.800   0.5928   0.18253   0.17598  -0.0044  0.0722  1.0000  -1.3520   0.0000   0.0000   0.0000   0.2426
  14.900   0.5909   0.18262   0.17606  -0.0059  0.0711  1.0000  -1.3231   0.0000   0.0000   0.0000   0.2449
  15.000   0.5903   0.18308   0.17652  -0.0072  0.0696  1.0000  -1.3023   0.0000   0.0000   0.0000   0.2469
  15.100   0.5909   0.18396   0.17739  -0.0082  0.0678  1.0000  -1.2904   0.0000   0.0000   0.0000   0.2485
  15.200   0.5922   0.18507   0.17849  -0.0091  0.0658  1.0000  -1.2856   0.0000   0.0000   0.0000   0.2497
  15.300   0.5940   0.18628   0.17970  -0.0098  0.0639  1.0000  -1.2862   0.0000   0.0000   0.0000   0.2507
  15.400   0.5960   0.18755   0.18096  -0.0103  0.0620  1.0000  -1.2918   0.0000   0.0000   0.0000   0.2515
  15.500   0.5985   0.18885   0.18226  -0.0108  0.0601  1.0000  -1.3029   0.0000   0.0000   0.0000   0.2520
  15.600   0.6014   0.19020   0.18360  -0.0111  0.0582  1.0000  -1.3216   0.0000   0.0000   0.0000   0.2523
  15.700   0.6053   0.19170   0.18509  -0.0110  0.0562  1.0000  -1.3543   0.0000   0.0000   0.0000   0.2520
  15.800   0.6156   0.19483   0.18822  -0.0092  0.0531  1.0000  -1.4622   0.0000   0.0000   0.0000   0.2488
  16.100   0.6249   0.20916   0.20249  -0.0082  0.0498  1.0000  -1.5019   0.0000   0.0000   0.0000   0.2469
  16.200   0.6264   0.21008   0.20340  -0.0092  0.0497  1.0000  -1.4924   0.0000   0.0000   0.0000   0.2482
  16.300   0.6278   0.21090   0.20422  -0.0101  0.0495  1.0000  -1.4828   0.0000   0.0000   0.0000   0.2496
  16.400   0.6292   0.21156   0.20488  -0.0112  0.0493  1.0000  -1.4721   0.0000   0.0000   0.0000   0.2511
  16.500   0.6298   0.21199   0.20529  -0.0124  0.0491  1.0000  -1.4549   0.0000   0.0000   0.0000   0.2528
  16.600   0.6302   0.21221   0.20551  -0.0137  0.0488  1.0000  -1.4356   0.0000   0.0000   0.0000   0.2546
  16.700   0.6300   0.21220   0.20549  -0.0150  0.0484  1.0000  -1.4129   0.0000   0.0000   0.0000   0.2565
  16.800   0.6294   0.21208   0.20537  -0.0164  0.0479  1.0000  -1.3883   0.0000   0.0000   0.0000   0.2586
  16.900   0.6295   0.21217   0.20546  -0.0178  0.0472  1.0000  -1.3642   0.0000   0.0000   0.0000   0.2606
  17.000   0.6304   0.21267   0.20595  -0.0192  0.0462  1.0000  -1.3438   0.0000   0.0000   0.0000   0.2625
  17.100   0.6321   0.21362   0.20690  -0.0203  0.0451  1.0000  -1.3296   0.0000   0.0000   0.0000   0.2641
  17.200   0.6340   0.21486   0.20814  -0.0213  0.0439  1.0000  -1.3210   0.0000   0.0000   0.0000   0.2653
  17.300   0.6362   0.21625   0.20953  -0.0221  0.0427  1.0000  -1.3162   0.0000   0.0000   0.0000   0.2664
  17.400   0.6384   0.21773   0.21100  -0.0229  0.0415  1.0000  -1.3140   0.0000   0.0000   0.0000   0.2673
  17.500   0.6406   0.21924   0.21251  -0.0236  0.0403  1.0000  -1.3137   0.0000   0.0000   0.0000   0.2682
  17.600   0.6429   0.22077   0.21405  -0.0243  0.0392  1.0000  -1.3149   0.0000   0.0000   0.0000   0.2690
  17.700   0.6452   0.22232   0.21559  -0.0250  0.0382  1.0000  -1.3175   0.0000   0.0000   0.0000   0.2698
  17.800   0.6476   0.22388   0.21715  -0.0256  0.0371  1.0000  -1.3213   0.0000   0.0000   0.0000   0.2705
  17.900   0.6499   0.22544   0.21870  -0.0262  0.0361  1.0000  -1.3265   0.0000   0.0000   0.0000   0.2712
  18.000   0.6523   0.22700   0.22027  -0.0268  0.0351  1.0000  -1.3331   0.0000   0.0000   0.0000   0.2718
  18.100   0.6547   0.22857   0.22183  -0.0274  0.0342  1.0000  -1.3413   0.0000   0.0000   0.0000   0.2724
  18.200   0.6572   0.23014   0.22340  -0.0279  0.0333  1.0000  -1.3512   0.0000   0.0000   0.0000   0.2729
  18.300   0.6597   0.23172   0.22497  -0.0284  0.0324  1.0000  -1.3633   0.0000   0.0000   0.0000   0.2734
  18.400   0.6622   0.23331   0.22656  -0.0289  0.0316  1.0000  -1.3778   0.0000   0.0000   0.0000   0.2738
  18.500   0.6648   0.23492   0.22817  -0.0293  0.0307  1.0000  -1.3956   0.0000   0.0000   0.0000   0.2741
  18.600   0.6676   0.23658   0.22982  -0.0296  0.0299  1.0000  -1.4176   0.0000   0.0000   0.0000   0.2743
  18.700   0.6705   0.23834   0.23158  -0.0298  0.0291  1.0000  -1.4455   0.0000   0.0000   0.0000   0.2743
  18.800   0.6738   0.24030   0.23354  -0.0299  0.0283  1.0000  -1.4821   0.0000   0.0000   0.0000   0.2740
  18.900   0.6780   0.24287   0.23610  -0.0295  0.0275  1.0000  -1.5354   0.0000   0.0000   0.0000   0.2731
  19.300   0.6862   0.26162   0.25479  -0.0297  0.0249  1.0000  -1.5183   0.0000   0.0000   0.0000   0.2728
  19.400   0.6879   0.26276   0.25593  -0.0305  0.0248  1.0000  -1.5129   0.0000   0.0000   0.0000   0.2737
  19.500   0.6896   0.26383   0.25700  -0.0314  0.0248  1.0000  -1.5077   0.0000   0.0000   0.0000   0.2747
  19.600   0.6914   0.26481   0.25798  -0.0322  0.0247  1.0000  -1.5028   0.0000   0.0000   0.0000   0.2756
  19.700   0.6931   0.26563   0.25880  -0.0331  0.0245  1.0000  -1.4977   0.0000   0.0000   0.0000   0.2766
  19.800   0.6947   0.26629   0.25946  -0.0340  0.0244  1.0000  -1.4923   0.0000   0.0000   0.0000   0.2776
  19.900   0.6962   0.26675   0.25993  -0.0350  0.0242  1.0000  -1.4848   0.0000   0.0000   0.0000   0.2788
  20.000   0.6969   0.26700   0.26018  -0.0362  0.0240  1.0000  -1.4690   0.0000   0.0000   0.0000   0.2802
  20.100   0.6979   0.26731   0.26048  -0.0374  0.0237  1.0000  -1.4527   0.0000   0.0000   0.0000   0.2816
  20.200   0.6994   0.26779   0.26097  -0.0386  0.0233  1.0000  -1.4364   0.0000   0.0000   0.0000   0.2830
  20.300   0.7013   0.26855   0.26173  -0.0397  0.0229  1.0000  -1.4209   0.0000   0.0000   0.0000   0.2844
  20.400   0.7035   0.26963   0.26281  -0.0408  0.0224  1.0000  -1.4075   0.0000   0.0000   0.0000   0.2855
  20.500   0.7058   0.27096   0.26414  -0.0417  0.0220  1.0000  -1.3970   0.0000   0.0000   0.0000   0.2865
  20.600   0.7081   0.27247   0.26566  -0.0426  0.0215  1.0000  -1.3890   0.0000   0.0000   0.0000   0.2874
  20.700   0.7103   0.27409   0.26728  -0.0434  0.0210  1.0000  -1.3831   0.0000   0.0000   0.0000   0.2882
  20.800   0.7125   0.27578   0.26898  -0.0441  0.0206  1.0000  -1.3789   0.0000   0.0000   0.0000   0.2889
  20.900   0.7147   0.27751   0.27071  -0.0448  0.0202  1.0000  -1.3761   0.0000   0.0000   0.0000   0.2895
  21.000   0.7168   0.27926   0.27247  -0.0455  0.0198  1.0000  -1.3743   0.0000   0.0000   0.0000   0.2901
  21.100   0.7188   0.28103   0.27425  -0.0461  0.0194  1.0000  -1.3735   0.0000   0.0000   0.0000   0.2907
  21.200   0.7208   0.28282   0.27603  -0.0468  0.0190  1.0000  -1.3734   0.0000   0.0000   0.0000   0.2913
  21.300   0.7228   0.28461   0.27783  -0.0474  0.0186  1.0000  -1.3740   0.0000   0.0000   0.0000   0.2918
  21.400   0.7247   0.28640   0.27962  -0.0480  0.0183  1.0000  -1.3753   0.0000   0.0000   0.0000   0.2924
  21.500   0.7266   0.28820   0.28143  -0.0486  0.0179  1.0000  -1.3772   0.0000   0.0000   0.0000   0.2929
  21.600   0.7285   0.29000   0.28323  -0.0492  0.0176  1.0000  -1.3797   0.0000   0.0000   0.0000   0.2934
  21.700   0.7303   0.29179   0.28503  -0.0498  0.0173  1.0000  -1.3829   0.0000   0.0000   0.0000   0.2939
  22.000   0.7341   0.30078   0.29415  -0.0515  0.0365  1.0000  -1.2285   0.0000   0.0000   0.0000   0.2959
  22.100   0.7353   0.30333   0.29667  -0.0521  0.0397  1.0000  -1.2100   0.0000   0.0000   0.0000   0.2964
  22.200   0.7363   0.30594   0.29926  -0.0524  0.0429  1.0000  -1.2008   0.0000   0.0000   0.0000   0.2967
  22.300   0.7369   0.30907   0.30237  -0.0524  0.0458  1.0000  -1.2028   0.0000   0.0000   0.0000   0.2966
  22.400   0.7380   0.31465   0.30794  -0.0516  0.0479  1.0000  -1.2245   0.0000   0.0000   0.0000   0.2954
  22.500   0.7397   0.31792   0.31121  -0.0517  0.0482  1.0000  -1.2300   0.0000   0.0000   0.0000   0.2954
  22.600   0.7407   0.31938   0.31266  -0.0524  0.0481  1.0000  -1.2245   0.0000   0.0000   0.0000   0.2961
  22.700   0.7415   0.32015   0.31344  -0.0532  0.0478  1.0000  -1.2149   0.0000   0.0000   0.0000   0.2970
  22.800   0.7425   0.32071   0.31400  -0.0542  0.0473  1.0000  -1.2036   0.0000   0.0000   0.0000   0.2980
  22.900   0.7438   0.32142   0.31471  -0.0552  0.0465  1.0000  -1.1933   0.0000   0.0000   0.0000   0.2991
  23.000   0.7452   0.32248   0.31578  -0.0561  0.0454  1.0000  -1.1858   0.0000   0.0000   0.0000   0.2999
  23.100   0.7467   0.32384   0.31715  -0.0568  0.0441  1.0000  -1.1813   0.0000   0.0000   0.0000   0.3006
  23.200   0.7479   0.32536   0.31867  -0.0575  0.0427  1.0000  -1.1789   0.0000   0.0000   0.0000   0.3012
  23.300   0.7491   0.32695   0.32027  -0.0580  0.0413  1.0000  -1.1782   0.0000   0.0000   0.0000   0.3017
  23.400   0.7501   0.32857   0.32189  -0.0585  0.0399  1.0000  -1.1788   0.0000   0.0000   0.0000   0.3022
  23.500   0.7510   0.33019   0.32352  -0.0590  0.0386  1.0000  -1.1805   0.0000   0.0000   0.0000   0.3026
  23.600   0.7518   0.33180   0.32514  -0.0595  0.0373  1.0000  -1.1833   0.0000   0.0000   0.0000   0.3029
  23.700   0.7510   0.33504   0.32844  -0.0594  0.0446  1.0000  -1.1650   0.0000   0.0000   0.0000   0.3029
  23.800   0.7521   0.33620   0.32961  -0.0601  0.0421  1.0000  -1.1621   0.0000   0.0000   0.0000   0.3036
  23.900   0.7529   0.33749   0.33090  -0.0606  0.0392  1.0000  -1.1655   0.0000   0.0000   0.0000   0.3041
  24.000   0.7536   0.33882   0.33224  -0.0610  0.0366  1.0000  -1.1734   0.0000   0.0000   0.0000   0.3044
  24.100   0.7540   0.34015   0.33358  -0.0613  0.0343  1.0000  -1.1854   0.0000   0.0000   0.0000   0.3046
  24.200   0.7544   0.34149   0.33492  -0.0615  0.0324  1.0000  -1.2020   0.0000   0.0000   0.0000   0.3046
  24.300   0.7546   0.34286   0.33630  -0.0615  0.0307  1.0000  -1.2257   0.0000   0.0000   0.0000   0.3045
  24.400   0.7549   0.34443   0.33787  -0.0612  0.0292  1.0000  -1.2596   0.0000   0.0000   0.0000   0.3041
  24.500   0.7559   0.34693   0.34037  -0.0604  0.0277  1.0000  -1.3173   0.0000   0.0000   0.0000   0.3029


