xflr5 v6.61

 Calculated polar for: NACA 65(1)-212

 1 1 Reynolds number fixed          Mach number fixed         

 xtrf =   1.000 (top)        1.000 (bottom)
 Mach =   0.000     Re =     1.000 e 6     Ncrit =   9.000

  alpha     CL        CD       CDp       Cm    Top Xtr Bot Xtr   Cpmin    Chinge    XCp    
 ------- -------- --------- --------- -------- ------- ------- -------- --------- ---------
 -10.000  -0.8364   0.01613   0.01084  -0.0475  0.9687  0.0062  -7.9075   0.0000   0.0000   0.0000   0.1836
  -9.900  -0.8257   0.01590   0.01062  -0.0478  0.9653  0.0064  -7.7434   0.0000   0.0000   0.0000   0.1826
  -9.800  -0.8144   0.01575   0.01047  -0.0481  0.9615  0.0065  -7.5754   0.0000   0.0000   0.0000   0.1815
  -9.700  -0.8031   0.01564   0.01038  -0.0484  0.9571  0.0066  -7.4081   0.0000   0.0000   0.0000   0.1804
  -9.600  -0.7920   0.01556   0.01031  -0.0487  0.9521  0.0067  -7.2440   0.0000   0.0000   0.0000   0.1793
  -9.500  -0.7832   0.01548   0.01025  -0.0485  0.9493  0.0068  -7.0988   0.0000   0.0000   0.0000   0.1791
  -9.400  -0.7755   0.01541   0.01018  -0.0480  0.9477  0.0069  -6.9638   0.0000   0.0000   0.0000   0.1792
  -9.300  -0.7677   0.01534   0.01012  -0.0475  0.9456  0.0071  -6.8300   0.0000   0.0000   0.0000   0.1794
  -9.200  -0.7598   0.01527   0.01006  -0.0470  0.9431  0.0072  -6.6978   0.0000   0.0000   0.0000   0.1795
  -9.100  -0.7518   0.01520   0.00999  -0.0465  0.9402  0.0073  -6.5670   0.0000   0.0000   0.0000   0.1795
  -9.000  -0.7435   0.01513   0.00992  -0.0461  0.9369  0.0075  -6.4369   0.0000   0.0000   0.0000   0.1795
  -8.900  -0.7351   0.01506   0.00985  -0.0457  0.9334  0.0076  -6.3084   0.0000   0.0000   0.0000   0.1794
  -8.800  -0.7266   0.01499   0.00978  -0.0453  0.9297  0.0077  -6.1812   0.0000   0.0000   0.0000   0.1794
  -8.700  -0.7181   0.01494   0.00972  -0.0449  0.9256  0.0079  -6.0552   0.0000   0.0000   0.0000   0.1793
  -8.600  -0.7095   0.01489   0.00967  -0.0446  0.9213  0.0080  -5.9298   0.0000   0.0000   0.0000   0.1791
  -8.500  -0.7007   0.01486   0.00962  -0.0442  0.9164  0.0081  -5.8044   0.0000   0.0000   0.0000   0.1790
  -8.400  -0.6917   0.01485   0.00960  -0.0439  0.9108  0.0082  -5.6772   0.0000   0.0000   0.0000   0.1787
  -8.300  -0.6820   0.01485   0.00959  -0.0438  0.9049  0.0082  -5.5465   0.0000   0.0000   0.0000   0.1781
  -8.200  -0.6718   0.01487   0.00961  -0.0437  0.9001  0.0083  -5.4133   0.0000   0.0000   0.0000   0.1773
  -8.100  -0.6619   0.01488   0.00963  -0.0436  0.8990  0.0084  -5.2808   0.0000   0.0000   0.0000   0.1766
  -8.000  -0.6517   0.01492   0.00968  -0.0435  0.8976  0.0084  -5.1466   0.0000   0.0000   0.0000   0.1757
  -7.900  -0.6483   0.01407   0.00874  -0.0424  0.8953  0.0089  -5.1451   0.0000   0.0000   0.0000   0.1772
  -7.800  -0.6409   0.01374   0.00840  -0.0419  0.8930  0.0092  -5.0703   0.0000   0.0000   0.0000   0.1773
  -7.700  -0.6322   0.01357   0.00823  -0.0416  0.8905  0.0094  -4.9714   0.0000   0.0000   0.0000   0.1770
  -7.600  -0.6227   0.01350   0.00817  -0.0415  0.8878  0.0097  -4.8550   0.0000   0.0000   0.0000   0.1763
  -7.500  -0.6124   0.01353   0.00823  -0.0414  0.8851  0.0099  -4.7182   0.0000   0.0000   0.0000   0.1753
  -7.400  -0.6009   0.01376   0.00852  -0.0417  0.8823  0.0103  -4.5406   0.0000   0.0000   0.0000   0.1738
  -7.300  -0.5860   0.01472   0.00961  -0.0425  0.8796  0.0112  -4.2256   0.0000   0.0000   0.0000   0.1708
  -7.200  -0.5768   0.01461   0.00948  -0.0422  0.8761  0.0113  -4.1363   0.0000   0.0000   0.0000   0.1701
  -7.100  -0.5676   0.01450   0.00934  -0.0420  0.8725  0.0115  -4.0498   0.0000   0.0000   0.0000   0.1695
  -7.000  -0.5584   0.01438   0.00919  -0.0417  0.8685  0.0116  -3.9655   0.0000   0.0000   0.0000   0.1688
  -6.900  -0.5492   0.01426   0.00904  -0.0415  0.8640  0.0118  -3.8827   0.0000   0.0000   0.0000   0.1681
  -6.800  -0.5398   0.01413   0.00888  -0.0412  0.8590  0.0119  -3.8013   0.0000   0.0000   0.0000   0.1672
  -6.700  -0.5302   0.01400   0.00873  -0.0411  0.8539  0.0120  -3.7206   0.0000   0.0000   0.0000   0.1662
  -6.600  -0.5204   0.01387   0.00858  -0.0410  0.8502  0.0121  -3.6407   0.0000   0.0000   0.0000   0.1650
  -6.500  -0.5105   0.01372   0.00842  -0.0409  0.8493  0.0123  -3.5618   0.0000   0.0000   0.0000   0.1638
  -6.400  -0.5006   0.01357   0.00826  -0.0408  0.8482  0.0124  -3.4839   0.0000   0.0000   0.0000   0.1624
  -6.300  -0.4907   0.01342   0.00810  -0.0407  0.8469  0.0125  -3.4070   0.0000   0.0000   0.0000   0.1611
  -6.200  -0.4808   0.01327   0.00794  -0.0406  0.8454  0.0126  -3.3309   0.0000   0.0000   0.0000   0.1596
  -6.100  -0.4708   0.01313   0.00779  -0.0405  0.8436  0.0127  -3.2555   0.0000   0.0000   0.0000   0.1581
  -6.000  -0.4608   0.01300   0.00764  -0.0404  0.8415  0.0128  -3.1807   0.0000   0.0000   0.0000   0.1565
  -5.900  -0.4508   0.01286   0.00750  -0.0403  0.8392  0.0129  -3.1067   0.0000   0.0000   0.0000   0.1548
  -5.800  -0.4408   0.01273   0.00735  -0.0402  0.8367  0.0130  -3.0341   0.0000   0.0000   0.0000   0.1531
  -5.700  -0.4309   0.01258   0.00718  -0.0400  0.8340  0.0130  -2.9659   0.0000   0.0000   0.0000   0.1513
  -5.600  -0.4225   0.01217   0.00671  -0.0396  0.8311  0.0130  -2.9437   0.0000   0.0000   0.0000   0.1505
  -5.500  -0.4123   0.01209   0.00661  -0.0396  0.8281  0.0131  -2.8663   0.0000   0.0000   0.0000   0.1484
  -5.400  -0.4020   0.01204   0.00654  -0.0395  0.8250  0.0132  -2.7861   0.0000   0.0000   0.0000   0.1461
  -5.300  -0.3914   0.01203   0.00652  -0.0395  0.8217  0.0133  -2.7009   0.0000   0.0000   0.0000   0.1436
  -5.200  -0.3804   0.01210   0.00658  -0.0395  0.8180  0.0134  -2.6056   0.0000   0.0000   0.0000   0.1405
  -5.100  -0.3685   0.01237   0.00686  -0.0398  0.8139  0.0135  -2.4872   0.0000   0.0000   0.0000   0.1366
  -5.000  -0.3616   0.01165   0.00605  -0.0391  0.8091  0.0138  -2.4875   0.0000   0.0000   0.0000   0.1364
  -4.900  -0.3545   0.01105   0.00537  -0.0385  0.8041  0.0143  -2.4784   0.0000   0.0000   0.0000   0.1359
  -4.800  -0.3468   0.01058   0.00481  -0.0382  0.8004  0.0179  -2.3874   0.0000   0.0000   0.0000   0.1344
  -4.700  -0.3370   0.01034   0.00453  -0.0381  0.7996  0.0179  -2.3500   0.0000   0.0000   0.0000   0.1317
  -4.600  -0.3270   0.01012   0.00428  -0.0379  0.7988  0.0178  -2.3108   0.0000   0.0000   0.0000   0.1287
  -4.500  -0.3169   0.00992   0.00405  -0.0378  0.7978  0.0178  -2.2701   0.0000   0.0000   0.0000   0.1254
  -4.400  -0.3067   0.00974   0.00384  -0.0377  0.7966  0.0179  -2.2275   0.0000   0.0000   0.0000   0.1217
  -4.300  -0.2963   0.00957   0.00365  -0.0377  0.7952  0.0179  -2.1837   0.0000   0.0000   0.0000   0.1176
  -4.200  -0.2858   0.00941   0.00346  -0.0376  0.7937  0.0180  -2.1389   0.0000   0.0000   0.0000   0.1131
  -4.100  -0.2752   0.00927   0.00330  -0.0376  0.7920  0.0181  -2.0936   0.0000   0.0000   0.0000   0.1082
  -4.000  -0.2646   0.00914   0.00314  -0.0375  0.7901  0.0183  -2.0479   0.0000   0.0000   0.0000   0.1027
  -3.900  -0.2539   0.00902   0.00299  -0.0375  0.7880  0.0185  -2.0021   0.0000   0.0000   0.0000   0.0968
  -3.800  -0.2431   0.00890   0.00285  -0.0375  0.7857  0.0188  -1.9563   0.0000   0.0000   0.0000   0.0903
  -3.700  -0.2323   0.00880   0.00272  -0.0375  0.7834  0.0192  -1.9105   0.0000   0.0000   0.0000   0.0831
  -3.600  -0.2215   0.00870   0.00260  -0.0375  0.7810  0.0198  -1.8649   0.0000   0.0000   0.0000   0.0751
  -3.500  -0.2107   0.00860   0.00248  -0.0375  0.7784  0.0207  -1.8199   0.0000   0.0000   0.0000   0.0664
  -3.400  -0.1999   0.00852   0.00238  -0.0375  0.7756  0.0221  -1.7755   0.0000   0.0000   0.0000   0.0566
  -3.300  -0.1890   0.00845   0.00228  -0.0375  0.7726  0.0239  -1.7287   0.0000   0.0000   0.0000   0.0457
  -3.200  -0.1781   0.00840   0.00221  -0.0376  0.7692  0.0252  -1.6732   0.0000   0.0000   0.0000   0.0332
  -3.100  -0.1671   0.00838   0.00218  -0.0377  0.7653  0.0258  -1.6114   0.0000   0.0000   0.0000   0.0188
  -3.000  -0.1561   0.00837   0.00215  -0.0377  0.7609  0.0261  -1.5483   0.0000   0.0000   0.0000   0.0022
  -2.900  -0.1452   0.00825   0.00196  -0.0377  0.7564  0.0341  -1.5234   0.0000   0.0000   0.0000  -0.0160
  -2.800  -0.1342   0.00818   0.00191  -0.0378  0.7520  0.0431  -1.4726   0.0000   0.0000   0.0000  -0.0379
  -2.700  -0.1231   0.00810   0.00187  -0.0379  0.7502  0.0489  -1.4155   0.0000   0.0000   0.0000  -0.0644
  -2.600  -0.1124   0.00792   0.00178  -0.0380  0.7495  0.0715  -1.3592   0.0000   0.0000   0.0000  -0.0948
  -2.500  -0.1020   0.00767   0.00169  -0.0381  0.7488  0.1104  -1.3044   0.0000   0.0000   0.0000  -0.1305
  -2.400  -0.0917   0.00739   0.00160  -0.0382  0.7479  0.1599  -1.2498   0.0000   0.0000   0.0000  -0.1745
  -2.300  -0.0819   0.00697   0.00147  -0.0383  0.7470  0.2388  -1.1975   0.0000   0.0000   0.0000  -0.2265
  -2.200  -0.0717   0.00662   0.00137  -0.0385  0.7459  0.3086  -1.1441   0.0000   0.0000   0.0000  -0.2959
  -2.100  -0.0617   0.00623   0.00125  -0.0387  0.7447  0.3848  -1.0916   0.0000   0.0000   0.0000  -0.3866
  -2.000  -0.0516   0.00586   0.00117  -0.0388  0.7433  0.4643  -1.0389   0.0000   0.0000   0.0000  -0.5140
  -1.900  -0.0410   0.00563   0.00113  -0.0390  0.7419  0.5161  -0.9849   0.0000   0.0000   0.0000  -0.7143
  -1.800  -0.0299   0.00553   0.00112  -0.0391  0.7403  0.5427  -0.9301   0.0000   0.0000   0.0000  -1.0749
  -1.700  -0.0184   0.00551   0.00111  -0.0392  0.7385  0.5525  -0.8752   0.0000   0.0000   0.0000  -1.9000
  -1.600  -0.0073   0.00543   0.00111  -0.0393  0.7367  0.5718  -0.8217   0.0000   0.0000   0.0000  -5.1935
  -1.500   0.0040   0.00539   0.00110  -0.0394  0.7347  0.5856  -0.7685   0.0000   0.0000   0.0000  10.3076
  -1.400   0.0153   0.00537   0.00110  -0.0395  0.7327  0.5957  -0.7157   0.0000   0.0000   0.0000   2.8526
  -1.300   0.0267   0.00536   0.00109  -0.0396  0.7306  0.6055  -0.6637   0.0000   0.0000   0.0000   1.7474
  -1.200   0.0377   0.00530   0.00111  -0.0397  0.7284  0.6241  -0.6132   0.0000   0.0000   0.0000   1.3101
  -1.100   0.0488   0.00527   0.00112  -0.0397  0.7261  0.6370  -0.5630   0.0000   0.0000   0.0000   1.0687
  -1.000   0.0602   0.00528   0.00113  -0.0398  0.7237  0.6445  -0.5133   0.0000   0.0000   0.0000   0.9155
  -0.900   0.0716   0.00531   0.00113  -0.0399  0.7211  0.6481  -0.4641   0.0000   0.0000   0.0000   0.8104
  -0.800   0.0830   0.00533   0.00113  -0.0400  0.7183  0.6512  -0.4201   0.0000   0.0000   0.0000   0.7343
  -0.700   0.0942   0.00531   0.00114  -0.0401  0.7150  0.6599  -0.4250   0.0000   0.0000   0.0000   0.6772
  -0.600   0.1054   0.00531   0.00115  -0.0402  0.7114  0.6677  -0.4299   0.0000   0.0000   0.0000   0.6322
  -0.500   0.1167   0.00532   0.00117  -0.0403  0.7076  0.6737  -0.4347   0.0000   0.0000   0.0000   0.5958
  -0.400   0.1280   0.00533   0.00120  -0.0404  0.7037  0.6788  -0.4395   0.0000   0.0000   0.0000   0.5658
  -0.300   0.1394   0.00535   0.00123  -0.0405  0.7004  0.6830  -0.4444   0.0000   0.0000   0.0000   0.5406
  -0.200   0.1509   0.00535   0.00124  -0.0406  0.6999  0.6870  -0.4495   0.0000   0.0000   0.0000   0.5190
  -0.100   0.1624   0.00535   0.00125  -0.0407  0.6994  0.6908  -0.4545   0.0000   0.0000   0.0000   0.5005
   0.000   0.1739   0.00535   0.00125  -0.0409  0.6985  0.6938  -0.4600   0.0000   0.0000   0.0000   0.4844
   0.100   0.1854   0.00535   0.00126  -0.0410  0.6973  0.6961  -0.4658   0.0000   0.0000   0.0000   0.4702
   0.200   0.1969   0.00536   0.00127  -0.0411  0.6956  0.6978  -0.4716   0.0000   0.0000   0.0000   0.4577
   0.300   0.2083   0.00536   0.00128  -0.0412  0.6928  0.6990  -0.4774   0.0000   0.0000   0.0000   0.4466
   0.400   0.2197   0.00535   0.00126  -0.0412  0.6890  0.7024  -0.4832   0.0000   0.0000   0.0000   0.4366
   0.500   0.2308   0.00532   0.00124  -0.0413  0.6838  0.7087  -0.4889   0.0000   0.0000   0.0000   0.4276
   0.600   0.2419   0.00532   0.00122  -0.0413  0.6775  0.7137  -0.4946   0.0000   0.0000   0.0000   0.4195
   0.700   0.2528   0.00534   0.00121  -0.0413  0.6700  0.7173  -0.5002   0.0000   0.0000   0.0000   0.4120
   0.800   0.2636   0.00537   0.00120  -0.0413  0.6611  0.7203  -0.5057   0.0000   0.0000   0.0000   0.4052
   0.900   0.2747   0.00540   0.00121  -0.0414  0.6525  0.7230  -0.5112   0.0000   0.0000   0.0000   0.3990
   1.000   0.2861   0.00540   0.00122  -0.0415  0.6494  0.7254  -0.5170   0.0000   0.0000   0.0000   0.3933
   1.100   0.2975   0.00539   0.00122  -0.0416  0.6472  0.7276  -0.5228   0.0000   0.0000   0.0000   0.3880
   1.200   0.3089   0.00538   0.00123  -0.0417  0.6442  0.7298  -0.5548   0.0000   0.0000   0.0000   0.3832
   1.300   0.3203   0.00539   0.00124  -0.0418  0.6403  0.7319  -0.6084   0.0000   0.0000   0.0000   0.3786
   1.400   0.3316   0.00540   0.00124  -0.0419  0.6359  0.7340  -0.6627   0.0000   0.0000   0.0000   0.3744
   1.500   0.3428   0.00542   0.00125  -0.0420  0.6300  0.7359  -0.7176   0.0000   0.0000   0.0000   0.3704
   1.600   0.3538   0.00546   0.00125  -0.0420  0.6220  0.7378  -0.7728   0.0000   0.0000   0.0000   0.3666
   1.700   0.3645   0.00552   0.00126  -0.0420  0.6106  0.7396  -0.8282   0.0000   0.0000   0.0000   0.3630
   1.800   0.3755   0.00557   0.00127  -0.0421  0.5993  0.7412  -0.8850   0.0000   0.0000   0.0000   0.3597
   1.900   0.3868   0.00559   0.00128  -0.0422  0.5931  0.7426  -0.9436   0.0000   0.0000   0.0000   0.3566
   2.000   0.3978   0.00565   0.00129  -0.0422  0.5793  0.7440  -1.0019   0.0000   0.0000   0.0000   0.3536
   2.100   0.4078   0.00578   0.00131  -0.0421  0.5567  0.7452  -1.0586   0.0000   0.0000   0.0000   0.3506
   2.200   0.4188   0.00584   0.00133  -0.0421  0.5449  0.7463  -1.1185   0.0000   0.0000   0.0000   0.3480
   2.300   0.4298   0.00590   0.00136  -0.0422  0.5331  0.7473  -1.1792   0.0000   0.0000   0.0000   0.3455
   2.400   0.4396   0.00606   0.00140  -0.0421  0.5069  0.7481  -1.2375   0.0000   0.0000   0.0000   0.3429
   2.500   0.4498   0.00620   0.00145  -0.0420  0.4819  0.7489  -1.2973   0.0000   0.0000   0.0000   0.3406
   2.600   0.4582   0.00652   0.00155  -0.0417  0.4304  0.7495  -1.3524   0.0000   0.0000   0.0000   0.3381
   2.700   0.4657   0.00693   0.00169  -0.0413  0.3688  0.7535  -1.4047   0.0000   0.0000   0.0000   0.3357
   2.800   0.4739   0.00724   0.00183  -0.0410  0.3208  0.7580  -1.4598   0.0000   0.0000   0.0000   0.3334
   2.900   0.4827   0.00749   0.00194  -0.0407  0.2826  0.7626  -1.5170   0.0000   0.0000   0.0000   0.3313
   3.100   0.4988   0.00810   0.00223  -0.0400  0.1943  0.7707  -1.6280   0.0000   0.0000   0.0000   0.3270
   3.200   0.5065   0.00843   0.00239  -0.0396  0.1484  0.7741  -1.6828   0.0000   0.0000   0.0000   0.3249
   3.300   0.5146   0.00872   0.00253  -0.0392  0.1149  0.7772  -1.7389   0.0000   0.0000   0.0000   0.3229
   3.400   0.5228   0.00898   0.00267  -0.0389  0.0826  0.7801  -1.7958   0.0000   0.0000   0.0000   0.3209
   3.500   0.5313   0.00923   0.00280  -0.0385  0.0602  0.7829  -1.8533   0.0000   0.0000   0.0000   0.3190
   3.600   0.5406   0.00940   0.00291  -0.0383  0.0451  0.7854  -1.9136   0.0000   0.0000   0.0000   0.3173
   3.700   0.5505   0.00951   0.00300  -0.0382  0.0390  0.7877  -1.9752   0.0000   0.0000   0.0000   0.3157
   3.800   0.5602   0.00964   0.00309  -0.0380  0.0292  0.7899  -2.0312   0.0000   0.0000   0.0000   0.3141
   3.900   0.5704   0.00974   0.00320  -0.0379  0.0227  0.7918  -2.0825   0.0000   0.0000   0.0000   0.3126
   4.000   0.5800   0.00989   0.00332  -0.0377  0.0191  0.7935  -2.1279   0.0000   0.0000   0.0000   0.3110
   4.100   0.5896   0.01004   0.00345  -0.0374  0.0168  0.7951  -2.1667   0.0000   0.0000   0.0000   0.3095
   4.200   0.5994   0.01017   0.00360  -0.0372  0.0156  0.7964  -2.2076   0.0000   0.0000   0.0000   0.3080
   4.300   0.6093   0.01030   0.00375  -0.0370  0.0150  0.7976  -2.2523   0.0000   0.0000   0.0000   0.3066
   4.400   0.6190   0.01042   0.00390  -0.0368  0.0147  0.7986  -2.2996   0.0000   0.0000   0.0000   0.3052
   4.500   0.6287   0.01056   0.00406  -0.0366  0.0145  0.7994  -2.3486   0.0000   0.0000   0.0000   0.3039
   4.600   0.6382   0.01068   0.00422  -0.0363  0.0143  0.8037  -2.3985   0.0000   0.0000   0.0000   0.3025
   4.700   0.6474   0.01080   0.00438  -0.0360  0.0142  0.8087  -2.4489   0.0000   0.0000   0.0000   0.3012
   4.800   0.6565   0.01093   0.00455  -0.0357  0.0141  0.8135  -2.4996   0.0000   0.0000   0.0000   0.2998
   4.900   0.6653   0.01106   0.00473  -0.0353  0.0141  0.8179  -2.5505   0.0000   0.0000   0.0000   0.2984
   5.000   0.6740   0.01120   0.00492  -0.0349  0.0141  0.8219  -2.6016   0.0000   0.0000   0.0000   0.2970
   5.100   0.6826   0.01136   0.00511  -0.0344  0.0140  0.8255  -2.6528   0.0000   0.0000   0.0000   0.2957
   5.200   0.6910   0.01151   0.00531  -0.0340  0.0140  0.8289  -2.7040   0.0000   0.0000   0.0000   0.2943
   5.300   0.6993   0.01168   0.00551  -0.0335  0.0140  0.8322  -2.7552   0.0000   0.0000   0.0000   0.2929
   5.400   0.7075   0.01186   0.00572  -0.0330  0.0141  0.8353  -2.8063   0.0000   0.0000   0.0000   0.2916
   5.500   0.7155   0.01204   0.00593  -0.0324  0.0141  0.8382  -2.8572   0.0000   0.0000   0.0000   0.2902
   5.600   0.7147   0.01284   0.00701  -0.0303  0.0123  0.8415  -2.8556   0.0000   0.0000   0.0000   0.2871
   5.700   0.7156   0.01358   0.00784  -0.0285  0.0118  0.8442  -2.8472   0.0000   0.0000   0.0000   0.2845
   5.800   0.7202   0.01410   0.00840  -0.0273  0.0115  0.8462  -2.8758   0.0000   0.0000   0.0000   0.2826
   5.900   0.7352   0.01366   0.00791  -0.0282  0.0113  0.8475  -3.0403   0.0000   0.0000   0.0000   0.2829
   6.000   0.7458   0.01363   0.00788  -0.0282  0.0112  0.8487  -3.1417   0.0000   0.0000   0.0000   0.2823
   6.100   0.7551   0.01370   0.00794  -0.0280  0.0111  0.8506  -3.2283   0.0000   0.0000   0.0000   0.2814
   6.200   0.7635   0.01378   0.00805  -0.0276  0.0110  0.8565  -3.3063   0.0000   0.0000   0.0000   0.2804
   6.300   0.7709   0.01392   0.00823  -0.0270  0.0109  0.8625  -3.3733   0.0000   0.0000   0.0000   0.2791
   6.400   0.7780   0.01406   0.00841  -0.0263  0.0109  0.8681  -3.4395   0.0000   0.0000   0.0000   0.2778
   6.500   0.7847   0.01421   0.00859  -0.0255  0.0108  0.8731  -3.5044   0.0000   0.0000   0.0000   0.2765
   6.600   0.7913   0.01436   0.00878  -0.0248  0.0107  0.8777  -3.5684   0.0000   0.0000   0.0000   0.2751
   6.700   0.7979   0.01453   0.00897  -0.0240  0.0107  0.8820  -3.6320   0.0000   0.0000   0.0000   0.2738
   6.800   0.8044   0.01471   0.00918  -0.0232  0.0106  0.8861  -3.6954   0.0000   0.0000   0.0000   0.2725
   6.900   0.8109   0.01489   0.00938  -0.0224  0.0106  0.8898  -3.7588   0.0000   0.0000   0.0000   0.2712
   7.000   0.8174   0.01508   0.00960  -0.0217  0.0105  0.8932  -3.8225   0.0000   0.0000   0.0000   0.2700
   7.100   0.8239   0.01528   0.00981  -0.0209  0.0104  0.8960  -3.8865   0.0000   0.0000   0.0000   0.2687
   7.200   0.8304   0.01548   0.01004  -0.0202  0.0104  0.8982  -3.9508   0.0000   0.0000   0.0000   0.2676
   7.300   0.8368   0.01569   0.01026  -0.0194  0.0103  0.9011  -4.0149   0.0000   0.0000   0.0000   0.2664
   7.400   0.8418   0.01585   0.01046  -0.0184  0.0103  0.9098  -4.0740   0.0000   0.0000   0.0000   0.2649
   7.500   0.8435   0.01598   0.01063  -0.0166  0.0102  0.9190  -4.1210   0.0000   0.0000   0.0000   0.2626
   7.600   0.8426   0.01607   0.01077  -0.0143  0.0102  0.9282  -4.1583   0.0000   0.0000   0.0000   0.2598
   7.700   0.8426   0.01620   0.01093  -0.0122  0.0101  0.9365  -4.1991   0.0000   0.0000   0.0000   0.2572
   7.800   0.8439   0.01635   0.01110  -0.0104  0.0101  0.9433  -4.2455   0.0000   0.0000   0.0000   0.2549
   7.900   0.8460   0.01652   0.01129  -0.0087  0.0100  0.9482  -4.2947   0.0000   0.0000   0.0000   0.2529
   8.000   0.8517   0.01673   0.01152  -0.0079  0.0100  0.9553  -4.3588   0.0000   0.0000   0.0000   0.2517
   8.100   0.8606   0.01698   0.01180  -0.0078  0.0099  0.9670  -4.4365   0.0000   0.0000   0.0000   0.2514
   8.200   0.8702   0.01723   0.01208  -0.0078  0.0098  0.9781  -4.5179   0.0000   0.0000   0.0000   0.2512
   8.300   0.8797   0.01749   0.01236  -0.0078  0.0097  0.9883  -4.6001   0.0000   0.0000   0.0000   0.2509
   8.400   0.8919   0.01661   0.01140  -0.0083  0.0089  1.0000  -4.8896   0.0000   0.0000   0.0000   0.2512
   8.500   0.9004   0.01657   0.01133  -0.0081  0.0087  1.0000  -5.0229   0.0000   0.0000   0.0000   0.2507
   8.600   0.9079   0.01663   0.01137  -0.0076  0.0085  1.0000  -5.1352   0.0000   0.0000   0.0000   0.2501
   8.700   0.9145   0.01673   0.01147  -0.0071  0.0084  1.0000  -5.2378   0.0000   0.0000   0.0000   0.2493
   8.800   0.9208   0.01685   0.01158  -0.0065  0.0083  1.0000  -5.3354   0.0000   0.0000   0.0000   0.2485
   8.900   0.9270   0.01699   0.01172  -0.0059  0.0082  1.0000  -5.4305   0.0000   0.0000   0.0000   0.2477
   9.000   0.9330   0.01715   0.01187  -0.0053  0.0081  1.0000  -5.5238   0.0000   0.0000   0.0000   0.2468
   9.100   0.9390   0.01732   0.01203  -0.0047  0.0080  1.0000  -5.6153   0.0000   0.0000   0.0000   0.2460
   9.200   0.9449   0.01750   0.01222  -0.0040  0.0079  1.0000  -5.7043   0.0000   0.0000   0.0000   0.2452
   9.300   0.9505   0.01771   0.01243  -0.0033  0.0078  1.0000  -5.7910   0.0000   0.0000   0.0000   0.2443
   9.400   0.9561   0.01793   0.01265  -0.0026  0.0077  1.0000  -5.8753   0.0000   0.0000   0.0000   0.2434
   9.500   0.9614   0.01817   0.01290  -0.0019  0.0076  1.0000  -5.9568   0.0000   0.0000   0.0000   0.2425
   9.600   0.9664   0.01843   0.01317  -0.0012  0.0075  1.0000  -6.0352   0.0000   0.0000   0.0000   0.2416
   9.700   0.9712   0.01872   0.01347  -0.0004  0.0074  1.0000  -6.1096   0.0000   0.0000   0.0000   0.2407
   9.800   0.9752   0.01904   0.01382   0.0005  0.0073  1.0000  -6.1771   0.0000   0.0000   0.0000   0.2397
   9.900   0.9785   0.01941   0.01421   0.0014  0.0072  1.0000  -6.2377   0.0000   0.0000   0.0000   0.2386
  10.000   0.9815   0.01982   0.01466   0.0024  0.0071  1.0000  -6.2917   0.0000   0.0000   0.0000   0.2374
  10.100   0.9841   0.02032   0.01520   0.0034  0.0070  1.0000  -6.3364   0.0000   0.0000   0.0000   0.2363
  10.200   0.9862   0.02099   0.01593   0.0045  0.0069  1.0000  -6.3620   0.0000   0.0000   0.0000   0.2351
  10.300   0.9877   0.02200   0.01703   0.0056  0.0067  1.0000  -6.3551   0.0000   0.0000   0.0000   0.2339
  10.400   0.9931   0.02212   0.01715   0.0062  0.0066  1.0000  -6.4598   0.0000   0.0000   0.0000   0.2331
  10.500   0.9986   0.02224   0.01728   0.0068  0.0066  1.0000  -6.5661   0.0000   0.0000   0.0000   0.2324
  10.600   1.0043   0.02237   0.01741   0.0074  0.0066  1.0000  -6.6737   0.0000   0.0000   0.0000   0.2317
  10.700   1.0100   0.02249   0.01754   0.0079  0.0066  1.0000  -6.7823   0.0000   0.0000   0.0000   0.2311
  10.800   1.0157   0.02263   0.01767   0.0085  0.0065  1.0000  -6.8917   0.0000   0.0000   0.0000   0.2304
  10.900   1.0213   0.02277   0.01782   0.0090  0.0065  1.0000  -7.0016   0.0000   0.0000   0.0000   0.2298
  11.000   1.0266   0.02292   0.01798   0.0096  0.0065  1.0000  -7.1089   0.0000   0.0000   0.0000   0.2291
  11.100   1.0311   0.02311   0.01817   0.0103  0.0065  1.0000  -7.2117   0.0000   0.0000   0.0000   0.2284
  11.200   1.0356   0.02330   0.01836   0.0109  0.0064  1.0000  -7.3143   0.0000   0.0000   0.0000   0.2276
  11.300   1.0403   0.02349   0.01856   0.0116  0.0064  1.0000  -7.4192   0.0000   0.0000   0.0000   0.2269
  11.400   1.0452   0.02369   0.01877   0.0121  0.0063  1.0000  -7.5264   0.0000   0.0000   0.0000   0.2263
  11.500   1.0503   0.02389   0.01897   0.0127  0.0063  1.0000  -7.6352   0.0000   0.0000   0.0000   0.2257
  11.600   1.0555   0.02409   0.01918   0.0132  0.0062  1.0000  -7.7450   0.0000   0.0000   0.0000   0.2250
  11.700   1.0607   0.02430   0.01940   0.0138  0.0062  1.0000  -7.8555   0.0000   0.0000   0.0000   0.2245
  11.800   1.0659   0.02452   0.01962   0.0143  0.0061  1.0000  -7.9664   0.0000   0.0000   0.0000   0.2239
  11.900   1.0710   0.02475   0.01986   0.0148  0.0060  1.0000  -8.0775   0.0000   0.0000   0.0000   0.2233
  12.000   1.0761   0.02498   0.02010   0.0153  0.0060  1.0000  -8.1887   0.0000   0.0000   0.0000   0.2227
  12.100   1.0768   0.02567   0.02091   0.0163  0.0061  1.0000  -8.1834   0.0000   0.0000   0.0000   0.2217
  12.200   1.0782   0.02622   0.02151   0.0172  0.0061  1.0000  -8.2198   0.0000   0.0000   0.0000   0.2207
  12.300   1.0809   0.02660   0.02192   0.0179  0.0061  1.0000  -8.2971   0.0000   0.0000   0.0000   0.2199
  12.400   1.0843   0.02693   0.02227   0.0185  0.0060  1.0000  -8.3895   0.0000   0.0000   0.0000   0.2193
  12.500   1.0883   0.02724   0.02258   0.0191  0.0060  1.0000  -8.4911   0.0000   0.0000   0.0000   0.2186
  12.600   1.0926   0.02752   0.02287   0.0196  0.0059  1.0000  -8.5991   0.0000   0.0000   0.0000   0.2181
  12.700   1.0971   0.02779   0.02315   0.0201  0.0059  1.0000  -8.7117   0.0000   0.0000   0.0000   0.2175
  12.800   1.1018   0.02806   0.02343   0.0205  0.0058  1.0000  -8.8276   0.0000   0.0000   0.0000   0.2170
  12.900   1.1064   0.02832   0.02370   0.0210  0.0057  1.0000  -8.9462   0.0000   0.0000   0.0000   0.2165
  13.000   1.1111   0.02859   0.02396   0.0214  0.0056  1.0000  -9.0670   0.0000   0.0000   0.0000   0.2160
  13.100   1.1158   0.02885   0.02423   0.0218  0.0055  1.0000  -9.1896   0.0000   0.0000   0.0000   0.2155
  13.200   1.1198   0.02915   0.02453   0.0223  0.0054  1.0000  -9.3077   0.0000   0.0000   0.0000   0.2150
  13.300   1.1229   0.02949   0.02487   0.0228  0.0054  1.0000  -9.4186   0.0000   0.0000   0.0000   0.2144
  13.400   1.1261   0.02982   0.02520   0.0233  0.0053  1.0000  -9.5326   0.0000   0.0000   0.0000   0.2139
  13.500   1.1300   0.03013   0.02551   0.0238  0.0052  1.0000  -9.6538   0.0000   0.0000   0.0000   0.2134
  13.600   1.1343   0.03042   0.02580   0.0242  0.0052  1.0000  -9.7805   0.0000   0.0000   0.0000   0.2129
  13.700   1.1389   0.03070   0.02608   0.0245  0.0051  1.0000  -9.9113   0.0000   0.0000   0.0000   0.2125
  13.800   1.1436   0.03098   0.02635   0.0249  0.0050  1.0000  -10.0451   0.0000   0.0000   0.0000   0.2121
  13.900   1.1484   0.03127   0.02663   0.0252  0.0050  1.0000  -10.1809   0.0000   0.0000   0.0000   0.2117
  14.000   1.1532   0.03156   0.02691   0.0255  0.0049  1.0000  -10.3176   0.0000   0.0000   0.0000   0.2113
  14.100   1.1578   0.03187   0.02722   0.0258  0.0049  1.0000  -10.4530   0.0000   0.0000   0.0000   0.2110
  14.200   1.1621   0.03222   0.02755   0.0262  0.0048  1.0000  -10.5854   0.0000   0.0000   0.0000   0.2106
  14.300   1.1653   0.03263   0.02797   0.0265  0.0047  1.0000  -10.7068   0.0000   0.0000   0.0000   0.2101
  14.400   1.1669   0.03316   0.02851   0.0270  0.0047  1.0000  -10.8109   0.0000   0.0000   0.0000   0.2095
  14.500   1.1685   0.03372   0.02907   0.0275  0.0046  1.0000  -10.9138   0.0000   0.0000   0.0000   0.2090
  14.600   1.1700   0.03431   0.02967   0.0279  0.0045  1.0000  -11.0152   0.0000   0.0000   0.0000   0.2084
  14.700   1.1707   0.03499   0.03037   0.0284  0.0045  1.0000  -11.1059   0.0000   0.0000   0.0000   0.2079
  14.800   1.1696   0.03584   0.03126   0.0289  0.0044  1.0000  -11.1747   0.0000   0.0000   0.0000   0.2072
  14.900   1.1661   0.03693   0.03240   0.0296  0.0043  1.0000  -11.2104   0.0000   0.0000   0.0000   0.2063
  15.000   1.1659   0.03774   0.03325   0.0300  0.0042  1.0000  -11.2676   0.0000   0.0000   0.0000   0.2058
  15.100   1.1649   0.03861   0.03417   0.0304  0.0042  1.0000  -11.3174   0.0000   0.0000   0.0000   0.2051
  15.200   1.1620   0.03962   0.03523   0.0309  0.0042  1.0000  -11.3511   0.0000   0.0000   0.0000   0.2045
  15.300   1.1600   0.04061   0.03627   0.0313  0.0042  1.0000  -11.3913   0.0000   0.0000   0.0000   0.2039
  15.400   1.1586   0.04158   0.03729   0.0316  0.0042  1.0000  -11.4358   0.0000   0.0000   0.0000   0.2034
  15.500   1.1573   0.04256   0.03832   0.0319  0.0042  1.0000  -11.4806   0.0000   0.0000   0.0000   0.2029
  15.600   1.1559   0.04357   0.03939   0.0322  0.0042  1.0000  -11.5235   0.0000   0.0000   0.0000   0.2024
  15.700   1.1541   0.04463   0.04049   0.0324  0.0042  1.0000  -11.5633   0.0000   0.0000   0.0000   0.2019
  15.800   1.1513   0.04579   0.04171   0.0326  0.0042  1.0000  -11.6065   0.0000   0.0000   0.0000   0.2015
  15.900   1.1467   0.04712   0.04310   0.0328  0.0042  1.0000  -11.6290   0.0000   0.0000   0.0000   0.2010
  16.000   1.1433   0.04838   0.04441   0.0329  0.0042  1.0000  -11.6633   0.0000   0.0000   0.0000   0.2006
  16.100   1.1404   0.04964   0.04572   0.0329  0.0042  1.0000  -11.7012   0.0000   0.0000   0.0000   0.2003
  16.200   1.1375   0.05093   0.04708   0.0329  0.0042  1.0000  -11.7374   0.0000   0.0000   0.0000   0.2000
  16.300   1.1343   0.05230   0.04850   0.0328  0.0042  1.0000  -11.7690   0.0000   0.0000   0.0000   0.1997
  16.400   1.1296   0.05383   0.05010   0.0327  0.0042  1.0000  -11.7831   0.0000   0.0000   0.0000   0.1995
  16.500   1.1236   0.05556   0.05189   0.0324  0.0042  1.0000  -11.7791   0.0000   0.0000   0.0000   0.1994
  16.600   1.1189   0.05720   0.05358   0.0321  0.0042  1.0000  -11.7888   0.0000   0.0000   0.0000   0.1993
  16.700   1.1146   0.05885   0.05530   0.0318  0.0042  1.0000  -11.8003   0.0000   0.0000   0.0000   0.1992
  16.800   1.1100   0.06057   0.05708   0.0314  0.0042  1.0000  -11.8067   0.0000   0.0000   0.0000   0.1992
  16.900   1.1039   0.06252   0.05910   0.0309  0.0042  1.0000  -11.7930   0.0000   0.0000   0.0000   0.1994
  17.000   1.0967   0.06468   0.06131   0.0301  0.0042  1.0000  -11.7633   0.0000   0.0000   0.0000   0.1996
  17.100   1.0909   0.06673   0.06342   0.0294  0.0042  1.0000  -11.7471   0.0000   0.0000   0.0000   0.1999
  17.200   1.0851   0.06882   0.06559   0.0286  0.0042  1.0000  -11.7282   0.0000   0.0000   0.0000   0.2002
  17.300   1.0778   0.07121   0.06804   0.0276  0.0042  1.0000  -11.6870   0.0000   0.0000   0.0000   0.2007
  17.400   1.0698   0.07377   0.07067   0.0264  0.0042  1.0000  -11.6335   0.0000   0.0000   0.0000   0.2014
  17.500   1.0630   0.07624   0.07320   0.0252  0.0042  1.0000  -11.5907   0.0000   0.0000   0.0000   0.2021
  17.600   1.0556   0.07889   0.07591   0.0239  0.0042  1.0000  -11.5354   0.0000   0.0000   0.0000   0.2030
  17.700   1.0463   0.08197   0.07906   0.0222  0.0042  1.0000  -11.4503   0.0000   0.0000   0.0000   0.2042
  17.800   1.0385   0.08484   0.08199   0.0206  0.0042  1.0000  -11.3793   0.0000   0.0000   0.0000   0.2053
  17.900   1.0292   0.08814   0.08537   0.0186  0.0042  1.0000  -11.2803   0.0000   0.0000   0.0000   0.2068
  18.000   1.0199   0.09155   0.08884   0.0166  0.0042  1.0000  -11.1752   0.0000   0.0000   0.0000   0.2084
  18.100   1.0110   0.09495   0.09230   0.0146  0.0042  1.0000  -11.0700   0.0000   0.0000   0.0000   0.2101
  18.200   0.9998   0.09909   0.09652   0.0120  0.0042  1.0000  -10.9170   0.0000   0.0000   0.0000   0.2123
  18.300   0.9900   0.10289   0.10038   0.0097  0.0042  1.0000  -10.7821   0.0000   0.0000   0.0000   0.2143
  18.400   0.9774   0.10763   0.10519   0.0068  0.0042  1.0000  -10.5822   0.0000   0.0000   0.0000   0.2171
  18.500   0.9663   0.11194   0.10957   0.0042  0.0042  1.0000  -10.4041   0.0000   0.0000   0.0000   0.2195
  18.600   0.9510   0.11758   0.11528   0.0007  0.0042  1.0000  -10.1265   0.0000   0.0000   0.0000   0.2230
  18.700   0.9377   0.12256   0.12032  -0.0022  0.0042  1.0000  -9.8839   0.0000   0.0000   0.0000   0.2260
  18.800   0.9167   0.12986   0.12771  -0.0064  0.0042  1.0000  -9.4612   0.0000   0.0000   0.0000   0.2307
  18.900   0.9000   0.13583   0.13374  -0.0098  0.0042  1.0000  -9.1320   0.0000   0.0000   0.0000   0.2346


