xflr5 v6.61

 Calculated polar for: NACA 65(1)-412

 1 1 Reynolds number fixed          Mach number fixed         

 xtrf =   1.000 (top)        1.000 (bottom)
 Mach =   0.000     Re =     0.563 e 6     Ncrit =   9.000

  alpha     CL        CD       CDp       Cm    Top Xtr Bot Xtr   Cpmin    Chinge    XCp    
 ------- -------- --------- --------- -------- ------- ------- -------- --------- ---------
 -10.000  -0.3591   0.08115   0.07890  -0.0641  0.9932  0.0171  -2.2529   0.0000   0.0000   0.0000   0.0598
  -9.900  -0.3582   0.07882   0.07657  -0.0662  0.9923  0.0172  -2.2863   0.0000   0.0000   0.0000   0.0537
  -9.800  -0.3579   0.07633   0.07408  -0.0685  0.9913  0.0172  -2.3267   0.0000   0.0000   0.0000   0.0472
  -9.700  -0.3581   0.07357   0.07132  -0.0712  0.9901  0.0173  -2.3782   0.0000   0.0000   0.0000   0.0399
  -9.600  -0.3598   0.07007   0.06783  -0.0749  0.9888  0.0173  -2.4573   0.0000   0.0000   0.0000   0.0307
  -9.500  -0.3638   0.06612   0.06385  -0.0794  0.9870  0.0172  -2.5601   0.0000   0.0000   0.0000   0.0209
  -9.400  -0.3684   0.06296   0.06065  -0.0829  0.9849  0.0172  -2.6390   0.0000   0.0000   0.0000   0.0143
  -9.300  -0.3731   0.06025   0.05790  -0.0859  0.9824  0.0172  -2.7045   0.0000   0.0000   0.0000   0.0095
  -8.700  -0.4882   0.03112   0.02723  -0.0916  0.9509  0.0099  -4.8099   0.0000   0.0000   0.0000   0.0533
  -8.600  -0.4819   0.03115   0.02728  -0.0913  0.9489  0.0101  -4.6655   0.0000   0.0000   0.0000   0.0516
  -8.500  -0.4753   0.03117   0.02731  -0.0909  0.9470  0.0103  -4.5281   0.0000   0.0000   0.0000   0.0500
  -8.400  -0.4678   0.03125   0.02741  -0.0906  0.9449  0.0105  -4.3833   0.0000   0.0000   0.0000   0.0477
  -8.300  -0.4946   0.02432   0.01973  -0.0857  0.9373  0.0089  -5.0615   0.0000   0.0000   0.0000   0.0680
  -8.200  -0.4943   0.02235   0.01750  -0.0844  0.9334  0.0088  -5.1271   0.0000   0.0000   0.0000   0.0706
  -8.100  -0.4898   0.02107   0.01605  -0.0836  0.9302  0.0089  -5.1128   0.0000   0.0000   0.0000   0.0706
  -8.000  -0.4829   0.02015   0.01500  -0.0831  0.9272  0.0090  -5.0562   0.0000   0.0000   0.0000   0.0692
  -7.900  -0.4748   0.01948   0.01423  -0.0828  0.9242  0.0091  -4.9727   0.0000   0.0000   0.0000   0.0670
  -7.800  -0.4659   0.01900   0.01367  -0.0826  0.9213  0.0092  -4.8698   0.0000   0.0000   0.0000   0.0642
  -7.700  -0.4564   0.01869   0.01330  -0.0824  0.9183  0.0093  -4.7513   0.0000   0.0000   0.0000   0.0609
  -7.600  -0.4527   0.01687   0.01126  -0.0814  0.9141  0.0098  -4.7512   0.0000   0.0000   0.0000   0.0616
  -7.500  -0.4441   0.01646   0.01082  -0.0812  0.9099  0.0102  -4.6308   0.0000   0.0000   0.0000   0.0586
  -7.400  -0.4334   0.01651   0.01089  -0.0813  0.9052  0.0106  -4.4660   0.0000   0.0000   0.0000   0.0539
  -7.300  -0.4194   0.01776   0.01232  -0.0821  0.9006  0.0116  -4.0967   0.0000   0.0000   0.0000   0.0460
  -7.200  -0.4100   0.01773   0.01229  -0.0819  0.8994  0.0120  -3.9707   0.0000   0.0000   0.0000   0.0421
  -7.100  -0.4006   0.01770   0.01226  -0.0817  0.8979  0.0123  -3.8464   0.0000   0.0000   0.0000   0.0379
  -7.000  -0.3911   0.01766   0.01222  -0.0815  0.8961  0.0127  -3.7234   0.0000   0.0000   0.0000   0.0334
  -6.900  -0.3814   0.01763   0.01219  -0.0813  0.8941  0.0130  -3.6134   0.0000   0.0000   0.0000   0.0286
  -6.800  -0.3716   0.01762   0.01217  -0.0812  0.8920  0.0134  -3.5063   0.0000   0.0000   0.0000   0.0233
  -6.700  -0.3616   0.01764   0.01218  -0.0811  0.8897  0.0137  -3.4004   0.0000   0.0000   0.0000   0.0176
  -6.600  -0.3515   0.01769   0.01223  -0.0810  0.8873  0.0140  -3.2949   0.0000   0.0000   0.0000   0.0115
  -6.500  -0.3413   0.01780   0.01233  -0.0809  0.8847  0.0142  -3.1884   0.0000   0.0000   0.0000   0.0048
  -6.400  -0.3308   0.01797   0.01250  -0.0808  0.8821  0.0144  -3.0792   0.0000   0.0000   0.0000  -0.0024
  -6.300  -0.3202   0.01824   0.01277  -0.0808  0.8794  0.0145  -2.9651   0.0000   0.0000   0.0000  -0.0104
  -6.200  -0.3159   0.01594   0.01025  -0.0799  0.8763  0.0155  -3.0593   0.0000   0.0000   0.0000  -0.0112
  -6.100  -0.3077   0.01523   0.00949  -0.0796  0.8734  0.0160  -3.0317   0.0000   0.0000   0.0000  -0.0168
  -6.000  -0.2986   0.01483   0.00905  -0.0793  0.8704  0.0164  -2.9799   0.0000   0.0000   0.0000  -0.0237
  -5.900  -0.2893   0.01455   0.00874  -0.0791  0.8673  0.0168  -2.9180   0.0000   0.0000   0.0000  -0.0317
  -5.800  -0.2796   0.01434   0.00851  -0.0789  0.8638  0.0171  -2.8514   0.0000   0.0000   0.0000  -0.0406
  -5.700  -0.2697   0.01417   0.00831  -0.0788  0.8600  0.0174  -2.7834   0.0000   0.0000   0.0000  -0.0506
  -5.600  -0.2596   0.01401   0.00813  -0.0788  0.8557  0.0177  -2.7167   0.0000   0.0000   0.0000  -0.0620
  -5.500  -0.2492   0.01384   0.00793  -0.0788  0.8511  0.0179  -2.6568   0.0000   0.0000   0.0000  -0.0747
  -5.400  -0.2397   0.01346   0.00750  -0.0786  0.8499  0.0177  -2.6366   0.0000   0.0000   0.0000  -0.0865
  -5.300  -0.2296   0.01331   0.00734  -0.0785  0.8488  0.0180  -2.5687   0.0000   0.0000   0.0000  -0.1008
  -5.200  -0.2194   0.01316   0.00719  -0.0784  0.8474  0.0184  -2.5012   0.0000   0.0000   0.0000  -0.1165
  -5.100  -0.2092   0.01302   0.00705  -0.0784  0.8458  0.0187  -2.4341   0.0000   0.0000   0.0000  -0.1339
  -5.000  -0.1989   0.01288   0.00691  -0.0783  0.8441  0.0191  -2.3675   0.0000   0.0000   0.0000  -0.1531
  -4.900  -0.1886   0.01275   0.00678  -0.0783  0.8421  0.0196  -2.3005   0.0000   0.0000   0.0000  -0.1747
  -4.800  -0.1782   0.01264   0.00667  -0.0783  0.8401  0.0201  -2.2314   0.0000   0.0000   0.0000  -0.1990
  -4.700  -0.1629   0.01474   0.00889  -0.0795  0.8379  0.0261  -1.8754   0.0000   0.0000   0.0000  -0.2482
  -4.600  -0.1528   0.01439   0.00850  -0.0794  0.8357  0.0262  -1.8421   0.0000   0.0000   0.0000  -0.2801
  -4.500  -0.1429   0.01388   0.00795  -0.0792  0.8333  0.0261  -1.8242   0.0000   0.0000   0.0000  -0.3149
  -4.400  -0.1330   0.01342   0.00745  -0.0790  0.8309  0.0260  -1.8036   0.0000   0.0000   0.0000  -0.3549
  -4.300  -0.1232   0.01301   0.00700  -0.0787  0.8284  0.0260  -1.7812   0.0000   0.0000   0.0000  -0.4013
  -4.200  -0.1133   0.01264   0.00659  -0.0785  0.8258  0.0260  -1.7571   0.0000   0.0000   0.0000  -0.4556
  -4.100  -0.1035   0.01230   0.00621  -0.0783  0.8232  0.0260  -1.7317   0.0000   0.0000   0.0000  -0.5203
  -4.000  -0.0936   0.01199   0.00586  -0.0781  0.8204  0.0260  -1.7050   0.0000   0.0000   0.0000  -0.5989
  -3.900  -0.0837   0.01171   0.00554  -0.0779  0.8175  0.0260  -1.6769   0.0000   0.0000   0.0000  -0.6968
  -3.800  -0.0737   0.01146   0.00524  -0.0778  0.8142  0.0261  -1.6474   0.0000   0.0000   0.0000  -0.8230
  -3.700  -0.0635   0.01123   0.00498  -0.0777  0.8106  0.0263  -1.6163   0.0000   0.0000   0.0000  -0.9934
  -3.600  -0.0530   0.01104   0.00475  -0.0777  0.8067  0.0264  -1.5834   0.0000   0.0000   0.0000  -1.2369
  -3.500  -0.0424   0.01089   0.00456  -0.0777  0.8025  0.0266  -1.5485   0.0000   0.0000   0.0000  -1.6113
  -3.400  -0.0317   0.01073   0.00438  -0.0777  0.8005  0.0268  -1.5115   0.0000   0.0000   0.0000  -2.2379
  -3.300  -0.0210   0.01058   0.00422  -0.0777  0.7997  0.0270  -1.4725   0.0000   0.0000   0.0000  -3.5059
  -3.200  -0.0102   0.01046   0.00409  -0.0777  0.7987  0.0272  -1.4313   0.0000   0.0000   0.0000  -7.4950
  -3.100   0.0002   0.01019   0.00379  -0.0777  0.7975  0.0279  -1.4099   0.0000   0.0000   0.0000  337.2382
  -3.000   0.0103   0.00967   0.00312  -0.0776  0.7961  0.0316  -1.4417   0.0000   0.0000   0.0000   7.8553
  -2.900   0.0213   0.00943   0.00280  -0.0776  0.7947  0.0377  -1.4403   0.0000   0.0000   0.0000   3.9396
  -2.800   0.0324   0.00930   0.00267  -0.0777  0.7931  0.0425  -1.4046   0.0000   0.0000   0.0000   2.6775
  -2.700   0.0434   0.00920   0.00258  -0.0777  0.7913  0.0464  -1.3597   0.0000   0.0000   0.0000   2.0587
  -2.600   0.0546   0.00912   0.00250  -0.0778  0.7893  0.0508  -1.3130   0.0000   0.0000   0.0000   1.6909
  -2.500   0.0655   0.00894   0.00239  -0.0779  0.7872  0.0740  -1.2683   0.0000   0.0000   0.0000   1.4521
  -2.400   0.0754   0.00834   0.00222  -0.0783  0.7850  0.1853  -1.2238   0.0000   0.0000   0.0000   1.2982
  -2.300   0.0852   0.00764   0.00203  -0.0788  0.7827  0.3347  -1.1775   0.0000   0.0000   0.0000   1.1824
  -2.200   0.0952   0.00696   0.00193  -0.0792  0.7804  0.4994  -1.1291   0.0000   0.0000   0.0000   1.0894
  -2.100   0.1057   0.00675   0.00195  -0.0793  0.7780  0.5656  -1.0775   0.0000   0.0000   0.0000   1.0056
  -2.000   0.1167   0.00670   0.00197  -0.0793  0.7756  0.5969  -1.0250   0.0000   0.0000   0.0000   0.9343
  -1.900   0.1275   0.00664   0.00200  -0.0792  0.7732  0.6195  -0.9732   0.0000   0.0000   0.0000   0.8757
  -1.800   0.1385   0.00663   0.00202  -0.0792  0.7709  0.6350  -0.9214   0.0000   0.0000   0.0000   0.8257
  -1.700   0.1497   0.00666   0.00203  -0.0792  0.7684  0.6449  -0.8695   0.0000   0.0000   0.0000   0.7825
  -1.600   0.1608   0.00668   0.00204  -0.0793  0.7656  0.6550  -0.8184   0.0000   0.0000   0.0000   0.7455
  -1.500   0.1714   0.00667   0.00210  -0.0791  0.7626  0.6703  -0.7689   0.0000   0.0000   0.0000   0.7139
  -1.400   0.1823   0.00672   0.00217  -0.0790  0.7593  0.6818  -0.7194   0.0000   0.0000   0.0000   0.6857
  -1.300   0.1935   0.00679   0.00224  -0.0791  0.7558  0.6896  -0.6697   0.0000   0.0000   0.0000   0.6604
  -1.200   0.2049   0.00688   0.00230  -0.0792  0.7521  0.6941  -0.6204   0.0000   0.0000   0.0000   0.6378
  -1.100   0.2163   0.00692   0.00233  -0.0793  0.7506  0.6964  -0.5718   0.0000   0.0000   0.0000   0.6177
  -1.000   0.2278   0.00693   0.00233  -0.0794  0.7499  0.6980  -0.5239   0.0000   0.0000   0.0000   0.5995
  -0.900   0.2392   0.00694   0.00234  -0.0795  0.7491  0.6991  -0.5238   0.0000   0.0000   0.0000   0.5831
  -0.800   0.2505   0.00690   0.00231  -0.0796  0.7482  0.7038  -0.5290   0.0000   0.0000   0.0000   0.5684
  -0.700   0.2616   0.00687   0.00230  -0.0797  0.7472  0.7096  -0.5340   0.0000   0.0000   0.0000   0.5550
  -0.600   0.2725   0.00686   0.00232  -0.0797  0.7461  0.7157  -0.5391   0.0000   0.0000   0.0000   0.5425
  -0.500   0.2834   0.00686   0.00236  -0.0796  0.7448  0.7211  -0.5440   0.0000   0.0000   0.0000   0.5310
  -0.400   0.2943   0.00688   0.00240  -0.0796  0.7435  0.7261  -0.5490   0.0000   0.0000   0.0000   0.5203
  -0.300   0.3053   0.00690   0.00244  -0.0795  0.7421  0.7304  -0.5540   0.0000   0.0000   0.0000   0.5103
  -0.200   0.3164   0.00692   0.00247  -0.0795  0.7405  0.7341  -0.5591   0.0000   0.0000   0.0000   0.5011
  -0.100   0.3275   0.00694   0.00249  -0.0796  0.7389  0.7372  -0.5647   0.0000   0.0000   0.0000   0.4925
   0.000   0.3388   0.00695   0.00250  -0.0797  0.7372  0.7394  -0.5706   0.0000   0.0000   0.0000   0.4845
   0.100   0.3501   0.00696   0.00251  -0.0797  0.7353  0.7413  -0.5764   0.0000   0.0000   0.0000   0.4771
   0.200   0.3614   0.00697   0.00251  -0.0798  0.7334  0.7429  -0.5823   0.0000   0.0000   0.0000   0.4701
   0.300   0.3727   0.00698   0.00251  -0.0799  0.7314  0.7444  -0.5882   0.0000   0.0000   0.0000   0.4636
   0.400   0.3841   0.00700   0.00252  -0.0800  0.7293  0.7457  -0.5941   0.0000   0.0000   0.0000   0.4574
   0.500   0.3954   0.00701   0.00252  -0.0801  0.7271  0.7468  -0.6000   0.0000   0.0000   0.0000   0.4516
   0.600   0.4067   0.00703   0.00253  -0.0802  0.7250  0.7478  -0.6059   0.0000   0.0000   0.0000   0.4461
   0.700   0.4181   0.00705   0.00255  -0.0803  0.7230  0.7486  -0.6118   0.0000   0.0000   0.0000   0.4409
   0.800   0.4294   0.00705   0.00254  -0.0805  0.7210  0.7506  -0.6176   0.0000   0.0000   0.0000   0.4360
   0.900   0.4407   0.00704   0.00252  -0.0806  0.7188  0.7544  -0.6234   0.0000   0.0000   0.0000   0.4314
   1.000   0.4518   0.00704   0.00252  -0.0807  0.7165  0.7580  -0.6292   0.0000   0.0000   0.0000   0.4271
   1.100   0.4630   0.00705   0.00253  -0.0808  0.7138  0.7612  -0.6349   0.0000   0.0000   0.0000   0.4229
   1.200   0.4741   0.00708   0.00255  -0.0808  0.7102  0.7641  -0.6405   0.0000   0.0000   0.0000   0.4188
   1.300   0.4852   0.00714   0.00260  -0.0809  0.7056  0.7667  -0.6462   0.0000   0.0000   0.0000   0.4150
   1.400   0.4964   0.00721   0.00267  -0.0810  0.7008  0.7692  -0.6518   0.0000   0.0000   0.0000   0.4114
   1.500   0.5072   0.00716   0.00264  -0.0810  0.6995  0.7716  -0.6578   0.0000   0.0000   0.0000   0.4077
   1.600   0.5180   0.00710   0.00260  -0.0809  0.6971  0.7739  -0.6981   0.0000   0.0000   0.0000   0.4041
   1.700   0.5286   0.00705   0.00255  -0.0807  0.6932  0.7763  -0.7536   0.0000   0.0000   0.0000   0.4006
   1.800   0.5392   0.00700   0.00251  -0.0806  0.6876  0.7786  -0.8098   0.0000   0.0000   0.0000   0.3973
   1.900   0.5497   0.00698   0.00246  -0.0805  0.6802  0.7808  -0.8668   0.0000   0.0000   0.0000   0.3940
   2.000   0.5601   0.00698   0.00241  -0.0803  0.6715  0.7830  -0.9239   0.0000   0.0000   0.0000   0.3909
   2.100   0.5701   0.00703   0.00239  -0.0800  0.6615  0.7851  -0.9810   0.0000   0.0000   0.0000   0.3879
   2.200   0.5806   0.00711   0.00241  -0.0800  0.6511  0.7872  -1.0399   0.0000   0.0000   0.0000   0.3851
   2.300   0.5915   0.00709   0.00242  -0.0800  0.6484  0.7894  -1.1007   0.0000   0.0000   0.0000   0.3825
   2.400   0.6025   0.00709   0.00244  -0.0800  0.6453  0.7915  -1.1625   0.0000   0.0000   0.0000   0.3800
   2.500   0.6136   0.00710   0.00246  -0.0800  0.6420  0.7934  -1.2252   0.0000   0.0000   0.0000   0.3776
   2.600   0.6246   0.00712   0.00248  -0.0800  0.6386  0.7951  -1.2886   0.0000   0.0000   0.0000   0.3752
   2.700   0.6355   0.00715   0.00250  -0.0800  0.6334  0.7966  -1.3524   0.0000   0.0000   0.0000   0.3730
   2.800   0.6460   0.00719   0.00251  -0.0799  0.6254  0.7979  -1.4160   0.0000   0.0000   0.0000   0.3707
   2.900   0.6558   0.00726   0.00252  -0.0797  0.6141  0.7989  -1.4784   0.0000   0.0000   0.0000   0.3684
   3.000   0.6652   0.00732   0.00251  -0.0794  0.6003  0.8034  -1.5400   0.0000   0.0000   0.0000   0.3662
   3.100   0.6758   0.00731   0.00252  -0.0794  0.5933  0.8077  -1.6058   0.0000   0.0000   0.0000   0.3642
   3.200   0.6858   0.00733   0.00254  -0.0792  0.5813  0.8115  -1.6704   0.0000   0.0000   0.0000   0.3621
   3.300   0.6949   0.00741   0.00257  -0.0788  0.5665  0.8149  -1.7328   0.0000   0.0000   0.0000   0.3599
   3.400   0.7031   0.00753   0.00261  -0.0783  0.5501  0.8181  -1.7931   0.0000   0.0000   0.0000   0.3578
   3.500   0.7132   0.00757   0.00266  -0.0781  0.5407  0.8210  -1.8594   0.0000   0.0000   0.0000   0.3559
   3.600   0.7219   0.00768   0.00271  -0.0777  0.5202  0.8239  -1.9222   0.0000   0.0000   0.0000   0.3539
   3.700   0.7283   0.00791   0.00279  -0.0769  0.4878  0.8269  -1.9777   0.0000   0.0000   0.0000   0.3517
   3.800   0.7320   0.00831   0.00294  -0.0756  0.4332  0.8301  -2.0247   0.0000   0.0000   0.0000   0.3493
   3.900   0.7328   0.00892   0.00320  -0.0739  0.3619  0.8334  -2.0622   0.0000   0.0000   0.0000   0.3467
   4.000   0.7344   0.00951   0.00348  -0.0723  0.2965  0.8365  -2.1014   0.0000   0.0000   0.0000   0.3443
   4.100   0.7374   0.00999   0.00372  -0.0710  0.2444  0.8395  -2.1453   0.0000   0.0000   0.0000   0.3421
   4.200   0.7406   0.01046   0.00396  -0.0698  0.1949  0.8422  -2.1894   0.0000   0.0000   0.0000   0.3399
   4.300   0.7435   0.01092   0.00420  -0.0685  0.1475  0.8447  -2.2322   0.0000   0.0000   0.0000   0.3377
   4.400   0.7465   0.01137   0.00444  -0.0672  0.1076  0.8468  -2.2743   0.0000   0.0000   0.0000   0.3355
   4.500   0.7489   0.01183   0.00470  -0.0658  0.0700  0.8486  -2.3138   0.0000   0.0000   0.0000   0.3332
   4.600   0.7529   0.01216   0.00488  -0.0646  0.0447  0.8534  -2.3560   0.0000   0.0000   0.0000   0.3311
   4.800   0.7615   0.01265   0.00541  -0.0618  0.0220  0.8649  -2.3561   0.0000   0.0000   0.0000   0.3263
   4.900   0.7678   0.01275   0.00554  -0.0609  0.0212  0.8694  -2.3996   0.0000   0.0000   0.0000   0.3244
   5.000   0.7737   0.01287   0.00571  -0.0599  0.0205  0.8737  -2.4389   0.0000   0.0000   0.0000   0.3223
   5.100   0.7792   0.01301   0.00588  -0.0588  0.0199  0.8781  -2.4761   0.0000   0.0000   0.0000   0.3203
   5.200   0.7845   0.01315   0.00607  -0.0577  0.0194  0.8824  -2.5125   0.0000   0.0000   0.0000   0.3183
   5.300   0.7896   0.01331   0.00627  -0.0565  0.0190  0.8867  -2.5483   0.0000   0.0000   0.0000   0.3162
   5.400   0.7945   0.01347   0.00647  -0.0553  0.0187  0.8906  -2.5837   0.0000   0.0000   0.0000   0.3142
   5.500   0.7990   0.01364   0.00667  -0.0541  0.0185  0.8943  -2.6179   0.0000   0.0000   0.0000   0.3121
   5.600   0.8017   0.01380   0.00687  -0.0525  0.0183  0.8976  -2.6481   0.0000   0.0000   0.0000   0.3098
   5.700   0.8027   0.01393   0.00704  -0.0505  0.0181  0.9034  -2.6744   0.0000   0.0000   0.0000   0.3072
   5.800   0.8001   0.01399   0.00715  -0.0478  0.0181  0.9140  -2.6923   0.0000   0.0000   0.0000   0.3039
   5.900   0.7971   0.01407   0.00728  -0.0449  0.0180  0.9237  -2.7094   0.0000   0.0000   0.0000   0.3004
   6.000   0.7957   0.01419   0.00745  -0.0425  0.0179  0.9330  -2.7299   0.0000   0.0000   0.0000   0.2974
   6.100   0.7953   0.01433   0.00763  -0.0403  0.0178  0.9414  -2.7525   0.0000   0.0000   0.0000   0.2945
   6.200   0.7950   0.01450   0.00784  -0.0381  0.0178  0.9481  -2.7750   0.0000   0.0000   0.0000   0.2917
   6.300   0.7999   0.01476   0.00814  -0.0371  0.0177  0.9589  -2.8087   0.0000   0.0000   0.0000   0.2901
   6.400   0.8069   0.01506   0.00850  -0.0367  0.0176  0.9755  -2.8468   0.0000   0.0000   0.0000   0.2890
   6.500   0.8137   0.01538   0.00887  -0.0362  0.0176  0.9918  -2.8837   0.0000   0.0000   0.0000   0.2879
   6.600   0.8193   0.01573   0.00926  -0.0355  0.0176  1.0000  -2.9176   0.0000   0.0000   0.0000   0.2867
   6.800   0.8299   0.01632   0.01011  -0.0340  0.0160  1.0000  -3.0617   0.0000   0.0000   0.0000   0.2841
   6.900   0.8435   0.01613   0.00983  -0.0348  0.0142  1.0000  -3.2398   0.0000   0.0000   0.0000   0.2843
   7.000   0.8491   0.01638   0.01008  -0.0341  0.0138  1.0000  -3.3034   0.0000   0.0000   0.0000   0.2831
   7.100   0.8542   0.01667   0.01039  -0.0333  0.0135  1.0000  -3.3562   0.0000   0.0000   0.0000   0.2818
   7.200   0.8591   0.01698   0.01071  -0.0325  0.0133  1.0000  -3.4065   0.0000   0.0000   0.0000   0.2806
   7.300   0.8639   0.01729   0.01105  -0.0317  0.0131  1.0000  -3.4550   0.0000   0.0000   0.0000   0.2793
   7.400   0.8680   0.01767   0.01146  -0.0308  0.0128  1.0000  -3.5016   0.0000   0.0000   0.0000   0.2779
   7.500   0.8727   0.01802   0.01183  -0.0299  0.0126  1.0000  -3.5472   0.0000   0.0000   0.0000   0.2767
   7.600   0.8776   0.01837   0.01221  -0.0291  0.0125  1.0000  -3.5923   0.0000   0.0000   0.0000   0.2754
   7.700   0.8825   0.01874   0.01260  -0.0283  0.0124  1.0000  -3.6372   0.0000   0.0000   0.0000   0.2742
   7.800   0.8874   0.01912   0.01300  -0.0275  0.0122  1.0000  -3.6813   0.0000   0.0000   0.0000   0.2730
   7.900   0.8923   0.01951   0.01342  -0.0268  0.0121  1.0000  -3.7250   0.0000   0.0000   0.0000   0.2719
   8.000   0.8974   0.01992   0.01386  -0.0260  0.0120  1.0000  -3.7688   0.0000   0.0000   0.0000   0.2708
   8.100   0.9029   0.02034   0.01431  -0.0253  0.0119  1.0000  -3.8132   0.0000   0.0000   0.0000   0.2697
   8.200   0.9089   0.02078   0.01478  -0.0247  0.0119  1.0000  -3.8583   0.0000   0.0000   0.0000   0.2688
   8.300   0.9155   0.02125   0.01528  -0.0242  0.0118  1.0000  -3.9041   0.0000   0.0000   0.0000   0.2679
   8.400   0.9228   0.02175   0.01581  -0.0238  0.0117  1.0000  -3.9508   0.0000   0.0000   0.0000   0.2671
   8.500   0.9309   0.02229   0.01638  -0.0235  0.0116  1.0000  -3.9983   0.0000   0.0000   0.0000   0.2665
   8.600   0.9401   0.02289   0.01702  -0.0234  0.0114  1.0000  -4.0465   0.0000   0.0000   0.0000   0.2660
   8.700   0.9504   0.02357   0.01775  -0.0235  0.0113  1.0000  -4.0946   0.0000   0.0000   0.0000   0.2657
   8.800   0.9612   0.02436   0.01859  -0.0236  0.0112  1.0000  -4.1399   0.0000   0.0000   0.0000   0.2655
   8.900   0.9732   0.02531   0.01961  -0.0240  0.0111  1.0000  -4.1814   0.0000   0.0000   0.0000   0.2654
   9.000   0.9871   0.02655   0.02093  -0.0247  0.0110  1.0000  -4.2164   0.0000   0.0000   0.0000   0.2657
   9.100   1.0048   0.02838   0.02290  -0.0261  0.0108  1.0000  -4.2355   0.0000   0.0000   0.0000   0.2666
   9.400   1.0003   0.02676   0.02123  -0.0209  0.0101  1.0000  -4.5792   0.0000   0.0000   0.0000   0.2610
   9.500   1.0024   0.02670   0.02117  -0.0198  0.0100  1.0000  -4.6759   0.0000   0.0000   0.0000   0.2597
   9.600   1.0062   0.02681   0.02129  -0.0190  0.0098  1.0000  -4.7645   0.0000   0.0000   0.0000   0.2587
   9.700   1.0108   0.02701   0.02150  -0.0183  0.0096  1.0000  -4.8491   0.0000   0.0000   0.0000   0.2578
   9.800   1.0157   0.02725   0.02176  -0.0176  0.0095  1.0000  -4.9312   0.0000   0.0000   0.0000   0.2569
   9.900   1.0207   0.02752   0.02205  -0.0170  0.0094  1.0000  -5.0115   0.0000   0.0000   0.0000   0.2561
  10.000   1.0258   0.02782   0.02237  -0.0164  0.0092  1.0000  -5.0908   0.0000   0.0000   0.0000   0.2553
  10.100   1.0308   0.02812   0.02270  -0.0158  0.0091  1.0000  -5.1694   0.0000   0.0000   0.0000   0.2545
  10.200   1.0357   0.02844   0.02304  -0.0153  0.0090  1.0000  -5.2477   0.0000   0.0000   0.0000   0.2537
  10.300   1.0406   0.02877   0.02339  -0.0147  0.0089  1.0000  -5.3259   0.0000   0.0000   0.0000   0.2530
  10.400   1.0451   0.02911   0.02375  -0.0140  0.0087  1.0000  -5.4035   0.0000   0.0000   0.0000   0.2522
  10.500   1.0492   0.02945   0.02412  -0.0134  0.0086  1.0000  -5.4790   0.0000   0.0000   0.0000   0.2513
  10.600   1.0528   0.02981   0.02450  -0.0127  0.0085  1.0000  -5.5535   0.0000   0.0000   0.0000   0.2505
  10.700   1.0564   0.03017   0.02488  -0.0120  0.0084  1.0000  -5.6284   0.0000   0.0000   0.0000   0.2497
  10.800   1.0600   0.03053   0.02526  -0.0113  0.0083  1.0000  -5.7042   0.0000   0.0000   0.0000   0.2488
  10.900   1.0636   0.03089   0.02564  -0.0107  0.0082  1.0000  -5.7816   0.0000   0.0000   0.0000   0.2480
  11.000   1.0672   0.03124   0.02602  -0.0100  0.0081  1.0000  -5.8606   0.0000   0.0000   0.0000   0.2472
  11.100   1.0709   0.03160   0.02639  -0.0094  0.0080  1.0000  -5.9410   0.0000   0.0000   0.0000   0.2465
  11.200   1.0745   0.03195   0.02677  -0.0088  0.0079  1.0000  -6.0227   0.0000   0.0000   0.0000   0.2457
  11.300   1.0780   0.03230   0.02713  -0.0082  0.0078  1.0000  -6.1056   0.0000   0.0000   0.0000   0.2450
  11.400   1.0814   0.03265   0.02750  -0.0076  0.0077  1.0000  -6.1893   0.0000   0.0000   0.0000   0.2442
  11.500   1.0845   0.03301   0.02788  -0.0070  0.0077  1.0000  -6.2718   0.0000   0.0000   0.0000   0.2435
  11.600   1.0868   0.03339   0.02828  -0.0063  0.0076  1.0000  -6.3505   0.0000   0.0000   0.0000   0.2427
  11.700   1.0890   0.03379   0.02869  -0.0056  0.0075  1.0000  -6.4295   0.0000   0.0000   0.0000   0.2419
  11.800   1.0914   0.03418   0.02910  -0.0050  0.0074  1.0000  -6.5114   0.0000   0.0000   0.0000   0.2411
  11.900   1.0940   0.03456   0.02950  -0.0044  0.0074  1.0000  -6.5962   0.0000   0.0000   0.0000   0.2404
  12.000   1.0968   0.03495   0.02990  -0.0038  0.0073  1.0000  -6.6831   0.0000   0.0000   0.0000   0.2397
  12.100   1.0996   0.03534   0.03030  -0.0033  0.0072  1.0000  -6.7713   0.0000   0.0000   0.0000   0.2391
  12.200   1.1024   0.03574   0.03071  -0.0028  0.0071  1.0000  -6.8603   0.0000   0.0000   0.0000   0.2384
  12.300   1.1052   0.03615   0.03113  -0.0023  0.0071  1.0000  -6.9493   0.0000   0.0000   0.0000   0.2378
  12.400   1.1076   0.03659   0.03159  -0.0017  0.0070  1.0000  -7.0360   0.0000   0.0000   0.0000   0.2371
  12.500   1.1090   0.03709   0.03211  -0.0012  0.0069  1.0000  -7.1146   0.0000   0.0000   0.0000   0.2364
  12.600   1.1102   0.03763   0.03266  -0.0006  0.0069  1.0000  -7.1911   0.0000   0.0000   0.0000   0.2357
  12.700   1.1116   0.03818   0.03323  -0.0001  0.0068  1.0000  -7.2686   0.0000   0.0000   0.0000   0.2351
  12.800   1.1131   0.03876   0.03382   0.0004  0.0067  1.0000  -7.3454   0.0000   0.0000   0.0000   0.2345
  12.900   1.1145   0.03939   0.03448   0.0009  0.0066  1.0000  -7.4183   0.0000   0.0000   0.0000   0.2339
  13.000   1.1154   0.04011   0.03523   0.0014  0.0065  1.0000  -7.4835   0.0000   0.0000   0.0000   0.2332
  13.100   1.1155   0.04098   0.03614   0.0019  0.0064  1.0000  -7.5348   0.0000   0.0000   0.0000   0.2326
  13.200   1.1137   0.04211   0.03734   0.0025  0.0063  1.0000  -7.5588   0.0000   0.0000   0.0000   0.2319
  13.300   1.1070   0.04389   0.03924   0.0032  0.0061  1.0000  -7.5160   0.0000   0.0000   0.0000   0.2311
  13.400   1.0883   0.04722   0.04278   0.0043  0.0059  1.0000  -7.3170   0.0000   0.0000   0.0000   0.2299
  13.500   1.0897   0.04782   0.04341   0.0046  0.0059  1.0000  -7.3974   0.0000   0.0000   0.0000   0.2294
  13.600   1.0912   0.04843   0.04405   0.0049  0.0059  1.0000  -7.4796   0.0000   0.0000   0.0000   0.2290
  13.700   1.0929   0.04906   0.04471   0.0051  0.0059  1.0000  -7.5622   0.0000   0.0000   0.0000   0.2286
  13.800   1.0944   0.04971   0.04539   0.0054  0.0058  1.0000  -7.6440   0.0000   0.0000   0.0000   0.2282
  13.900   1.0958   0.05041   0.04612   0.0056  0.0058  1.0000  -7.7242   0.0000   0.0000   0.0000   0.2278
  14.100   1.0857   0.05341   0.04934   0.0061  0.0058  1.0000  -7.6746   0.0000   0.0000   0.0000   0.2269
  14.200   1.0827   0.05472   0.05071   0.0063  0.0058  1.0000  -7.6832   0.0000   0.0000   0.0000   0.2266
  14.300   1.0814   0.05582   0.05186   0.0064  0.0058  1.0000  -7.7206   0.0000   0.0000   0.0000   0.2263
  14.400   1.0810   0.05684   0.05292   0.0064  0.0058  1.0000  -7.7722   0.0000   0.0000   0.0000   0.2260
  14.500   1.0808   0.05783   0.05395   0.0065  0.0058  1.0000  -7.8306   0.0000   0.0000   0.0000   0.2258
  14.600   1.0799   0.05890   0.05506   0.0065  0.0058  1.0000  -7.8838   0.0000   0.0000   0.0000   0.2256
  14.700   1.0775   0.06014   0.05634   0.0064  0.0057  1.0000  -7.9227   0.0000   0.0000   0.0000   0.2254
  14.800   1.0760   0.06133   0.05757   0.0063  0.0057  1.0000  -7.9699   0.0000   0.0000   0.0000   0.2253
  14.900   1.0751   0.06248   0.05877   0.0062  0.0057  1.0000  -8.0235   0.0000   0.0000   0.0000   0.2252
  15.000   1.0743   0.06365   0.05998   0.0060  0.0056  1.0000  -8.0783   0.0000   0.0000   0.0000   0.2252
  15.100   1.0734   0.06487   0.06124   0.0058  0.0056  1.0000  -8.1307   0.0000   0.0000   0.0000   0.2251
  15.200   1.0719   0.06617   0.06258   0.0056  0.0056  1.0000  -8.1771   0.0000   0.0000   0.0000   0.2251
  15.300   1.0678   0.06782   0.06429   0.0052  0.0055  1.0000  -8.1933   0.0000   0.0000   0.0000   0.2253
  15.400   1.0640   0.06949   0.06600   0.0048  0.0055  1.0000  -8.2117   0.0000   0.0000   0.0000   0.2254
  15.500   1.0611   0.07110   0.06766   0.0043  0.0055  1.0000  -8.2376   0.0000   0.0000   0.0000   0.2256
  15.600   1.0582   0.07274   0.06936   0.0038  0.0055  1.0000  -8.2620   0.0000   0.0000   0.0000   0.2259
  15.700   1.0548   0.07448   0.07115   0.0032  0.0054  1.0000  -8.2796   0.0000   0.0000   0.0000   0.2262
  15.800   1.0487   0.07666   0.07339   0.0024  0.0054  1.0000  -8.2637   0.0000   0.0000   0.0000   0.2268
  15.900   1.0427   0.07892   0.07571   0.0014  0.0054  1.0000  -8.2454   0.0000   0.0000   0.0000   0.2275
  16.000   1.0376   0.08111   0.07795   0.0005  0.0054  1.0000  -8.2352   0.0000   0.0000   0.0000   0.2282
  16.100   1.0322   0.08341   0.08031  -0.0005  0.0053  1.0000  -8.2189   0.0000   0.0000   0.0000   0.2289
  16.200   1.0235   0.08636   0.08334  -0.0020  0.0053  1.0000  -8.1568   0.0000   0.0000   0.0000   0.2302
  16.300   1.0159   0.08923   0.08627  -0.0034  0.0053  1.0000  -8.1043   0.0000   0.0000   0.0000   0.2314
  16.400   1.0085   0.09215   0.08926  -0.0049  0.0053  1.0000  -8.0498   0.0000   0.0000   0.0000   0.2328
  16.500   0.9971   0.09600   0.09319  -0.0071  0.0053  1.0000  -7.9342   0.0000   0.0000   0.0000   0.2348
  16.600   0.9873   0.09968   0.09694  -0.0092  0.0054  1.0000  -7.8328   0.0000   0.0000   0.0000   0.2368
  16.700   0.9728   0.10456   0.10191  -0.0121  0.0054  1.0000  -7.6530   0.0000   0.0000   0.0000   0.2399
  16.800   0.9585   0.10967   0.10710  -0.0152  0.0054  1.0000  -7.4612   0.0000   0.0000   0.0000   0.2431
  16.900   0.9370   0.11693   0.11448  -0.0197  0.0055  1.0000  -7.1345   0.0000   0.0000   0.0000   0.2483
  17.000   0.8757   0.13686   0.13456  -0.0312  0.0056  1.0000  -6.0271   0.0000   0.0000   0.0000   0.2636


