xflr5 v6.61

 Calculated polar for: NACA 0015

 1 1 Reynolds number fixed          Mach number fixed         

 xtrf =   1.000 (top)        1.000 (bottom)
 Mach =   0.000     Re =     0.500 e 6     Ncrit =   9.000

  alpha     CL        CD       CDp       Cm    Top Xtr Bot Xtr   Cpmin    Chinge    XCp    
 ------- -------- --------- --------- -------- ------- ------- -------- --------- ---------
 -10.000  -1.0123   0.02019   0.01367  -0.0114  1.0000  0.0286  -4.0978   0.0000   0.0000   0.0000   0.2257
  -9.900  -1.0083   0.01991   0.01336  -0.0102  1.0000  0.0288  -4.0661   0.0000   0.0000   0.0000   0.2270
  -9.800  -1.0045   0.01964   0.01306  -0.0091  1.0000  0.0289  -4.0346   0.0000   0.0000   0.0000   0.2283
  -9.700  -1.0007   0.01938   0.01278  -0.0079  1.0000  0.0291  -4.0030   0.0000   0.0000   0.0000   0.2296
  -9.600  -0.9967   0.01913   0.01250  -0.0067  1.0000  0.0293  -3.9711   0.0000   0.0000   0.0000   0.2309
  -9.500  -0.9927   0.01889   0.01223  -0.0055  1.0000  0.0295  -3.9390   0.0000   0.0000   0.0000   0.2322
  -9.400  -0.9886   0.01865   0.01197  -0.0043  1.0000  0.0296  -3.9067   0.0000   0.0000   0.0000   0.2335
  -9.300  -0.9845   0.01842   0.01171  -0.0031  1.0000  0.0298  -3.8742   0.0000   0.0000   0.0000   0.2348
  -9.200  -0.9803   0.01820   0.01147  -0.0019  1.0000  0.0300  -3.8417   0.0000   0.0000   0.0000   0.2361
  -9.100  -0.9761   0.01798   0.01123  -0.0007  1.0000  0.0303  -3.8089   0.0000   0.0000   0.0000   0.2375
  -9.000  -0.9718   0.01777   0.01099   0.0004  1.0000  0.0305  -3.7760   0.0000   0.0000   0.0000   0.2388
  -8.900  -0.9673   0.01757   0.01077   0.0016  1.0000  0.0307  -3.7429   0.0000   0.0000   0.0000   0.2401
  -8.800  -0.9628   0.01737   0.01054   0.0027  1.0000  0.0310  -3.7094   0.0000   0.0000   0.0000   0.2415
  -8.700  -0.9581   0.01718   0.01033   0.0039  1.0000  0.0313  -3.6757   0.0000   0.0000   0.0000   0.2428
  -8.600  -0.9533   0.01699   0.01011   0.0050  1.0000  0.0316  -3.6418   0.0000   0.0000   0.0000   0.2441
  -8.500  -0.9485   0.01681   0.00991   0.0061  1.0000  0.0319  -3.6078   0.0000   0.0000   0.0000   0.2454
  -8.400  -0.9437   0.01663   0.00971   0.0072  1.0000  0.0323  -3.5737   0.0000   0.0000   0.0000   0.2467
  -8.300  -0.9391   0.01646   0.00952   0.0083  1.0000  0.0327  -3.5397   0.0000   0.0000   0.0000   0.2481
  -8.200  -0.9345   0.01630   0.00934   0.0094  1.0000  0.0332  -3.5060   0.0000   0.0000   0.0000   0.2495
  -8.100  -0.9301   0.01615   0.00916   0.0106  1.0000  0.0337  -3.4722   0.0000   0.0000   0.0000   0.2509
  -8.000  -0.9257   0.01600   0.00900   0.0117  1.0000  0.0343  -3.4378   0.0000   0.0000   0.0000   0.2523
  -7.900  -0.9211   0.01586   0.00883   0.0129  1.0000  0.0351  -3.4014   0.0000   0.0000   0.0000   0.2537
  -7.800  -0.9105   0.01570   0.00849   0.0127  0.9996  0.0391  -3.3072   0.0000   0.0000   0.0000   0.2538
  -7.700  -0.8989   0.01551   0.00827   0.0125  0.9990  0.0393  -3.2616   0.0000   0.0000   0.0000   0.2538
  -7.600  -0.8871   0.01532   0.00805   0.0122  0.9983  0.0395  -3.2160   0.0000   0.0000   0.0000   0.2538
  -7.500  -0.8753   0.01514   0.00784   0.0120  0.9976  0.0398  -3.1705   0.0000   0.0000   0.0000   0.2538
  -7.400  -0.8634   0.01496   0.00764   0.0117  0.9967  0.0402  -3.1252   0.0000   0.0000   0.0000   0.2538
  -7.300  -0.8512   0.01478   0.00744   0.0113  0.9958  0.0407  -3.0797   0.0000   0.0000   0.0000   0.2537
  -7.200  -0.8386   0.01459   0.00724   0.0109  0.9947  0.0414  -3.0344   0.0000   0.0000   0.0000   0.2535
  -7.100  -0.8258   0.01440   0.00704   0.0105  0.9934  0.0424  -2.9897   0.0000   0.0000   0.0000   0.2532
  -7.000  -0.8130   0.01419   0.00683   0.0100  0.9920  0.0439  -2.9463   0.0000   0.0000   0.0000   0.2529
  -6.900  -0.8001   0.01395   0.00660   0.0095  0.9903  0.0466  -2.9061   0.0000   0.0000   0.0000   0.2526
  -6.800  -0.7890   0.01350   0.00628   0.0093  0.9884  0.0642  -2.8768   0.0000   0.0000   0.0000   0.2526
  -6.700  -0.7780   0.01305   0.00604   0.0089  0.9863  0.0825  -2.8350   0.0000   0.0000   0.0000   0.2524
  -6.600  -0.7666   0.01269   0.00583   0.0085  0.9842  0.0954  -2.7881   0.0000   0.0000   0.0000   0.2521
  -6.500  -0.7536   0.01254   0.00570   0.0080  0.9825  0.1018  -2.7369   0.0000   0.0000   0.0000   0.2517
  -6.400  -0.7409   0.01240   0.00560   0.0075  0.9808  0.1139  -2.6861   0.0000   0.0000   0.0000   0.2513
  -6.300  -0.7286   0.01220   0.00549   0.0071  0.9790  0.1241  -2.6359   0.0000   0.0000   0.0000   0.2510
  -6.200  -0.7160   0.01202   0.00539   0.0066  0.9773  0.1324  -2.5851   0.0000   0.0000   0.0000   0.2505
  -6.100  -0.7030   0.01188   0.00529   0.0060  0.9756  0.1391  -2.5334   0.0000   0.0000   0.0000   0.2500
  -6.000  -0.6897   0.01176   0.00520   0.0054  0.9739  0.1441  -2.4811   0.0000   0.0000   0.0000   0.2494
  -5.900  -0.6760   0.01166   0.00511   0.0048  0.9723  0.1477  -2.4283   0.0000   0.0000   0.0000   0.2487
  -5.800  -0.6622   0.01157   0.00503   0.0041  0.9707  0.1518  -2.3755   0.0000   0.0000   0.0000   0.2479
  -5.700  -0.6485   0.01144   0.00494   0.0034  0.9691  0.1632  -2.3235   0.0000   0.0000   0.0000   0.2470
  -5.600  -0.6349   0.01128   0.00485   0.0028  0.9676  0.1731  -2.2719   0.0000   0.0000   0.0000   0.2461
  -5.500  -0.6211   0.01113   0.00476   0.0021  0.9660  0.1817  -2.2202   0.0000   0.0000   0.0000   0.2451
  -5.400  -0.6069   0.01100   0.00468   0.0013  0.9646  0.1890  -2.1679   0.0000   0.0000   0.0000   0.2440
  -5.300  -0.5924   0.01090   0.00461   0.0005  0.9632  0.1947  -2.1153   0.0000   0.0000   0.0000   0.2427
  -5.200  -0.5776   0.01082   0.00453  -0.0004  0.9618  0.1987  -2.0625   0.0000   0.0000   0.0000   0.2413
  -5.100  -0.5625   0.01072   0.00445  -0.0013  0.9604  0.2062  -2.0096   0.0000   0.0000   0.0000   0.2396
  -5.000  -0.5475   0.01056   0.00436  -0.0023  0.9588  0.2179  -1.9573   0.0000   0.0000   0.0000   0.2379
  -4.900  -0.5323   0.01038   0.00428  -0.0033  0.9569  0.2280  -1.9051   0.0000   0.0000   0.0000   0.2359
  -4.800  -0.5168   0.01023   0.00420  -0.0044  0.9547  0.2368  -1.8525   0.0000   0.0000   0.0000   0.2337
  -4.700  -0.5011   0.01013   0.00414  -0.0055  0.9520  0.2437  -1.7999   0.0000   0.0000   0.0000   0.2313
  -4.600  -0.4877   0.01005   0.00408  -0.0060  0.9493  0.2483  -1.7523   0.0000   0.0000   0.0000   0.2300
  -4.500  -0.4780   0.00994   0.00398  -0.0057  0.9471  0.2541  -1.7118   0.0000   0.0000   0.0000   0.2305
  -4.400  -0.4688   0.00976   0.00387  -0.0053  0.9443  0.2640  -1.6728   0.0000   0.0000   0.0000   0.2311
  -4.300  -0.4593   0.00959   0.00379  -0.0050  0.9414  0.2731  -1.6334   0.0000   0.0000   0.0000   0.2315
  -4.200  -0.4490   0.00945   0.00372  -0.0049  0.9383  0.2813  -1.5927   0.0000   0.0000   0.0000   0.2317
  -4.100  -0.4381   0.00933   0.00366  -0.0049  0.9352  0.2884  -1.5511   0.0000   0.0000   0.0000   0.2315
  -4.000  -0.4267   0.00924   0.00359  -0.0049  0.9319  0.2939  -1.5089   0.0000   0.0000   0.0000   0.2311
  -3.900  -0.4150   0.00915   0.00352  -0.0050  0.9287  0.2979  -1.4665   0.0000   0.0000   0.0000   0.2306
  -3.800  -0.4027   0.00908   0.00345  -0.0053  0.9255  0.3027  -1.4235   0.0000   0.0000   0.0000   0.2297
  -3.700  -0.3904   0.00898   0.00338  -0.0055  0.9222  0.3145  -1.3808   0.0000   0.0000   0.0000   0.2287
  -3.600  -0.3781   0.00887   0.00331  -0.0058  0.9188  0.3282  -1.3385   0.0000   0.0000   0.0000   0.2276
  -3.500  -0.3659   0.00874   0.00323  -0.0060  0.9152  0.3409  -1.2968   0.0000   0.0000   0.0000   0.2265
  -3.400  -0.3539   0.00861   0.00316  -0.0062  0.9113  0.3522  -1.2556   0.0000   0.0000   0.0000   0.2254
  -3.300  -0.3417   0.00849   0.00309  -0.0064  0.9069  0.3627  -1.2147   0.0000   0.0000   0.0000   0.2241
  -3.200  -0.3294   0.00841   0.00305  -0.0067  0.9015  0.3721  -1.1736   0.0000   0.0000   0.0000   0.2225
  -3.100  -0.3189   0.00834   0.00302  -0.0066  0.8989  0.3795  -1.1361   0.0000   0.0000   0.0000   0.2223
  -3.000  -0.3091   0.00829   0.00299  -0.0063  0.8969  0.3851  -1.1001   0.0000   0.0000   0.0000   0.2226
  -2.900  -0.2993   0.00824   0.00296  -0.0060  0.8943  0.3896  -1.0641   0.0000   0.0000   0.0000   0.2230
  -2.800  -0.2893   0.00819   0.00293  -0.0057  0.8909  0.3932  -1.0284   0.0000   0.0000   0.0000   0.2232
  -2.700  -0.2792   0.00815   0.00289  -0.0055  0.8866  0.3962  -0.9927   0.0000   0.0000   0.0000   0.2235
  -2.600  -0.2689   0.00811   0.00285  -0.0053  0.8813  0.3988  -0.9568   0.0000   0.0000   0.0000   0.2235
  -2.500  -0.2585   0.00806   0.00281  -0.0051  0.8752  0.4066  -0.9213   0.0000   0.0000   0.0000   0.2235
  -2.400  -0.2486   0.00797   0.00276  -0.0048  0.8684  0.4242  -0.8975   0.0000   0.0000   0.0000   0.2239
  -2.300  -0.2389   0.00785   0.00272  -0.0045  0.8613  0.4414  -0.8776   0.0000   0.0000   0.0000   0.2245
  -2.200  -0.2291   0.00774   0.00267  -0.0042  0.8542  0.4555  -0.8588   0.0000   0.0000   0.0000   0.2250
  -2.100  -0.2187   0.00765   0.00263  -0.0040  0.8466  0.4674  -0.8418   0.0000   0.0000   0.0000   0.2250
  -2.000  -0.2081   0.00759   0.00259  -0.0038  0.8382  0.4771  -0.8247   0.0000   0.0000   0.0000   0.2248
  -1.900  -0.1973   0.00755   0.00255  -0.0037  0.8284  0.4846  -0.8074   0.0000   0.0000   0.0000   0.2244
  -1.800  -0.1861   0.00753   0.00253  -0.0037  0.8170  0.4901  -0.7900   0.0000   0.0000   0.0000   0.2233
  -1.700  -0.1743   0.00753   0.00251  -0.0039  0.8049  0.4943  -0.7722   0.0000   0.0000   0.0000   0.2211
  -1.600  -0.1631   0.00751   0.00250  -0.0039  0.7990  0.4974  -0.7549   0.0000   0.0000   0.0000   0.2195
  -1.500  -0.1525   0.00749   0.00248  -0.0037  0.7968  0.4997  -0.7381   0.0000   0.0000   0.0000   0.2187
  -1.400  -0.1421   0.00744   0.00246  -0.0036  0.7937  0.5106  -0.7218   0.0000   0.0000   0.0000   0.2183
  -1.300  -0.1325   0.00737   0.00244  -0.0032  0.7896  0.5281  -0.7060   0.0000   0.0000   0.0000   0.2189
  -1.200  -0.1233   0.00727   0.00243  -0.0028  0.7843  0.5456  -0.6906   0.0000   0.0000   0.0000   0.2206
  -1.100  -0.1138   0.00718   0.00242  -0.0024  0.7782  0.5610  -0.6749   0.0000   0.0000   0.0000   0.2221
  -1.000  -0.1037   0.00712   0.00242  -0.0021  0.7715  0.5745  -0.6589   0.0000   0.0000   0.0000   0.2228
  -0.900  -0.0933   0.00709   0.00240  -0.0019  0.7639  0.5850  -0.6426   0.0000   0.0000   0.0000   0.2227
  -0.800  -0.0826   0.00708   0.00239  -0.0018  0.7555  0.5923  -0.6262   0.0000   0.0000   0.0000   0.2220
  -0.700  -0.0719   0.00709   0.00236  -0.0016  0.7459  0.5969  -0.6117   0.0000   0.0000   0.0000   0.2209
  -0.600  -0.0613   0.00712   0.00233  -0.0015  0.7339  0.5997  -0.5976   0.0000   0.0000   0.0000   0.2197
  -0.500  -0.0507   0.00711   0.00230  -0.0013  0.7192  0.6138  -0.5838   0.0000   0.0000   0.0000   0.2175
  -0.400  -0.0403   0.00709   0.00231  -0.0011  0.7034  0.6319  -0.5702   0.0000   0.0000   0.0000   0.2152
  -0.300  -0.0306   0.00702   0.00233  -0.0008  0.6983  0.6475  -0.5570   0.0000   0.0000   0.0000   0.2173
  -0.200  -0.0207   0.00696   0.00234  -0.0005  0.6948  0.6606  -0.5454   0.0000   0.0000   0.0000   0.2204
  -0.100  -0.0104   0.00693   0.00236  -0.0002  0.6893  0.6720  -0.5347   0.0000   0.0000   0.0000   0.2225
   0.000   0.0000   0.00692   0.00236  -0.0000  0.6816  0.6816  -0.5240   0.0000   0.0000   0.0000   0.4444
   0.100   0.0104   0.00693   0.00236   0.0002  0.6720  0.6893  -0.5347   0.0000   0.0000   0.0000   0.2225
   0.200   0.0207   0.00696   0.00234   0.0005  0.6606  0.6948  -0.5454   0.0000   0.0000   0.0000   0.2204
   0.300   0.0306   0.00702   0.00233   0.0008  0.6475  0.6983  -0.5570   0.0000   0.0000   0.0000   0.2173
   0.400   0.0403   0.00709   0.00231   0.0011  0.6319  0.7034  -0.5702   0.0000   0.0000   0.0000   0.2152
   0.500   0.0507   0.00711   0.00230   0.0013  0.6138  0.7192  -0.5838   0.0000   0.0000   0.0000   0.2175
   0.600   0.0613   0.00712   0.00233   0.0015  0.5997  0.7339  -0.5976   0.0000   0.0000   0.0000   0.2197
   0.700   0.0719   0.00709   0.00236   0.0016  0.5969  0.7459  -0.6117   0.0000   0.0000   0.0000   0.2209
   0.800   0.0826   0.00708   0.00239   0.0018  0.5923  0.7555  -0.6262   0.0000   0.0000   0.0000   0.2220
   0.900   0.0933   0.00709   0.00240   0.0019  0.5850  0.7639  -0.6426   0.0000   0.0000   0.0000   0.2227
   1.000   0.1037   0.00712   0.00242   0.0021  0.5745  0.7715  -0.6589   0.0000   0.0000   0.0000   0.2228
   1.100   0.1138   0.00718   0.00242   0.0024  0.5610  0.7782  -0.6749   0.0000   0.0000   0.0000   0.2221
   1.200   0.1233   0.00727   0.00243   0.0028  0.5456  0.7843  -0.6906   0.0000   0.0000   0.0000   0.2206
   1.300   0.1325   0.00737   0.00244   0.0032  0.5281  0.7896  -0.7060   0.0000   0.0000   0.0000   0.2189
   1.400   0.1421   0.00744   0.00246   0.0036  0.5106  0.7937  -0.7218   0.0000   0.0000   0.0000   0.2183
   1.500   0.1525   0.00749   0.00248   0.0037  0.4997  0.7968  -0.7381   0.0000   0.0000   0.0000   0.2187
   1.600   0.1631   0.00751   0.00250   0.0039  0.4974  0.7990  -0.7549   0.0000   0.0000   0.0000   0.2195
   1.700   0.1743   0.00753   0.00251   0.0039  0.4943  0.8049  -0.7722   0.0000   0.0000   0.0000   0.2211
   1.800   0.1861   0.00753   0.00252   0.0037  0.4901  0.8170  -0.7900   0.0000   0.0000   0.0000   0.2233
   1.900   0.1973   0.00755   0.00255   0.0037  0.4846  0.8284  -0.8074   0.0000   0.0000   0.0000   0.2244
   2.000   0.2081   0.00759   0.00259   0.0038  0.4771  0.8382  -0.8247   0.0000   0.0000   0.0000   0.2248
   2.100   0.2187   0.00765   0.00263   0.0040  0.4674  0.8466  -0.8418   0.0000   0.0000   0.0000   0.2250
   2.200   0.2291   0.00774   0.00267   0.0042  0.4555  0.8542  -0.8588   0.0000   0.0000   0.0000   0.2250
   2.300   0.2389   0.00785   0.00272   0.0045  0.4414  0.8613  -0.8776   0.0000   0.0000   0.0000   0.2245
   2.400   0.2486   0.00797   0.00276   0.0048  0.4242  0.8684  -0.8975   0.0000   0.0000   0.0000   0.2239
   2.500   0.2585   0.00806   0.00281   0.0051  0.4066  0.8752  -0.9213   0.0000   0.0000   0.0000   0.2235
   2.600   0.2689   0.00811   0.00285   0.0053  0.3988  0.8813  -0.9569   0.0000   0.0000   0.0000   0.2235
   2.700   0.2792   0.00815   0.00289   0.0055  0.3962  0.8866  -0.9927   0.0000   0.0000   0.0000   0.2235
   2.800   0.2893   0.00819   0.00292   0.0057  0.3932  0.8909  -1.0284   0.0000   0.0000   0.0000   0.2233
   2.900   0.2993   0.00824   0.00296   0.0060  0.3896  0.8943  -1.0642   0.0000   0.0000   0.0000   0.2230
   3.000   0.3091   0.00829   0.00299   0.0063  0.3851  0.8969  -1.1001   0.0000   0.0000   0.0000   0.2227
   3.100   0.3189   0.00834   0.00302   0.0066  0.3795  0.8989  -1.1362   0.0000   0.0000   0.0000   0.2223
   3.200   0.3294   0.00841   0.00305   0.0067  0.3721  0.9015  -1.1736   0.0000   0.0000   0.0000   0.2225
   3.300   0.3418   0.00849   0.00309   0.0064  0.3627  0.9069  -1.2147   0.0000   0.0000   0.0000   0.2241
   3.400   0.3539   0.00861   0.00316   0.0062  0.3522  0.9113  -1.2557   0.0000   0.0000   0.0000   0.2254
   3.500   0.3659   0.00874   0.00323   0.0060  0.3409  0.9152  -1.2969   0.0000   0.0000   0.0000   0.2265
   3.600   0.3781   0.00887   0.00331   0.0058  0.3282  0.9188  -1.3386   0.0000   0.0000   0.0000   0.2276
   3.700   0.3904   0.00898   0.00338   0.0055  0.3145  0.9222  -1.3808   0.0000   0.0000   0.0000   0.2287
   3.800   0.4028   0.00908   0.00345   0.0053  0.3027  0.9255  -1.4236   0.0000   0.0000   0.0000   0.2297
   3.900   0.4150   0.00915   0.00352   0.0050  0.2979  0.9287  -1.4665   0.0000   0.0000   0.0000   0.2306
   4.000   0.4267   0.00923   0.00359   0.0049  0.2939  0.9320  -1.5090   0.0000   0.0000   0.0000   0.2311
   4.100   0.4381   0.00933   0.00365   0.0049  0.2884  0.9352  -1.5511   0.0000   0.0000   0.0000   0.2315
   4.200   0.4490   0.00945   0.00372   0.0049  0.2813  0.9383  -1.5927   0.0000   0.0000   0.0000   0.2317
   4.300   0.4593   0.00959   0.00379   0.0050  0.2731  0.9414  -1.6334   0.0000   0.0000   0.0000   0.2315
   4.400   0.4688   0.00976   0.00387   0.0053  0.2640  0.9444  -1.6728   0.0000   0.0000   0.0000   0.2311
   4.500   0.4780   0.00994   0.00398   0.0056  0.2540  0.9471  -1.7118   0.0000   0.0000   0.0000   0.2305
   4.600   0.4877   0.01005   0.00407   0.0060  0.2483  0.9493  -1.7523   0.0000   0.0000   0.0000   0.2300
   4.700   0.5011   0.01013   0.00414   0.0054  0.2437  0.9520  -1.8000   0.0000   0.0000   0.0000   0.2313
   4.800   0.5169   0.01023   0.00420   0.0044  0.2368  0.9547  -1.8526   0.0000   0.0000   0.0000   0.2337
   4.900   0.5324   0.01038   0.00428   0.0033  0.2280  0.9569  -1.9053   0.0000   0.0000   0.0000   0.2359
   5.000   0.5476   0.01055   0.00436   0.0023  0.2179  0.9588  -1.9574   0.0000   0.0000   0.0000   0.2379
   5.100   0.5626   0.01072   0.00445   0.0013  0.2062  0.9604  -2.0098   0.0000   0.0000   0.0000   0.2397
   5.200   0.5777   0.01082   0.00453   0.0004  0.1987  0.9619  -2.0627   0.0000   0.0000   0.0000   0.2413
   5.300   0.5925   0.01090   0.00460  -0.0005  0.1946  0.9632  -2.1155   0.0000   0.0000   0.0000   0.2427
   5.400   0.6070   0.01100   0.00468  -0.0013  0.1890  0.9646  -2.1682   0.0000   0.0000   0.0000   0.2440
   5.500   0.6212   0.01112   0.00476  -0.0021  0.1816  0.9661  -2.2204   0.0000   0.0000   0.0000   0.2452
   5.600   0.6350   0.01128   0.00485  -0.0028  0.1731  0.9676  -2.2721   0.0000   0.0000   0.0000   0.2462
   5.700   0.6486   0.01144   0.00493  -0.0035  0.1632  0.9692  -2.3237   0.0000   0.0000   0.0000   0.2471
   5.800   0.6623   0.01157   0.00502  -0.0042  0.1518  0.9708  -2.3757   0.0000   0.0000   0.0000   0.2479
   5.900   0.6761   0.01166   0.00511  -0.0048  0.1477  0.9724  -2.4286   0.0000   0.0000   0.0000   0.2487
   6.000   0.6898   0.01176   0.00519  -0.0055  0.1441  0.9740  -2.4813   0.0000   0.0000   0.0000   0.2494
   6.100   0.7032   0.01187   0.00528  -0.0061  0.1391  0.9757  -2.5337   0.0000   0.0000   0.0000   0.2500
   6.200   0.7161   0.01202   0.00538  -0.0066  0.1324  0.9774  -2.5854   0.0000   0.0000   0.0000   0.2506
   6.300   0.7287   0.01220   0.00549  -0.0071  0.1240  0.9791  -2.6362   0.0000   0.0000   0.0000   0.2510
   6.400   0.7410   0.01239   0.00560  -0.0076  0.1139  0.9809  -2.6864   0.0000   0.0000   0.0000   0.2514
   6.500   0.7538   0.01254   0.00570  -0.0080  0.1018  0.9826  -2.7372   0.0000   0.0000   0.0000   0.2518
   6.600   0.7667   0.01269   0.00582  -0.0086  0.0954  0.9843  -2.7884   0.0000   0.0000   0.0000   0.2522
   6.700   0.7782   0.01305   0.00603  -0.0090  0.0824  0.9864  -2.8353   0.0000   0.0000   0.0000   0.2524
   6.800   0.7891   0.01349   0.00628  -0.0093  0.0641  0.9885  -2.8771   0.0000   0.0000   0.0000   0.2526
   6.900   0.8003   0.01395   0.00660  -0.0096  0.0466  0.9905  -2.9064   0.0000   0.0000   0.0000   0.2527
   7.000   0.8132   0.01419   0.00682  -0.0101  0.0439  0.9921  -2.9466   0.0000   0.0000   0.0000   0.2530
   7.100   0.8261   0.01440   0.00704  -0.0105  0.0424  0.9935  -2.9901   0.0000   0.0000   0.0000   0.2533
   7.200   0.8388   0.01459   0.00724  -0.0110  0.0414  0.9948  -3.0348   0.0000   0.0000   0.0000   0.2535
   7.300   0.8514   0.01477   0.00744  -0.0114  0.0407  0.9959  -3.0802   0.0000   0.0000   0.0000   0.2537
   7.400   0.8637   0.01495   0.00764  -0.0117  0.0402  0.9968  -3.1257   0.0000   0.0000   0.0000   0.2538
   7.500   0.8756   0.01513   0.00784  -0.0120  0.0398  0.9976  -3.1710   0.0000   0.0000   0.0000   0.2539
   7.600   0.8874   0.01531   0.00804  -0.0123  0.0395  0.9984  -3.2165   0.0000   0.0000   0.0000   0.2539
   7.700   0.8991   0.01550   0.00826  -0.0125  0.0393  0.9990  -3.2622   0.0000   0.0000   0.0000   0.2539
   7.800   0.9107   0.01570   0.00849  -0.0128  0.0391  0.9996  -3.3078   0.0000   0.0000   0.0000   0.2539
   7.900   0.9206   0.01584   0.00882  -0.0128  0.0352  1.0000  -3.4000   0.0000   0.0000   0.0000   0.2536
   8.000   0.9252   0.01599   0.00898  -0.0116  0.0343  1.0000  -3.4365   0.0000   0.0000   0.0000   0.2522
   8.100   0.9296   0.01613   0.00915  -0.0105  0.0337  1.0000  -3.4710   0.0000   0.0000   0.0000   0.2508
   8.200   0.9341   0.01629   0.00932  -0.0094  0.0332  1.0000  -3.5049   0.0000   0.0000   0.0000   0.2494
   8.300   0.9387   0.01645   0.00951  -0.0082  0.0327  1.0000  -3.5388   0.0000   0.0000   0.0000   0.2480
   8.400   0.9434   0.01662   0.00970  -0.0071  0.0323  1.0000  -3.5729   0.0000   0.0000   0.0000   0.2466
   8.500   0.9482   0.01679   0.00989  -0.0060  0.0320  1.0000  -3.6071   0.0000   0.0000   0.0000   0.2453
   8.600   0.9531   0.01698   0.01010  -0.0049  0.0316  1.0000  -3.6412   0.0000   0.0000   0.0000   0.2440
   8.700   0.9578   0.01717   0.01031  -0.0038  0.0313  1.0000  -3.6751   0.0000   0.0000   0.0000   0.2427
   8.800   0.9625   0.01736   0.01053  -0.0027  0.0310  1.0000  -3.7089   0.0000   0.0000   0.0000   0.2414
   8.900   0.9671   0.01756   0.01075  -0.0016  0.0307  1.0000  -3.7425   0.0000   0.0000   0.0000   0.2401
   9.000   0.9716   0.01776   0.01098  -0.0004  0.0305  1.0000  -3.7757   0.0000   0.0000   0.0000   0.2388
   9.100   0.9759   0.01797   0.01121   0.0008  0.0303  1.0000  -3.8087   0.0000   0.0000   0.0000   0.2374
   9.200   0.9802   0.01819   0.01145   0.0019  0.0300  1.0000  -3.8415   0.0000   0.0000   0.0000   0.2361
   9.300   0.9845   0.01841   0.01170   0.0031  0.0298  1.0000  -3.8742   0.0000   0.0000   0.0000   0.2348
   9.400   0.9887   0.01864   0.01195   0.0043  0.0296  1.0000  -3.9067   0.0000   0.0000   0.0000   0.2335
   9.500   0.9928   0.01888   0.01222   0.0055  0.0295  1.0000  -3.9392   0.0000   0.0000   0.0000   0.2322
   9.600   0.9969   0.01912   0.01249   0.0066  0.0293  1.0000  -3.9715   0.0000   0.0000   0.0000   0.2309
   9.700   1.0009   0.01937   0.01277   0.0078  0.0291  1.0000  -4.0035   0.0000   0.0000   0.0000   0.2296
   9.800   1.0048   0.01963   0.01305   0.0090  0.0289  1.0000  -4.0353   0.0000   0.0000   0.0000   0.2283
   9.900   1.0087   0.01990   0.01335   0.0102  0.0288  1.0000  -4.0671   0.0000   0.0000   0.0000   0.2271
  10.000   1.0128   0.02018   0.01366   0.0113  0.0286  1.0000  -4.0990   0.0000   0.0000   0.0000   0.2258
  10.100   1.0169   0.02048   0.01398   0.0124  0.0285  1.0000  -4.1311   0.0000   0.0000   0.0000   0.2247
  10.200   1.0212   0.02079   0.01432   0.0134  0.0283  1.0000  -4.1633   0.0000   0.0000   0.0000   0.2236
  10.300   1.0250   0.02111   0.01467   0.0145  0.0282  1.0000  -4.1946   0.0000   0.0000   0.0000   0.2224
  10.400   1.0284   0.02143   0.01502   0.0157  0.0280  1.0000  -4.2246   0.0000   0.0000   0.0000   0.2212
  10.500   1.0316   0.02176   0.01539   0.0168  0.0279  1.0000  -4.2542   0.0000   0.0000   0.0000   0.2199
  10.600   1.0350   0.02212   0.01577   0.0180  0.0278  1.0000  -4.2839   0.0000   0.0000   0.0000   0.2188
  10.700   1.0386   0.02249   0.01618   0.0190  0.0276  1.0000  -4.3140   0.0000   0.0000   0.0000   0.2177
  10.800   1.0423   0.02288   0.01661   0.0200  0.0275  1.0000  -4.3441   0.0000   0.0000   0.0000   0.2166
  10.900   1.0461   0.02329   0.01705   0.0209  0.0274  1.0000  -4.3742   0.0000   0.0000   0.0000   0.2157
  11.000   1.0499   0.02372   0.01752   0.0218  0.0273  1.0000  -4.4039   0.0000   0.0000   0.0000   0.2147
  11.100   1.0533   0.02418   0.01802   0.0227  0.0271  1.0000  -4.4325   0.0000   0.0000   0.0000   0.2138
  11.200   1.0564   0.02466   0.01854   0.0236  0.0270  1.0000  -4.4602   0.0000   0.0000   0.0000   0.2128
  11.300   1.0592   0.02515   0.01907   0.0246  0.0269  1.0000  -4.4868   0.0000   0.0000   0.0000   0.2118
  11.400   1.0620   0.02566   0.01962   0.0255  0.0268  1.0000  -4.5129   0.0000   0.0000   0.0000   0.2108
  11.500   1.0647   0.02619   0.02020   0.0264  0.0267  1.0000  -4.5386   0.0000   0.0000   0.0000   0.2099
  11.600   1.0674   0.02675   0.02080   0.0272  0.0265  1.0000  -4.5638   0.0000   0.0000   0.0000   0.2090
  11.700   1.0844   0.02597   0.01999   0.0266  0.0287  1.0000  -4.6489   0.0000   0.0000   0.0000   0.2099
  11.800   1.0883   0.02639   0.02045   0.0273  0.0288  1.0000  -4.6806   0.0000   0.0000   0.0000   0.2092
  11.900   1.0914   0.02688   0.02097   0.0280  0.0288  1.0000  -4.7096   0.0000   0.0000   0.0000   0.2084
  12.000   1.0943   0.02740   0.02153   0.0287  0.0287  1.0000  -4.7377   0.0000   0.0000   0.0000   0.2076
  12.100   1.0973   0.02794   0.02211   0.0294  0.0287  1.0000  -4.7661   0.0000   0.0000   0.0000   0.2069
  12.200   1.1005   0.02850   0.02270   0.0300  0.0286  1.0000  -4.7947   0.0000   0.0000   0.0000   0.2062
  12.300   1.1036   0.02907   0.02332   0.0306  0.0285  1.0000  -4.8231   0.0000   0.0000   0.0000   0.2056
  12.400   1.1067   0.02967   0.02395   0.0312  0.0284  1.0000  -4.8510   0.0000   0.0000   0.0000   0.2050
  12.500   1.1097   0.03028   0.02461   0.0317  0.0283  1.0000  -4.8783   0.0000   0.0000   0.0000   0.2044
  12.600   1.1125   0.03093   0.02530   0.0323  0.0282  1.0000  -4.9048   0.0000   0.0000   0.0000   0.2038
  12.700   1.1151   0.03160   0.02602   0.0328  0.0281  1.0000  -4.9302   0.0000   0.0000   0.0000   0.2032
  12.800   1.1173   0.03230   0.02677   0.0333  0.0280  1.0000  -4.9545   0.0000   0.0000   0.0000   0.2026
  12.900   1.1192   0.03304   0.02756   0.0338  0.0278  1.0000  -4.9774   0.0000   0.0000   0.0000   0.2020
  13.000   1.1203   0.03385   0.02842   0.0343  0.0277  1.0000  -4.9974   0.0000   0.0000   0.0000   0.2014
  13.100   1.1199   0.03476   0.02939   0.0348  0.0276  1.0000  -5.0127   0.0000   0.0000   0.0000   0.2008
  13.200   1.1196   0.03568   0.03036   0.0352  0.0275  1.0000  -5.0281   0.0000   0.0000   0.0000   0.2002
  13.300   1.1195   0.03658   0.03132   0.0356  0.0274  1.0000  -5.0432   0.0000   0.0000   0.0000   0.1996
  13.400   1.1192   0.03751   0.03230   0.0360  0.0273  1.0000  -5.0578   0.0000   0.0000   0.0000   0.1990
  13.500   1.1189   0.03848   0.03332   0.0364  0.0272  1.0000  -5.0715   0.0000   0.0000   0.0000   0.1985
  13.600   1.1184   0.03950   0.03441   0.0367  0.0271  1.0000  -5.0838   0.0000   0.0000   0.0000   0.1980
  13.700   1.1174   0.04059   0.03555   0.0370  0.0270  1.0000  -5.0943   0.0000   0.0000   0.0000   0.1975
  13.800   1.1159   0.04176   0.03678   0.0372  0.0269  1.0000  -5.1025   0.0000   0.0000   0.0000   0.1971
  13.900   1.1122   0.04317   0.03826   0.0371  0.0268  1.0000  -5.1030   0.0000   0.0000   0.0000   0.1967
  14.000   1.1089   0.04460   0.03975   0.0370  0.0268  1.0000  -5.1040   0.0000   0.0000   0.0000   0.1965
  14.100   1.1061   0.04600   0.04122   0.0370  0.0267  1.0000  -5.1059   0.0000   0.0000   0.0000   0.1962
  14.200   1.1033   0.04744   0.04272   0.0369  0.0266  1.0000  -5.1069   0.0000   0.0000   0.0000   0.1959
  14.300   1.1001   0.04893   0.04428   0.0368  0.0265  1.0000  -5.1061   0.0000   0.0000   0.0000   0.1957
  14.400   1.0964   0.05050   0.04592   0.0366  0.0264  1.0000  -5.1028   0.0000   0.0000   0.0000   0.1956
  14.500   1.0916   0.05223   0.04772   0.0362  0.0264  1.0000  -5.0955   0.0000   0.0000   0.0000   0.1955
  14.600   1.0844   0.05434   0.04990   0.0354  0.0264  1.0000  -5.0790   0.0000   0.0000   0.0000   0.1958
  14.700   1.0788   0.05626   0.05189   0.0347  0.0263  1.0000  -5.0669   0.0000   0.0000   0.0000   0.1959
  14.800   1.0735   0.05815   0.05384   0.0342  0.0263  1.0000  -5.0551   0.0000   0.0000   0.0000   0.1960
  14.900   1.0679   0.06008   0.05584   0.0336  0.0262  1.0000  -5.0417   0.0000   0.0000   0.0000   0.1961
  15.000   1.0619   0.06210   0.05793   0.0329  0.0262  1.0000  -5.0257   0.0000   0.0000   0.0000   0.1963
  15.100   1.0548   0.06431   0.06021   0.0319  0.0261  1.0000  -5.0053   0.0000   0.0000   0.0000   0.1967
  15.200   1.0449   0.06712   0.06308   0.0303  0.0262  1.0000  -4.9732   0.0000   0.0000   0.0000   0.1977
  15.300   1.0373   0.06943   0.06546   0.0293  0.0261  1.0000  -4.9493   0.0000   0.0000   0.0000   0.1982
  15.400   1.0303   0.07167   0.06776   0.0283  0.0261  1.0000  -4.9264   0.0000   0.0000   0.0000   0.1987
  15.500   1.0231   0.07397   0.07012   0.0273  0.0261  1.0000  -4.9020   0.0000   0.0000   0.0000   0.1992
  15.600   1.0156   0.07644   0.07265   0.0262  0.0261  1.0000  -4.8749   0.0000   0.0000   0.0000   0.1998
  15.700   1.0075   0.07914   0.07542   0.0248  0.0261  1.0000  -4.8434   0.0000   0.0000   0.0000   0.2007
  15.800   0.9955   0.08282   0.07917   0.0223  0.0262  1.0000  -4.7939   0.0000   0.0000   0.0000   0.2025
  15.900   0.9873   0.08572   0.08213   0.0208  0.0262  1.0000  -4.7588   0.0000   0.0000   0.0000   0.2037
  16.000   0.9800   0.08848   0.08494   0.0194  0.0261  1.0000  -4.7259   0.0000   0.0000   0.0000   0.2047
  16.100   0.9727   0.09125   0.08776   0.0180  0.0261  1.0000  -4.6918   0.0000   0.0000   0.0000   0.2057
  16.200   0.9650   0.09412   0.09069   0.0165  0.0261  1.0000  -4.6546   0.0000   0.0000   0.0000   0.2068
  16.300   0.9567   0.09719   0.09382   0.0149  0.0261  1.0000  -4.6126   0.0000   0.0000   0.0000   0.2082
  16.400   0.9462   0.10100   0.09769   0.0126  0.0262  1.0000  -4.5558   0.0000   0.0000   0.0000   0.2102
  16.500   0.9353   0.10496   0.10171   0.0102  0.0263  1.0000  -4.4938   0.0000   0.0000   0.0000   0.2124
  16.600   0.9250   0.10872   0.10553   0.0080  0.0263  1.0000  -4.4328   0.0000   0.0000   0.0000   0.2144
  16.700   0.9116   0.11341   0.11028   0.0052  0.0265  1.0000  -4.3488   0.0000   0.0000   0.0000   0.2172
  16.800   0.8996   0.11773   0.11465   0.0027  0.0266  1.0000  -4.2690   0.0000   0.0000   0.0000   0.2197
  16.900   0.8869   0.12218   0.11915   0.0002  0.0267  1.0000  -4.1806   0.0000   0.0000   0.0000   0.2224
  17.000   0.8677   0.12836   0.12539  -0.0033  0.0270  1.0000  -4.0385   0.0000   0.0000   0.0000   0.2263
  17.100   0.8533   0.13334   0.13041  -0.0059  0.0272  1.0000  -3.9225   0.0000   0.0000   0.0000   0.2294
  17.200   0.8279   0.14117   0.13830  -0.0099  0.0276  1.0000  -3.7000   0.0000   0.0000   0.0000   0.2345
  17.300   0.8133   0.14632   0.14348  -0.0125  0.0278  1.0000  -3.5568   0.0000   0.0000   0.0000   0.2378
  17.400   0.7994   0.15145   0.14863  -0.0149  0.0279  1.0000  -3.4059   0.0000   0.0000   0.0000   0.2411
  17.500   0.7823   0.15736   0.15455  -0.0176  0.0280  1.0000  -3.2015   0.0000   0.0000   0.0000   0.2452
  17.600   0.7730   0.16131   0.15850  -0.0195  0.0279  1.0000  -3.0753   0.0000   0.0000   0.0000   0.2479
  17.700   0.7672   0.16448   0.16167  -0.0211  0.0277  1.0000  -2.9874   0.0000   0.0000   0.0000   0.2501
  17.800   0.7628   0.16733   0.16452  -0.0225  0.0275  1.0000  -2.9159   0.0000   0.0000   0.0000   0.2521
  17.900   0.7587   0.17016   0.16734  -0.0239  0.0272  1.0000  -2.8465   0.0000   0.0000   0.0000   0.2540
  18.700   0.7415   0.19046   0.18760  -0.0338  0.0242  1.0000  -2.4792   0.0000   0.0000   0.0000   0.2674
  18.800   0.7451   0.19142   0.18856  -0.0344  0.0241  1.0000  -2.5016   0.0000   0.0000   0.0000   0.2677
  18.900   0.7492   0.19221   0.18935  -0.0349  0.0240  1.0000  -2.5335   0.0000   0.0000   0.0000   0.2679
  19.000   0.7537   0.19289   0.19003  -0.0354  0.0238  1.0000  -2.5715   0.0000   0.0000   0.0000   0.2681
  19.100   0.7583   0.19352   0.19065  -0.0359  0.0237  1.0000  -2.6136   0.0000   0.0000   0.0000   0.2682
  19.200   0.7631   0.19410   0.19123  -0.0364  0.0235  1.0000  -2.6583   0.0000   0.0000   0.0000   0.2683
  19.300   0.7679   0.19467   0.19180  -0.0368  0.0233  1.0000  -2.7046   0.0000   0.0000   0.0000   0.2683
  19.400   0.7727   0.19523   0.19236  -0.0373  0.0231  1.0000  -2.7519   0.0000   0.0000   0.0000   0.2684
  19.500   0.7775   0.19580   0.19293  -0.0377  0.0228  1.0000  -2.7997   0.0000   0.0000   0.0000   0.2684
  19.600   0.7822   0.19639   0.19351  -0.0382  0.0226  1.0000  -2.8473   0.0000   0.0000   0.0000   0.2685
  19.700   0.7869   0.19700   0.19412  -0.0386  0.0223  1.0000  -2.8967   0.0000   0.0000   0.0000   0.2685
  19.800   0.7915   0.19763   0.19475  -0.0391  0.0220  1.0000  -2.9507   0.0000   0.0000   0.0000   0.2686
  19.900   0.7960   0.19829   0.19541  -0.0396  0.0217  1.0000  -3.0038   0.0000   0.0000   0.0000   0.2687
  20.000   0.8004   0.19899   0.19610  -0.0401  0.0213  1.0000  -3.0559   0.0000   0.0000   0.0000   0.2688
  20.100   0.8047   0.19972   0.19683  -0.0406  0.0209  1.0000  -3.1070   0.0000   0.0000   0.0000   0.2689
  20.200   0.8089   0.20048   0.19759  -0.0411  0.0205  1.0000  -3.1569   0.0000   0.0000   0.0000   0.2690
  20.300   0.8129   0.20129   0.19840  -0.0417  0.0201  1.0000  -3.2052   0.0000   0.0000   0.0000   0.2692
  20.400   0.8169   0.20214   0.19924  -0.0422  0.0196  1.0000  -3.2524   0.0000   0.0000   0.0000   0.2694
  20.500   0.8207   0.20301   0.20010  -0.0428  0.0191  1.0000  -3.2988   0.0000   0.0000   0.0000   0.2696
  20.600   0.8246   0.20385   0.20094  -0.0433  0.0186  1.0000  -3.3465   0.0000   0.0000   0.0000   0.2697
  20.700   0.8287   0.20462   0.20171  -0.0439  0.0182  1.0000  -3.3973   0.0000   0.0000   0.0000   0.2699
  20.800   0.8330   0.20530   0.20239  -0.0444  0.0178  1.0000  -3.4520   0.0000   0.0000   0.0000   0.2699
  20.900   0.8375   0.20590   0.20298  -0.0448  0.0174  1.0000  -3.5108   0.0000   0.0000   0.0000   0.2699
  21.000   0.8423   0.20640   0.20348  -0.0453  0.0171  1.0000  -3.5737   0.0000   0.0000   0.0000   0.2699
  21.100   0.8472   0.20683   0.20390  -0.0457  0.0168  1.0000  -3.6404   0.0000   0.0000   0.0000   0.2697
  21.200   0.8524   0.20719   0.20426  -0.0461  0.0166  1.0000  -3.7105   0.0000   0.0000   0.0000   0.2696
  21.300   0.8578   0.20749   0.20456  -0.0465  0.0164  1.0000  -3.7835   0.0000   0.0000   0.0000   0.2694
  21.400   0.8632   0.20776   0.20483  -0.0469  0.0162  1.0000  -3.8588   0.0000   0.0000   0.0000   0.2692
  21.500   0.8688   0.20801   0.20507  -0.0472  0.0161  1.0000  -3.9358   0.0000   0.0000   0.0000   0.2689
  21.600   0.8744   0.20824   0.20529  -0.0476  0.0159  1.0000  -4.0146   0.0000   0.0000   0.0000   0.2686
  21.700   0.8803   0.20838   0.20543  -0.0479  0.0158  1.0000  -4.0973   0.0000   0.0000   0.0000   0.2683
  21.800   0.8865   0.20845   0.20548  -0.0482  0.0157  1.0000  -4.1842   0.0000   0.0000   0.0000   0.2679
  21.900   0.8928   0.20847   0.20550  -0.0485  0.0156  1.0000  -4.2734   0.0000   0.0000   0.0000   0.2675
  22.000   0.8993   0.20848   0.20550  -0.0487  0.0155  1.0000  -4.3644   0.0000   0.0000   0.0000   0.2670
  22.100   0.9058   0.20845   0.20546  -0.0490  0.0154  1.0000  -4.4571   0.0000   0.0000   0.0000   0.2666
  22.200   0.9125   0.20838   0.20537  -0.0492  0.0152  1.0000  -4.5527   0.0000   0.0000   0.0000   0.2660
  22.300   0.9193   0.20829   0.20527  -0.0494  0.0151  1.0000  -4.6492   0.0000   0.0000   0.0000   0.2655
  22.400   0.9260   0.20824   0.20520  -0.0496  0.0149  1.0000  -4.7442   0.0000   0.0000   0.0000   0.2650
  22.500   0.9322   0.20834   0.20527  -0.0499  0.0146  1.0000  -4.8328   0.0000   0.0000   0.0000   0.2646
  22.600   0.9370   0.20887   0.20577  -0.0503  0.0142  1.0000  -4.9010   0.0000   0.0000   0.0000   0.2645


