xflr5 v6.61

 Calculated polar for: NACA M6 AIRFOIL

 1 1 Reynolds number fixed          Mach number fixed         

 xtrf =   1.000 (top)        1.000 (bottom)
 Mach =   0.000     Re =     0.625 e 6     Ncrit =   9.000

  alpha     CL        CD       CDp       Cm    Top Xtr Bot Xtr   Cpmin    Chinge    XCp    
 ------- -------- --------- --------- -------- ------- ------- -------- --------- ---------
 -10.000  -0.5335   0.09917   0.09684  -0.0005  1.0000  0.0321  -1.9631   0.0000   0.0000   0.0000   0.2405
  -9.900  -0.5331   0.09758   0.09525  -0.0014  1.0000  0.0323  -1.9721   0.0000   0.0000   0.0000   0.2391
  -9.800  -0.5330   0.09595   0.09364  -0.0022  1.0000  0.0324  -1.9822   0.0000   0.0000   0.0000   0.2376
  -9.700  -0.5331   0.09430   0.09199  -0.0031  1.0000  0.0325  -1.9935   0.0000   0.0000   0.0000   0.2361
  -9.600  -0.5335   0.09262   0.09031  -0.0041  1.0000  0.0326  -2.0062   0.0000   0.0000   0.0000   0.2344
  -9.500  -0.5341   0.09091   0.08861  -0.0050  1.0000  0.0327  -2.0205   0.0000   0.0000   0.0000   0.2327
  -9.400  -0.5352   0.08915   0.08685  -0.0061  1.0000  0.0328  -2.0367   0.0000   0.0000   0.0000   0.2309
  -9.300  -0.5365   0.08731   0.08502  -0.0073  1.0000  0.0330  -2.0549   0.0000   0.0000   0.0000   0.2289
  -9.200  -0.5378   0.08533   0.08305  -0.0087  1.0000  0.0331  -2.0755   0.0000   0.0000   0.0000   0.2264
  -9.100  -0.5398   0.08318   0.08091  -0.0105  1.0000  0.0332  -2.1007   0.0000   0.0000   0.0000   0.2233
  -9.000  -0.5431   0.08071   0.07844  -0.0129  1.0000  0.0333  -2.1351   0.0000   0.0000   0.0000   0.2193
  -8.900  -0.5485   0.07790   0.07563  -0.0159  1.0000  0.0333  -2.1811   0.0000   0.0000   0.0000   0.2143
  -8.800  -0.5542   0.07561   0.07333  -0.0175  1.0000  0.0334  -2.2184   0.0000   0.0000   0.0000   0.2119
  -8.700  -0.5597   0.07357   0.07127  -0.0185  1.0000  0.0335  -2.2514   0.0000   0.0000   0.0000   0.2106
  -8.600  -0.5646   0.07171   0.06940  -0.0191  1.0000  0.0336  -2.2787   0.0000   0.0000   0.0000   0.2101
  -8.500  -0.5684   0.06993   0.06760  -0.0195  1.0000  0.0337  -2.3027   0.0000   0.0000   0.0000   0.2098
  -8.400  -0.5697   0.06808   0.06572  -0.0201  1.0000  0.0338  -2.3223   0.0000   0.0000   0.0000   0.2088
  -8.300  -0.5702   0.06632   0.06394  -0.0206  1.0000  0.0340  -2.3370   0.0000   0.0000   0.0000   0.2080
  -8.200  -0.5705   0.06470   0.06229  -0.0209  1.0000  0.0342  -2.3476   0.0000   0.0000   0.0000   0.2076
  -8.100  -0.5702   0.06316   0.06073  -0.0212  1.0000  0.0344  -2.3540   0.0000   0.0000   0.0000   0.2072
  -8.000  -0.5691   0.06169   0.05922  -0.0214  1.0000  0.0347  -2.3567   0.0000   0.0000   0.0000   0.2069
  -7.900  -0.5673   0.06027   0.05777  -0.0215  1.0000  0.0351  -2.3564   0.0000   0.0000   0.0000   0.2066
  -7.800  -0.5646   0.05886   0.05634  -0.0217  0.9944  0.0354  -2.3537   0.0000   0.0000   0.0000   0.2061
  -7.700  -0.5592   0.05734   0.05477  -0.0225  0.9755  0.0359  -2.3465   0.0000   0.0000   0.0000   0.2044
  -7.600  -0.5522   0.05578   0.05315  -0.0235  0.9608  0.0364  -2.3378   0.0000   0.0000   0.0000   0.2022
  -7.500  -0.5465   0.05430   0.05161  -0.0240  0.9470  0.0369  -2.3316   0.0000   0.0000   0.0000   0.2008
  -7.400  -0.5437   0.05300   0.05025  -0.0238  0.9365  0.0372  -2.3298   0.0000   0.0000   0.0000   0.2011
  -7.300  -0.5411   0.05172   0.04890  -0.0234  0.9258  0.0375  -2.3299   0.0000   0.0000   0.0000   0.2016
  -7.200  -0.5388   0.05045   0.04755  -0.0228  0.9149  0.0378  -2.3323   0.0000   0.0000   0.0000   0.2025
  -7.100  -0.5361   0.04917   0.04618  -0.0223  0.9031  0.0380  -2.3349   0.0000   0.0000   0.0000   0.2034
  -7.000  -0.5323   0.04785   0.04479  -0.0220  0.8980  0.0382  -2.3360   0.0000   0.0000   0.0000   0.2037
  -6.900  -0.5281   0.04654   0.04342  -0.0216  0.8945  0.0384  -2.3360   0.0000   0.0000   0.0000   0.2041
  -6.800  -0.5236   0.04527   0.04208  -0.0212  0.8900  0.0386  -2.3347   0.0000   0.0000   0.0000   0.2044
  -6.700  -0.5188   0.04403   0.04077  -0.0208  0.8844  0.0389  -2.3327   0.0000   0.0000   0.0000   0.2049
  -6.600  -0.5138   0.04282   0.03948  -0.0204  0.8778  0.0392  -2.3296   0.0000   0.0000   0.0000   0.2054
  -6.500  -0.5086   0.04167   0.03825  -0.0199  0.8701  0.0395  -2.3249   0.0000   0.0000   0.0000   0.2059
  -6.400  -0.5033   0.04059   0.03709  -0.0193  0.8617  0.0398  -2.3183   0.0000   0.0000   0.0000   0.2066
  -6.300  -0.4978   0.03956   0.03597  -0.0188  0.8526  0.0400  -2.3104   0.0000   0.0000   0.0000   0.2074
  -6.200  -0.4922   0.03858   0.03488  -0.0182  0.8425  0.0404  -2.3014   0.0000   0.0000   0.0000   0.2081
  -6.100  -0.4863   0.03762   0.03382  -0.0176  0.8306  0.0407  -2.2911   0.0000   0.0000   0.0000   0.2089
  -6.000  -0.4798   0.03669   0.03279  -0.0171  0.8167  0.0410  -2.2794   0.0000   0.0000   0.0000   0.2094
  -5.900  -0.4727   0.03578   0.03179  -0.0167  0.8033  0.0414  -2.2662   0.0000   0.0000   0.0000   0.2097
  -5.800  -0.4652   0.03487   0.03082  -0.0164  0.7989  0.0418  -2.2516   0.0000   0.0000   0.0000   0.2099
  -5.700  -0.4575   0.03399   0.02988  -0.0160  0.7970  0.0422  -2.2356   0.0000   0.0000   0.0000   0.2101
  -5.600  -0.4497   0.03316   0.02898  -0.0156  0.7944  0.0426  -2.2183   0.0000   0.0000   0.0000   0.2103
  -5.500  -0.4418   0.03238   0.02813  -0.0153  0.7910  0.0430  -2.1998   0.0000   0.0000   0.0000   0.2105
  -5.400  -0.4338   0.03164   0.02731  -0.0149  0.7869  0.0434  -2.1801   0.0000   0.0000   0.0000   0.2108
  -5.300  -0.4256   0.03094   0.02654  -0.0145  0.7821  0.0439  -2.1591   0.0000   0.0000   0.0000   0.2110
  -5.200  -0.4173   0.03029   0.02581  -0.0141  0.7769  0.0443  -2.1368   0.0000   0.0000   0.0000   0.2113
  -5.100  -0.4087   0.02968   0.02512  -0.0138  0.7716  0.0448  -2.1132   0.0000   0.0000   0.0000   0.2115
  -5.000  -0.4001   0.02911   0.02448  -0.0134  0.7663  0.0452  -2.0882   0.0000   0.0000   0.0000   0.2116
  -4.900  -0.3912   0.02860   0.02389  -0.0131  0.7607  0.0457  -2.0617   0.0000   0.0000   0.0000   0.2117
  -4.800  -0.3822   0.02814   0.02335  -0.0127  0.7547  0.0462  -2.0336   0.0000   0.0000   0.0000   0.2118
  -4.700  -0.3731   0.02774   0.02286  -0.0124  0.7481  0.0467  -2.0038   0.0000   0.0000   0.0000   0.2119
  -4.600  -0.3636   0.02740   0.02244  -0.0121  0.7405  0.0471  -1.9719   0.0000   0.0000   0.0000   0.2117
  -4.500  -0.3539   0.02713   0.02210  -0.0119  0.7320  0.0476  -1.9374   0.0000   0.0000   0.0000   0.2114
  -4.400  -0.3438   0.02696   0.02187  -0.0118  0.7231  0.0481  -1.8996   0.0000   0.0000   0.0000   0.2109
  -4.300  -0.3332   0.02692   0.02178  -0.0117  0.7145  0.0486  -1.8573   0.0000   0.0000   0.0000   0.2101
  -4.200  -0.3221   0.02707   0.02190  -0.0117  0.7063  0.0490  -1.8095   0.0000   0.0000   0.0000   0.2089
  -4.100  -0.3109   0.02726   0.02206  -0.0117  0.6999  0.0494  -1.7612   0.0000   0.0000   0.0000   0.2076
  -4.000  -0.3004   0.02718   0.02196  -0.0116  0.6994  0.0496  -1.7214   0.0000   0.0000   0.0000   0.2066
  -3.900  -0.2904   0.02690   0.02164  -0.0114  0.6988  0.0498  -1.6883   0.0000   0.0000   0.0000   0.2058
  -3.800  -0.2941   0.02112   0.01539  -0.0096  0.6984  0.0539  -1.8189   0.0000   0.0000   0.0000   0.2123
  -3.700  -0.2846   0.02052   0.01480  -0.0095  0.6976  0.0550  -1.7811   0.0000   0.0000   0.0000   0.2114
  -3.600  -0.2746   0.02011   0.01438  -0.0095  0.6967  0.0559  -1.7400   0.0000   0.0000   0.0000   0.2104
  -3.500  -0.2645   0.01976   0.01404  -0.0094  0.6956  0.0567  -1.6979   0.0000   0.0000   0.0000   0.2091
  -3.400  -0.2543   0.01946   0.01373  -0.0094  0.6942  0.0577  -1.6556   0.0000   0.0000   0.0000   0.2077
  -3.300  -0.2440   0.01917   0.01346  -0.0094  0.6927  0.0586  -1.6128   0.0000   0.0000   0.0000   0.2061
  -3.200  -0.2336   0.01891   0.01321  -0.0094  0.6909  0.0597  -1.5701   0.0000   0.0000   0.0000   0.2044
  -3.100  -0.2232   0.01866   0.01296  -0.0094  0.6888  0.0608  -1.5282   0.0000   0.0000   0.0000   0.2024
  -3.000  -0.2128   0.01843   0.01273  -0.0094  0.6865  0.0622  -1.4869   0.0000   0.0000   0.0000   0.2004
  -2.900  -0.2023   0.01822   0.01251  -0.0094  0.6839  0.0638  -1.4465   0.0000   0.0000   0.0000   0.1981
  -2.800  -0.1917   0.01803   0.01232  -0.0094  0.6811  0.0656  -1.4068   0.0000   0.0000   0.0000   0.1956
  -2.700  -0.1811   0.01790   0.01216  -0.0093  0.6778  0.0676  -1.3675   0.0000   0.0000   0.0000   0.1928
  -2.600  -0.1702   0.01786   0.01210  -0.0093  0.6737  0.0697  -1.3275   0.0000   0.0000   0.0000   0.1896
  -2.500  -0.1591   0.01804   0.01226  -0.0093  0.6687  0.0719  -1.2840   0.0000   0.0000   0.0000   0.1858
  -2.400  -0.1465   0.01918   0.01342  -0.0094  0.6621  0.0741  -1.2182   0.0000   0.0000   0.0000   0.1799
  -2.300  -0.1410   0.01662   0.01069  -0.0089  0.6574  0.0807  -1.2257   0.0000   0.0000   0.0000   0.1805
  -2.200  -0.1311   0.01641   0.01047  -0.0089  0.6497  0.0826  -1.1851   0.0000   0.0000   0.0000   0.1760
  -2.100  -0.1210   0.01629   0.01035  -0.0088  0.6401  0.0844  -1.1439   0.0000   0.0000   0.0000   0.1704
  -2.000  -0.1107   0.01623   0.01027  -0.0088  0.6288  0.0865  -1.1032   0.0000   0.0000   0.0000   0.1635
  -1.900  -0.1002   0.01622   0.01025  -0.0088  0.6175  0.0890  -1.0629   0.0000   0.0000   0.0000   0.1547
  -1.800  -0.0893   0.01629   0.01033  -0.0089  0.6072  0.0918  -1.0226   0.0000   0.0000   0.0000   0.1430
  -1.700  -0.0780   0.01649   0.01055  -0.0090  0.5999  0.0948  -0.9813   0.0000   0.0000   0.0000   0.1272
  -1.600  -0.0661   0.01697   0.01109  -0.0091  0.5992  0.0976  -0.9352   0.0000   0.0000   0.0000   0.1046
  -1.500  -0.0593   0.01496   0.00900  -0.0088  0.5986  0.1134  -0.9247   0.0000   0.0000   0.0000   0.0916
  -1.400  -0.0492   0.01470   0.00882  -0.0089  0.5976  0.1184  -0.8870   0.0000   0.0000   0.0000   0.0593
  -1.300  -0.0390   0.01453   0.00870  -0.0089  0.5963  0.1235  -0.8498   0.0000   0.0000   0.0000   0.0100
  -1.200  -0.0287   0.01438   0.00860  -0.0089  0.5946  0.1293  -0.8137   0.0000   0.0000   0.0000  -0.0752
  -1.100  -0.0181   0.01431   0.00855  -0.0089  0.5925  0.1359  -0.7788   0.0000   0.0000   0.0000  -0.2622
  -1.000  -0.0071   0.01440   0.00867  -0.0090  0.5900  0.1426  -0.7435   0.0000   0.0000   0.0000  -1.0500
  -0.900   0.0052   0.01532   0.00968  -0.0091  0.5867  0.1483  -0.6972   0.0000   0.0000   0.0000   2.0438
  -0.500   0.0536   0.01162   0.00519  -0.0076  0.5720  0.1089  -0.7178   0.0000   0.0000   0.0000   0.3970
  -0.400   0.0658   0.01217   0.00575  -0.0077  0.5650  0.1025  -0.6805   0.0000   0.0000   0.0000   0.3697
   0.200   0.1304   0.01009   0.00269  -0.0047  0.5218  0.0481  -0.6866   0.0000   0.0000   0.0000   0.2863
   0.300   0.1411   0.00999   0.00254  -0.0046  0.5147  0.0466  -0.6657   0.0000   0.0000   0.0000   0.2822
   0.400   0.1519   0.00992   0.00242  -0.0045  0.5081  0.0450  -0.6425   0.0000   0.0000   0.0000   0.2790
   0.500   0.1629   0.00986   0.00233  -0.0044  0.5025  0.0434  -0.6179   0.0000   0.0000   0.0000   0.2763
   0.600   0.1739   0.00980   0.00225  -0.0044  0.4997  0.0419  -0.6187   0.0000   0.0000   0.0000   0.2742
   0.700   0.1853   0.00973   0.00226  -0.0044  0.5048  0.0401  -0.6285   0.0000   0.0000   0.0000   0.2726
   0.800   0.1964   0.00970   0.00219  -0.0044  0.5025  0.0390  -0.6383   0.0000   0.0000   0.0000   0.2711
   0.900   0.2075   0.00966   0.00213  -0.0045  0.4999  0.0381  -0.6481   0.0000   0.0000   0.0000   0.2699
   1.000   0.2187   0.00963   0.00208  -0.0045  0.4996  0.0373  -0.6580   0.0000   0.0000   0.0000   0.2689
   1.100   0.2299   0.00960   0.00203  -0.0046  0.4993  0.0366  -0.6679   0.0000   0.0000   0.0000   0.2680
   1.200   0.2410   0.00957   0.00198  -0.0046  0.4989  0.0360  -0.6779   0.0000   0.0000   0.0000   0.2672
   1.300   0.2522   0.00954   0.00194  -0.0047  0.4984  0.0354  -0.6879   0.0000   0.0000   0.0000   0.2665
   1.400   0.2634   0.00952   0.00190  -0.0047  0.4977  0.0349  -0.6979   0.0000   0.0000   0.0000   0.2659
   1.500   0.2746   0.00950   0.00187  -0.0048  0.4968  0.0345  -0.7094   0.0000   0.0000   0.0000   0.2653
   1.600   0.2858   0.00948   0.00184  -0.0049  0.4957  0.0341  -0.7215   0.0000   0.0000   0.0000   0.2648
   1.700   0.2970   0.00946   0.00181  -0.0050  0.4942  0.0338  -0.7337   0.0000   0.0000   0.0000   0.2643
   1.800   0.3081   0.00945   0.00178  -0.0050  0.4923  0.0335  -0.7458   0.0000   0.0000   0.0000   0.2638
   1.900   0.3192   0.00944   0.00175  -0.0051  0.4898  0.0332  -0.7580   0.0000   0.0000   0.0000   0.2633
   2.000   0.3303   0.00944   0.00173  -0.0051  0.4866  0.0330  -0.7702   0.0000   0.0000   0.0000   0.2629
   2.100   0.3414   0.00944   0.00171  -0.0052  0.4824  0.0328  -0.7824   0.0000   0.0000   0.0000   0.2624
   2.200   0.3523   0.00945   0.00169  -0.0052  0.4765  0.0327  -0.7945   0.0000   0.0000   0.0000   0.2620
   2.300   0.3631   0.00948   0.00167  -0.0052  0.4680  0.0326  -0.8067   0.0000   0.0000   0.0000   0.2615
   2.400   0.3737   0.00953   0.00166  -0.0052  0.4574  0.0326  -0.8187   0.0000   0.0000   0.0000   0.2609
   2.500   0.3843   0.00959   0.00165  -0.0052  0.4465  0.0326  -0.8307   0.0000   0.0000   0.0000   0.2604
   2.600   0.3949   0.00965   0.00164  -0.0052  0.4367  0.0327  -0.8427   0.0000   0.0000   0.0000   0.2600
   2.700   0.4057   0.00968   0.00164  -0.0052  0.4284  0.0330  -0.8549   0.0000   0.0000   0.0000   0.2596
   2.800   0.4166   0.00971   0.00164  -0.0053  0.4203  0.0336  -0.8671   0.0000   0.0000   0.0000   0.2593
   2.900   0.4276   0.00973   0.00163  -0.0053  0.4129  0.0352  -0.8794   0.0000   0.0000   0.0000   0.2590
   3.000   0.4387   0.00977   0.00167  -0.0054  0.4063  0.0451  -0.8995   0.0000   0.0000   0.0000   0.2588
   3.100   0.4497   0.00976   0.00177  -0.0055  0.4007  0.0494  -0.9350   0.0000   0.0000   0.0000   0.2585
   3.200   0.4582   0.00938   0.00180  -0.0052  0.3993  0.1852  -0.9660   0.0000   0.0000   0.0000   0.2576
   3.400   0.4574   0.00730   0.00187  -0.0006  0.3981  0.8823  -1.0015   0.0000   0.0000   0.0000   0.2475
   3.500   0.4684   0.00732   0.00193  -0.0006  0.3970  0.8988  -1.0384   0.0000   0.0000   0.0000   0.2474
   3.600   0.4867   0.00740   0.00208  -0.0021  0.3955  0.9230  -1.0878   0.0000   0.0000   0.0000   0.2503
   3.700   0.5014   0.00748   0.00219  -0.0029  0.3939  0.9363  -1.1317   0.0000   0.0000   0.0000   0.2517
   3.800   0.5124   0.00755   0.00225  -0.0029  0.3922  0.9436  -1.1697   0.0000   0.0000   0.0000   0.2514
   3.900   0.5216   0.00760   0.00231  -0.0025  0.3904  0.9479  -1.2050   0.0000   0.0000   0.0000   0.2504
   4.000   0.5323   0.00766   0.00237  -0.0024  0.3880  0.9510  -1.2430   0.0000   0.0000   0.0000   0.2502
   4.100   0.5489   0.00773   0.00242  -0.0037  0.3841  0.9547  -1.2914   0.0000   0.0000   0.0000   0.2523
   4.200   0.5651   0.00781   0.00248  -0.0050  0.3784  0.9578  -1.3398   0.0000   0.0000   0.0000   0.2543
   4.300   0.5807   0.00793   0.00255  -0.0061  0.3684  0.9605  -1.3875   0.0000   0.0000   0.0000   0.2559
   4.400   0.5957   0.00810   0.00263  -0.0072  0.3532  0.9629  -1.4346   0.0000   0.0000   0.0000   0.2573
   4.500   0.6101   0.00831   0.00272  -0.0082  0.3343  0.9652  -1.4808   0.0000   0.0000   0.0000   0.2585
   4.600   0.6258   0.00849   0.00280  -0.0094  0.3113  0.9681  -1.5297   0.0000   0.0000   0.0000   0.2600
   4.700   0.6494   0.00867   0.00294  -0.0122  0.2965  0.9744  -1.5938   0.0000   0.0000   0.0000   0.2638
   4.800   0.6759   0.00891   0.00313  -0.0156  0.2870  0.9813  -1.6640   0.0000   0.0000   0.0000   0.2679
   4.900   0.6996   0.00928   0.00335  -0.0184  0.2660  0.9861  -1.7298   0.0000   0.0000   0.0000   0.2711
   5.000   0.7189   0.00975   0.00361  -0.0205  0.2320  0.9893  -1.7870   0.0000   0.0000   0.0000   0.2731
   5.100   0.7342   0.00999   0.00373  -0.0216  0.1989  0.9910  -1.8369   0.0000   0.0000   0.0000   0.2740
   5.200   0.7452   0.01022   0.00383  -0.0219  0.1838  0.9917  -1.8782   0.0000   0.0000   0.0000   0.2738
   5.300   0.7543   0.01077   0.00410  -0.0221  0.1500  0.9923  -1.9147   0.0000   0.0000   0.0000   0.2736
   5.400   0.7626   0.01148   0.00447  -0.0222  0.0970  0.9930  -1.9467   0.0000   0.0000   0.0000   0.2733
   5.500   0.7702   0.01236   0.00495  -0.0221  0.0445  0.9938  -1.9617   0.0000   0.0000   0.0000   0.2729
   5.600   0.7814   0.01254   0.00508  -0.0223  0.0409  0.9944  -1.9909   0.0000   0.0000   0.0000   0.2726
   5.700   0.7931   0.01265   0.00520  -0.0226  0.0394  0.9950  -2.0267   0.0000   0.0000   0.0000   0.2724
   5.800   0.8048   0.01275   0.00531  -0.0229  0.0386  0.9956  -2.0648   0.0000   0.0000   0.0000   0.2723
   5.900   0.8165   0.01286   0.00543  -0.0232  0.0381  0.9961  -2.1044   0.0000   0.0000   0.0000   0.2721
   6.000   0.8283   0.01296   0.00555  -0.0235  0.0378  0.9967  -2.1449   0.0000   0.0000   0.0000   0.2720
   6.100   0.8400   0.01306   0.00567  -0.0238  0.0375  0.9972  -2.1860   0.0000   0.0000   0.0000   0.2718
   6.200   0.8518   0.01316   0.00579  -0.0241  0.0374  0.9976  -2.2277   0.0000   0.0000   0.0000   0.2717
   6.300   0.8636   0.01327   0.00591  -0.0244  0.0372  0.9981  -2.2699   0.0000   0.0000   0.0000   0.2716
   6.400   0.8753   0.01339   0.00604  -0.0247  0.0366  0.9985  -2.3127   0.0000   0.0000   0.0000   0.2714
   6.500   0.8870   0.01352   0.00619  -0.0250  0.0358  0.9989  -2.3560   0.0000   0.0000   0.0000   0.2713
   6.600   0.8989   0.01366   0.00634  -0.0254  0.0349  0.9993  -2.4000   0.0000   0.0000   0.0000   0.2712
   6.700   0.9108   0.01380   0.00650  -0.0258  0.0341  0.9997  -2.4443   0.0000   0.0000   0.0000   0.2711
   6.800   0.9227   0.01395   0.00666  -0.0261  0.0334  1.0000  -2.4888   0.0000   0.0000   0.0000   0.2711
   6.900   0.9297   0.01406   0.00678  -0.0255  0.0331  1.0000  -2.5236   0.0000   0.0000   0.0000   0.2701
   7.000   0.9368   0.01417   0.00691  -0.0249  0.0329  1.0000  -2.5589   0.0000   0.0000   0.0000   0.2691
   7.100   0.9444   0.01429   0.00705  -0.0244  0.0328  1.0000  -2.5953   0.0000   0.0000   0.0000   0.2683
   7.200   0.9522   0.01442   0.00719  -0.0239  0.0326  1.0000  -2.6324   0.0000   0.0000   0.0000   0.2674
   7.300   0.9602   0.01456   0.00735  -0.0235  0.0324  1.0000  -2.6699   0.0000   0.0000   0.0000   0.2666
   7.400   0.9681   0.01471   0.00752  -0.0230  0.0322  1.0000  -2.7076   0.0000   0.0000   0.0000   0.2658
   7.500   0.9760   0.01486   0.00769  -0.0226  0.0321  1.0000  -2.7454   0.0000   0.0000   0.0000   0.2651
   7.600   0.9839   0.01502   0.00786  -0.0221  0.0319  1.0000  -2.7833   0.0000   0.0000   0.0000   0.2643
   7.700   0.9916   0.01519   0.00805  -0.0216  0.0317  1.0000  -2.8211   0.0000   0.0000   0.0000   0.2635
   7.800   0.9993   0.01536   0.00824  -0.0211  0.0315  1.0000  -2.8589   0.0000   0.0000   0.0000   0.2627
   7.900   1.0067   0.01553   0.00843  -0.0206  0.0313  1.0000  -2.8964   0.0000   0.0000   0.0000   0.2619
   8.000   1.0141   0.01571   0.00863  -0.0200  0.0311  1.0000  -2.9338   0.0000   0.0000   0.0000   0.2611
   8.100   1.0212   0.01590   0.00884  -0.0194  0.0308  1.0000  -2.9708   0.0000   0.0000   0.0000   0.2602
   8.200   1.0281   0.01609   0.00906  -0.0188  0.0306  1.0000  -3.0076   0.0000   0.0000   0.0000   0.2593
   8.300   1.0348   0.01629   0.00928  -0.0182  0.0304  1.0000  -3.0439   0.0000   0.0000   0.0000   0.2585
   8.400   1.0413   0.01650   0.00951  -0.0174  0.0302  1.0000  -3.0797   0.0000   0.0000   0.0000   0.2575
   8.500   1.0475   0.01671   0.00975  -0.0167  0.0299  1.0000  -3.1151   0.0000   0.0000   0.0000   0.2566
   8.600   1.0535   0.01693   0.00999  -0.0159  0.0297  1.0000  -3.1499   0.0000   0.0000   0.0000   0.2556
   8.700   1.0591   0.01716   0.01024  -0.0151  0.0294  1.0000  -3.1842   0.0000   0.0000   0.0000   0.2546
   8.800   1.0645   0.01740   0.01051  -0.0142  0.0292  1.0000  -3.2178   0.0000   0.0000   0.0000   0.2536
   8.900   1.0696   0.01764   0.01078  -0.0133  0.0289  1.0000  -3.2507   0.0000   0.0000   0.0000   0.2525
   9.000   1.0744   0.01790   0.01107  -0.0123  0.0287  1.0000  -3.2829   0.0000   0.0000   0.0000   0.2514
   9.100   1.0790   0.01817   0.01136  -0.0113  0.0284  1.0000  -3.3144   0.0000   0.0000   0.0000   0.2503
   9.200   1.1052   0.01690   0.00975  -0.0147  0.0160  1.0000  -3.8522   0.0000   0.0000   0.0000   0.2530
   9.300   1.1099   0.01721   0.01004  -0.0137  0.0141  1.0000  -3.9212   0.0000   0.0000   0.0000   0.2519
   9.400   1.1137   0.01756   0.01045  -0.0125  0.0130  1.0000  -3.9796   0.0000   0.0000   0.0000   0.2506
   9.500   1.1169   0.01795   0.01087  -0.0113  0.0125  1.0000  -4.0310   0.0000   0.0000   0.0000   0.2493
   9.600   1.1211   0.01825   0.01122  -0.0102  0.0124  1.0000  -4.0814   0.0000   0.0000   0.0000   0.2482
   9.700   1.1250   0.01856   0.01157  -0.0091  0.0123  1.0000  -4.1304   0.0000   0.0000   0.0000   0.2470
   9.800   1.1285   0.01888   0.01193  -0.0079  0.0123  1.0000  -4.1776   0.0000   0.0000   0.0000   0.2458
   9.900   1.1316   0.01920   0.01229  -0.0067  0.0123  1.0000  -4.2231   0.0000   0.0000   0.0000   0.2445
  10.000   1.1343   0.01954   0.01267  -0.0053  0.0122  1.0000  -4.2669   0.0000   0.0000   0.0000   0.2432
  10.100   1.1364   0.01988   0.01305  -0.0040  0.0122  1.0000  -4.3089   0.0000   0.0000   0.0000   0.2418
  10.200   1.1381   0.02024   0.01345  -0.0025  0.0122  1.0000  -4.3491   0.0000   0.0000   0.0000   0.2404
  10.300   1.1392   0.02061   0.01386  -0.0010  0.0121  1.0000  -4.3874   0.0000   0.0000   0.0000   0.2389
  10.400   1.1396   0.02099   0.01428   0.0006  0.0121  1.0000  -4.4232   0.0000   0.0000   0.0000   0.2373
  10.500   1.1384   0.02137   0.01469   0.0025  0.0121  1.0000  -4.4535   0.0000   0.0000   0.0000   0.2355
  10.600   1.1375   0.02179   0.01515   0.0042  0.0121  1.0000  -4.4847   0.0000   0.0000   0.0000   0.2338
  10.700   1.1370   0.02227   0.01568   0.0057  0.0121  1.0000  -4.5167   0.0000   0.0000   0.0000   0.2324
  10.800   1.1371   0.02280   0.01625   0.0070  0.0121  1.0000  -4.5502   0.0000   0.0000   0.0000   0.2311
  10.900   1.1364   0.02339   0.01688   0.0082  0.0121  1.0000  -4.5806   0.0000   0.0000   0.0000   0.2298
  11.000   1.1359   0.02401   0.01755   0.0093  0.0121  1.0000  -4.6112   0.0000   0.0000   0.0000   0.2286
  11.100   1.1362   0.02466   0.01825   0.0103  0.0120  1.0000  -4.6446   0.0000   0.0000   0.0000   0.2275
  11.200   1.1369   0.02534   0.01898   0.0112  0.0120  1.0000  -4.6790   0.0000   0.0000   0.0000   0.2265
  11.300   1.1376   0.02606   0.01974   0.0121  0.0120  1.0000  -4.7135   0.0000   0.0000   0.0000   0.2256
  11.400   1.1384   0.02681   0.02054   0.0129  0.0120  1.0000  -4.7476   0.0000   0.0000   0.0000   0.2247
  11.500   1.1387   0.02762   0.02141   0.0136  0.0120  1.0000  -4.7797   0.0000   0.0000   0.0000   0.2239
  11.600   1.1378   0.02858   0.02242   0.0142  0.0120  1.0000  -4.8064   0.0000   0.0000   0.0000   0.2232
  11.700   1.1375   0.02951   0.02341   0.0148  0.0120  1.0000  -4.8352   0.0000   0.0000   0.0000   0.2224
  11.800   1.1376   0.03043   0.02438   0.0154  0.0120  1.0000  -4.8654   0.0000   0.0000   0.0000   0.2217
  11.900   1.1377   0.03136   0.02536   0.0161  0.0120  1.0000  -4.8957   0.0000   0.0000   0.0000   0.2209
  12.000   1.1378   0.03231   0.02637   0.0167  0.0120  1.0000  -4.9254   0.0000   0.0000   0.0000   0.2202
  12.100   1.1378   0.03329   0.02741   0.0173  0.0120  1.0000  -4.9542   0.0000   0.0000   0.0000   0.2195
  12.200   1.1375   0.03430   0.02848   0.0179  0.0121  1.0000  -4.9816   0.0000   0.0000   0.0000   0.2187
  12.300   1.1369   0.03536   0.02960   0.0185  0.0121  1.0000  -5.0074   0.0000   0.0000   0.0000   0.2180
  12.400   1.1355   0.03647   0.03077   0.0192  0.0121  1.0000  -5.0294   0.0000   0.0000   0.0000   0.2172
  12.500   1.1322   0.03776   0.03213   0.0196  0.0121  1.0000  -5.0426   0.0000   0.0000   0.0000   0.2165
  12.600   1.1294   0.03904   0.03348   0.0201  0.0121  1.0000  -5.0575   0.0000   0.0000   0.0000   0.2159
  12.700   1.1271   0.04033   0.03485   0.0206  0.0121  1.0000  -5.0736   0.0000   0.0000   0.0000   0.2152
  12.800   1.1248   0.04168   0.03627   0.0212  0.0121  1.0000  -5.0885   0.0000   0.0000   0.0000   0.2144
  12.900   1.1220   0.04311   0.03778   0.0217  0.0122  1.0000  -5.1006   0.0000   0.0000   0.0000   0.2137
  13.000   1.1186   0.04466   0.03941   0.0223  0.0122  1.0000  -5.1081   0.0000   0.0000   0.0000   0.2130
  13.100   1.1138   0.04641   0.04125   0.0228  0.0123  1.0000  -5.1077   0.0000   0.0000   0.0000   0.2122
  25.000   0.8575   0.34887   0.34634  -0.0839  0.0114  1.0000  -1.4577   0.0000   0.0000   0.0000   0.3144
  25.100   0.8567   0.35067   0.34814  -0.0842  0.0114  1.0000  -1.4496   0.0000   0.0000   0.0000   0.3147
  25.200   0.8557   0.35241   0.34989  -0.0844  0.0113  1.0000  -1.4410   0.0000   0.0000   0.0000   0.3150
  25.300   0.8544   0.35408   0.35157  -0.0846  0.0113  1.0000  -1.4318   0.0000   0.0000   0.0000   0.3153
  25.400   0.8528   0.35568   0.35318  -0.0847  0.0113  1.0000  -1.4221   0.0000   0.0000   0.0000   0.3155
  25.500   0.8509   0.35719   0.35469  -0.0848  0.0113  1.0000  -1.4116   0.0000   0.0000   0.0000   0.3157
  25.600   0.8485   0.35857   0.35608  -0.0848  0.0113  1.0000  -1.4003   0.0000   0.0000   0.0000   0.3159
  25.700   0.8456   0.35978   0.35730  -0.0847  0.0113  1.0000  -1.3879   0.0000   0.0000   0.0000   0.3161
  25.800   0.7827   0.34391   0.34150  -0.0748  0.0112  1.0000  -1.2517   0.0000   0.0000   0.0000   0.3134
  25.900   0.7765   0.34326   0.34086  -0.0741  0.0112  1.0000  -1.2329   0.0000   0.0000   0.0000   0.3134
  26.000   0.7714   0.34290   0.34051  -0.0737  0.0112  1.0000  -1.2164   0.0000   0.0000   0.0000   0.3135
  26.100   0.7670   0.34270   0.34032  -0.0733  0.0112  1.0000  -1.2016   0.0000   0.0000   0.0000   0.3136
  26.200   0.7631   0.34261   0.34024  -0.0730  0.0112  1.0000  -1.1879   0.0000   0.0000   0.0000   0.3137
  26.300   0.7596   0.34261   0.34025  -0.0728  0.0112  1.0000  -1.1750   0.0000   0.0000   0.0000   0.3139
  26.400   0.7565   0.34268   0.34033  -0.0726  0.0111  1.0000  -1.1629   0.0000   0.0000   0.0000   0.3141
  26.500   0.7536   0.34279   0.34045  -0.0725  0.0111  1.0000  -1.1514   0.0000   0.0000   0.0000   0.3142
  26.600   0.7509   0.34293   0.34060  -0.0724  0.0111  1.0000  -1.1404   0.0000   0.0000   0.0000   0.3144
  26.700   0.7483   0.34311   0.34079  -0.0723  0.0111  1.0000  -1.1298   0.0000   0.0000   0.0000   0.3147
  26.800   0.7460   0.34332   0.34100  -0.0723  0.0111  1.0000  -1.1196   0.0000   0.0000   0.0000   0.3149
  26.900   0.7438   0.34356   0.34125  -0.0723  0.0110  1.0000  -1.1099   0.0000   0.0000   0.0000   0.3151
  27.000   0.7418   0.34382   0.34152  -0.0723  0.0110  1.0000  -1.1004   0.0000   0.0000   0.0000   0.3153
  27.100   0.7398   0.34411   0.34181  -0.0723  0.0110  1.0000  -1.0913   0.0000   0.0000   0.0000   0.3156
  27.200   0.7380   0.34441   0.34212  -0.0723  0.0110  1.0000  -1.0825   0.0000   0.0000   0.0000   0.3158
  27.300   0.7363   0.34473   0.34245  -0.0724  0.0110  1.0000  -1.0740   0.0000   0.0000   0.0000   0.3161
  27.400   0.7347   0.34506   0.34279  -0.0724  0.0110  1.0000  -1.0657   0.0000   0.0000   0.0000   0.3163
  27.500   0.7331   0.34541   0.34314  -0.0725  0.0109  1.0000  -1.0577   0.0000   0.0000   0.0000   0.3166
  27.600   0.7317   0.34577   0.34351  -0.0726  0.0109  1.0000  -1.0498   0.0000   0.0000   0.0000   0.3169
  27.700   0.7303   0.34614   0.34389  -0.0727  0.0109  1.0000  -1.0422   0.0000   0.0000   0.0000   0.3172
  27.800   0.7289   0.34652   0.34427  -0.0729  0.0109  1.0000  -1.0348   0.0000   0.0000   0.0000   0.3174
  27.900   0.7277   0.34690   0.34467  -0.0730  0.0109  1.0000  -1.0276   0.0000   0.0000   0.0000   0.3177
  28.000   0.7265   0.34730   0.34507  -0.0731  0.0108  1.0000  -1.0206   0.0000   0.0000   0.0000   0.3180
  28.100   0.7253   0.34771   0.34549  -0.0733  0.0108  1.0000  -1.0138   0.0000   0.0000   0.0000   0.3183
  28.200   0.7242   0.34812   0.34591  -0.0734  0.0108  1.0000  -1.0071   0.0000   0.0000   0.0000   0.3186
  28.300   0.7232   0.34854   0.34633  -0.0736  0.0108  1.0000  -1.0005   0.0000   0.0000   0.0000   0.3189
  28.400   0.7222   0.34897   0.34677  -0.0738  0.0108  1.0000  -0.9942   0.0000   0.0000   0.0000   0.3192
  28.500   0.7212   0.34941   0.34721  -0.0739  0.0108  1.0000  -0.9879   0.0000   0.0000   0.0000   0.3195
  28.600   0.7203   0.34985   0.34765  -0.0741  0.0107  1.0000  -0.9818   0.0000   0.0000   0.0000   0.3198
  28.700   0.7194   0.35029   0.34811  -0.0743  0.0107  1.0000  -0.9759   0.0000   0.0000   0.0000   0.3201
  28.800   0.7186   0.35074   0.34856  -0.0745  0.0107  1.0000  -0.9701   0.0000   0.0000   0.0000   0.3204
  28.900   0.7178   0.35119   0.34902  -0.0747  0.0107  1.0000  -0.9643   0.0000   0.0000   0.0000   0.3207
  29.000   0.7170   0.35165   0.34949  -0.0749  0.0107  1.0000  -0.9588   0.0000   0.0000   0.0000   0.3210
  29.100   0.7163   0.35212   0.34996  -0.0751  0.0106  1.0000  -0.9533   0.0000   0.0000   0.0000   0.3213
  29.200   0.7155   0.35258   0.35043  -0.0754  0.0106  1.0000  -0.9479   0.0000   0.0000   0.0000   0.3216
  29.300   0.7148   0.35306   0.35091  -0.0756  0.0106  1.0000  -0.9427   0.0000   0.0000   0.0000   0.3219
  29.400   0.7142   0.35353   0.35139  -0.0758  0.0106  1.0000  -0.9375   0.0000   0.0000   0.0000   0.3222
  29.500   0.7136   0.35401   0.35188  -0.0761  0.0106  1.0000  -0.9325   0.0000   0.0000   0.0000   0.3226
  29.600   0.7129   0.35449   0.35236  -0.0763  0.0106  1.0000  -0.9275   0.0000   0.0000   0.0000   0.3229
  29.700   0.7124   0.35498   0.35286  -0.0766  0.0105  1.0000  -0.9227   0.0000   0.0000   0.0000   0.3232
  29.800   0.7118   0.35547   0.35335  -0.0768  0.0105  1.0000  -0.9179   0.0000   0.0000   0.0000   0.3235
  29.900   0.7112   0.35596   0.35385  -0.0771  0.0105  1.0000  -0.9132   0.0000   0.0000   0.0000   0.3238
  30.000   0.7107   0.35645   0.35435  -0.0773  0.0105  1.0000  -0.9086   0.0000   0.0000   0.0000   0.3242


