xflr5 v6.61

 Calculated polar for: NACA 0012-34

 1 1 Reynolds number fixed          Mach number fixed         

 xtrf =   1.000 (top)        1.000 (bottom)
 Mach =   0.000     Re =     0.400 e 6     Ncrit =   9.000

  alpha     CL        CD       CDp       Cm    Top Xtr Bot Xtr   Cpmin    Chinge    XCp    
 ------- -------- --------- --------- -------- ------- ------- -------- --------- ---------
  -7.400  -0.6990   0.03850   0.03291  -0.0142  0.9763  0.0267  -2.8279   0.0000   0.0000   0.0000   0.2237
  -7.300  -0.6995   0.03484   0.02910  -0.0136  0.9731  0.0289  -2.8509   0.0000   0.0000   0.0000   0.2246
  -7.200  -0.6923   0.03363   0.02791  -0.0139  0.9708  0.0310  -2.7488   0.0000   0.0000   0.0000   0.2240
  -7.100  -0.6827   0.03290   0.02726  -0.0145  0.9688  0.0334  -2.6233   0.0000   0.0000   0.0000   0.2229
  -7.000  -0.6731   0.03226   0.02664  -0.0150  0.9667  0.0364  -2.5110   0.0000   0.0000   0.0000   0.2221
  -6.900  -0.6629   0.03166   0.02600  -0.0153  0.9645  0.0403  -2.4151   0.0000   0.0000   0.0000   0.2214
  -6.800  -0.6499   0.03181   0.02611  -0.0156  0.9623  0.0459  -2.3098   0.0000   0.0000   0.0000   0.2206
  -6.700  -0.6346   0.03425   0.02843  -0.0155  0.9598  0.0506  -2.1746   0.0000   0.0000   0.0000   0.2202
  -6.600  -0.6374   0.02828   0.02230  -0.0152  0.9572  0.0561  -2.2265   0.0000   0.0000   0.0000   0.2208
  -6.000  -0.5567   0.01945   0.01227  -0.0122  0.9461  0.0271  -2.2183   0.0000   0.0000   0.0000   0.2230
  -5.900  -0.5459   0.01704   0.00970  -0.0109  0.9440  0.0216  -2.2907   0.0000   0.0000   0.0000   0.2250
  -5.800  -0.5401   0.01575   0.00825  -0.0093  0.9408  0.0201  -2.3020   0.0000   0.0000   0.0000   0.2278
  -5.700  -0.5351   0.01487   0.00724  -0.0077  0.9372  0.0192  -2.2855   0.0000   0.0000   0.0000   0.2307
  -5.600  -0.5294   0.01419   0.00644  -0.0064  0.9335  0.0187  -2.2482   0.0000   0.0000   0.0000   0.2331
  -5.500  -0.5224   0.01365   0.00580  -0.0054  0.9301  0.0186  -2.2048   0.0000   0.0000   0.0000   0.2349
  -5.400  -0.5143   0.01323   0.00528  -0.0048  0.9273  0.0191  -2.1470   0.0000   0.0000   0.0000   0.2362
  -5.300  -0.5056   0.01287   0.00486  -0.0042  0.9252  0.0208  -2.0820   0.0000   0.0000   0.0000   0.2372
  -5.200  -0.4957   0.01270   0.00469  -0.0041  0.9238  0.0242  -1.9909   0.0000   0.0000   0.0000   0.2373
  -5.100  -0.4854   0.01249   0.00448  -0.0041  0.9215  0.0293  -1.8943   0.0000   0.0000   0.0000   0.2373
  -5.000  -0.4748   0.01226   0.00424  -0.0041  0.9184  0.0366  -1.7973   0.0000   0.0000   0.0000   0.2371
  -4.900  -0.4641   0.01205   0.00409  -0.0043  0.9154  0.0423  -1.6907   0.0000   0.0000   0.0000   0.2366
  -4.800  -0.4531   0.01187   0.00394  -0.0045  0.9125  0.0479  -1.5889   0.0000   0.0000   0.0000   0.2360
  -4.700  -0.4433   0.01157   0.00376  -0.0046  0.9094  0.0685  -1.5562   0.0000   0.0000   0.0000   0.2357
  -4.600  -0.4367   0.01097   0.00345  -0.0042  0.9060  0.1235  -1.5279   0.0000   0.0000   0.0000   0.2366
  -4.500  -0.4322   0.01025   0.00319  -0.0034  0.9024  0.1892  -1.5022   0.0000   0.0000   0.0000   0.2383
  -4.400  -0.4271   0.00971   0.00300  -0.0027  0.8995  0.2646  -1.4746   0.0000   0.0000   0.0000   0.2400
  -4.300  -0.4211   0.00941   0.00289  -0.0020  0.8982  0.3050  -1.4447   0.0000   0.0000   0.0000   0.2416
  -4.200  -0.4175   0.00898   0.00276  -0.0008  0.8965  0.3657  -1.4189   0.0000   0.0000   0.0000   0.2445
  -4.100  -0.4105   0.00877   0.00269  -0.0002  0.8947  0.3959  -1.3868   0.0000   0.0000   0.0000   0.2459
  -4.000  -0.4062   0.00847   0.00259   0.0009  0.8924  0.4450  -1.3597   0.0000   0.0000   0.0000   0.2489
  -3.900  -0.4018   0.00814   0.00254   0.0021  0.8898  0.4958  -1.3321   0.0000   0.0000   0.0000   0.2518
  -3.800  -0.3994   0.00780   0.00251   0.0037  0.8864  0.5567  -1.3082   0.0000   0.0000   0.0000   0.2562
  -3.700  -0.3925   0.00761   0.00250   0.0045  0.8830  0.5956  -1.2767   0.0000   0.0000   0.0000   0.2584
  -3.600  -0.3848   0.00749   0.00249   0.0051  0.8792  0.6242  -1.2442   0.0000   0.0000   0.0000   0.2602
  -3.500  -0.3765   0.00738   0.00248   0.0056  0.8753  0.6449  -1.2110   0.0000   0.0000   0.0000   0.2619
  -3.400  -0.3667   0.00731   0.00246   0.0057  0.8716  0.6585  -1.1757   0.0000   0.0000   0.0000   0.2627
  -3.300  -0.3566   0.00726   0.00244   0.0058  0.8682  0.6695  -1.1402   0.0000   0.0000   0.0000   0.2633
  -3.200  -0.3461   0.00722   0.00241   0.0057  0.8649  0.6780  -1.1047   0.0000   0.0000   0.0000   0.2637
  -3.100  -0.3356   0.00719   0.00238   0.0056  0.8614  0.6844  -1.0693   0.0000   0.0000   0.0000   0.2640
  -3.000  -0.3250   0.00717   0.00234   0.0055  0.8578  0.6892  -1.0343   0.0000   0.0000   0.0000   0.2643
  -2.900  -0.3144   0.00714   0.00230   0.0054  0.8542  0.6937  -0.9996   0.0000   0.0000   0.0000   0.2646
  -2.800  -0.3039   0.00712   0.00226   0.0053  0.8505  0.6974  -0.9654   0.0000   0.0000   0.0000   0.2650
  -2.700  -0.2933   0.00709   0.00222   0.0052  0.8467  0.7009  -0.9314   0.0000   0.0000   0.0000   0.2653
  -2.600  -0.2817   0.00705   0.00220   0.0049  0.8432  0.7148  -0.8962   0.0000   0.0000   0.0000   0.2650
  -2.500  -0.2704   0.00700   0.00221   0.0047  0.8396  0.7293  -0.8619   0.0000   0.0000   0.0000   0.2650
  -2.400  -0.2589   0.00698   0.00222   0.0045  0.8360  0.7401  -0.8274   0.0000   0.0000   0.0000   0.2648
  -2.300  -0.2472   0.00696   0.00222   0.0042  0.8317  0.7476  -0.7931   0.0000   0.0000   0.0000   0.2645
  -2.200  -0.2356   0.00695   0.00220   0.0039  0.8265  0.7538  -0.7594   0.0000   0.0000   0.0000   0.2641
  -2.100  -0.2243   0.00694   0.00218   0.0037  0.8204  0.7587  -0.7264   0.0000   0.0000   0.0000   0.2639
  -2.000  -0.2132   0.00693   0.00215   0.0035  0.8133  0.7623  -0.6942   0.0000   0.0000   0.0000   0.2639
  -1.900  -0.2023   0.00692   0.00211   0.0033  0.8061  0.7651  -0.6626   0.0000   0.0000   0.0000   0.2638
  -1.800  -0.1914   0.00691   0.00208   0.0031  0.7999  0.7673  -0.6313   0.0000   0.0000   0.0000   0.2637
  -1.700  -0.1808   0.00690   0.00206   0.0029  0.7981  0.7693  -0.6008   0.0000   0.0000   0.0000   0.2639
  -1.600  -0.1702   0.00689   0.00205   0.0028  0.7962  0.7722  -0.5706   0.0000   0.0000   0.0000   0.2642
  -1.500  -0.1596   0.00689   0.00204   0.0027  0.7943  0.7754  -0.5407   0.0000   0.0000   0.0000   0.2645
  -1.400  -0.1491   0.00688   0.00203   0.0026  0.7922  0.7785  -0.5112   0.0000   0.0000   0.0000   0.2650
  -1.300  -0.1387   0.00688   0.00201   0.0025  0.7895  0.7811  -0.4821   0.0000   0.0000   0.0000   0.2656
  -1.200  -0.1282   0.00687   0.00199   0.0023  0.7862  0.7829  -0.4532   0.0000   0.0000   0.0000   0.2662
  -1.100  -0.1176   0.00686   0.00197   0.0022  0.7823  0.7840  -0.4246   0.0000   0.0000   0.0000   0.2668
  -1.000  -0.1071   0.00685   0.00194   0.0021  0.7781  0.7842  -0.4081   0.0000   0.0000   0.0000   0.2672
  -0.900  -0.0964   0.00685   0.00190   0.0019  0.7737  0.7836  -0.3994   0.0000   0.0000   0.0000   0.2675
  -0.800  -0.0857   0.00684   0.00187   0.0017  0.7698  0.7827  -0.3907   0.0000   0.0000   0.0000   0.2678
  -0.700  -0.0750   0.00683   0.00184   0.0015  0.7670  0.7814  -0.3821   0.0000   0.0000   0.0000   0.2680
  -0.600  -0.0642   0.00682   0.00181   0.0013  0.7646  0.7796  -0.3754   0.0000   0.0000   0.0000   0.2681
  -0.500  -0.0535   0.00682   0.00178   0.0011  0.7620  0.7771  -0.3689   0.0000   0.0000   0.0000   0.2682
  -0.400  -0.0428   0.00681   0.00175   0.0009  0.7594  0.7738  -0.3624   0.0000   0.0000   0.0000   0.2683
  -0.300  -0.0321   0.00681   0.00171   0.0007  0.7567  0.7693  -0.3560   0.0000   0.0000   0.0000   0.2684
  -0.200  -0.0214   0.00681   0.00167   0.0004  0.7539  0.7633  -0.3496   0.0000   0.0000   0.0000   0.2685
  -0.100  -0.0107   0.00682   0.00163   0.0002  0.7510  0.7559  -0.3432   0.0000   0.0000   0.0000   0.2688
   0.000  -0.0000   0.00684   0.00159  -0.0000  0.7481  0.7481  -0.3368   0.0000   0.0000   0.0000  -13.1689
   0.100   0.0107   0.00682   0.00163  -0.0002  0.7559  0.7510  -0.3432   0.0000   0.0000   0.0000   0.2688
   0.200   0.0214   0.00681   0.00167  -0.0004  0.7633  0.7539  -0.3496   0.0000   0.0000   0.0000   0.2685
   0.300   0.0321   0.00681   0.00171  -0.0007  0.7693  0.7567  -0.3560   0.0000   0.0000   0.0000   0.2684
   0.400   0.0428   0.00681   0.00174  -0.0009  0.7738  0.7594  -0.3624   0.0000   0.0000   0.0000   0.2683
   0.500   0.0535   0.00682   0.00178  -0.0011  0.7771  0.7620  -0.3689   0.0000   0.0000   0.0000   0.2682
   0.600   0.0642   0.00682   0.00181  -0.0013  0.7796  0.7646  -0.3754   0.0000   0.0000   0.0000   0.2681
   0.700   0.0750   0.00683   0.00184  -0.0015  0.7814  0.7670  -0.3821   0.0000   0.0000   0.0000   0.2680
   0.800   0.0857   0.00684   0.00187  -0.0017  0.7827  0.7698  -0.3907   0.0000   0.0000   0.0000   0.2678
   0.900   0.0964   0.00685   0.00190  -0.0019  0.7836  0.7737  -0.3994   0.0000   0.0000   0.0000   0.2676
   1.000   0.1071   0.00685   0.00194  -0.0021  0.7842  0.7781  -0.4081   0.0000   0.0000   0.0000   0.2672
   1.100   0.1177   0.00686   0.00197  -0.0022  0.7840  0.7823  -0.4246   0.0000   0.0000   0.0000   0.2668
   1.200   0.1282   0.00687   0.00199  -0.0023  0.7829  0.7862  -0.4532   0.0000   0.0000   0.0000   0.2662
   1.300   0.1387   0.00688   0.00201  -0.0025  0.7811  0.7895  -0.4821   0.0000   0.0000   0.0000   0.2656
   1.400   0.1491   0.00688   0.00203  -0.0026  0.7785  0.7922  -0.5112   0.0000   0.0000   0.0000   0.2650
   1.500   0.1596   0.00689   0.00204  -0.0027  0.7754  0.7943  -0.5407   0.0000   0.0000   0.0000   0.2645
   1.600   0.1702   0.00689   0.00205  -0.0028  0.7722  0.7962  -0.5706   0.0000   0.0000   0.0000   0.2642
   1.700   0.1808   0.00690   0.00206  -0.0029  0.7693  0.7981  -0.6008   0.0000   0.0000   0.0000   0.2639
   1.800   0.1914   0.00691   0.00208  -0.0031  0.7673  0.7999  -0.6313   0.0000   0.0000   0.0000   0.2637
   1.900   0.2023   0.00692   0.00211  -0.0033  0.7651  0.8061  -0.6626   0.0000   0.0000   0.0000   0.2638
   2.000   0.2132   0.00693   0.00215  -0.0035  0.7624  0.8133  -0.6942   0.0000   0.0000   0.0000   0.2639
   2.100   0.2243   0.00694   0.00218  -0.0037  0.7587  0.8204  -0.7264   0.0000   0.0000   0.0000   0.2639
   2.200   0.2356   0.00695   0.00220  -0.0039  0.7538  0.8265  -0.7594   0.0000   0.0000   0.0000   0.2641
   2.300   0.2472   0.00696   0.00222  -0.0042  0.7476  0.8317  -0.7931   0.0000   0.0000   0.0000   0.2645
   2.400   0.2589   0.00698   0.00222  -0.0045  0.7401  0.8360  -0.8274   0.0000   0.0000   0.0000   0.2648
   2.500   0.2704   0.00700   0.00221  -0.0047  0.7293  0.8396  -0.8619   0.0000   0.0000   0.0000   0.2650
   2.600   0.2817   0.00705   0.00220  -0.0049  0.7148  0.8432  -0.8962   0.0000   0.0000   0.0000   0.2650
   2.700   0.2933   0.00709   0.00222  -0.0052  0.7009  0.8467  -0.9314   0.0000   0.0000   0.0000   0.2653
   2.800   0.3039   0.00712   0.00226  -0.0053  0.6974  0.8505  -0.9654   0.0000   0.0000   0.0000   0.2650
   2.900   0.3144   0.00714   0.00230  -0.0054  0.6937  0.8542  -0.9996   0.0000   0.0000   0.0000   0.2646
   3.000   0.3250   0.00716   0.00234  -0.0055  0.6892  0.8579  -1.0343   0.0000   0.0000   0.0000   0.2643
   3.100   0.3356   0.00719   0.00238  -0.0056  0.6844  0.8614  -1.0693   0.0000   0.0000   0.0000   0.2640
   3.200   0.3461   0.00722   0.00241  -0.0057  0.6780  0.8649  -1.1047   0.0000   0.0000   0.0000   0.2637
   3.300   0.3566   0.00726   0.00244  -0.0058  0.6695  0.8682  -1.1402   0.0000   0.0000   0.0000   0.2633
   3.400   0.3667   0.00731   0.00246  -0.0057  0.6585  0.8716  -1.1757   0.0000   0.0000   0.0000   0.2627
   3.500   0.3765   0.00737   0.00248  -0.0056  0.6449  0.8754  -1.2110   0.0000   0.0000   0.0000   0.2619
   3.600   0.3848   0.00748   0.00249  -0.0051  0.6243  0.8792  -1.2442   0.0000   0.0000   0.0000   0.2602
   3.700   0.3925   0.00761   0.00250  -0.0045  0.5956  0.8830  -1.2767   0.0000   0.0000   0.0000   0.2584
   3.800   0.3994   0.00779   0.00251  -0.0037  0.5567  0.8864  -1.3082   0.0000   0.0000   0.0000   0.2562
   3.900   0.4018   0.00814   0.00254  -0.0021  0.4958  0.8898  -1.3322   0.0000   0.0000   0.0000   0.2518
   4.000   0.4062   0.00847   0.00259  -0.0009  0.4449  0.8924  -1.3598   0.0000   0.0000   0.0000   0.2489
   4.100   0.4106   0.00877   0.00269   0.0002  0.3959  0.8947  -1.3869   0.0000   0.0000   0.0000   0.2460
   4.200   0.4175   0.00898   0.00276   0.0008  0.3657  0.8965  -1.4189   0.0000   0.0000   0.0000   0.2445
   4.300   0.4212   0.00941   0.00288   0.0020  0.3049  0.8982  -1.4448   0.0000   0.0000   0.0000   0.2417
   4.400   0.4271   0.00971   0.00300   0.0027  0.2645  0.8995  -1.4747   0.0000   0.0000   0.0000   0.2400
   4.500   0.4322   0.01025   0.00319   0.0034  0.1890  0.9024  -1.5023   0.0000   0.0000   0.0000   0.2383
   4.600   0.4368   0.01097   0.00345   0.0041  0.1234  0.9060  -1.5280   0.0000   0.0000   0.0000   0.2366
   4.700   0.4434   0.01157   0.00375   0.0045  0.0684  0.9094  -1.5563   0.0000   0.0000   0.0000   0.2358
   4.800   0.4532   0.01187   0.00393   0.0045  0.0479  0.9125  -1.5890   0.0000   0.0000   0.0000   0.2360
   4.900   0.4642   0.01205   0.00409   0.0043  0.0422  0.9154  -1.6911   0.0000   0.0000   0.0000   0.2367
   5.000   0.4749   0.01226   0.00424   0.0041  0.0365  0.9184  -1.7977   0.0000   0.0000   0.0000   0.2372
   5.100   0.4855   0.01249   0.00447   0.0041  0.0293  0.9215  -1.8947   0.0000   0.0000   0.0000   0.2373
   5.200   0.4958   0.01269   0.00468   0.0041  0.0242  0.9239  -1.9914   0.0000   0.0000   0.0000   0.2373
   5.300   0.5057   0.01287   0.00486   0.0042  0.0208  0.9252  -2.0823   0.0000   0.0000   0.0000   0.2372
   5.400   0.5144   0.01323   0.00528   0.0047  0.0191  0.9274  -2.1474   0.0000   0.0000   0.0000   0.2362
   5.500   0.5225   0.01365   0.00580   0.0054  0.0186  0.9302  -2.2051   0.0000   0.0000   0.0000   0.2350
   5.600   0.5295   0.01419   0.00644   0.0064  0.0187  0.9336  -2.2484   0.0000   0.0000   0.0000   0.2332
   5.700   0.5352   0.01487   0.00724   0.0077  0.0192  0.9372  -2.2857   0.0000   0.0000   0.0000   0.2307
   5.800   0.5402   0.01576   0.00825   0.0093  0.0201  0.9409  -2.3021   0.0000   0.0000   0.0000   0.2279
   5.900   0.5460   0.01705   0.00971   0.0109  0.0217  0.9441  -2.2905   0.0000   0.0000   0.0000   0.2250
   6.000   0.5568   0.01944   0.01225   0.0122  0.0271  0.9462  -2.2191   0.0000   0.0000   0.0000   0.2230
   6.200   0.5917   0.02499   0.01903   0.0161  0.0698  0.9510  -1.9272   0.0000   0.0000   0.0000   0.2177
   6.300   0.6039   0.02568   0.01980   0.0161  0.0667  0.9528  -1.9859   0.0000   0.0000   0.0000   0.2182
   6.400   0.6154   0.02652   0.02070   0.0160  0.0634  0.9545  -2.0474   0.0000   0.0000   0.0000   0.2187
   6.500   0.6264   0.02744   0.02164   0.0159  0.0604  0.9562  -2.1155   0.0000   0.0000   0.0000   0.2193
   6.600   0.6376   0.02829   0.02231   0.0151  0.0560  0.9573  -2.2277   0.0000   0.0000   0.0000   0.2208
   6.700   0.6344   0.03441   0.02861   0.0154  0.0506  0.9599  -2.1702   0.0000   0.0000   0.0000   0.2203
   6.800   0.6503   0.03178   0.02608   0.0155  0.0458  0.9624  -2.3119   0.0000   0.0000   0.0000   0.2207
   6.900   0.6632   0.03166   0.02601   0.0152  0.0403  0.9646  -2.4164   0.0000   0.0000   0.0000   0.2215
   7.000   0.6734   0.03226   0.02664   0.0149  0.0364  0.9668  -2.5126   0.0000   0.0000   0.0000   0.2222
   7.100   0.6830   0.03290   0.02726   0.0145  0.0334  0.9689  -2.6252   0.0000   0.0000   0.0000   0.2231
   7.200   0.6926   0.03363   0.02792   0.0139  0.0309  0.9709  -2.7507   0.0000   0.0000   0.0000   0.2241
   7.300   0.6998   0.03486   0.02912   0.0135  0.0288  0.9732  -2.8522   0.0000   0.0000   0.0000   0.2247
   7.400   0.6990   0.03860   0.03302   0.0141  0.0266  0.9765  -2.8249   0.0000   0.0000   0.0000   0.2238
   7.500   0.6813   0.04607   0.04098   0.0165  0.0252  0.9823  -2.5671   0.0000   0.0000   0.0000   0.2197
  13.100   0.5553   0.14277   0.13933   0.0063  0.0124  1.0000  -1.9795   0.0000   0.0000   0.0000   0.2247
  13.200   0.5561   0.14471   0.14128   0.0056  0.0123  1.0000  -1.9589   0.0000   0.0000   0.0000   0.2260
  13.300   0.5570   0.14664   0.14320   0.0048  0.0123  1.0000  -1.9391   0.0000   0.0000   0.0000   0.2272
  13.400   0.5580   0.14854   0.14510   0.0040  0.0123  1.0000  -1.9201   0.0000   0.0000   0.0000   0.2285
  13.500   0.5591   0.15043   0.14698   0.0033  0.0123  1.0000  -1.9018   0.0000   0.0000   0.0000   0.2298
  13.600   0.5602   0.15229   0.14885   0.0026  0.0123  1.0000  -1.8842   0.0000   0.0000   0.0000   0.2310
  13.700   0.5614   0.15414   0.15069   0.0018  0.0123  1.0000  -1.8674   0.0000   0.0000   0.0000   0.2322
  13.800   0.5627   0.15597   0.15252   0.0011  0.0123  1.0000  -1.8512   0.0000   0.0000   0.0000   0.2334
  13.900   0.5641   0.15779   0.15434   0.0004  0.0122  1.0000  -1.8356   0.0000   0.0000   0.0000   0.2346
  14.000   0.5655   0.15959   0.15613  -0.0003  0.0122  1.0000  -1.8206   0.0000   0.0000   0.0000   0.2357
  14.100   0.5670   0.16137   0.15792  -0.0011  0.0122  1.0000  -1.8061   0.0000   0.0000   0.0000   0.2369
  14.200   0.5685   0.16314   0.15969  -0.0018  0.0122  1.0000  -1.7922   0.0000   0.0000   0.0000   0.2380
  14.300   0.5701   0.16490   0.16144  -0.0025  0.0122  1.0000  -1.7789   0.0000   0.0000   0.0000   0.2391
  14.400   0.5718   0.16664   0.16318  -0.0032  0.0122  1.0000  -1.7660   0.0000   0.0000   0.0000   0.2402
  14.500   0.5735   0.16837   0.16491  -0.0039  0.0121  1.0000  -1.7536   0.0000   0.0000   0.0000   0.2413
  14.600   0.5753   0.17009   0.16663  -0.0046  0.0121  1.0000  -1.7416   0.0000   0.0000   0.0000   0.2424
  14.700   0.5771   0.17180   0.16834  -0.0052  0.0121  1.0000  -1.7301   0.0000   0.0000   0.0000   0.2434
  14.800   0.5790   0.17345   0.16998  -0.0059  0.0121  1.0000  -1.7191   0.0000   0.0000   0.0000   0.2445
  14.900   0.5809   0.17503   0.17156  -0.0066  0.0121  1.0000  -1.7085   0.0000   0.0000   0.0000   0.2455
  15.000   0.5829   0.17657   0.17311  -0.0073  0.0121  1.0000  -1.6984   0.0000   0.0000   0.0000   0.2465
  15.100   0.5849   0.17810   0.17463  -0.0080  0.0120  1.0000  -1.6887   0.0000   0.0000   0.0000   0.2475
  15.200   0.5870   0.17962   0.17615  -0.0086  0.0120  1.0000  -1.6793   0.0000   0.0000   0.0000   0.2485
  15.300   0.5891   0.18115   0.17767  -0.0093  0.0120  1.0000  -1.6701   0.0000   0.0000   0.0000   0.2495
  15.400   0.5912   0.18268   0.17920  -0.0100  0.0120  1.0000  -1.6613   0.0000   0.0000   0.0000   0.2505
  15.500   0.5934   0.18421   0.18074  -0.0107  0.0120  1.0000  -1.6528   0.0000   0.0000   0.0000   0.2514
  15.600   0.5956   0.18575   0.18228  -0.0114  0.0119  1.0000  -1.6444   0.0000   0.0000   0.0000   0.2524
  15.700   0.5978   0.18731   0.18383  -0.0120  0.0119  1.0000  -1.6364   0.0000   0.0000   0.0000   0.2533
  15.800   0.6000   0.18886   0.18538  -0.0127  0.0119  1.0000  -1.6284   0.0000   0.0000   0.0000   0.2543
  15.900   0.6022   0.19042   0.18694  -0.0134  0.0119  1.0000  -1.6207   0.0000   0.0000   0.0000   0.2552
  16.000   0.6045   0.19199   0.18851  -0.0141  0.0119  1.0000  -1.6131   0.0000   0.0000   0.0000   0.2561
  16.100   0.6067   0.19356   0.19008  -0.0148  0.0118  1.0000  -1.6056   0.0000   0.0000   0.0000   0.2570
  16.200   0.6089   0.19513   0.19165  -0.0155  0.0118  1.0000  -1.5970   0.0000   0.0000   0.0000   0.2580
  16.300   0.6110   0.19671   0.19323  -0.0162  0.0118  1.0000  -1.5876   0.0000   0.0000   0.0000   0.2590
  16.400   0.6132   0.19830   0.19481  -0.0169  0.0118  1.0000  -1.5785   0.0000   0.0000   0.0000   0.2599
  16.500   0.6154   0.19989   0.19641  -0.0176  0.0118  1.0000  -1.5698   0.0000   0.0000   0.0000   0.2609
  16.600   0.6177   0.20149   0.19801  -0.0183  0.0117  1.0000  -1.5614   0.0000   0.0000   0.0000   0.2618
  16.700   0.6199   0.20310   0.19961  -0.0191  0.0117  1.0000  -1.5532   0.0000   0.0000   0.0000   0.2628
  16.800   0.6222   0.20471   0.20123  -0.0198  0.0117  1.0000  -1.5453   0.0000   0.0000   0.0000   0.2637
  16.900   0.6245   0.20633   0.20285  -0.0205  0.0117  1.0000  -1.5378   0.0000   0.0000   0.0000   0.2646
  17.000   0.6268   0.20796   0.20447  -0.0212  0.0117  1.0000  -1.5306   0.0000   0.0000   0.0000   0.2654
  17.100   0.6292   0.20960   0.20611  -0.0219  0.0116  1.0000  -1.5239   0.0000   0.0000   0.0000   0.2663
  17.200   0.6316   0.21123   0.20775  -0.0226  0.0116  1.0000  -1.5175   0.0000   0.0000   0.0000   0.2672
  17.300   0.6339   0.21288   0.20939  -0.0233  0.0116  1.0000  -1.5113   0.0000   0.0000   0.0000   0.2680
  17.400   0.6363   0.21453   0.21104  -0.0240  0.0116  1.0000  -1.5053   0.0000   0.0000   0.0000   0.2689
  17.500   0.6387   0.21619   0.21270  -0.0247  0.0116  1.0000  -1.4995   0.0000   0.0000   0.0000   0.2697
  17.600   0.6411   0.21785   0.21436  -0.0254  0.0115  1.0000  -1.4939   0.0000   0.0000   0.0000   0.2705
  17.700   0.6436   0.21952   0.21603  -0.0261  0.0115  1.0000  -1.4884   0.0000   0.0000   0.0000   0.2713
  17.800   0.6460   0.22120   0.21771  -0.0268  0.0115  1.0000  -1.4832   0.0000   0.0000   0.0000   0.2721
  17.900   0.6484   0.22288   0.21939  -0.0275  0.0115  1.0000  -1.4781   0.0000   0.0000   0.0000   0.2729
  18.000   0.6509   0.22457   0.22107  -0.0282  0.0114  1.0000  -1.4731   0.0000   0.0000   0.0000   0.2737
  18.100   0.6533   0.22626   0.22277  -0.0288  0.0114  1.0000  -1.4684   0.0000   0.0000   0.0000   0.2744
  18.200   0.6558   0.22796   0.22447  -0.0295  0.0114  1.0000  -1.4637   0.0000   0.0000   0.0000   0.2752
  18.300   0.6582   0.22966   0.22617  -0.0302  0.0114  1.0000  -1.4592   0.0000   0.0000   0.0000   0.2759
  18.400   0.6607   0.23137   0.22788  -0.0309  0.0114  1.0000  -1.4548   0.0000   0.0000   0.0000   0.2767
  18.500   0.6632   0.23309   0.22960  -0.0316  0.0113  1.0000  -1.4506   0.0000   0.0000   0.0000   0.2774
  18.600   0.6656   0.23481   0.23132  -0.0322  0.0113  1.0000  -1.4465   0.0000   0.0000   0.0000   0.2781
  18.700   0.6681   0.23654   0.23305  -0.0329  0.0113  1.0000  -1.4425   0.0000   0.0000   0.0000   0.2788
  18.800   0.6705   0.23827   0.23479  -0.0336  0.0113  1.0000  -1.4386   0.0000   0.0000   0.0000   0.2795
  18.900   0.6730   0.24001   0.23653  -0.0343  0.0113  1.0000  -1.4348   0.0000   0.0000   0.0000   0.2802
  19.000   0.6754   0.24176   0.23827  -0.0349  0.0112  1.0000  -1.4312   0.0000   0.0000   0.0000   0.2809
  19.100   0.6778   0.24351   0.24003  -0.0356  0.0112  1.0000  -1.4276   0.0000   0.0000   0.0000   0.2816
  19.200   0.6803   0.24527   0.24178  -0.0363  0.0112  1.0000  -1.4241   0.0000   0.0000   0.0000   0.2822
  19.300   0.6827   0.24703   0.24355  -0.0369  0.0112  1.0000  -1.4207   0.0000   0.0000   0.0000   0.2829
  19.400   0.6851   0.24880   0.24532  -0.0376  0.0111  1.0000  -1.4174   0.0000   0.0000   0.0000   0.2835
  19.500   0.6875   0.25058   0.24710  -0.0383  0.0111  1.0000  -1.4142   0.0000   0.0000   0.0000   0.2842
  19.600   0.6899   0.25236   0.24888  -0.0389  0.0111  1.0000  -1.4110   0.0000   0.0000   0.0000   0.2848
  19.700   0.6923   0.25415   0.25067  -0.0396  0.0111  1.0000  -1.4079   0.0000   0.0000   0.0000   0.2854
  19.800   0.6946   0.25594   0.25246  -0.0402  0.0111  1.0000  -1.4049   0.0000   0.0000   0.0000   0.2860
  19.900   0.6970   0.25774   0.25426  -0.0409  0.0110  1.0000  -1.4020   0.0000   0.0000   0.0000   0.2867
  20.000   0.6993   0.25954   0.25606  -0.0415  0.0110  1.0000  -1.3991   0.0000   0.0000   0.0000   0.2873
  20.100   0.7016   0.26135   0.25787  -0.0422  0.0110  1.0000  -1.3963   0.0000   0.0000   0.0000   0.2879
  20.200   0.7039   0.26317   0.25969  -0.0428  0.0110  1.0000  -1.3935   0.0000   0.0000   0.0000   0.2884
  20.300   0.7062   0.26499   0.26151  -0.0435  0.0110  1.0000  -1.3908   0.0000   0.0000   0.0000   0.2890
  20.400   0.7085   0.26681   0.26334  -0.0441  0.0109  1.0000  -1.3881   0.0000   0.0000   0.0000   0.2896
  20.500   0.7108   0.26864   0.26517  -0.0447  0.0109  1.0000  -1.3855   0.0000   0.0000   0.0000   0.2902
  20.600   0.7130   0.27048   0.26701  -0.0454  0.0109  1.0000  -1.3830   0.0000   0.0000   0.0000   0.2907
  20.700   0.7152   0.27232   0.26885  -0.0460  0.0109  1.0000  -1.3804   0.0000   0.0000   0.0000   0.2913
  20.800   0.7174   0.27416   0.27070  -0.0466  0.0109  1.0000  -1.3779   0.0000   0.0000   0.0000   0.2918
  20.900   0.7196   0.27601   0.27255  -0.0473  0.0108  1.0000  -1.3755   0.0000   0.0000   0.0000   0.2924
  21.000   0.7217   0.27787   0.27440  -0.0479  0.0108  1.0000  -1.3730   0.0000   0.0000   0.0000   0.2929
  21.100   0.7239   0.27973   0.27627  -0.0485  0.0108  1.0000  -1.3706   0.0000   0.0000   0.0000   0.2935
  21.200   0.7260   0.28159   0.27813  -0.0491  0.0108  1.0000  -1.3682   0.0000   0.0000   0.0000   0.2940
  21.300   0.7281   0.28346   0.28000  -0.0498  0.0107  1.0000  -1.3659   0.0000   0.0000   0.0000   0.2945
  21.400   0.7301   0.28533   0.28188  -0.0504  0.0107  1.0000  -1.3635   0.0000   0.0000   0.0000   0.2950
  21.500   0.7321   0.28721   0.28375  -0.0510  0.0107  1.0000  -1.3612   0.0000   0.0000   0.0000   0.2955
  21.600   0.7341   0.28909   0.28564  -0.0516  0.0107  1.0000  -1.3589   0.0000   0.0000   0.0000   0.2961
  26.200   0.6948   0.34724   0.34407  -0.0597  0.0106  1.0000  -1.0458   0.0000   0.0000   0.0000   0.3090
  26.300   0.6918   0.34710   0.34394  -0.0595  0.0106  1.0000  -1.0349   0.0000   0.0000   0.0000   0.3092
  26.400   0.6892   0.34705   0.34390  -0.0593  0.0105  1.0000  -1.0248   0.0000   0.0000   0.0000   0.3093
  26.500   0.6868   0.34705   0.34391  -0.0592  0.0105  1.0000  -1.0153   0.0000   0.0000   0.0000   0.3095
  26.600   0.6846   0.34710   0.34398  -0.0592  0.0104  1.0000  -1.0064   0.0000   0.0000   0.0000   0.3097
  26.700   0.6826   0.34720   0.34408  -0.0591  0.0104  1.0000  -0.9979   0.0000   0.0000   0.0000   0.3099
  26.800   0.6807   0.34731   0.34420  -0.0591  0.0103  1.0000  -0.9897   0.0000   0.0000   0.0000   0.3101
  26.900   0.6790   0.34745   0.34435  -0.0591  0.0103  1.0000  -0.9819   0.0000   0.0000   0.0000   0.3104
  27.000   0.6774   0.34762   0.34452  -0.0592  0.0103  1.0000  -0.9744   0.0000   0.0000   0.0000   0.3106
  27.100   0.6759   0.34781   0.34472  -0.0592  0.0102  1.0000  -0.9672   0.0000   0.0000   0.0000   0.3109
  27.200   0.6744   0.34801   0.34494  -0.0593  0.0102  1.0000  -0.9602   0.0000   0.0000   0.0000   0.3111
  27.300   0.6731   0.34824   0.34518  -0.0594  0.0101  1.0000  -0.9535   0.0000   0.0000   0.0000   0.3114
  27.400   0.6719   0.34849   0.34543  -0.0595  0.0101  1.0000  -0.9470   0.0000   0.0000   0.0000   0.3117
  27.500   0.6707   0.34875   0.34570  -0.0596  0.0100  1.0000  -0.9408   0.0000   0.0000   0.0000   0.3120
  27.600   0.6696   0.34902   0.34598  -0.0597  0.0100  1.0000  -0.9347   0.0000   0.0000   0.0000   0.3123
  27.700   0.6686   0.34931   0.34627  -0.0598  0.0100  1.0000  -0.9288   0.0000   0.0000   0.0000   0.3126
  27.800   0.6676   0.34960   0.34658  -0.0600  0.0099  1.0000  -0.9231   0.0000   0.0000   0.0000   0.3129
  27.900   0.6666   0.34991   0.34689  -0.0601  0.0099  1.0000  -0.9175   0.0000   0.0000   0.0000   0.3132
  28.000   0.6658   0.35023   0.34722  -0.0603  0.0098  1.0000  -0.9121   0.0000   0.0000   0.0000   0.3135
  28.100   0.6649   0.35056   0.34756  -0.0605  0.0098  1.0000  -0.9068   0.0000   0.0000   0.0000   0.3138
  28.200   0.6642   0.35089   0.34790  -0.0606  0.0098  1.0000  -0.9016   0.0000   0.0000   0.0000   0.3142
  28.300   0.6634   0.35124   0.34825  -0.0608  0.0097  1.0000  -0.8966   0.0000   0.0000   0.0000   0.3145
  28.400   0.6627   0.35159   0.34861  -0.0610  0.0097  1.0000  -0.8917   0.0000   0.0000   0.0000   0.3148
  28.500   0.6621   0.35195   0.34898  -0.0612  0.0096  1.0000  -0.8869   0.0000   0.0000   0.0000   0.3152
  28.600   0.6614   0.35232   0.34935  -0.0614  0.0096  1.0000  -0.8822   0.0000   0.0000   0.0000   0.3155
  28.700   0.6609   0.35269   0.34973  -0.0616  0.0096  1.0000  -0.8777   0.0000   0.0000   0.0000   0.3159
  28.800   0.6603   0.35307   0.35012  -0.0619  0.0095  1.0000  -0.8732   0.0000   0.0000   0.0000   0.3162
  28.900   0.6598   0.35345   0.35051  -0.0621  0.0095  1.0000  -0.8688   0.0000   0.0000   0.0000   0.3166
  29.000   0.6593   0.35384   0.35091  -0.0623  0.0095  1.0000  -0.8645   0.0000   0.0000   0.0000   0.3169
  29.100   0.6588   0.35424   0.35131  -0.0626  0.0094  1.0000  -0.8603   0.0000   0.0000   0.0000   0.3173
  29.200   0.6583   0.35464   0.35172  -0.0628  0.0094  1.0000  -0.8561   0.0000   0.0000   0.0000   0.3176
  29.300   0.6579   0.35504   0.35213  -0.0631  0.0094  1.0000  -0.8521   0.0000   0.0000   0.0000   0.3180
  29.400   0.6575   0.35545   0.35254  -0.0633  0.0093  1.0000  -0.8481   0.0000   0.0000   0.0000   0.3184
  29.500   0.6571   0.35586   0.35296  -0.0636  0.0093  1.0000  -0.8442   0.0000   0.0000   0.0000   0.3188
  29.600   0.6568   0.35628   0.35339  -0.0638  0.0093  1.0000  -0.8404   0.0000   0.0000   0.0000   0.3191
  29.700   0.6564   0.35670   0.35382  -0.0641  0.0092  1.0000  -0.8367   0.0000   0.0000   0.0000   0.3195
  29.800   0.6561   0.35713   0.35425  -0.0644  0.0092  1.0000  -0.8330   0.0000   0.0000   0.0000   0.3199
  29.900   0.6558   0.35756   0.35469  -0.0647  0.0092  1.0000  -0.8293   0.0000   0.0000   0.0000   0.3203
  30.000   0.6555   0.35799   0.35513  -0.0650  0.0092  1.0000  -0.8258   0.0000   0.0000   0.0000   0.3207


