xflr5 v6.61

 Calculated polar for: NACA 65-209

 1 1 Reynolds number fixed          Mach number fixed         

 xtrf =   1.000 (top)        1.000 (bottom)
 Mach =   0.000     Re =     0.563 e 6     Ncrit =   9.000

  alpha     CL        CD       CDp       Cm    Top Xtr Bot Xtr   Cpmin    Chinge    XCp    
 ------- -------- --------- --------- -------- ------- ------- -------- --------- ---------
 -10.000  -0.3829   0.04184   0.04020   0.0412  0.7982  0.0151  -0.9263   0.0000   0.0000   0.0000   0.3613
  -9.900  -0.3792   0.04029   0.03865   0.0409  0.7968  0.0152  -0.9071   0.0000   0.0000   0.0000   0.3615
  -9.600  -0.4348   0.08922   0.08686  -0.0370  1.0000  0.0135  -2.1175   0.0000   0.0000   0.0000   0.1592
  -9.500  -0.4407   0.08628   0.08394  -0.0382  1.0000  0.0136  -2.2294   0.0000   0.0000   0.0000   0.1576
  -9.400  -0.4454   0.08372   0.08139  -0.0393  1.0000  0.0138  -2.3127   0.0000   0.0000   0.0000   0.1561
  -9.300  -0.4493   0.08139   0.07906  -0.0405  1.0000  0.0139  -2.3765   0.0000   0.0000   0.0000   0.1544
  -9.200  -0.4525   0.07919   0.07687  -0.0417  1.0000  0.0140  -2.4280   0.0000   0.0000   0.0000   0.1524
  -9.100  -0.4552   0.07700   0.07469  -0.0432  1.0000  0.0140  -2.4756   0.0000   0.0000   0.0000   0.1498
  -9.000  -0.4572   0.07468   0.07237  -0.0452  1.0000  0.0140  -2.5279   0.0000   0.0000   0.0000   0.1458
  -8.900  -0.4600   0.07260   0.07029  -0.0470  1.0000  0.0140  -2.5757   0.0000   0.0000   0.0000   0.1427
  -8.800  -0.4639   0.07081   0.06848  -0.0483  1.0000  0.0140  -2.6175   0.0000   0.0000   0.0000   0.1409
  -8.700  -0.4685   0.06922   0.06688  -0.0493  1.0000  0.0140  -2.6551   0.0000   0.0000   0.0000   0.1400
  -8.600  -0.4737   0.06783   0.06547  -0.0498  1.0000  0.0139  -2.6881   0.0000   0.0000   0.0000   0.1401
  -8.500  -0.4796   0.06658   0.06421  -0.0500  1.0000  0.0139  -2.7182   0.0000   0.0000   0.0000   0.1411
  -8.400  -0.4860   0.06551   0.06312  -0.0498  1.0000  0.0139  -2.7447   0.0000   0.0000   0.0000   0.1431
  -8.300  -0.4932   0.06468   0.06227  -0.0491  1.0000  0.0139  -2.7662   0.0000   0.0000   0.0000   0.1462
  -8.200  -0.5011   0.06408   0.06166  -0.0478  1.0000  0.0139  -2.7827   0.0000   0.0000   0.0000   0.1504
  -8.100  -0.5094   0.06365   0.06122  -0.0460  1.0000  0.0138  -2.7957   0.0000   0.0000   0.0000   0.1556
  -8.000  -0.5177   0.06299   0.06055  -0.0443  1.0000  0.0138  -2.8158   0.0000   0.0000   0.0000   0.1604
  -7.900  -0.5256   0.06192   0.05946  -0.0430  1.0000  0.0139  -2.8480   0.0000   0.0000   0.0000   0.1644
  -7.800  -0.5337   0.06093   0.05845  -0.0415  1.0000  0.0139  -2.8783   0.0000   0.0000   0.0000   0.1685
  -7.700  -0.5417   0.05998   0.05749  -0.0398  1.0000  0.0140  -2.9066   0.0000   0.0000   0.0000   0.1727
  -7.600  -0.5465   0.05802   0.05549  -0.0398  0.9995  0.0142  -2.9436   0.0000   0.0000   0.0000   0.1735
  -7.500  -0.5464   0.05595   0.05337  -0.0406  0.9986  0.0144  -2.9437   0.0000   0.0000   0.0000   0.1721
  -7.400  -0.5438   0.05412   0.05148  -0.0413  0.9975  0.0145  -2.9436   0.0000   0.0000   0.0000   0.1705
  -7.300  -0.5404   0.05235   0.04965  -0.0419  0.9963  0.0147  -2.9369   0.0000   0.0000   0.0000   0.1689
  -7.200  -0.5363   0.05064   0.04787  -0.0425  0.9949  0.0148  -2.9241   0.0000   0.0000   0.0000   0.1672
  -7.100  -0.5315   0.04901   0.04619  -0.0431  0.9933  0.0149  -2.9029   0.0000   0.0000   0.0000   0.1655
  -7.000  -0.5258   0.04752   0.04464  -0.0436  0.9915  0.0151  -2.8667   0.0000   0.0000   0.0000   0.1636
  -6.900  -0.5197   0.04607   0.04314  -0.0442  0.9896  0.0153  -2.8274   0.0000   0.0000   0.0000   0.1617
  -6.800  -0.5131   0.04466   0.04168  -0.0447  0.9876  0.0155  -2.7853   0.0000   0.0000   0.0000   0.1596
  -6.600  -0.4993   0.04166   0.03853  -0.0457  0.9832  0.0159  -2.7068   0.0000   0.0000   0.0000   0.1553
  -6.500  -0.4914   0.04027   0.03707  -0.0462  0.9810  0.0161  -2.6640   0.0000   0.0000   0.0000   0.1529
  -6.400  -0.4832   0.03888   0.03560  -0.0466  0.9788  0.0164  -2.6210   0.0000   0.0000   0.0000   0.1503
  -6.300  -0.4745   0.03749   0.03413  -0.0471  0.9767  0.0167  -2.5782   0.0000   0.0000   0.0000   0.1475
  -6.200  -0.4654   0.03608   0.03264  -0.0476  0.9746  0.0170  -2.5359   0.0000   0.0000   0.0000   0.1446
  -6.100  -0.4559   0.03464   0.03110  -0.0481  0.9727  0.0174  -2.4948   0.0000   0.0000   0.0000   0.1415
  -5.300  -0.3712   0.01507   0.00934  -0.0465  0.9511  0.0155  -3.0746   0.0000   0.0000   0.0000   0.1209
  -5.200  -0.3610   0.01510   0.00942  -0.0466  0.9491  0.0165  -2.9038   0.0000   0.0000   0.0000   0.1171
  -5.100  -0.3510   0.01514   0.00949  -0.0466  0.9475  0.0173  -2.7421   0.0000   0.0000   0.0000   0.1136
  -5.000  -0.3409   0.01509   0.00944  -0.0465  0.9457  0.0181  -2.5937   0.0000   0.0000   0.0000   0.1099
  -4.900  -0.3308   0.01495   0.00930  -0.0465  0.9436  0.0187  -2.4550   0.0000   0.0000   0.0000   0.1061
  -4.800  -0.3207   0.01474   0.00908  -0.0463  0.9412  0.0193  -2.3246   0.0000   0.0000   0.0000   0.1020
  -4.700  -0.3105   0.01449   0.00881  -0.0462  0.9388  0.0197  -2.2013   0.0000   0.0000   0.0000   0.0977
  -4.600  -0.3003   0.01421   0.00851  -0.0461  0.9362  0.0201  -2.1463   0.0000   0.0000   0.0000   0.0931
  -4.500  -0.2902   0.01391   0.00819  -0.0459  0.9335  0.0204  -2.0960   0.0000   0.0000   0.0000   0.0882
  -4.400  -0.2801   0.01361   0.00786  -0.0458  0.9307  0.0207  -2.0491   0.0000   0.0000   0.0000   0.0832
  -4.300  -0.2699   0.01329   0.00752  -0.0456  0.9278  0.0210  -2.0045   0.0000   0.0000   0.0000   0.0777
  -4.200  -0.2595   0.01309   0.00730  -0.0455  0.9249  0.0215  -1.9468   0.0000   0.0000   0.0000   0.0713
  -4.100  -0.2490   0.01305   0.00725  -0.0455  0.9219  0.0224  -1.8723   0.0000   0.0000   0.0000   0.0639
  -4.000  -0.2383   0.01304   0.00724  -0.0455  0.9188  0.0233  -1.7971   0.0000   0.0000   0.0000   0.0559
  -3.900  -0.2278   0.01299   0.00719  -0.0454  0.9156  0.0240  -1.7303   0.0000   0.0000   0.0000   0.0473
  -3.800  -0.2174   0.01275   0.00692  -0.0453  0.9120  0.0242  -1.6861   0.0000   0.0000   0.0000   0.0384
  -3.700  -0.2074   0.01229   0.00642  -0.0450  0.9079  0.0240  -1.6666   0.0000   0.0000   0.0000   0.0294
  -3.600  -0.1972   0.01188   0.00597  -0.0449  0.9031  0.0239  -1.6458   0.0000   0.0000   0.0000   0.0188
  -3.500  -0.1871   0.01150   0.00556  -0.0447  0.8997  0.0237  -1.6234   0.0000   0.0000   0.0000   0.0074
  -3.400  -0.1775   0.01115   0.00518  -0.0445  0.8983  0.0236  -1.5999   0.0000   0.0000   0.0000  -0.0041
  -3.300  -0.1678   0.01082   0.00483  -0.0442  0.8965  0.0236  -1.5751   0.0000   0.0000   0.0000  -0.0172
  -3.200  -0.1580   0.01052   0.00450  -0.0440  0.8945  0.0235  -1.5491   0.0000   0.0000   0.0000  -0.0321
  -3.100  -0.1481   0.01025   0.00420  -0.0438  0.8922  0.0235  -1.5218   0.0000   0.0000   0.0000  -0.0494
  -3.000  -0.1381   0.01000   0.00392  -0.0436  0.8897  0.0235  -1.4934   0.0000   0.0000   0.0000  -0.0695
  -2.900  -0.1280   0.00977   0.00366  -0.0434  0.8870  0.0236  -1.4639   0.0000   0.0000   0.0000  -0.0931
  -2.800  -0.1179   0.00957   0.00342  -0.0433  0.8842  0.0237  -1.4334   0.0000   0.0000   0.0000  -0.1212
  -2.700  -0.1076   0.00939   0.00320  -0.0431  0.8813  0.0239  -1.4018   0.0000   0.0000   0.0000  -0.1551
  -2.600  -0.0973   0.00922   0.00300  -0.0430  0.8783  0.0241  -1.3690   0.0000   0.0000   0.0000  -0.1966
  -2.500  -0.0869   0.00908   0.00282  -0.0429  0.8752  0.0244  -1.3348   0.0000   0.0000   0.0000  -0.2484
  -2.400  -0.0764   0.00896   0.00266  -0.0428  0.8721  0.0248  -1.2986   0.0000   0.0000   0.0000  -0.3148
  -2.300  -0.0659   0.00886   0.00253  -0.0427  0.8689  0.0253  -1.2599   0.0000   0.0000   0.0000  -0.4026
  -2.100  -0.0452   0.00832   0.00195  -0.0423  0.8616  0.0682  -1.2942   0.0000   0.0000   0.0000  -0.6925
  -1.900  -0.0271   0.00699   0.00165  -0.0427  0.8520  0.3639  -1.2040   0.0000   0.0000   0.0000  -1.3368
  -1.800  -0.0182   0.00637   0.00158  -0.0429  0.8496  0.5154  -1.1544   0.0000   0.0000   0.0000  -2.1254
  -1.700  -0.0084   0.00610   0.00160  -0.0428  0.8482  0.5957  -1.1012   0.0000   0.0000   0.0000  -4.8563
  -1.600   0.0016   0.00595   0.00163  -0.0426  0.8466  0.6402  -1.0471   0.0000   0.0000   0.0000  27.2399
  -1.500   0.0120   0.00589   0.00164  -0.0425  0.8447  0.6637  -0.9921   0.0000   0.0000   0.0000   3.7972
  -1.400   0.0223   0.00583   0.00166  -0.0423  0.8424  0.6854  -0.9378   0.0000   0.0000   0.0000   2.1546
  -1.300   0.0331   0.00582   0.00166  -0.0423  0.8399  0.6973  -0.8827   0.0000   0.0000   0.0000   1.5308
  -1.200   0.0438   0.00579   0.00166  -0.0422  0.8372  0.7083  -0.8287   0.0000   0.0000   0.0000   1.2173
  -1.100   0.0542   0.00575   0.00166  -0.0420  0.8343  0.7188  -0.7757   0.0000   0.0000   0.0000   1.0283
  -1.000   0.0648   0.00573   0.00166  -0.0419  0.8313  0.7269  -0.7230   0.0000   0.0000   0.0000   0.8993
  -0.900   0.0754   0.00573   0.00166  -0.0418  0.8282  0.7340  -0.6707   0.0000   0.0000   0.0000   0.8060
  -0.800   0.0862   0.00573   0.00166  -0.0417  0.8252  0.7411  -0.6190   0.0000   0.0000   0.0000   0.7357
  -0.700   0.0970   0.00576   0.00167  -0.0417  0.8222  0.7477  -0.5678   0.0000   0.0000   0.0000   0.6807
  -0.600   0.1073   0.00574   0.00168  -0.0415  0.8191  0.7587  -0.5184   0.0000   0.0000   0.0000   0.6374
  -0.500   0.1170   0.00573   0.00172  -0.0411  0.8157  0.7710  -0.4709   0.0000   0.0000   0.0000   0.6019
  -0.400   0.1270   0.00575   0.00176  -0.0408  0.8120  0.7810  -0.4235   0.0000   0.0000   0.0000   0.5718
  -0.300   0.1374   0.00580   0.00181  -0.0406  0.8078  0.7887  -0.3761   0.0000   0.0000   0.0000   0.5460
  -0.200   0.1482   0.00586   0.00186  -0.0406  0.8032  0.7941  -0.3493   0.0000   0.0000   0.0000   0.5240
  -0.100   0.1592   0.00591   0.00190  -0.0406  0.8000  0.7974  -0.3539   0.0000   0.0000   0.0000   0.5051
   0.000   0.1702   0.00592   0.00192  -0.0406  0.7988  0.7995  -0.3585   0.0000   0.0000   0.0000   0.4885
   0.100   0.1809   0.00587   0.00189  -0.0406  0.7969  0.8063  -0.3631   0.0000   0.0000   0.0000   0.4741
   0.200   0.1914   0.00583   0.00188  -0.0405  0.7942  0.8121  -0.3677   0.0000   0.0000   0.0000   0.4611
   0.300   0.2017   0.00580   0.00187  -0.0403  0.7902  0.8165  -0.3722   0.0000   0.0000   0.0000   0.4493
   0.400   0.2120   0.00578   0.00185  -0.0401  0.7855  0.8202  -0.3771   0.0000   0.0000   0.0000   0.4386
   0.500   0.2224   0.00576   0.00183  -0.0399  0.7799  0.8234  -0.4207   0.0000   0.0000   0.0000   0.4289
   0.600   0.2326   0.00576   0.00181  -0.0397  0.7737  0.8265  -0.4716   0.0000   0.0000   0.0000   0.4200
   0.700   0.2429   0.00577   0.00178  -0.0395  0.7669  0.8295  -0.5234   0.0000   0.0000   0.0000   0.4119
   0.800   0.2531   0.00581   0.00177  -0.0393  0.7585  0.8325  -0.5759   0.0000   0.0000   0.0000   0.4045
   0.900   0.2637   0.00585   0.00177  -0.0392  0.7498  0.8354  -0.6301   0.0000   0.0000   0.0000   0.3978
   1.000   0.2745   0.00583   0.00177  -0.0392  0.7459  0.8382  -0.6856   0.0000   0.0000   0.0000   0.3917
   1.100   0.2852   0.00582   0.00176  -0.0391  0.7400  0.8410  -0.7419   0.0000   0.0000   0.0000   0.3861
   1.200   0.2958   0.00583   0.00175  -0.0390  0.7325  0.8436  -0.7988   0.0000   0.0000   0.0000   0.3807
   1.300   0.3063   0.00585   0.00174  -0.0389  0.7242  0.8459  -0.8563   0.0000   0.0000   0.0000   0.3758
   1.400   0.3166   0.00589   0.00173  -0.0387  0.7144  0.8478  -0.9141   0.0000   0.0000   0.0000   0.3710
   1.500   0.3269   0.00596   0.00173  -0.0386  0.7031  0.8493  -0.9725   0.0000   0.0000   0.0000   0.3667
   1.600   0.3377   0.00595   0.00172  -0.0386  0.6975  0.8540  -1.0329   0.0000   0.0000   0.0000   0.3629
   1.700   0.3483   0.00592   0.00172  -0.0385  0.6920  0.8591  -1.0934   0.0000   0.0000   0.0000   0.3592
   1.800   0.3585   0.00592   0.00173  -0.0383  0.6841  0.8635  -1.1536   0.0000   0.0000   0.0000   0.3555
   1.900   0.3684   0.00595   0.00174  -0.0380  0.6738  0.8673  -1.2136   0.0000   0.0000   0.0000   0.3518
   2.000   0.3777   0.00601   0.00174  -0.0377  0.6595  0.8710  -1.2726   0.0000   0.0000   0.0000   0.3482
   2.100   0.3874   0.00606   0.00175  -0.0374  0.6453  0.8745  -1.3330   0.0000   0.0000   0.0000   0.3449
   2.200   0.3971   0.00611   0.00177  -0.0371  0.6275  0.8779  -1.3940   0.0000   0.0000   0.0000   0.3417
   2.300   0.4057   0.00625   0.00178  -0.0366  0.5975  0.8813  -1.4520   0.0000   0.0000   0.0000   0.3385
   2.400   0.4137   0.00647   0.00180  -0.0360  0.5498  0.8847  -1.5085   0.0000   0.0000   0.0000   0.3353
   2.500   0.4208   0.00683   0.00186  -0.0354  0.4754  0.8880  -1.5617   0.0000   0.0000   0.0000   0.3322
   2.600   0.4255   0.00753   0.00205  -0.0345  0.3592  0.8914  -1.6064   0.0000   0.0000   0.0000   0.3292
   2.700   0.4308   0.00821   0.00228  -0.0338  0.2510  0.8945  -1.6515   0.0000   0.0000   0.0000   0.3266
   2.800   0.4364   0.00885   0.00252  -0.0332  0.1474  0.8971  -1.6955   0.0000   0.0000   0.0000   0.3240
   2.900   0.4418   0.00953   0.00277  -0.0325  0.0570  0.8992  -1.7345   0.0000   0.0000   0.0000   0.3215
   3.100   0.4590   0.00997   0.00319  -0.0314  0.0225  0.9100  -1.7295   0.0000   0.0000   0.0000   0.3163
   3.200   0.4674   0.01006   0.00332  -0.0308  0.0218  0.9150  -1.7673   0.0000   0.0000   0.0000   0.3138
   3.300   0.4756   0.01016   0.00346  -0.0302  0.0213  0.9197  -1.8039   0.0000   0.0000   0.0000   0.3113
   3.400   0.4837   0.01028   0.00362  -0.0296  0.0209  0.9243  -1.8400   0.0000   0.0000   0.0000   0.3088
   3.500   0.4919   0.01042   0.00380  -0.0289  0.0207  0.9289  -1.8758   0.0000   0.0000   0.0000   0.3064
   3.600   0.4998   0.01057   0.00399  -0.0283  0.0205  0.9334  -1.9110   0.0000   0.0000   0.0000   0.3041
   3.700   0.5077   0.01075   0.00420  -0.0276  0.0203  0.9377  -1.9457   0.0000   0.0000   0.0000   0.3019
   3.800   0.5155   0.01093   0.00442  -0.0269  0.0202  0.9416  -1.9798   0.0000   0.0000   0.0000   0.2997
   3.900   0.5232   0.01114   0.00467  -0.0262  0.0202  0.9452  -2.0132   0.0000   0.0000   0.0000   0.2975
   4.000   0.5306   0.01136   0.00493  -0.0255  0.0201  0.9481  -2.0456   0.0000   0.0000   0.0000   0.2954
   4.100   0.5386   0.01161   0.00521  -0.0249  0.0201  0.9512  -2.0780   0.0000   0.0000   0.0000   0.2935
   4.200   0.5493   0.01192   0.00556  -0.0250  0.0202  0.9578  -2.1142   0.0000   0.0000   0.0000   0.2927
   4.300   0.5602   0.01226   0.00595  -0.0251  0.0202  0.9644  -2.1495   0.0000   0.0000   0.0000   0.2919
   4.400   0.5713   0.01264   0.00637  -0.0252  0.0203  0.9705  -2.1840   0.0000   0.0000   0.0000   0.2912
   4.500   0.5826   0.01305   0.00682  -0.0254  0.0204  0.9761  -2.2174   0.0000   0.0000   0.0000   0.2906
   4.600   0.5941   0.01350   0.00731  -0.0256  0.0206  0.9812  -2.2497   0.0000   0.0000   0.0000   0.2900
   4.700   0.6056   0.01400   0.00784  -0.0258  0.0207  0.9862  -2.2806   0.0000   0.0000   0.0000   0.2894
   4.800   0.6171   0.01453   0.00841  -0.0259  0.0209  0.9918  -2.3098   0.0000   0.0000   0.0000   0.2888
   4.900   0.6286   0.01510   0.00903  -0.0261  0.0211  0.9984  -2.3371   0.0000   0.0000   0.0000   0.2882
   5.000   0.6386   0.01564   0.00959  -0.0259  0.0212  1.0000  -2.3670   0.0000   0.0000   0.0000   0.2873
   5.100   0.6486   0.01596   0.00992  -0.0259  0.0209  1.0000  -2.4204   0.0000   0.0000   0.0000   0.2865
   5.200   0.6587   0.01614   0.01010  -0.0259  0.0203  1.0000  -2.4908   0.0000   0.0000   0.0000   0.2858
   5.300   0.6689   0.01625   0.01022  -0.0259  0.0196  1.0000  -2.5707   0.0000   0.0000   0.0000   0.2851
   5.400   0.6790   0.01637   0.01033  -0.0259  0.0189  1.0000  -2.6531   0.0000   0.0000   0.0000   0.2845
   5.500   0.6891   0.01660   0.01057  -0.0259  0.0183  1.0000  -2.7250   0.0000   0.0000   0.0000   0.2839
   5.600   0.6992   0.01702   0.01101  -0.0258  0.0182  1.0000  -2.7760   0.0000   0.0000   0.0000   0.2831
   5.700   0.7093   0.01745   0.01147  -0.0258  0.0180  1.0000  -2.8283   0.0000   0.0000   0.0000   0.2824
   5.800   0.7193   0.01787   0.01191  -0.0257  0.0177  1.0000  -2.8835   0.0000   0.0000   0.0000   0.2817
   5.900   0.7294   0.01827   0.01234  -0.0256  0.0175  1.0000  -2.9425   0.0000   0.0000   0.0000   0.2810
   6.000   0.7393   0.01865   0.01274  -0.0255  0.0172  1.0000  -3.0061   0.0000   0.0000   0.0000   0.2804
   6.400   0.7613   0.02847   0.02360  -0.0208  0.0114  1.0000  -3.2986   0.0000   0.0000   0.0000   0.2730
   7.700   0.8225   0.04548   0.04208  -0.0079  0.0147  1.0000  -3.3540   0.0000   0.0000   0.0000   0.2545
   7.800   0.8256   0.04627   0.04289  -0.0072  0.0144  1.0000  -3.4159   0.0000   0.0000   0.0000   0.2536
   7.900   0.8281   0.04711   0.04378  -0.0065  0.0143  1.0000  -3.4718   0.0000   0.0000   0.0000   0.2526
   8.000   0.8300   0.04801   0.04471  -0.0057  0.0141  1.0000  -3.5225   0.0000   0.0000   0.0000   0.2516
   8.100   0.8314   0.04894   0.04568  -0.0049  0.0139  1.0000  -3.5685   0.0000   0.0000   0.0000   0.2505
   8.200   0.8323   0.04991   0.04669  -0.0040  0.0138  1.0000  -3.6103   0.0000   0.0000   0.0000   0.2494
   8.300   0.8318   0.05096   0.04779  -0.0030  0.0137  1.0000  -3.6358   0.0000   0.0000   0.0000   0.2481
   8.400   0.8305   0.05202   0.04890  -0.0019  0.0136  1.0000  -3.6556   0.0000   0.0000   0.0000   0.2467
   8.500   0.8286   0.05309   0.05002  -0.0008  0.0135  1.0000  -3.6711   0.0000   0.0000   0.0000   0.2452
   8.600   0.8259   0.05416   0.05114   0.0004  0.0134  1.0000  -3.6822   0.0000   0.0000   0.0000   0.2437
   8.700   0.8225   0.05521   0.05224   0.0017  0.0133  1.0000  -3.6889   0.0000   0.0000   0.0000   0.2420
   8.800   0.8182   0.05625   0.05333   0.0030  0.0133  1.0000  -3.6914   0.0000   0.0000   0.0000   0.2403
   8.900   0.8127   0.05718   0.05430   0.0046  0.0132  1.0000  -3.6883   0.0000   0.0000   0.0000   0.2383
   9.000   0.8050   0.05790   0.05505   0.0067  0.0132  1.0000  -3.6783   0.0000   0.0000   0.0000   0.2356
   9.100   0.7972   0.05865   0.05584   0.0086  0.0132  1.0000  -3.6668   0.0000   0.0000   0.0000   0.2330
   9.200   0.7892   0.05944   0.05666   0.0104  0.0132  1.0000  -3.6528   0.0000   0.0000   0.0000   0.2306
   9.300   0.7813   0.06030   0.05755   0.0120  0.0132  1.0000  -3.6374   0.0000   0.0000   0.0000   0.2284
   9.400   0.7733   0.06121   0.05851   0.0133  0.0132  1.0000  -3.6199   0.0000   0.0000   0.0000   0.2263
   9.500   0.7654   0.06218   0.05951   0.0145  0.0131  1.0000  -3.6007   0.0000   0.0000   0.0000   0.2245
   9.600   0.7574   0.06321   0.06057   0.0155  0.0131  1.0000  -3.5792   0.0000   0.0000   0.0000   0.2229
   9.700   0.7495   0.06430   0.06170   0.0163  0.0131  1.0000  -3.5553   0.0000   0.0000   0.0000   0.2216
   9.800   0.7414   0.06548   0.06291   0.0169  0.0131  1.0000  -3.5285   0.0000   0.0000   0.0000   0.2204
   9.900   0.7334   0.06674   0.06421   0.0173  0.0131  1.0000  -3.4990   0.0000   0.0000   0.0000   0.2195
  10.000   0.7251   0.06809   0.06559   0.0175  0.0132  1.0000  -3.4653   0.0000   0.0000   0.0000   0.2188
  10.100   0.7170   0.06953   0.06706   0.0175  0.0132  1.0000  -3.4284   0.0000   0.0000   0.0000   0.2184
  10.200   0.7085   0.07110   0.06866   0.0173  0.0132  1.0000  -3.3855   0.0000   0.0000   0.0000   0.2183
  10.300   0.7002   0.07281   0.07042   0.0169  0.0132  1.0000  -3.3382   0.0000   0.0000   0.0000   0.2185
  10.400   0.6919   0.07472   0.07235   0.0163  0.0133  1.0000  -3.2840   0.0000   0.0000   0.0000   0.2190
  10.500   0.6840   0.07684   0.07450   0.0153  0.0133  1.0000  -3.2231   0.0000   0.0000   0.0000   0.2200
  10.600   0.6761   0.07921   0.07690   0.0141  0.0134  1.0000  -3.1521   0.0000   0.0000   0.0000   0.2215
  10.700   0.6681   0.08191   0.07963   0.0125  0.0135  1.0000  -3.0670   0.0000   0.0000   0.0000   0.2235
  10.800   0.6597   0.08549   0.08323   0.0102  0.0136  1.0000  -2.9399   0.0000   0.0000   0.0000   0.2268
  10.900   0.6472   0.09176   0.08951   0.0057  0.0140  1.0000  -2.6613   0.0000   0.0000   0.0000   0.2335
  11.000   0.6436   0.09444   0.09218   0.0042  0.0140  1.0000  -2.5955   0.0000   0.0000   0.0000   0.2357
  11.100   0.6413   0.09668   0.09441   0.0031  0.0140  1.0000  -2.5585   0.0000   0.0000   0.0000   0.2374
  11.200   0.6399   0.09868   0.09641   0.0021  0.0139  1.0000  -2.5372   0.0000   0.0000   0.0000   0.2389
  11.300   0.6389   0.10055   0.09827   0.0012  0.0138  1.0000  -2.5259   0.0000   0.0000   0.0000   0.2402
  11.400   0.6384   0.10234   0.10005   0.0003  0.0137  1.0000  -2.5211   0.0000   0.0000   0.0000   0.2414
  11.500   0.6382   0.10406   0.10177  -0.0004  0.0136  1.0000  -2.5206   0.0000   0.0000   0.0000   0.2426
  11.600   0.6382   0.10575   0.10346  -0.0012  0.0135  1.0000  -2.5232   0.0000   0.0000   0.0000   0.2437
  11.700   0.6385   0.10743   0.10512  -0.0019  0.0134  1.0000  -2.5279   0.0000   0.0000   0.0000   0.2447
  11.800   0.6385   0.10917   0.10686  -0.0027  0.0133  1.0000  -2.5271   0.0000   0.0000   0.0000   0.2458
  11.900   0.6381   0.11106   0.10875  -0.0036  0.0132  1.0000  -2.5146   0.0000   0.0000   0.0000   0.2471
  12.000   0.6379   0.11294   0.11062  -0.0045  0.0132  1.0000  -2.5029   0.0000   0.0000   0.0000   0.2484
  12.100   0.6377   0.11483   0.11250  -0.0053  0.0131  1.0000  -2.4913   0.0000   0.0000   0.0000   0.2497
  12.200   0.6376   0.11672   0.11439  -0.0062  0.0130  1.0000  -2.4792   0.0000   0.0000   0.0000   0.2510
  12.300   0.6376   0.11864   0.11631  -0.0071  0.0129  1.0000  -2.4658   0.0000   0.0000   0.0000   0.2522
  12.400   0.6375   0.12060   0.11826  -0.0079  0.0128  1.0000  -2.4500   0.0000   0.0000   0.0000   0.2535
  12.500   0.6373   0.12260   0.12026  -0.0089  0.0127  1.0000  -2.4304   0.0000   0.0000   0.0000   0.2549
  12.600   0.6369   0.12470   0.12235  -0.0098  0.0126  1.0000  -2.4050   0.0000   0.0000   0.0000   0.2563
  12.700   0.6363   0.12694   0.12458  -0.0108  0.0125  1.0000  -2.3708   0.0000   0.0000   0.0000   0.2578
  12.800   0.6352   0.12940   0.12704  -0.0118  0.0123  1.0000  -2.3221   0.0000   0.0000   0.0000   0.2594
  12.900   0.6332   0.13227   0.12991  -0.0130  0.0122  1.0000  -2.2468   0.0000   0.0000   0.0000   0.2613
  13.000   0.6289   0.13613   0.13376  -0.0145  0.0120  1.0000  -2.1075   0.0000   0.0000   0.0000   0.2638
  14.300   0.6450   0.16166   0.15922  -0.0258  0.0117  1.0000  -1.7969   0.0000   0.0000   0.0000   0.2798
  14.400   0.6469   0.16321   0.16077  -0.0267  0.0117  1.0000  -1.7876   0.0000   0.0000   0.0000   0.2808
  14.500   0.6488   0.16468   0.16224  -0.0275  0.0116  1.0000  -1.7810   0.0000   0.0000   0.0000   0.2819
  14.600   0.6509   0.16602   0.16358  -0.0283  0.0116  1.0000  -1.7787   0.0000   0.0000   0.0000   0.2829
  14.700   0.6534   0.16717   0.16472  -0.0291  0.0114  1.0000  -1.7836   0.0000   0.0000   0.0000   0.2838
  14.800   0.6566   0.16809   0.16565  -0.0298  0.0111  1.0000  -1.7971   0.0000   0.0000   0.0000   0.2846
  14.900   0.6594   0.16912   0.16667  -0.0305  0.0108  1.0000  -1.7981   0.0000   0.0000   0.0000   0.2854
  15.000   0.6610   0.17042   0.16797  -0.0314  0.0105  1.0000  -1.7771   0.0000   0.0000   0.0000   0.2866
  15.100   0.6630   0.17186   0.16941  -0.0323  0.0101  1.0000  -1.7577   0.0000   0.0000   0.0000   0.2877
  15.200   0.6652   0.17338   0.17092  -0.0331  0.0097  1.0000  -1.7438   0.0000   0.0000   0.0000   0.2886
  15.300   0.6675   0.17492   0.17246  -0.0338  0.0094  1.0000  -1.7371   0.0000   0.0000   0.0000   0.2895
  15.400   0.6698   0.17644   0.17398  -0.0346  0.0090  1.0000  -1.7371   0.0000   0.0000   0.0000   0.2903
  15.500   0.6722   0.17793   0.17547  -0.0353  0.0088  1.0000  -1.7433   0.0000   0.0000   0.0000   0.2911
  15.600   0.6747   0.17939   0.17693  -0.0360  0.0085  1.0000  -1.7554   0.0000   0.0000   0.0000   0.2919
  15.700   0.6772   0.18080   0.17834  -0.0367  0.0082  1.0000  -1.7739   0.0000   0.0000   0.0000   0.2926
  15.800   0.6799   0.18217   0.17970  -0.0374  0.0080  1.0000  -1.7994   0.0000   0.0000   0.0000   0.2933
  15.900   0.6826   0.18349   0.18102  -0.0380  0.0078  1.0000  -1.8329   0.0000   0.0000   0.0000   0.2938
  16.000   0.6856   0.18475   0.18228  -0.0387  0.0077  1.0000  -1.8766   0.0000   0.0000   0.0000   0.2944
  16.100   0.6889   0.18596   0.18349  -0.0392  0.0075  1.0000  -1.9336   0.0000   0.0000   0.0000   0.2947
  16.200   0.6928   0.18713   0.18465  -0.0397  0.0073  1.0000  -2.0118   0.0000   0.0000   0.0000   0.2949
  16.300   0.6982   0.18842   0.18596  -0.0398  0.0071  1.0000  -2.1342   0.0000   0.0000   0.0000   0.2945
  16.400   0.6964   0.19253   0.19004  -0.0410  0.0068  1.0000  -1.9571   0.0000   0.0000   0.0000   0.2964
  16.500   0.6984   0.19410   0.19161  -0.0418  0.0068  1.0000  -1.9387   0.0000   0.0000   0.0000   0.2973
  16.600   0.7003   0.19563   0.19314  -0.0426  0.0068  1.0000  -1.9212   0.0000   0.0000   0.0000   0.2981
  16.700   0.7023   0.19711   0.19462  -0.0434  0.0068  1.0000  -1.9044   0.0000   0.0000   0.0000   0.2989
  16.800   0.7042   0.19853   0.19604  -0.0442  0.0067  1.0000  -1.8876   0.0000   0.0000   0.0000   0.2998
  16.900   0.7060   0.19988   0.19738  -0.0450  0.0067  1.0000  -1.8682   0.0000   0.0000   0.0000   0.3007
  17.000   0.7070   0.20124   0.19874  -0.0459  0.0066  1.0000  -1.8161   0.0000   0.0000   0.0000   0.3019
  17.100   0.7088   0.20271   0.20021  -0.0469  0.0062  1.0000  -1.7403   0.0000   0.0000   0.0000   0.3030
  17.200   0.7115   0.20425   0.20175  -0.0476  0.0057  1.0000  -1.7208   0.0000   0.0000   0.0000   0.3036
  17.300   0.7141   0.20567   0.20317  -0.0482  0.0054  1.0000  -1.7283   0.0000   0.0000   0.0000   0.3042
  17.400   0.7168   0.20703   0.20453  -0.0489  0.0052  1.0000  -1.7471   0.0000   0.0000   0.0000   0.3048
  17.500   0.7195   0.20832   0.20582  -0.0496  0.0050  1.0000  -1.7743   0.0000   0.0000   0.0000   0.3053
  17.600   0.7222   0.20957   0.20707  -0.0502  0.0049  1.0000  -1.8092   0.0000   0.0000   0.0000   0.3058
  17.700   0.7250   0.21078   0.20827  -0.0509  0.0048  1.0000  -1.8515   0.0000   0.0000   0.0000   0.3063
  17.800   0.7278   0.21195   0.20944  -0.0515  0.0047  1.0000  -1.9019   0.0000   0.0000   0.0000   0.3067
  17.900   0.7313   0.21291   0.21041  -0.0520  0.0046  1.0000  -2.0144   0.0000   0.0000   0.0000   0.3069
  18.000   0.7350   0.21500   0.21249  -0.0524  0.0044  1.0000  -2.0812   0.0000   0.0000   0.0000   0.3068
  18.100   0.7371   0.21658   0.21407  -0.0531  0.0044  1.0000  -2.0571   0.0000   0.0000   0.0000   0.3075
  18.200   0.7392   0.21814   0.21563  -0.0538  0.0044  1.0000  -2.0328   0.0000   0.0000   0.0000   0.3081
  18.300   0.7413   0.21969   0.21718  -0.0545  0.0044  1.0000  -2.0093   0.0000   0.0000   0.0000   0.3088
  18.400   0.7434   0.22123   0.21871  -0.0552  0.0044  1.0000  -1.9870   0.0000   0.0000   0.0000   0.3094
  18.500   0.7456   0.22275   0.22023  -0.0559  0.0044  1.0000  -1.9660   0.0000   0.0000   0.0000   0.3100
  18.600   0.7477   0.22429   0.22177  -0.0567  0.0044  1.0000  -1.9384   0.0000   0.0000   0.0000   0.3107
  18.700   0.7497   0.22582   0.22329  -0.0574  0.0044  1.0000  -1.9096   0.0000   0.0000   0.0000   0.3113
  18.800   0.7517   0.22733   0.22481  -0.0581  0.0044  1.0000  -1.8828   0.0000   0.0000   0.0000   0.3120
  18.900   0.7539   0.22884   0.22631  -0.0588  0.0043  1.0000  -1.8579   0.0000   0.0000   0.0000   0.3126
  19.000   0.7561   0.23033   0.22781  -0.0595  0.0043  1.0000  -1.8347   0.0000   0.0000   0.0000   0.3132
  19.100   0.7583   0.23182   0.22929  -0.0602  0.0043  1.0000  -1.8131   0.0000   0.0000   0.0000   0.3137
  19.200   0.7606   0.23329   0.23076  -0.0609  0.0043  1.0000  -1.7929   0.0000   0.0000   0.0000   0.3143
  19.300   0.7629   0.23475   0.23223  -0.0615  0.0043  1.0000  -1.7740   0.0000   0.0000   0.0000   0.3148
  19.400   0.7652   0.23619   0.23366  -0.0622  0.0043  1.0000  -1.7564   0.0000   0.0000   0.0000   0.3153
  19.500   0.7675   0.23757   0.23504  -0.0629  0.0043  1.0000  -1.7400   0.0000   0.0000   0.0000   0.3158
  19.600   0.7699   0.23891   0.23638  -0.0635  0.0043  1.0000  -1.7247   0.0000   0.0000   0.0000   0.3162
  19.700   0.7723   0.24022   0.23769  -0.0641  0.0043  1.0000  -1.7105   0.0000   0.0000   0.0000   0.3167
  19.800   0.7747   0.24150   0.23897  -0.0647  0.0043  1.0000  -1.6971   0.0000   0.0000   0.0000   0.3171
  19.900   0.7771   0.24277   0.24024  -0.0653  0.0043  1.0000  -1.6847   0.0000   0.0000   0.0000   0.3175
  20.000   0.7795   0.24402   0.24149  -0.0660  0.0043  1.0000  -1.6729   0.0000   0.0000   0.0000   0.3179
  20.100   0.7820   0.24527   0.24274  -0.0666  0.0042  1.0000  -1.6620   0.0000   0.0000   0.0000   0.3183
  20.200   0.7844   0.24651   0.24398  -0.0672  0.0042  1.0000  -1.6516   0.0000   0.0000   0.0000   0.3186
  20.300   0.7868   0.24775   0.24521  -0.0678  0.0042  1.0000  -1.6420   0.0000   0.0000   0.0000   0.3190
  20.400   0.7893   0.24899   0.24645  -0.0684  0.0042  1.0000  -1.6329   0.0000   0.0000   0.0000   0.3194
  20.500   0.7917   0.25022   0.24768  -0.0690  0.0042  1.0000  -1.6243   0.0000   0.0000   0.0000   0.3197
  20.600   0.7942   0.25146   0.24892  -0.0696  0.0042  1.0000  -1.6163   0.0000   0.0000   0.0000   0.3201
  20.700   0.7967   0.25269   0.25015  -0.0702  0.0042  1.0000  -1.6088   0.0000   0.0000   0.0000   0.3204
  20.800   0.7991   0.25393   0.25139  -0.0708  0.0042  1.0000  -1.6017   0.0000   0.0000   0.0000   0.3208
  20.900   0.8016   0.25516   0.25263  -0.0714  0.0042  1.0000  -1.5951   0.0000   0.0000   0.0000   0.3211
  21.000   0.8041   0.25640   0.25386  -0.0720  0.0042  1.0000  -1.5888   0.0000   0.0000   0.0000   0.3214
  21.100   0.8065   0.25764   0.25510  -0.0726  0.0042  1.0000  -1.5829   0.0000   0.0000   0.0000   0.3218
  21.200   0.8090   0.25888   0.25635  -0.0732  0.0041  1.0000  -1.5773   0.0000   0.0000   0.0000   0.3221
  21.300   0.8114   0.26013   0.25759  -0.0738  0.0041  1.0000  -1.5720   0.0000   0.0000   0.0000   0.3224
  21.400   0.8139   0.26137   0.25884  -0.0744  0.0041  1.0000  -1.5670   0.0000   0.0000   0.0000   0.3228
  21.500   0.8163   0.26262   0.26008  -0.0750  0.0041  1.0000  -1.5623   0.0000   0.0000   0.0000   0.3231
  21.600   0.8188   0.26387   0.26133  -0.0756  0.0041  1.0000  -1.5579   0.0000   0.0000   0.0000   0.3234
  21.700   0.8212   0.26512   0.26258  -0.0762  0.0041  1.0000  -1.5537   0.0000   0.0000   0.0000   0.3237
  21.800   0.8236   0.26637   0.26383  -0.0768  0.0041  1.0000  -1.5497   0.0000   0.0000   0.0000   0.3240
  21.900   0.8261   0.26762   0.26508  -0.0774  0.0041  1.0000  -1.5459   0.0000   0.0000   0.0000   0.3244
  22.000   0.8285   0.26888   0.26634  -0.0780  0.0041  1.0000  -1.5423   0.0000   0.0000   0.0000   0.3247
  22.100   0.8309   0.27013   0.26759  -0.0786  0.0041  1.0000  -1.5389   0.0000   0.0000   0.0000   0.3250
  22.200   0.8333   0.27139   0.26885  -0.0792  0.0041  1.0000  -1.5357   0.0000   0.0000   0.0000   0.3253
  22.300   0.8357   0.27264   0.27011  -0.0798  0.0041  1.0000  -1.5326   0.0000   0.0000   0.0000   0.3256
  22.400   0.8381   0.27390   0.27137  -0.0804  0.0041  1.0000  -1.5297   0.0000   0.0000   0.0000   0.3259
  22.500   0.8405   0.27516   0.27263  -0.0810  0.0040  1.0000  -1.5270   0.0000   0.0000   0.0000   0.3262
  22.600   0.8429   0.27642   0.27389  -0.0817  0.0040  1.0000  -1.5244   0.0000   0.0000   0.0000   0.3265
  22.700   0.8453   0.27768   0.27515  -0.0823  0.0040  1.0000  -1.5219   0.0000   0.0000   0.0000   0.3268
  22.800   0.8477   0.27895   0.27641  -0.0829  0.0040  1.0000  -1.5195   0.0000   0.0000   0.0000   0.3271
  22.900   0.8500   0.28021   0.27768  -0.0835  0.0040  1.0000  -1.5173   0.0000   0.0000   0.0000   0.3274
  23.000   0.8524   0.28147   0.27894  -0.0841  0.0040  1.0000  -1.5152   0.0000   0.0000   0.0000   0.3277
  23.100   0.8548   0.28274   0.28021  -0.0847  0.0040  1.0000  -1.5131   0.0000   0.0000   0.0000   0.3279
  23.200   0.8571   0.28400   0.28147  -0.0853  0.0040  1.0000  -1.5112   0.0000   0.0000   0.0000   0.3282
  23.300   0.8594   0.28527   0.28274  -0.0859  0.0040  1.0000  -1.5094   0.0000   0.0000   0.0000   0.3285
  23.400   0.8618   0.28654   0.28401  -0.0866  0.0040  1.0000  -1.5077   0.0000   0.0000   0.0000   0.3288
  23.500   0.8641   0.28780   0.28528  -0.0872  0.0040  1.0000  -1.5060   0.0000   0.0000   0.0000   0.3291
  23.600   0.8664   0.28907   0.28654  -0.0878  0.0040  1.0000  -1.5044   0.0000   0.0000   0.0000   0.3294
  23.700   0.8687   0.29034   0.28781  -0.0884  0.0040  1.0000  -1.5029   0.0000   0.0000   0.0000   0.3296
  23.800   0.8710   0.29161   0.28908  -0.0890  0.0040  1.0000  -1.5015   0.0000   0.0000   0.0000   0.3299
  23.900   0.8733   0.29288   0.29035  -0.0896  0.0040  1.0000  -1.5002   0.0000   0.0000   0.0000   0.3302
  24.000   0.8755   0.29414   0.29162  -0.0902  0.0040  1.0000  -1.4989   0.0000   0.0000   0.0000   0.3305
  24.100   0.8778   0.29541   0.29289  -0.0909  0.0039  1.0000  -1.4977   0.0000   0.0000   0.0000   0.3307
  24.200   0.8801   0.29668   0.29417  -0.0915  0.0039  1.0000  -1.4966   0.0000   0.0000   0.0000   0.3310
  24.300   0.8823   0.29795   0.29544  -0.0921  0.0039  1.0000  -1.4955   0.0000   0.0000   0.0000   0.3313
  24.400   0.8846   0.29922   0.29671  -0.0927  0.0039  1.0000  -1.4945   0.0000   0.0000   0.0000   0.3315
  24.500   0.8868   0.30049   0.29798  -0.0933  0.0039  1.0000  -1.4935   0.0000   0.0000   0.0000   0.3318
  24.600   0.8890   0.30176   0.29925  -0.0940  0.0039  1.0000  -1.4926   0.0000   0.0000   0.0000   0.3320
  24.700   0.8912   0.30304   0.30052  -0.0946  0.0039  1.0000  -1.4917   0.0000   0.0000   0.0000   0.3323
  24.800   0.8934   0.30431   0.30180  -0.0952  0.0039  1.0000  -1.4909   0.0000   0.0000   0.0000   0.3326
  24.900   0.8956   0.30558   0.30307  -0.0958  0.0039  1.0000  -1.4901   0.0000   0.0000   0.0000   0.3328
  25.000   0.8978   0.30685   0.30434  -0.0964  0.0039  1.0000  -1.4894   0.0000   0.0000   0.0000   0.3331
  25.100   0.9000   0.30812   0.30561  -0.0970  0.0039  1.0000  -1.4888   0.0000   0.0000   0.0000   0.3333
  25.200   0.9021   0.30938   0.30693  -0.0977  0.0039  1.0000  -1.4885   0.0000   0.0000   0.0000   0.3336
  25.300   0.9043   0.31065   0.30820  -0.0983  0.0039  1.0000  -1.4880   0.0000   0.0000   0.0000   0.3338
  25.400   0.9064   0.31192   0.30947  -0.0989  0.0039  1.0000  -1.4876   0.0000   0.0000   0.0000   0.3341
  25.500   0.9085   0.31319   0.31074  -0.0995  0.0039  1.0000  -1.4871   0.0000   0.0000   0.0000   0.3343
  25.600   0.9107   0.31446   0.31202  -0.1002  0.0039  1.0000  -1.4867   0.0000   0.0000   0.0000   0.3346
  25.700   0.9128   0.31573   0.31329  -0.1008  0.0039  1.0000  -1.4863   0.0000   0.0000   0.0000   0.3348
  25.800   0.9149   0.31700   0.31456  -0.1014  0.0039  1.0000  -1.4859   0.0000   0.0000   0.0000   0.3351
  25.900   0.9170   0.31827   0.31583  -0.1020  0.0039  1.0000  -1.4856   0.0000   0.0000   0.0000   0.3353
  26.000   0.9190   0.31954   0.31710  -0.1026  0.0039  1.0000  -1.4853   0.0000   0.0000   0.0000   0.3355
  26.100   0.9211   0.32081   0.31837  -0.1033  0.0039  1.0000  -1.4850   0.0000   0.0000   0.0000   0.3358
  26.200   0.9231   0.32208   0.31964  -0.1039  0.0038  1.0000  -1.4848   0.0000   0.0000   0.0000   0.3360
  26.300   0.9252   0.32334   0.32091  -0.1045  0.0038  1.0000  -1.4846   0.0000   0.0000   0.0000   0.3362
  26.400   0.9272   0.32461   0.32218  -0.1051  0.0038  1.0000  -1.4844   0.0000   0.0000   0.0000   0.3365
  26.500   0.9292   0.32588   0.32345  -0.1058  0.0038  1.0000  -1.4842   0.0000   0.0000   0.0000   0.3367
  26.600   0.9313   0.32715   0.32472  -0.1064  0.0038  1.0000  -1.4841   0.0000   0.0000   0.0000   0.3369
  26.700   0.9332   0.32841   0.32599  -0.1070  0.0038  1.0000  -1.4839   0.0000   0.0000   0.0000   0.3372
  26.800   0.9352   0.32968   0.32726  -0.1076  0.0038  1.0000  -1.4839   0.0000   0.0000   0.0000   0.3374
  26.900   0.9372   0.33094   0.32853  -0.1083  0.0038  1.0000  -1.4838   0.0000   0.0000   0.0000   0.3376
  27.000   0.9392   0.33221   0.32979  -0.1089  0.0038  1.0000  -1.4837   0.0000   0.0000   0.0000   0.3379
  27.100   0.9411   0.33347   0.33106  -0.1095  0.0038  1.0000  -1.4837   0.0000   0.0000   0.0000   0.3381
  27.200   0.9431   0.33474   0.33233  -0.1101  0.0038  1.0000  -1.4837   0.0000   0.0000   0.0000   0.3383
  27.300   0.9450   0.33600   0.33359  -0.1108  0.0038  1.0000  -1.4837   0.0000   0.0000   0.0000   0.3385
  27.400   0.9469   0.33726   0.33486  -0.1114  0.0038  1.0000  -1.4838   0.0000   0.0000   0.0000   0.3388
  27.500   0.9488   0.33853   0.33612  -0.1120  0.0038  1.0000  -1.4838   0.0000   0.0000   0.0000   0.3390
  27.600   0.9507   0.33979   0.33739  -0.1126  0.0038  1.0000  -1.4839   0.0000   0.0000   0.0000   0.3392
  27.700   0.9526   0.34105   0.33865  -0.1133  0.0038  1.0000  -1.4842   0.0000   0.0000   0.0000   0.3394
  27.800   0.9544   0.34231   0.33991  -0.1139  0.0038  1.0000  -1.4846   0.0000   0.0000   0.0000   0.3396
  27.900   0.9563   0.34357   0.34118  -0.1145  0.0038  1.0000  -1.4850   0.0000   0.0000   0.0000   0.3398
  28.000   0.9581   0.34483   0.34244  -0.1151  0.0038  1.0000  -1.4854   0.0000   0.0000   0.0000   0.3401
  28.100   0.9600   0.34608   0.34370  -0.1158  0.0038  1.0000  -1.4858   0.0000   0.0000   0.0000   0.3403
  28.200   0.9618   0.34734   0.34496  -0.1164  0.0038  1.0000  -1.4862   0.0000   0.0000   0.0000   0.3405
  28.300   0.9636   0.34860   0.34621  -0.1170  0.0038  1.0000  -1.4867   0.0000   0.0000   0.0000   0.3407
  28.400   0.9654   0.34985   0.34747  -0.1176  0.0038  1.0000  -1.4871   0.0000   0.0000   0.0000   0.3409
  28.500   0.9671   0.35111   0.34873  -0.1183  0.0038  1.0000  -1.4876   0.0000   0.0000   0.0000   0.3411
  28.600   0.9689   0.35236   0.34999  -0.1189  0.0037  1.0000  -1.4881   0.0000   0.0000   0.0000   0.3413
  28.700   0.9707   0.35361   0.35124  -0.1195  0.0037  1.0000  -1.4885   0.0000   0.0000   0.0000   0.3415
  28.800   0.9724   0.35486   0.35250  -0.1201  0.0037  1.0000  -1.4890   0.0000   0.0000   0.0000   0.3417
  28.900   0.9741   0.35611   0.35375  -0.1208  0.0037  1.0000  -1.4895   0.0000   0.0000   0.0000   0.3419
  29.000   0.9758   0.35736   0.35500  -0.1214  0.0037  1.0000  -1.4900   0.0000   0.0000   0.0000   0.3421
  29.100   0.9775   0.35861   0.35625  -0.1220  0.0037  1.0000  -1.4905   0.0000   0.0000   0.0000   0.3424
  29.200   0.9792   0.35986   0.35750  -0.1226  0.0037  1.0000  -1.4910   0.0000   0.0000   0.0000   0.3426
  29.300   0.9809   0.36110   0.35875  -0.1233  0.0037  1.0000  -1.4915   0.0000   0.0000   0.0000   0.3428
  29.400   0.9826   0.36235   0.36000  -0.1239  0.0037  1.0000  -1.4920   0.0000   0.0000   0.0000   0.3430
  29.500   0.9842   0.36359   0.36125  -0.1245  0.0037  1.0000  -1.4926   0.0000   0.0000   0.0000   0.3432
  29.600   0.9859   0.36484   0.36249  -0.1252  0.0037  1.0000  -1.4931   0.0000   0.0000   0.0000   0.3434
  29.700   0.9875   0.36608   0.36374  -0.1258  0.0037  1.0000  -1.4936   0.0000   0.0000   0.0000   0.3436
  29.800   0.9891   0.36732   0.36498  -0.1264  0.0037  1.0000  -1.4942   0.0000   0.0000   0.0000   0.3438
  29.900   0.9907   0.36856   0.36622  -0.1270  0.0037  1.0000  -1.4947   0.0000   0.0000   0.0000   0.3439
  30.000   0.9923   0.36979   0.36746  -0.1277  0.0037  1.0000  -1.4953   0.0000   0.0000   0.0000   0.3441


