xflr5 v6.61

 Calculated polar for: NACA 65-206

 1 1 Reynolds number fixed          Mach number fixed         

 xtrf =   1.000 (top)        1.000 (bottom)
 Mach =   0.000     Re =     0.300 e 6     Ncrit =   9.000

  alpha     CL        CD       CDp       Cm    Top Xtr Bot Xtr   Cpmin    Chinge    XCp    
 ------- -------- --------- --------- -------- ------- ------- -------- --------- ---------
 -10.000  -0.4617   0.10918   0.10567  -0.0157  1.0000  0.0116  -1.5684   0.0000   0.0000   0.0000   0.2131
  -9.900  -0.4604   0.10801   0.10451  -0.0163  1.0000  0.0118  -1.5890   0.0000   0.0000   0.0000   0.2117
  -9.800  -0.4593   0.10689   0.10340  -0.0171  1.0000  0.0120  -1.6118   0.0000   0.0000   0.0000   0.2100
  -9.700  -0.4581   0.10580   0.10232  -0.0179  1.0000  0.0122  -1.6355   0.0000   0.0000   0.0000   0.2083
  -9.600  -0.4566   0.10476   0.10128  -0.0187  1.0000  0.0124  -1.6565   0.0000   0.0000   0.0000   0.2064
  -9.500  -0.4548   0.10378   0.10031  -0.0194  1.0000  0.0125  -1.6691   0.0000   0.0000   0.0000   0.2048
  -9.400  -0.4531   0.10278   0.09931  -0.0200  1.0000  0.0127  -1.6776   0.0000   0.0000   0.0000   0.2032
  -9.300  -0.4517   0.10171   0.09826  -0.0207  1.0000  0.0128  -1.6875   0.0000   0.0000   0.0000   0.2017
  -9.200  -0.4505   0.10059   0.09714  -0.0213  1.0000  0.0128  -1.6988   0.0000   0.0000   0.0000   0.2002
  -9.100  -0.4496   0.09942   0.09598  -0.0219  1.0000  0.0129  -1.7112   0.0000   0.0000   0.0000   0.1988
  -9.000  -0.4488   0.09821   0.09478  -0.0226  1.0000  0.0129  -1.7245   0.0000   0.0000   0.0000   0.1973
  -8.900  -0.4481   0.09696   0.09354  -0.0232  1.0000  0.0129  -1.7387   0.0000   0.0000   0.0000   0.1959
  -8.800  -0.4475   0.09570   0.09229  -0.0239  1.0000  0.0130  -1.7537   0.0000   0.0000   0.0000   0.1944
  -8.700  -0.4470   0.09442   0.09101  -0.0245  1.0000  0.0130  -1.7695   0.0000   0.0000   0.0000   0.1929
  -8.600  -0.4467   0.09312   0.08973  -0.0252  1.0000  0.0130  -1.7860   0.0000   0.0000   0.0000   0.1914
  -8.500  -0.4465   0.09181   0.08843  -0.0259  1.0000  0.0130  -1.8033   0.0000   0.0000   0.0000   0.1899
  -8.400  -0.4479   0.09004   0.08669  -0.0266  1.0000  0.0131  -1.8497   0.0000   0.0000   0.0000   0.1885
  -8.300  -0.4527   0.08738   0.08405  -0.0273  1.0000  0.0133  -1.9457   0.0000   0.0000   0.0000   0.1877
  -8.200  -0.4563   0.08523   0.08191  -0.0278  1.0000  0.0134  -2.0047   0.0000   0.0000   0.0000   0.1871
  -8.100  -0.4593   0.08337   0.08006  -0.0283  1.0000  0.0136  -2.0420   0.0000   0.0000   0.0000   0.1864
  -8.000  -0.4620   0.08171   0.07842  -0.0289  1.0000  0.0137  -2.0673   0.0000   0.0000   0.0000   0.1857
  -7.900  -0.4647   0.08019   0.07691  -0.0294  1.0000  0.0138  -2.0874   0.0000   0.0000   0.0000   0.1849
  -7.800  -0.4675   0.07877   0.07550  -0.0301  1.0000  0.0139  -2.1083   0.0000   0.0000   0.0000   0.1840
  -7.700  -0.4710   0.07747   0.07422  -0.0309  1.0000  0.0139  -2.1352   0.0000   0.0000   0.0000   0.1827
  -7.600  -0.4752   0.07633   0.07307  -0.0316  1.0000  0.0138  -2.1650   0.0000   0.0000   0.0000   0.1819
  -7.500  -0.4793   0.07515   0.07189  -0.0317  1.0000  0.0139  -2.1870   0.0000   0.0000   0.0000   0.1824
  -7.400  -0.4816   0.07373   0.07047  -0.0313  1.0000  0.0141  -2.1655   0.0000   0.0000   0.0000   0.1835
  -7.300  -0.4831   0.07249   0.06924  -0.0309  1.0000  0.0144  -2.1223   0.0000   0.0000   0.0000   0.1848
  -7.200  -0.4843   0.07126   0.06802  -0.0307  1.0000  0.0146  -2.0940   0.0000   0.0000   0.0000   0.1853
  -7.100  -0.4851   0.07007   0.06684  -0.0306  1.0000  0.0149  -2.0627   0.0000   0.0000   0.0000   0.1857
  -7.000  -0.4856   0.06887   0.06563  -0.0305  1.0000  0.0152  -2.0361   0.0000   0.0000   0.0000   0.1859
  -6.900  -0.4860   0.06764   0.06439  -0.0306  1.0000  0.0154  -2.0168   0.0000   0.0000   0.0000   0.1859
  -6.800  -0.4861   0.06637   0.06312  -0.0307  1.0000  0.0157  -2.0016   0.0000   0.0000   0.0000   0.1857
  -6.700  -0.4859   0.06509   0.06183  -0.0309  1.0000  0.0160  -1.9878   0.0000   0.0000   0.0000   0.1854
  -6.600  -0.4853   0.06379   0.06051  -0.0311  1.0000  0.0163  -1.9758   0.0000   0.0000   0.0000   0.1850
  -6.500  -0.4844   0.06247   0.05918  -0.0313  1.0000  0.0166  -1.9653   0.0000   0.0000   0.0000   0.1845
  -6.400  -0.4832   0.06114   0.05783  -0.0314  1.0000  0.0170  -1.9559   0.0000   0.0000   0.0000   0.1840
  -6.300  -0.4814   0.05979   0.05646  -0.0316  1.0000  0.0174  -1.9473   0.0000   0.0000   0.0000   0.1835
  -6.200  -0.4793   0.05844   0.05508  -0.0317  1.0000  0.0179  -1.9397   0.0000   0.0000   0.0000   0.1829
  -6.100  -0.4769   0.05710   0.05370  -0.0318  1.0000  0.0184  -1.9330   0.0000   0.0000   0.0000   0.1824
  -6.000  -0.4738   0.05575   0.05231  -0.0319  1.0000  0.0190  -1.9272   0.0000   0.0000   0.0000   0.1818
  -5.900  -0.4702   0.05442   0.05093  -0.0320  1.0000  0.0196  -1.9223   0.0000   0.0000   0.0000   0.1812
  -5.800  -0.4661   0.05314   0.04961  -0.0319  1.0000  0.0204  -1.9175   0.0000   0.0000   0.0000   0.1807
  -5.700  -0.4610   0.05196   0.04837  -0.0318  1.0000  0.0212  -1.9127   0.0000   0.0000   0.0000   0.1802
  -5.600  -0.4540   0.05104   0.04739  -0.0317  1.0000  0.0224  -1.9056   0.0000   0.0000   0.0000   0.1795
  -5.500  -0.4405   0.05172   0.04799  -0.0310  1.0000  0.0243  -1.8500   0.0000   0.0000   0.0000   0.1788
  -5.400  -0.4314   0.05187   0.04805  -0.0304  1.0000  0.0250  -1.8061   0.0000   0.0000   0.0000   0.1787
  -5.300  -0.4263   0.05097   0.04709  -0.0300  1.0000  0.0252  -1.7927   0.0000   0.0000   0.0000   0.1789
  -5.200  -0.4214   0.04994   0.04599  -0.0295  1.0000  0.0253  -1.7826   0.0000   0.0000   0.0000   0.1793
  -5.100  -0.4168   0.04884   0.04481  -0.0290  1.0000  0.0254  -1.7738   0.0000   0.0000   0.0000   0.1797
  -5.000  -0.4122   0.04770   0.04360  -0.0285  1.0000  0.0254  -1.7652   0.0000   0.0000   0.0000   0.1802
  -4.900  -0.4076   0.04654   0.04235  -0.0279  1.0000  0.0255  -1.7566   0.0000   0.0000   0.0000   0.1808
  -4.800  -0.4029   0.04535   0.04108  -0.0274  1.0000  0.0255  -1.7477   0.0000   0.0000   0.0000   0.1814
  -4.700  -0.3980   0.04414   0.03979  -0.0268  1.0000  0.0255  -1.7384   0.0000   0.0000   0.0000   0.1820
  -4.600  -0.3930   0.04293   0.03849  -0.0262  1.0000  0.0256  -1.7287   0.0000   0.0000   0.0000   0.1827
  -4.500  -0.3947   0.03756   0.03291  -0.0266  1.0000  0.0267  -1.9079   0.0000   0.0000   0.0000   0.1820
  -4.400  -0.3922   0.03455   0.02977  -0.0264  1.0000  0.0276  -1.9534   0.0000   0.0000   0.0000   0.1819
  -4.300  -0.3879   0.03260   0.02775  -0.0261  1.0000  0.0285  -1.9412   0.0000   0.0000   0.0000   0.1821
  -4.200  -0.3828   0.03114   0.02623  -0.0256  1.0000  0.0294  -1.9063   0.0000   0.0000   0.0000   0.1824
  -4.100  -0.3772   0.02993   0.02497  -0.0251  1.0000  0.0303  -1.8607   0.0000   0.0000   0.0000   0.1828
  -4.000  -0.3713   0.02885   0.02387  -0.0246  1.0000  0.0313  -1.8086   0.0000   0.0000   0.0000   0.1832
  -3.900  -0.3651   0.02786   0.02282  -0.0240  1.0000  0.0323  -1.7595   0.0000   0.0000   0.0000   0.1837
  -3.800  -0.3586   0.02690   0.02180  -0.0234  1.0000  0.0333  -1.7148   0.0000   0.0000   0.0000   0.1841
  -3.700  -0.3476   0.02576   0.02057  -0.0236  0.9995  0.0347  -1.6645   0.0000   0.0000   0.0000   0.1816
  -3.600  -0.3344   0.02456   0.01926  -0.0240  0.9988  0.0361  -1.6166   0.0000   0.0000   0.0000   0.1776
  -3.500  -0.3210   0.02340   0.01796  -0.0244  0.9980  0.0376  -1.5732   0.0000   0.0000   0.0000   0.1735
  -3.400  -0.3074   0.02227   0.01669  -0.0247  0.9972  0.0390  -1.5332   0.0000   0.0000   0.0000   0.1690
  -3.300  -0.2936   0.02115   0.01542  -0.0250  0.9962  0.0400  -1.4985   0.0000   0.0000   0.0000   0.1644
  -3.200  -0.2796   0.01991   0.01401  -0.0251  0.9952  0.0395  -1.4790   0.0000   0.0000   0.0000   0.1596
  -3.100  -0.2613   0.01854   0.01224  -0.0240  0.9942  0.0231  -1.6434   0.0000   0.0000   0.0000   0.1573
  -3.000  -0.2449   0.01599   0.00935  -0.0242  0.9927  0.0194  -1.7642   0.0000   0.0000   0.0000   0.1503
  -2.900  -0.2284   0.01451   0.00768  -0.0245  0.9909  0.0189  -1.8075   0.0000   0.0000   0.0000   0.1419
  -2.800  -0.2140   0.01384   0.00695  -0.0248  0.9892  0.0217  -1.7693   0.0000   0.0000   0.0000   0.1334
  -2.700  -0.2007   0.01413   0.00726  -0.0253  0.9877  0.0247  -1.5983   0.0000   0.0000   0.0000   0.1231
  -2.600  -0.1867   0.01373   0.00682  -0.0259  0.9858  0.0266  -1.4572   0.0000   0.0000   0.0000   0.1103
  -2.500  -0.1726   0.01261   0.00564  -0.0266  0.9835  0.0288  -1.3831   0.0000   0.0000   0.0000   0.0950
  -2.400  -0.1597   0.01212   0.00519  -0.0273  0.9816  0.0340  -1.3214   0.0000   0.0000   0.0000   0.0779
  -2.300  -0.1454   0.01182   0.00489  -0.0281  0.9794  0.0352  -1.2782   0.0000   0.0000   0.0000   0.0556
  -2.200  -0.1303   0.01146   0.00450  -0.0290  0.9771  0.0348  -1.2551   0.0000   0.0000   0.0000   0.0266
  -2.100  -0.1151   0.01114   0.00416  -0.0299  0.9748  0.0346  -1.2302   0.0000   0.0000   0.0000  -0.0106
  -2.000  -0.0999   0.01086   0.00385  -0.0308  0.9726  0.0345  -1.2041   0.0000   0.0000   0.0000  -0.0595
  -1.900  -0.0847   0.01062   0.00358  -0.0318  0.9706  0.0347  -1.1770   0.0000   0.0000   0.0000  -0.1263
  -1.800  -0.0694   0.01040   0.00333  -0.0328  0.9686  0.0351  -1.1499   0.0000   0.0000   0.0000  -0.2240
  -1.700  -0.0538   0.01020   0.00310  -0.0338  0.9667  0.0361  -1.1239   0.0000   0.0000   0.0000  -0.3809
  -1.600  -0.0379   0.01002   0.00289  -0.0349  0.9649  0.0379  -1.1005   0.0000   0.0000   0.0000  -0.6740
  -1.500  -0.0217   0.00985   0.00268  -0.0361  0.9631  0.0418  -1.0834   0.0000   0.0000   0.0000  -1.4200
  -1.400  -0.0063   0.00843   0.00231  -0.0380  0.9612  0.3488  -1.1138   0.0000   0.0000   0.0000  -5.7440
  -1.300   0.0006   0.00711   0.00249  -0.0374  0.9594  0.7395  -1.0962   0.0000   0.0000   0.0000  65.5939
  -1.200   0.0109   0.00699   0.00262  -0.0369  0.9573  0.8099  -1.0507   0.0000   0.0000   0.0000   3.6383
  -1.100   0.0210   0.00699   0.00275  -0.0362  0.9550  0.8556  -1.0014   0.0000   0.0000   0.0000   1.9774
  -1.000   0.0306   0.00706   0.00291  -0.0354  0.9521  0.8850  -0.9520   0.0000   0.0000   0.0000   1.4107
  -0.900   0.0393   0.00713   0.00299  -0.0346  0.9492  0.9040  -0.9046   0.0000   0.0000   0.0000   1.1328
  -0.800   0.0440   0.00712   0.00302  -0.0328  0.9461  0.9235  -0.8665   0.0000   0.0000   0.0000   0.9961
  -0.700   0.0504   0.00715   0.00306  -0.0314  0.9427  0.9403  -0.8246   0.0000   0.0000   0.0000   0.8739
  -0.600   0.0586   0.00718   0.00308  -0.0305  0.9393  0.9498  -0.7787   0.0000   0.0000   0.0000   0.7716
  -0.500   0.0763   0.00713   0.00302  -0.0321  0.9379  0.9583  -0.7117   0.0000   0.0000   0.0000   0.6707
  -0.400   0.0945   0.00710   0.00297  -0.0337  0.9364  0.9636  -0.6446   0.0000   0.0000   0.0000   0.6072
  -0.300   0.1122   0.00705   0.00292  -0.0353  0.9346  0.9675  -0.5796   0.0000   0.0000   0.0000   0.5645
  -0.200   0.1294   0.00701   0.00286  -0.0367  0.9324  0.9707  -0.5167   0.0000   0.0000   0.0000   0.5337
  -0.100   0.1462   0.00695   0.00280  -0.0381  0.9300  0.9736  -0.4558   0.0000   0.0000   0.0000   0.5103
   0.000   0.1626   0.00689   0.00273  -0.0393  0.9272  0.9763  -0.3972   0.0000   0.0000   0.0000   0.4917
   0.100   0.1784   0.00683   0.00266  -0.0404  0.9242  0.9786  -0.4313   0.0000   0.0000   0.0000   0.4766
   0.200   0.1934   0.00676   0.00259  -0.0414  0.9210  0.9806  -0.4904   0.0000   0.0000   0.0000   0.4639
   0.300   0.2091   0.00670   0.00252  -0.0425  0.9180  0.9829  -0.5523   0.0000   0.0000   0.0000   0.4531
   0.400   0.2243   0.00667   0.00249  -0.0436  0.9161  0.9853  -0.6154   0.0000   0.0000   0.0000   0.4441
   0.500   0.2392   0.00664   0.00246  -0.0446  0.9139  0.9875  -0.6789   0.0000   0.0000   0.0000   0.4362
   0.600   0.2538   0.00660   0.00242  -0.0455  0.9111  0.9896  -0.7428   0.0000   0.0000   0.0000   0.4290
   0.700   0.2680   0.00657   0.00238  -0.0463  0.9075  0.9916  -0.8072   0.0000   0.0000   0.0000   0.4225
   0.800   0.2819   0.00654   0.00235  -0.0470  0.9028  0.9934  -0.8717   0.0000   0.0000   0.0000   0.4166
   0.900   0.2944   0.00652   0.00233  -0.0475  0.8983  0.9954  -0.9331   0.0000   0.0000   0.0000   0.4110
   1.000   0.3057   0.00649   0.00231  -0.0477  0.8941  0.9976  -0.9922   0.0000   0.0000   0.0000   0.4056
   1.100   0.3169   0.00646   0.00230  -0.0478  0.8892  0.9995  -1.0520   0.0000   0.0000   0.0000   0.4006
   1.200   0.3236   0.00644   0.00229  -0.0471  0.8833  1.0000  -1.0993   0.0000   0.0000   0.0000   0.3951
   1.300   0.3294   0.00643   0.00227  -0.0461  0.8771  1.0000  -1.1447   0.0000   0.0000   0.0000   0.3895
   1.400   0.3354   0.00640   0.00221  -0.0450  0.8681  1.0000  -1.1912   0.0000   0.0000   0.0000   0.3837
   1.500   0.3414   0.00636   0.00211  -0.0438  0.8551  1.0000  -1.2389   0.0000   0.0000   0.0000   0.3776
   1.600   0.3479   0.00634   0.00206  -0.0427  0.8411  1.0000  -1.2874   0.0000   0.0000   0.0000   0.3721
   1.700   0.3545   0.00631   0.00197  -0.0415  0.8205  1.0000  -1.3366   0.0000   0.0000   0.0000   0.3665
   1.800   0.3614   0.00633   0.00186  -0.0404  0.7942  1.0000  -1.3865   0.0000   0.0000   0.0000   0.3610
   1.900   0.3682   0.00640   0.00176  -0.0392  0.7557  1.0000  -1.4352   0.0000   0.0000   0.0000   0.3558
   2.000   0.3753   0.00653   0.00170  -0.0382  0.7081  1.0000  -1.4826   0.0000   0.0000   0.0000   0.3511
   2.100   0.3807   0.00689   0.00163  -0.0369  0.6150  1.0000  -1.5207   0.0000   0.0000   0.0000   0.3461
   2.200   0.3804   0.00818   0.00176  -0.0352  0.3563  1.0000  -1.5342   0.0000   0.0000   0.0000   0.3416
   2.300   0.3810   0.01006   0.00230  -0.0342  0.0427  1.0000  -1.4968   0.0000   0.0000   0.0000   0.3390
   2.400   0.3911   0.01030   0.00253  -0.0341  0.0355  1.0000  -1.4934   0.0000   0.0000   0.0000   0.3362
   2.500   0.4013   0.01050   0.00278  -0.0339  0.0328  1.0000  -1.5056   0.0000   0.0000   0.0000   0.3336
   2.600   0.4115   0.01070   0.00303  -0.0338  0.0314  1.0000  -1.5255   0.0000   0.0000   0.0000   0.3312
   2.700   0.4216   0.01092   0.00330  -0.0337  0.0307  1.0000  -1.5493   0.0000   0.0000   0.0000   0.3289
   2.800   0.4315   0.01116   0.00357  -0.0336  0.0303  1.0000  -1.5755   0.0000   0.0000   0.0000   0.3267
   2.900   0.4414   0.01141   0.00385  -0.0334  0.0301  1.0000  -1.6032   0.0000   0.0000   0.0000   0.3245
   3.000   0.4511   0.01169   0.00415  -0.0332  0.0300  1.0000  -1.6319   0.0000   0.0000   0.0000   0.3224
   3.100   0.4608   0.01197   0.00446  -0.0330  0.0300  1.0000  -1.6613   0.0000   0.0000   0.0000   0.3204
   3.200   0.4705   0.01227   0.00478  -0.0328  0.0302  1.0000  -1.6909   0.0000   0.0000   0.0000   0.3184
   3.300   0.4802   0.01259   0.00511  -0.0326  0.0304  1.0000  -1.7204   0.0000   0.0000   0.0000   0.3165
   3.400   0.4899   0.01292   0.00547  -0.0323  0.0306  1.0000  -1.7493   0.0000   0.0000   0.0000   0.3146
   3.500   0.4996   0.01328   0.00585  -0.0321  0.0310  1.0000  -1.7770   0.0000   0.0000   0.0000   0.3128
   3.600   0.5094   0.01367   0.00627  -0.0318  0.0313  1.0000  -1.8040   0.0000   0.0000   0.0000   0.3110
   3.700   0.5188   0.01412   0.00671  -0.0316  0.0294  1.0000  -1.8497   0.0000   0.0000   0.0000   0.3094
   3.800   0.5272   0.01522   0.00784  -0.0312  0.0263  1.0000  -1.8606   0.0000   0.0000   0.0000   0.3077
   3.900   0.5360   0.01696   0.00968  -0.0308  0.0247  1.0000  -1.8489   0.0000   0.0000   0.0000   0.3058
   4.100   0.5575   0.01652   0.00921  -0.0309  0.0225  1.0000  -2.2235   0.0000   0.0000   0.0000   0.3036
   4.200   0.5682   0.01649   0.00918  -0.0308  0.0205  1.0000  -2.3925   0.0000   0.0000   0.0000   0.3024
   4.300   0.5787   0.01674   0.00942  -0.0306  0.0176  1.0000  -2.5122   0.0000   0.0000   0.0000   0.3010
   4.400   0.5892   0.01759   0.01033  -0.0302  0.0161  1.0000  -2.5548   0.0000   0.0000   0.0000   0.2992
   4.500   0.6002   0.01919   0.01212  -0.0294  0.0164  1.0000  -2.5070   0.0000   0.0000   0.0000   0.2969
   4.600   0.6112   0.02185   0.01511  -0.0281  0.0191  1.0000  -2.3449   0.0000   0.0000   0.0000   0.2939
   4.700   0.6255   0.02431   0.01798  -0.0263  0.0322  1.0000  -2.1221   0.0000   0.0000   0.0000   0.2900
   4.800   0.6356   0.02586   0.01977  -0.0253  0.0336  1.0000  -2.1029   0.0000   0.0000   0.0000   0.2878
   4.900   0.6449   0.02721   0.02127  -0.0246  0.0335  1.0000  -2.1241   0.0000   0.0000   0.0000   0.2862
   5.000   0.6538   0.02849   0.02268  -0.0240  0.0330  1.0000  -2.1575   0.0000   0.0000   0.0000   0.2847
   5.100   0.6622   0.02977   0.02407  -0.0234  0.0323  1.0000  -2.1965   0.0000   0.0000   0.0000   0.2833
   5.200   0.6703   0.03106   0.02546  -0.0229  0.0315  1.0000  -2.2395   0.0000   0.0000   0.0000   0.2819
   5.300   0.6781   0.03236   0.02686  -0.0223  0.0308  1.0000  -2.2866   0.0000   0.0000   0.0000   0.2807
   5.400   0.6855   0.03370   0.02827  -0.0219  0.0300  1.0000  -2.3389   0.0000   0.0000   0.0000   0.2796
   5.500   0.6924   0.03511   0.02975  -0.0214  0.0292  1.0000  -2.3915   0.0000   0.0000   0.0000   0.2786
   5.600   0.6985   0.03664   0.03135  -0.0209  0.0283  1.0000  -2.4394   0.0000   0.0000   0.0000   0.2776
   5.700   0.7037   0.03842   0.03322  -0.0204  0.0275  1.0000  -2.4775   0.0000   0.0000   0.0000   0.2766
   5.800   0.7073   0.04069   0.03559  -0.0199  0.0266  1.0000  -2.4897   0.0000   0.0000   0.0000   0.2757
   5.900   0.7081   0.04382   0.03885  -0.0193  0.0258  1.0000  -2.4488   0.0000   0.0000   0.0000   0.2748
   6.000   0.7040   0.04826   0.04351  -0.0186  0.0249  1.0000  -2.3216   0.0000   0.0000   0.0000   0.2740
   6.100   0.7005   0.05221   0.04761  -0.0179  0.0244  1.0000  -2.2045   0.0000   0.0000   0.0000   0.2731
   6.200   0.7043   0.05373   0.04924  -0.0173  0.0244  1.0000  -2.2130   0.0000   0.0000   0.0000   0.2720
   6.300   0.7079   0.05524   0.05085  -0.0166  0.0244  1.0000  -2.2204   0.0000   0.0000   0.0000   0.2710
   6.400   0.7110   0.05673   0.05243  -0.0160  0.0244  1.0000  -2.2269   0.0000   0.0000   0.0000   0.2700
   6.500   0.7137   0.05819   0.05398  -0.0154  0.0243  1.0000  -2.2325   0.0000   0.0000   0.0000   0.2690
   6.600   0.7161   0.05963   0.05550  -0.0148  0.0243  1.0000  -2.2372   0.0000   0.0000   0.0000   0.2681
   6.700   0.7181   0.06103   0.05698  -0.0142  0.0243  1.0000  -2.2412   0.0000   0.0000   0.0000   0.2671
   6.800   0.7197   0.06239   0.05842  -0.0136  0.0242  1.0000  -2.2445   0.0000   0.0000   0.0000   0.2662
   6.900   0.7210   0.06371   0.05982  -0.0130  0.0242  1.0000  -2.2473   0.0000   0.0000   0.0000   0.2653
   7.000   0.7222   0.06499   0.06117  -0.0124  0.0241  1.0000  -2.2498   0.0000   0.0000   0.0000   0.2644
   7.100   0.7231   0.06620   0.06244  -0.0118  0.0240  1.0000  -2.2523   0.0000   0.0000   0.0000   0.2635
   7.200   0.7237   0.06733   0.06363  -0.0112  0.0239  1.0000  -2.2555   0.0000   0.0000   0.0000   0.2626
   7.300   0.7240   0.06835   0.06471  -0.0106  0.0238  1.0000  -2.2599   0.0000   0.0000   0.0000   0.2617
   7.400   0.7243   0.06924   0.06567  -0.0099  0.0236  1.0000  -2.2666   0.0000   0.0000   0.0000   0.2608
   7.500   0.7252   0.07002   0.06650  -0.0093  0.0234  1.0000  -2.2766   0.0000   0.0000   0.0000   0.2599
   7.600   0.7258   0.07081   0.06733  -0.0087  0.0230  1.0000  -2.2851   0.0000   0.0000   0.0000   0.2590
   7.700   0.7252   0.07171   0.06828  -0.0081  0.0228  1.0000  -2.2867   0.0000   0.0000   0.0000   0.2582
   7.800   0.7234   0.07273   0.06934  -0.0075  0.0225  1.0000  -2.2820   0.0000   0.0000   0.0000   0.2574
   7.900   0.7202   0.07378   0.07042  -0.0069  0.0224  1.0000  -2.2717   0.0000   0.0000   0.0000   0.2565
   8.000   0.7142   0.07473   0.07139  -0.0059  0.0224  1.0000  -2.2556   0.0000   0.0000   0.0000   0.2551
   8.100   0.7074   0.07570   0.07237  -0.0049  0.0224  1.0000  -2.2368   0.0000   0.0000   0.0000   0.2537
   8.200   0.7005   0.07675   0.07344  -0.0041  0.0224  1.0000  -2.2159   0.0000   0.0000   0.0000   0.2527
   8.300   0.6937   0.07792   0.07463  -0.0037  0.0225  1.0000  -2.1930   0.0000   0.0000   0.0000   0.2521
   8.400   0.6873   0.07920   0.07592  -0.0036  0.0225  1.0000  -2.1683   0.0000   0.0000   0.0000   0.2519
   8.500   0.6811   0.08059   0.07732  -0.0038  0.0226  1.0000  -2.1418   0.0000   0.0000   0.0000   0.2522
   8.600   0.6753   0.08209   0.07884  -0.0043  0.0227  1.0000  -2.1134   0.0000   0.0000   0.0000   0.2529
   8.700   0.6701   0.08373   0.08049  -0.0051  0.0227  1.0000  -2.0835   0.0000   0.0000   0.0000   0.2540
   8.800   0.6653   0.08552   0.08229  -0.0061  0.0228  1.0000  -2.0513   0.0000   0.0000   0.0000   0.2556
   8.900   0.6612   0.08748   0.08424  -0.0074  0.0229  1.0000  -2.0171   0.0000   0.0000   0.0000   0.2576
   9.000   0.6583   0.08935   0.08611  -0.0087  0.0229  1.0000  -1.9880   0.0000   0.0000   0.0000   0.2595
   9.100   0.6564   0.09110   0.08785  -0.0098  0.0228  1.0000  -1.9649   0.0000   0.0000   0.0000   0.2611
   9.200   0.6552   0.09276   0.08950  -0.0108  0.0227  1.0000  -1.9458   0.0000   0.0000   0.0000   0.2626
   9.300   0.6544   0.09437   0.09110  -0.0117  0.0226  1.0000  -1.9292   0.0000   0.0000   0.0000   0.2640
   9.400   0.6540   0.09595   0.09268  -0.0126  0.0224  1.0000  -1.9141   0.0000   0.0000   0.0000   0.2653
   9.500   0.6538   0.09753   0.09425  -0.0134  0.0222  1.0000  -1.8998   0.0000   0.0000   0.0000   0.2665
   9.600   0.6536   0.09912   0.09583  -0.0142  0.0220  1.0000  -1.8846   0.0000   0.0000   0.0000   0.2677
   9.700   0.6532   0.10073   0.09743  -0.0151  0.0219  1.0000  -1.8675   0.0000   0.0000   0.0000   0.2689
   9.800   0.6530   0.10234   0.09904  -0.0159  0.0217  1.0000  -1.8509   0.0000   0.0000   0.0000   0.2701
   9.900   0.6530   0.10396   0.10064  -0.0167  0.0215  1.0000  -1.8348   0.0000   0.0000   0.0000   0.2713
  10.000   0.6530   0.10558   0.10226  -0.0175  0.0213  1.0000  -1.8193   0.0000   0.0000   0.0000   0.2725
  10.100   0.6532   0.10720   0.10388  -0.0183  0.0211  1.0000  -1.8041   0.0000   0.0000   0.0000   0.2736
  10.200   0.6534   0.10883   0.10550  -0.0191  0.0209  1.0000  -1.7891   0.0000   0.0000   0.0000   0.2748
  10.300   0.6537   0.11041   0.10707  -0.0199  0.0206  1.0000  -1.7745   0.0000   0.0000   0.0000   0.2759
  10.400   0.6542   0.11197   0.10863  -0.0207  0.0202  1.0000  -1.7611   0.0000   0.0000   0.0000   0.2771
  10.500   0.6548   0.11357   0.11022  -0.0215  0.0198  1.0000  -1.7487   0.0000   0.0000   0.0000   0.2782
  10.600   0.6553   0.11517   0.11182  -0.0223  0.0194  1.0000  -1.7375   0.0000   0.0000   0.0000   0.2794
  10.700   0.6560   0.11679   0.11343  -0.0231  0.0190  1.0000  -1.7280   0.0000   0.0000   0.0000   0.2804
  10.800   0.6568   0.11842   0.11506  -0.0239  0.0186  1.0000  -1.7200   0.0000   0.0000   0.0000   0.2815
  10.900   0.6576   0.12005   0.11668  -0.0246  0.0182  1.0000  -1.7137   0.0000   0.0000   0.0000   0.2825
  11.000   0.6586   0.12169   0.11831  -0.0254  0.0178  1.0000  -1.7092   0.0000   0.0000   0.0000   0.2836
  11.100   0.6596   0.12332   0.11994  -0.0261  0.0174  1.0000  -1.7062   0.0000   0.0000   0.0000   0.2846
  11.200   0.6607   0.12495   0.12157  -0.0269  0.0170  1.0000  -1.7054   0.0000   0.0000   0.0000   0.2855
  11.300   0.6619   0.12658   0.12319  -0.0276  0.0166  1.0000  -1.7068   0.0000   0.0000   0.0000   0.2865
  11.400   0.6633   0.12820   0.12480  -0.0283  0.0162  1.0000  -1.7109   0.0000   0.0000   0.0000   0.2874
  11.500   0.6647   0.12981   0.12641  -0.0290  0.0158  1.0000  -1.7182   0.0000   0.0000   0.0000   0.2883
  11.600   0.6663   0.13140   0.12800  -0.0297  0.0154  1.0000  -1.7296   0.0000   0.0000   0.0000   0.2891
  11.700   0.6681   0.13299   0.12958  -0.0303  0.0150  1.0000  -1.7463   0.0000   0.0000   0.0000   0.2899
  11.800   0.6701   0.13456   0.13114  -0.0309  0.0146  1.0000  -1.7704   0.0000   0.0000   0.0000   0.2906
  11.900   0.6726   0.13612   0.13270  -0.0314  0.0142  1.0000  -1.8076   0.0000   0.0000   0.0000   0.2911
  12.000   0.6760   0.13768   0.13426  -0.0318  0.0137  1.0000  -1.8718   0.0000   0.0000   0.0000   0.2912
  12.100   0.6807   0.13946   0.13603  -0.0317  0.0131  1.0000  -1.9850   0.0000   0.0000   0.0000   0.2907
  12.200   0.6824   0.14213   0.13870  -0.0322  0.0126  1.0000  -2.0169   0.0000   0.0000   0.0000   0.2912
  12.300   0.6789   0.14699   0.14357  -0.0336  0.0121  1.0000  -1.8730   0.0000   0.0000   0.0000   0.2935


