xflr5 v6.61

 Calculated polar for: NACA M19 AIRFOIL

 1 1 Reynolds number fixed          Mach number fixed         

 xtrf =   1.000 (top)        1.000 (bottom)
 Mach =   0.000     Re =     0.160 e 6     Ncrit =   9.000

  alpha     CL        CD       CDp       Cm    Top Xtr Bot Xtr   Cpmin    Chinge    XCp    
 ------- -------- --------- --------- -------- ------- ------- -------- --------- ---------
  -5.700  -0.1882   0.08719   0.08218  -0.0255  0.6943  0.0252  -1.1869   0.0000   0.0000   0.0000   0.1124
  -5.600  -0.1822   0.08448   0.07944  -0.0266  0.6918  0.0253  -1.2134   0.0000   0.0000   0.0000   0.1019
  -5.500  -0.1762   0.08174   0.07668  -0.0277  0.6893  0.0255  -1.2396   0.0000   0.0000   0.0000   0.0905
  -5.400  -0.1698   0.07910   0.07401  -0.0287  0.6869  0.0256  -1.2614   0.0000   0.0000   0.0000   0.0781
  -5.300  -0.1631   0.07657   0.07145  -0.0298  0.6844  0.0258  -1.2784   0.0000   0.0000   0.0000   0.0647
  -5.200  -0.1562   0.07415   0.06900  -0.0308  0.6819  0.0260  -1.2905   0.0000   0.0000   0.0000   0.0499
  -5.100  -0.1490   0.07183   0.06666  -0.0318  0.6794  0.0262  -1.2976   0.0000   0.0000   0.0000   0.0337
  -5.000  -0.1416   0.06962   0.06442  -0.0327  0.6770  0.0264  -1.3000   0.0000   0.0000   0.0000   0.0156
  -4.900  -0.1339   0.06750   0.06228  -0.0336  0.6747  0.0266  -1.2975   0.0000   0.0000   0.0000  -0.0047
  -4.800  -0.1259   0.06548   0.06023  -0.0345  0.6725  0.0269  -1.2905   0.0000   0.0000   0.0000  -0.0277
  -4.700  -0.1185   0.06356   0.05828  -0.0351  0.6704  0.0272  -1.2731   0.0000   0.0000   0.0000  -0.0505
  -4.600  -0.1110   0.06172   0.05643  -0.0356  0.6685  0.0275  -1.2504   0.0000   0.0000   0.0000  -0.0755
  -4.500  -0.1034   0.05996   0.05465  -0.0361  0.6665  0.0278  -1.2235   0.0000   0.0000   0.0000  -0.1038
  -4.400  -0.0956   0.05829   0.05297  -0.0365  0.6646  0.0282  -1.1936   0.0000   0.0000   0.0000  -0.1375
  -4.300  -0.0876   0.05670   0.05136  -0.0370  0.6629  0.0287  -1.1612   0.0000   0.0000   0.0000  -0.1787
  -4.200  -0.0791   0.05519   0.04984  -0.0375  0.6615  0.0293  -1.1270   0.0000   0.0000   0.0000  -0.2314
  -4.100  -0.0702   0.05375   0.04839  -0.0381  0.6604  0.0300  -1.0913   0.0000   0.0000   0.0000  -0.3012
  -4.000  -0.0608   0.05238   0.04701  -0.0388  0.6596  0.0310  -1.0542   0.0000   0.0000   0.0000  -0.3970
  -3.900  -0.0509   0.05108   0.04569  -0.0395  0.6589  0.0323  -1.0202   0.0000   0.0000   0.0000  -0.5374
  -3.800  -0.0404   0.04984   0.04442  -0.0403  0.6583  0.0341  -0.9887   0.0000   0.0000   0.0000  -0.7628
  -3.700  -0.0291   0.04866   0.04321  -0.0412  0.6576  0.0371  -0.9605   0.0000   0.0000   0.0000  -1.1877
  -3.600  -0.0154   0.04769   0.04216  -0.0423  0.6560  0.0427  -0.9431   0.0000   0.0000   0.0000  -2.5284
  -3.500   0.0250   0.05125   0.04521  -0.0446  0.6459  0.0500  -1.0406   0.0000   0.0000   0.0000   2.0637
  -3.400   0.0261   0.04510   0.03901  -0.0458  0.6397  0.0523  -1.1138   0.0000   0.0000   0.0000   2.0302
  -3.300   0.0264   0.04304   0.03715  -0.0454  0.6445  0.0552  -1.0111   0.0000   0.0000   0.0000   1.9946
  -3.200   0.0329   0.04216   0.03637  -0.0455  0.6484  0.0589  -0.9176   0.0000   0.0000   0.0000   1.6517
  -3.100   0.0430   0.04150   0.03572  -0.0460  0.6499  0.0624  -0.8412   0.0000   0.0000   0.0000   1.3347
  -3.000   0.0547   0.04100   0.03520  -0.0467  0.6505  0.0664  -0.7688   0.0000   0.0000   0.0000   1.1163
  -2.900   0.0872   0.04637   0.04016  -0.0481  0.6469  0.0749  -0.7603   0.0000   0.0000   0.0000   0.8097
  -2.800   0.0986   0.04592   0.03965  -0.0486  0.6465  0.0750  -0.7503   0.0000   0.0000   0.0000   0.7502
  -2.700   0.1095   0.04532   0.03901  -0.0491  0.6462  0.0750  -0.7402   0.0000   0.0000   0.0000   0.7045
  -2.600   0.1130   0.04035   0.03403  -0.0500  0.6418  0.0768  -0.7680   0.0000   0.0000   0.0000   0.6986
  -2.500   0.1210   0.03891   0.03264  -0.0505  0.6426  0.0774  -0.7461   0.0000   0.0000   0.0000   0.6726
  -2.400   0.1296   0.03780   0.03157  -0.0509  0.6432  0.0781  -0.7227   0.0000   0.0000   0.0000   0.6478
  -2.300   0.1386   0.03689   0.03068  -0.0513  0.6436  0.0788  -0.6989   0.0000   0.0000   0.0000   0.6250
  -2.200   0.1479   0.03611   0.02992  -0.0517  0.6436  0.0796  -0.6754   0.0000   0.0000   0.0000   0.6042
  -2.100   0.1574   0.03544   0.02926  -0.0521  0.6432  0.0805  -0.6524   0.0000   0.0000   0.0000   0.5853
  -2.000   0.1670   0.03484   0.02866  -0.0525  0.6425  0.0816  -0.6327   0.0000   0.0000   0.0000   0.5681
  -1.900   0.1769   0.03432   0.02813  -0.0529  0.6415  0.0827  -0.6392   0.0000   0.0000   0.0000   0.5523
  -1.800   0.1871   0.03386   0.02766  -0.0532  0.6402  0.0841  -0.6459   0.0000   0.0000   0.0000   0.5377
  -1.700   0.1975   0.03348   0.02726  -0.0536  0.6385  0.0857  -0.6527   0.0000   0.0000   0.0000   0.5243
  -1.600   0.2082   0.03318   0.02692  -0.0539  0.6365  0.0875  -0.6596   0.0000   0.0000   0.0000   0.5117
  -1.500   0.2193   0.03302   0.02671  -0.0542  0.6343  0.0897  -0.6667   0.0000   0.0000   0.0000   0.4997
  -1.400   0.2309   0.03305   0.02668  -0.0545  0.6317  0.0920  -0.6740   0.0000   0.0000   0.0000   0.4883
  -1.300   0.2430   0.03334   0.02691  -0.0547  0.6288  0.0944  -0.6816   0.0000   0.0000   0.0000   0.4773
  -1.200   0.2554   0.03403   0.02754  -0.0548  0.6259  0.0967  -0.6894   0.0000   0.0000   0.0000   0.4667
  -1.100   0.2679   0.03502   0.02849  -0.0549  0.6228  0.0985  -0.6973   0.0000   0.0000   0.0000   0.4568
  -1.000   0.2797   0.03565   0.02906  -0.0550  0.6193  0.0993  -0.7046   0.0000   0.0000   0.0000   0.4486
  -0.900   0.2910   0.03590   0.02926  -0.0553  0.6153  0.0997  -0.7113   0.0000   0.0000   0.0000   0.4418
  -0.800   0.2992   0.03186   0.02506  -0.0567  0.6081  0.1042  -0.7140   0.0000   0.0000   0.0000   0.4411
  -0.700   0.3077   0.03070   0.02392  -0.0574  0.6034  0.1068  -0.7181   0.0000   0.0000   0.0000   0.4381
  -0.600   0.3167   0.03020   0.02348  -0.0580  0.5998  0.1086  -0.7225   0.0000   0.0000   0.0000   0.4346
  -0.500   0.3260   0.02958   0.02287  -0.0583  0.5994  0.1105  -0.7287   0.0000   0.0000   0.0000   0.4303
  -0.400   0.3355   0.02906   0.02236  -0.0586  0.5991  0.1126  -0.7352   0.0000   0.0000   0.0000   0.4260
  -0.300   0.3453   0.02860   0.02191  -0.0589  0.5987  0.1148  -0.7418   0.0000   0.0000   0.0000   0.4217
  -0.200   0.3552   0.02818   0.02148  -0.0591  0.5982  0.1174  -0.7487   0.0000   0.0000   0.0000   0.4175
  -0.100   0.3653   0.02779   0.02109  -0.0593  0.5976  0.1202  -0.7558   0.0000   0.0000   0.0000   0.4133
   0.000   0.3756   0.02743   0.02071  -0.0595  0.5969  0.1235  -0.7631   0.0000   0.0000   0.0000   0.4093
   0.100   0.3861   0.02709   0.02035  -0.0597  0.5961  0.1271  -0.7706   0.0000   0.0000   0.0000   0.4053
   0.200   0.3968   0.02682   0.02003  -0.0598  0.5951  0.1311  -0.7782   0.0000   0.0000   0.0000   0.4014
   0.300   0.4078   0.02666   0.01983  -0.0600  0.5940  0.1358  -0.7860   0.0000   0.0000   0.0000   0.3975
   0.400   0.4193   0.02677   0.01990  -0.0601  0.5927  0.1412  -0.7953   0.0000   0.0000   0.0000   0.3936
   0.500   0.4315   0.02774   0.02084  -0.0599  0.5912  0.1470  -0.8076   0.0000   0.0000   0.0000   0.3891
   0.600   0.4434   0.02876   0.02182  -0.0597  0.5894  0.1494  -0.8197   0.0000   0.0000   0.0000   0.3848
   0.800   0.4609   0.02469   0.01768  -0.0608  0.5864  0.1614  -0.8367   0.0000   0.0000   0.0000   0.3819
   0.900   0.4703   0.02417   0.01720  -0.0609  0.5845  0.1656  -0.8469   0.0000   0.0000   0.0000   0.3794
   1.000   0.4799   0.02382   0.01688  -0.0610  0.5823  0.1708  -0.8573   0.0000   0.0000   0.0000   0.3768
   1.100   0.4898   0.02363   0.01671  -0.0610  0.5799  0.1773  -0.8679   0.0000   0.0000   0.0000   0.3742
   1.200   0.4996   0.02393   0.01717  -0.0609  0.5770  0.1888  -0.8789   0.0000   0.0000   0.0000   0.3714
   1.300   0.5102   0.02498   0.01828  -0.0606  0.5739  0.1975  -0.8907   0.0000   0.0000   0.0000   0.3681
   1.500   0.5275   0.02152   0.01475  -0.0615  0.5686  0.2385  -0.9083   0.0000   0.0000   0.0000   0.3657
   1.600   0.5366   0.02106   0.01432  -0.0615  0.5656  0.2537  -0.9183   0.0000   0.0000   0.0000   0.3636
   1.700   0.5461   0.02078   0.01404  -0.0614  0.5624  0.2713  -0.9286   0.0000   0.0000   0.0000   0.3614
   1.800   0.5560   0.02078   0.01406  -0.0613  0.5591  0.2888  -0.9393   0.0000   0.0000   0.0000   0.3591
   1.900   0.5637   0.01931   0.01259  -0.0615  0.5561  0.3365  -0.9482   0.0000   0.0000   0.0000   0.3578
   2.000   0.5719   0.01859   0.01194  -0.0612  0.5522  0.3636  -0.9580   0.0000   0.0000   0.0000   0.3557
   2.100   0.5811   0.01820   0.01156  -0.0609  0.5485  0.3869  -0.9684   0.0000   0.0000   0.0000   0.3534
   3.600   0.7577   0.02060   0.01293  -0.0628  0.4967  0.2032  -1.1275   0.0000   0.0000   0.0000   0.3301
   4.200   0.8271   0.02017   0.01190  -0.0621  0.4926  0.1053  -1.1934   0.0000   0.0000   0.0000   0.3218
   4.300   0.8375   0.02032   0.01206  -0.0621  0.4918  0.1021  -1.2043   0.0000   0.0000   0.0000   0.3208
   4.400   0.8478   0.02030   0.01204  -0.0622  0.4909  0.0988  -1.2148   0.0000   0.0000   0.0000   0.3198
   4.500   0.8581   0.02013   0.01186  -0.0621  0.4902  0.0951  -1.2249   0.0000   0.0000   0.0000   0.3188
   4.600   0.8681   0.02008   0.01179  -0.0621  0.4893  0.0916  -1.2350   0.0000   0.0000   0.0000   0.3178
   4.700   0.8781   0.02009   0.01176  -0.0620  0.4885  0.0883  -1.2453   0.0000   0.0000   0.0000   0.3168
   4.800   0.8883   0.02014   0.01176  -0.0620  0.4876  0.0852  -1.2556   0.0000   0.0000   0.0000   0.3158
   4.900   0.8985   0.02022   0.01179  -0.0620  0.4866  0.0825  -1.2660   0.0000   0.0000   0.0000   0.3149
   5.000   0.9087   0.02030   0.01184  -0.0620  0.4855  0.0802  -1.2766   0.0000   0.0000   0.0000   0.3141
   5.100   0.9190   0.02038   0.01190  -0.0621  0.4843  0.0785  -1.2875   0.0000   0.0000   0.0000   0.3132
   5.200   0.9309   0.01943   0.01084  -0.0614  0.4785  0.0769  -1.3066   0.0000   0.0000   0.0000   0.3115
   5.300   0.9443   0.01712   0.00817  -0.0598  0.4594  0.0754  -1.3383   0.0000   0.0000   0.0000   0.3086
   5.400   0.9548   0.01617   0.00680  -0.0589  0.4400  0.0747  -1.3595   0.0000   0.0000   0.0000   0.3068
   5.500   0.9648   0.01605   0.00649  -0.0586  0.4308  0.0741  -1.3729   0.0000   0.0000   0.0000   0.3057
   5.600   0.9747   0.01604   0.00632  -0.0584  0.4199  0.0736  -1.3854   0.0000   0.0000   0.0000   0.3048
   5.700   0.9845   0.01617   0.00631  -0.0583  0.4067  0.0732  -1.3969   0.0000   0.0000   0.0000   0.3039
   5.800   0.9948   0.01612   0.00617  -0.0582  0.3987  0.0728  -1.4109   0.0000   0.0000   0.0000   0.3031
   5.900   1.0054   0.01585   0.00585  -0.0581  0.3927  0.0726  -1.4722   0.0000   0.0000   0.0000   0.3022
   6.000   1.0097   0.01624   0.00536  -0.0573  0.2981  0.0725  -1.5457   0.0000   0.0000   0.0000   0.3009
   6.200   1.0087   0.02004   0.00747  -0.0562  0.0461  0.0726  -1.5967   0.0000   0.0000   0.0000   0.2997
   6.300   1.0175   0.02050   0.00783  -0.0558  0.0317  0.0727  -1.6364   0.0000   0.0000   0.0000   0.2987
   6.400   1.0271   0.02083   0.00827  -0.0554  0.0289  0.0729  -1.6900   0.0000   0.0000   0.0000   0.2977
   6.500   1.0365   0.02116   0.00872  -0.0551  0.0279  0.0732  -1.7630   0.0000   0.0000   0.0000   0.2967
   6.600   1.0457   0.02150   0.00920  -0.0547  0.0277  0.0737  -1.8358   0.0000   0.0000   0.0000   0.2957
   6.700   1.0545   0.02187   0.00972  -0.0544  0.0278  0.0744  -1.9062   0.0000   0.0000   0.0000   0.2948
   7.300   1.1060   0.02383   0.01384  -0.0530  0.0340  1.0000  -2.2994   0.0000   0.0000   0.0000   0.2903
   7.400   1.1112   0.02449   0.01462  -0.0523  0.0359  1.0000  -2.3389   0.0000   0.0000   0.0000   0.2892
   7.500   1.1150   0.02524   0.01547  -0.0513  0.0379  1.0000  -2.3656   0.0000   0.0000   0.0000   0.2880
   7.600   1.1175   0.02608   0.01639  -0.0503  0.0400  1.0000  -2.3853   0.0000   0.0000   0.0000   0.2868
   7.700   1.1197   0.02693   0.01728  -0.0491  0.0422  1.0000  -2.4033   0.0000   0.0000   0.0000   0.2855
   7.800   1.1225   0.02778   0.01818  -0.0478  0.0446  1.0000  -2.4205   0.0000   0.0000   0.0000   0.2841
   7.900   1.1257   0.02869   0.01914  -0.0465  0.0470  1.0000  -2.4351   0.0000   0.0000   0.0000   0.2826
   8.000   1.1291   0.02987   0.02035  -0.0449  0.0492  1.0000  -2.4420   0.0000   0.0000   0.0000   0.2809
   8.200   1.1674   0.02950   0.02047  -0.0430  0.0681  1.0000  -2.5376   0.0000   0.0000   0.0000   0.2775
   8.300   1.1879   0.03003   0.02112  -0.0417  0.0802  1.0000  -2.5664   0.0000   0.0000   0.0000   0.2757
   8.400   1.2208   0.03072   0.02258  -0.0402  0.1083  1.0000  -2.5472   0.0000   0.0000   0.0000   0.2732
  11.200   1.0245   0.10650   0.10193  -0.0514  0.1777  1.0000  -1.8155   0.0000   0.0000   0.0000   0.2876
  11.300   1.0160   0.10995   0.10538  -0.0527  0.1783  1.0000  -1.7790   0.0000   0.0000   0.0000   0.2893
  11.400   1.0075   0.11345   0.10887  -0.0541  0.1792  1.0000  -1.7417   0.0000   0.0000   0.0000   0.2910
  11.500   0.9992   0.11699   0.11241  -0.0554  0.1804  1.0000  -1.7039   0.0000   0.0000   0.0000   0.2927
  11.600   0.9909   0.12058   0.11600  -0.0568  0.1819  1.0000  -1.6658   0.0000   0.0000   0.0000   0.2945
  11.700   0.9829   0.12423   0.11964  -0.0581  0.1837  1.0000  -1.6277   0.0000   0.0000   0.0000   0.2963
  11.800   0.9750   0.12794   0.12335  -0.0594  0.1859  1.0000  -1.5901   0.0000   0.0000   0.0000   0.2981
  11.900   0.9673   0.13174   0.12716  -0.0607  0.1881  1.0000  -1.5534   0.0000   0.0000   0.0000   0.2998
  12.000   0.9599   0.13565   0.13107  -0.0618  0.1903  1.0000  -1.5176   0.0000   0.0000   0.0000   0.3015
  12.100   0.9528   0.13971   0.13512  -0.0630  0.1924  1.0000  -1.4829   0.0000   0.0000   0.0000   0.3031
  12.200   0.9460   0.14391   0.13932  -0.0641  0.1942  1.0000  -1.4491   0.0000   0.0000   0.0000   0.3048
  12.300   0.9396   0.14830   0.14371  -0.0653  0.1957  1.0000  -1.4162   0.0000   0.0000   0.0000   0.3064
  12.400   0.9338   0.15282   0.14823  -0.0664  0.1968  1.0000  -1.3850   0.0000   0.0000   0.0000   0.3080
  12.500   0.9296   0.15709   0.15249  -0.0675  0.1976  1.0000  -1.3591   0.0000   0.0000   0.0000   0.3095
  12.600   0.9272   0.16074   0.15614  -0.0684  0.1980  1.0000  -1.3406   0.0000   0.0000   0.0000   0.3106
  12.700   0.9258   0.16395   0.15935  -0.0692  0.1982  1.0000  -1.3267   0.0000   0.0000   0.0000   0.3114
  12.800   0.9250   0.16690   0.16229  -0.0700  0.1983  1.0000  -1.3153   0.0000   0.0000   0.0000   0.3122
  12.900   0.9263   0.16838   0.16376  -0.0704  0.1978  1.0000  -1.3149   0.0000   0.0000   0.0000   0.3125
  13.000   0.9288   0.16915   0.16452  -0.0708  0.1970  1.0000  -1.3199   0.0000   0.0000   0.0000   0.3125
  13.100   0.9320   0.16962   0.16498  -0.0711  0.1959  1.0000  -1.3274   0.0000   0.0000   0.0000   0.3125
  13.200   0.9357   0.16989   0.16525  -0.0715  0.1943  1.0000  -1.3364   0.0000   0.0000   0.0000   0.3124
  13.300   0.9396   0.17008   0.16542  -0.0719  0.1922  1.0000  -1.3456   0.0000   0.0000   0.0000   0.3124
  13.400   0.9432   0.17031   0.16564  -0.0724  0.1895  1.0000  -1.3531   0.0000   0.0000   0.0000   0.3125
  13.500   0.9459   0.17076   0.16608  -0.0731  0.1862  1.0000  -1.3576   0.0000   0.0000   0.0000   0.3128
  13.600   0.9479   0.17147   0.16677  -0.0738  0.1827  1.0000  -1.3601   0.0000   0.0000   0.0000   0.3132
  13.700   0.9495   0.17232   0.16762  -0.0744  0.1789  1.0000  -1.3630   0.0000   0.0000   0.0000   0.3136
  13.800   0.9517   0.17313   0.16841  -0.0747  0.1745  1.0000  -1.3717   0.0000   0.0000   0.0000   0.3136
  13.900   0.9566   0.17378   0.16904  -0.0745  0.1693  1.0000  -1.3960   0.0000   0.0000   0.0000   0.3127
  14.600   1.0172   0.15360   0.14828  -0.0521  0.0511  1.0000  -2.5520   0.0000   0.0000   0.0000   0.2830
  14.700   1.0134   0.15664   0.15134  -0.0538  0.0510  1.0000  -2.5106   0.0000   0.0000   0.0000   0.2848
  14.800   1.0098   0.15970   0.15442  -0.0557  0.0510  1.0000  -2.4695   0.0000   0.0000   0.0000   0.2867
  14.900   1.0062   0.16294   0.15768  -0.0574  0.0509  1.0000  -2.4241   0.0000   0.0000   0.0000   0.2886
  15.000   1.0024   0.16635   0.16110  -0.0591  0.0508  1.0000  -2.3746   0.0000   0.0000   0.0000   0.2904
  15.100   0.9985   0.16991   0.16468  -0.0607  0.0506  1.0000  -2.3211   0.0000   0.0000   0.0000   0.2922
  15.200   0.9945   0.17364   0.16842  -0.0623  0.0503  1.0000  -2.2635   0.0000   0.0000   0.0000   0.2941
  15.300   0.9905   0.17756   0.17235  -0.0640  0.0501  1.0000  -2.2012   0.0000   0.0000   0.0000   0.2960
  15.400   0.9877   0.18109   0.17585  -0.0657  0.0499  1.0000  -2.1491   0.0000   0.0000   0.0000   0.2978
  15.500   0.9866   0.18396   0.17872  -0.0674  0.0499  1.0000  -2.1134   0.0000   0.0000   0.0000   0.2995
  15.600   0.9859   0.18665   0.18142  -0.0691  0.0497  1.0000  -2.0801   0.0000   0.0000   0.0000   0.3013
  15.700   0.9856   0.18904   0.18381  -0.0711  0.0493  1.0000  -2.0493   0.0000   0.0000   0.0000   0.3033
  15.800   0.9877   0.19088   0.18565  -0.0739  0.0474  1.0000  -2.0209   0.0000   0.0000   0.0000   0.3059
  15.900   0.9886   0.19334   0.18811  -0.0757  0.0458  1.0000  -1.9911   0.0000   0.0000   0.0000   0.3076
  16.000   0.9884   0.19593   0.19071  -0.0773  0.0445  1.0000  -1.9600   0.0000   0.0000   0.0000   0.3092
  16.100   0.9883   0.19843   0.19320  -0.0787  0.0432  1.0000  -1.9349   0.0000   0.0000   0.0000   0.3105
  16.200   0.9883   0.20081   0.19559  -0.0800  0.0417  1.0000  -1.9164   0.0000   0.0000   0.0000   0.3117
  16.300   0.9886   0.20307   0.19784  -0.0811  0.0401  1.0000  -1.9050   0.0000   0.0000   0.0000   0.3127
  16.400   0.9890   0.20518   0.19995  -0.0821  0.0384  1.0000  -1.9014   0.0000   0.0000   0.0000   0.3135
  16.500   0.9897   0.20710   0.20186  -0.0830  0.0366  1.0000  -1.9081   0.0000   0.0000   0.0000   0.3142
  16.600   0.9908   0.20870   0.20345  -0.0836  0.0346  1.0000  -1.9317   0.0000   0.0000   0.0000   0.3145
  16.700   0.9934   0.20930   0.20403  -0.0835  0.0318  1.0000  -2.0111   0.0000   0.0000   0.0000   0.3140
  16.800   0.9968   0.20714   0.20182  -0.0808  0.0273  1.0000  -2.2609   0.0000   0.0000   0.0000   0.3105
  16.900   0.9940   0.21020   0.20488  -0.0815  0.0264  1.0000  -2.2308   0.0000   0.0000   0.0000   0.3114
  17.000   0.9907   0.21398   0.20867  -0.0826  0.0259  1.0000  -2.1660   0.0000   0.0000   0.0000   0.3127
  17.100   0.9872   0.21819   0.21288  -0.0839  0.0255  1.0000  -2.0836   0.0000   0.0000   0.0000   0.3142
  17.200   0.9834   0.22274   0.21745  -0.0852  0.0251  1.0000  -1.9886   0.0000   0.0000   0.0000   0.3158
  17.300   0.9833   0.22553   0.22018  -0.0864  0.0250  1.0000  -1.9552   0.0000   0.0000   0.0000   0.3169
  17.400   0.9846   0.22756   0.22220  -0.0875  0.0248  1.0000  -1.9464   0.0000   0.0000   0.0000   0.3179
  17.500   0.9866   0.22928   0.22393  -0.0888  0.0246  1.0000  -1.9456   0.0000   0.0000   0.0000   0.3188
  17.600   0.9899   0.23064   0.22528  -0.0900  0.0240  1.0000  -1.9572   0.0000   0.0000   0.0000   0.3196
  17.700   0.9932   0.23222   0.22686  -0.0911  0.0233  1.0000  -1.9653   0.0000   0.0000   0.0000   0.3202
  17.800   0.9958   0.23412   0.22876  -0.0920  0.0227  1.0000  -1.9646   0.0000   0.0000   0.0000   0.3208
  17.900   0.9979   0.23618   0.23081  -0.0929  0.0221  1.0000  -1.9594   0.0000   0.0000   0.0000   0.3214
  18.000   0.9996   0.23834   0.23298  -0.0938  0.0215  1.0000  -1.9507   0.0000   0.0000   0.0000   0.3220
  18.100   1.0010   0.24058   0.23522  -0.0948  0.0210  1.0000  -1.9394   0.0000   0.0000   0.0000   0.3227
  18.200   1.0023   0.24281   0.23745  -0.0956  0.0206  1.0000  -1.9296   0.0000   0.0000   0.0000   0.3233
  18.300   1.0035   0.24504   0.23968  -0.0965  0.0201  1.0000  -1.9210   0.0000   0.0000   0.0000   0.3239
  18.400   1.0046   0.24726   0.24190  -0.0973  0.0197  1.0000  -1.9139   0.0000   0.0000   0.0000   0.3244
  18.500   1.0057   0.24945   0.24410  -0.0981  0.0192  1.0000  -1.9088   0.0000   0.0000   0.0000   0.3250
  18.600   1.0068   0.25163   0.24627  -0.0989  0.0188  1.0000  -1.9055   0.0000   0.0000   0.0000   0.3255
  18.700   1.0079   0.25378   0.24843  -0.0996  0.0184  1.0000  -1.9043   0.0000   0.0000   0.0000   0.3259
  18.800   1.0090   0.25591   0.25055  -0.1003  0.0180  1.0000  -1.9053   0.0000   0.0000   0.0000   0.3264
  18.900   1.0101   0.25801   0.25265  -0.1009  0.0176  1.0000  -1.9088   0.0000   0.0000   0.0000   0.3267
  19.000   1.0112   0.26008   0.25472  -0.1016  0.0172  1.0000  -1.9151   0.0000   0.0000   0.0000   0.3271
  19.100   1.0123   0.26211   0.25675  -0.1022  0.0168  1.0000  -1.9244   0.0000   0.0000   0.0000   0.3274
  19.200   1.0135   0.26410   0.25875  -0.1027  0.0164  1.0000  -1.9373   0.0000   0.0000   0.0000   0.3276
  19.300   1.0147   0.26605   0.26069  -0.1032  0.0160  1.0000  -1.9546   0.0000   0.0000   0.0000   0.3278
  19.400   1.0159   0.26794   0.26258  -0.1036  0.0156  1.0000  -1.9776   0.0000   0.0000   0.0000   0.3279
  19.500   1.0172   0.26975   0.26439  -0.1040  0.0152  1.0000  -2.0075   0.0000   0.0000   0.0000   0.3279
  19.600   1.0186   0.27150   0.26613  -0.1042  0.0148  1.0000  -2.0450   0.0000   0.0000   0.0000   0.3278
  19.700   1.0197   0.27327   0.26790  -0.1044  0.0145  1.0000  -2.0828   0.0000   0.0000   0.0000   0.3277
  19.800   1.0208   0.27503   0.26965  -0.1045  0.0141  1.0000  -2.1279   0.0000   0.0000   0.0000   0.3275
  19.900   1.0215   0.27692   0.27153  -0.1043  0.0137  1.0000  -2.1754   0.0000   0.0000   0.0000   0.3270
  20.000   1.0207   0.27962   0.27423  -0.1047  0.0134  1.0000  -2.1677   0.0000   0.0000   0.0000   0.3273
  20.100   1.0185   0.28319   0.27782  -0.1050  0.0130  1.0000  -2.1191   0.0000   0.0000   0.0000   0.3277
  20.200   1.0132   0.28883   0.28340  -0.1054  0.0125  1.0000  -1.9719   0.0000   0.0000   0.0000   0.3286
  20.300   1.0137   0.29121   0.28579  -0.1060  0.0125  1.0000  -1.9575   0.0000   0.0000   0.0000   0.3291
  20.400   1.0142   0.29359   0.28817  -0.1066  0.0125  1.0000  -1.9435   0.0000   0.0000   0.0000   0.3295
  20.500   1.0146   0.29595   0.29054  -0.1072  0.0125  1.0000  -1.9296   0.0000   0.0000   0.0000   0.3298
  20.600   1.0150   0.29830   0.29290  -0.1078  0.0125  1.0000  -1.9160   0.0000   0.0000   0.0000   0.3302
  20.700   1.0153   0.30064   0.29525  -0.1084  0.0125  1.0000  -1.9026   0.0000   0.0000   0.0000   0.3306
  20.800   1.0155   0.30297   0.29759  -0.1089  0.0125  1.0000  -1.8894   0.0000   0.0000   0.0000   0.3309
  20.900   1.0157   0.30529   0.29991  -0.1094  0.0125  1.0000  -1.8763   0.0000   0.0000   0.0000   0.3313
  21.000   1.0158   0.30759   0.30222  -0.1099  0.0125  1.0000  -1.8634   0.0000   0.0000   0.0000   0.3316
  21.100   1.0158   0.30988   0.30452  -0.1104  0.0124  1.0000  -1.8506   0.0000   0.0000   0.0000   0.3320
  21.200   1.0157   0.31215   0.30680  -0.1109  0.0124  1.0000  -1.8379   0.0000   0.0000   0.0000   0.3323
  21.300   1.0155   0.31441   0.30906  -0.1114  0.0124  1.0000  -1.8252   0.0000   0.0000   0.0000   0.3326
  21.400   1.0152   0.31664   0.31130  -0.1118  0.0124  1.0000  -1.8126   0.0000   0.0000   0.0000   0.3329
  21.500   1.0148   0.31884   0.31352  -0.1122  0.0124  1.0000  -1.7999   0.0000   0.0000   0.0000   0.3332
  21.600   1.0142   0.32102   0.31571  -0.1126  0.0124  1.0000  -1.7873   0.0000   0.0000   0.0000   0.3335
  21.700   1.0135   0.32317   0.31787  -0.1129  0.0124  1.0000  -1.7746   0.0000   0.0000   0.0000   0.3338
  21.800   1.0127   0.32529   0.31999  -0.1133  0.0124  1.0000  -1.7618   0.0000   0.0000   0.0000   0.3340
  21.900   1.0116   0.32737   0.32208  -0.1135  0.0123  1.0000  -1.7489   0.0000   0.0000   0.0000   0.3343
  22.000   1.0104   0.32941   0.32413  -0.1138  0.0123  1.0000  -1.7358   0.0000   0.0000   0.0000   0.3345
  22.100   1.0089   0.33139   0.32612  -0.1140  0.0123  1.0000  -1.7224   0.0000   0.0000   0.0000   0.3348
  22.200   1.0071   0.33330   0.32804  -0.1142  0.0123  1.0000  -1.7086   0.0000   0.0000   0.0000   0.3350
  22.300   1.0050   0.33513   0.32989  -0.1143  0.0123  1.0000  -1.6943   0.0000   0.0000   0.0000   0.3352
  22.400   1.0024   0.33686   0.33164  -0.1143  0.0123  1.0000  -1.6795   0.0000   0.0000   0.0000   0.3354
  22.500   0.9993   0.33847   0.33325  -0.1142  0.0123  1.0000  -1.6638   0.0000   0.0000   0.0000   0.3355
  22.600   0.9955   0.33989   0.33470  -0.1140  0.0123  1.0000  -1.6470   0.0000   0.0000   0.0000   0.3357
  22.700   0.9901   0.34093   0.33576  -0.1136  0.0123  1.0000  -1.6273   0.0000   0.0000   0.0000   0.3357
  22.800   0.9304   0.32793   0.32288  -0.1042  0.0123  1.0000  -1.5067   0.0000   0.0000   0.0000   0.3337
  22.900   0.9213   0.32699   0.32197  -0.1031  0.0123  1.0000  -1.4804   0.0000   0.0000   0.0000   0.3336
  23.000   0.9141   0.32647   0.32148  -0.1023  0.0123  1.0000  -1.4577   0.0000   0.0000   0.0000   0.3335
  23.100   0.9080   0.32619   0.32122  -0.1017  0.0123  1.0000  -1.4372   0.0000   0.0000   0.0000   0.3336
  23.200   0.9026   0.32605   0.32110  -0.1012  0.0123  1.0000  -1.4183   0.0000   0.0000   0.0000   0.3336
  23.300   0.8977   0.32602   0.32109  -0.1008  0.0123  1.0000  -1.4006   0.0000   0.0000   0.0000   0.3337
  23.400   0.8933   0.32607   0.32116  -0.1004  0.0122  1.0000  -1.3837   0.0000   0.0000   0.0000   0.3338
  23.500   0.8893   0.32617   0.32128  -0.1002  0.0122  1.0000  -1.3675   0.0000   0.0000   0.0000   0.3339
  23.600   0.8855   0.32633   0.32145  -0.0999  0.0122  1.0000  -1.3521   0.0000   0.0000   0.0000   0.3340
  23.700   0.8820   0.32653   0.32167  -0.0997  0.0122  1.0000  -1.3372   0.0000   0.0000   0.0000   0.3341
  23.800   0.8787   0.32676   0.32192  -0.0996  0.0122  1.0000  -1.3228   0.0000   0.0000   0.0000   0.3342
  23.900   0.8755   0.32702   0.32219  -0.0994  0.0122  1.0000  -1.3088   0.0000   0.0000   0.0000   0.3344
  24.000   0.8726   0.32730   0.32248  -0.0993  0.0122  1.0000  -1.2953   0.0000   0.0000   0.0000   0.3345
  24.100   0.8697   0.32760   0.32280  -0.0992  0.0122  1.0000  -1.2822   0.0000   0.0000   0.0000   0.3347
  24.200   0.8671   0.32793   0.32315  -0.0991  0.0121  1.0000  -1.2695   0.0000   0.0000   0.0000   0.3348
  24.300   0.8646   0.32828   0.32351  -0.0991  0.0121  1.0000  -1.2571   0.0000   0.0000   0.0000   0.3350
  24.400   0.8622   0.32864   0.32389  -0.0991  0.0121  1.0000  -1.2452   0.0000   0.0000   0.0000   0.3351
  24.500   0.8599   0.32902   0.32428  -0.0991  0.0121  1.0000  -1.2335   0.0000   0.0000   0.0000   0.3353
  24.600   0.8576   0.32941   0.32468  -0.0991  0.0121  1.0000  -1.2212   0.0000   0.0000   0.0000   0.3355
  24.700   0.8554   0.32981   0.32509  -0.0991  0.0121  1.0000  -1.2085   0.0000   0.0000   0.0000   0.3357
  24.800   0.8533   0.33022   0.32552  -0.0992  0.0121  1.0000  -1.1962   0.0000   0.0000   0.0000   0.3359
  24.900   0.8513   0.33065   0.32596  -0.0992  0.0121  1.0000  -1.1842   0.0000   0.0000   0.0000   0.3362
  25.000   0.8494   0.33108   0.32641  -0.0993  0.0120  1.0000  -1.1726   0.0000   0.0000   0.0000   0.3364
  25.100   0.8476   0.33153   0.32687  -0.0994  0.0120  1.0000  -1.1613   0.0000   0.0000   0.0000   0.3366
  25.200   0.8458   0.33199   0.32734  -0.0995  0.0120  1.0000  -1.1502   0.0000   0.0000   0.0000   0.3368
  25.300   0.8441   0.33246   0.32782  -0.0995  0.0120  1.0000  -1.1395   0.0000   0.0000   0.0000   0.3370
  25.400   0.8425   0.33294   0.32832  -0.0997  0.0120  1.0000  -1.1290   0.0000   0.0000   0.0000   0.3372
  25.500   0.8410   0.33343   0.32882  -0.0998  0.0120  1.0000  -1.1188   0.0000   0.0000   0.0000   0.3374
  25.600   0.8395   0.33393   0.32933  -0.0999  0.0119  1.0000  -1.1088   0.0000   0.0000   0.0000   0.3376
  25.700   0.8381   0.33443   0.32984  -0.1000  0.0119  1.0000  -1.0991   0.0000   0.0000   0.0000   0.3379
  25.800   0.8367   0.33495   0.33037  -0.1002  0.0119  1.0000  -1.0896   0.0000   0.0000   0.0000   0.3381
  25.900   0.8354   0.33546   0.33090  -0.1003  0.0119  1.0000  -1.0804   0.0000   0.0000   0.0000   0.3383
  26.000   0.8341   0.33599   0.33144  -0.1004  0.0119  1.0000  -1.0713   0.0000   0.0000   0.0000   0.3385
  26.100   0.8329   0.33652   0.33198  -0.1006  0.0119  1.0000  -1.0625   0.0000   0.0000   0.0000   0.3387
  26.200   0.8317   0.33706   0.33253  -0.1007  0.0119  1.0000  -1.0539   0.0000   0.0000   0.0000   0.3389
  26.300   0.8306   0.33761   0.33309  -0.1009  0.0118  1.0000  -1.0455   0.0000   0.0000   0.0000   0.3391
  26.400   0.8295   0.33815   0.33365  -0.1011  0.0118  1.0000  -1.0372   0.0000   0.0000   0.0000   0.3393
  26.500   0.8284   0.33871   0.33422  -0.1013  0.0118  1.0000  -1.0292   0.0000   0.0000   0.0000   0.3395
  26.600   0.8274   0.33927   0.33479  -0.1014  0.0118  1.0000  -1.0213   0.0000   0.0000   0.0000   0.3397
  26.700   0.8264   0.33983   0.33536  -0.1016  0.0118  1.0000  -1.0136   0.0000   0.0000   0.0000   0.3399
  26.800   0.8255   0.34040   0.33594  -0.1018  0.0118  1.0000  -1.0061   0.0000   0.0000   0.0000   0.3401
  26.900   0.8246   0.34098   0.33653  -0.1020  0.0117  1.0000  -0.9987   0.0000   0.0000   0.0000   0.3403
  27.000   0.8237   0.34155   0.33712  -0.1022  0.0117  1.0000  -0.9915   0.0000   0.0000   0.0000   0.3405
  27.100   0.8228   0.34214   0.33771  -0.1024  0.0117  1.0000  -0.9844   0.0000   0.0000   0.0000   0.3407
  27.200   0.8220   0.34272   0.33831  -0.1026  0.0117  1.0000  -0.9775   0.0000   0.0000   0.0000   0.3409
  27.300   0.8212   0.34331   0.33891  -0.1028  0.0117  1.0000  -0.9707   0.0000   0.0000   0.0000   0.3411
  27.400   0.8204   0.34390   0.33951  -0.1030  0.0117  1.0000  -0.9641   0.0000   0.0000   0.0000   0.3413
  27.500   0.8197   0.34450   0.34012  -0.1032  0.0116  1.0000  -0.9576   0.0000   0.0000   0.0000   0.3415
  27.600   0.8190   0.34510   0.34073  -0.1034  0.0116  1.0000  -0.9512   0.0000   0.0000   0.0000   0.3417
  27.700   0.8183   0.34570   0.34134  -0.1036  0.0116  1.0000  -0.9450   0.0000   0.0000   0.0000   0.3419
  27.800   0.8176   0.34630   0.34196  -0.1038  0.0116  1.0000  -0.9389   0.0000   0.0000   0.0000   0.3421
  27.900   0.8169   0.34691   0.34258  -0.1040  0.0116  1.0000  -0.9329   0.0000   0.0000   0.0000   0.3422
  28.000   0.8163   0.34752   0.34320  -0.1043  0.0115  1.0000  -0.9270   0.0000   0.0000   0.0000   0.3424
  28.100   0.8157   0.34814   0.34382  -0.1045  0.0115  1.0000  -0.9212   0.0000   0.0000   0.0000   0.3426
  28.200   0.8151   0.34875   0.34445  -0.1047  0.0115  1.0000  -0.9156   0.0000   0.0000   0.0000   0.3428
  28.300   0.8145   0.34937   0.34508  -0.1050  0.0115  1.0000  -0.9101   0.0000   0.0000   0.0000   0.3430
  28.400   0.8139   0.34999   0.34571  -0.1052  0.0115  1.0000  -0.9046   0.0000   0.0000   0.0000   0.3432
  28.500   0.8134   0.35061   0.34634  -0.1054  0.0115  1.0000  -0.8993   0.0000   0.0000   0.0000   0.3434
  28.600   0.8128   0.35124   0.34698  -0.1057  0.0114  1.0000  -0.8941   0.0000   0.0000   0.0000   0.3436
  28.700   0.8123   0.35186   0.34761  -0.1059  0.0114  1.0000  -0.8889   0.0000   0.0000   0.0000   0.3437
  28.800   0.8118   0.35249   0.34825  -0.1061  0.0114  1.0000  -0.8839   0.0000   0.0000   0.0000   0.3439
  28.900   0.8113   0.35312   0.34889  -0.1064  0.0114  1.0000  -0.8790   0.0000   0.0000   0.0000   0.3441
  29.000   0.8108   0.35375   0.34954  -0.1066  0.0114  1.0000  -0.8741   0.0000   0.0000   0.0000   0.3443
  29.100   0.8104   0.35438   0.35018  -0.1069  0.0114  1.0000  -0.8693   0.0000   0.0000   0.0000   0.3445


