xflr5 v6.61

 Calculated polar for: NACA M19 AIRFOIL

 1 1 Reynolds number fixed          Mach number fixed         

 xtrf =   1.000 (top)        1.000 (bottom)
 Mach =   0.000     Re =     0.719 e 6     Ncrit =   9.000

  alpha     CL        CD       CDp       Cm    Top Xtr Bot Xtr   Cpmin    Chinge    XCp    
 ------- -------- --------- --------- -------- ------- ------- -------- --------- ---------
  -5.200  -0.1851   0.06557   0.06005  -0.0265  0.0329  0.0135  -1.7818   0.0000   0.0000   0.0000   0.1041
  -5.100  -0.1825   0.06458   0.05908  -0.0257  0.0328  0.0139  -1.6435   0.0000   0.0000   0.0000   0.1069
  -5.000  -0.1779   0.06385   0.05837  -0.0253  0.0327  0.0144  -1.5127   0.0000   0.0000   0.0000   0.1054
  -4.900  -0.1719   0.06322   0.05775  -0.0254  0.0327  0.0150  -1.3949   0.0000   0.0000   0.0000   0.1001
  -4.800  -0.1644   0.06259   0.05711  -0.0258  0.0326  0.0160  -1.2923   0.0000   0.0000   0.0000   0.0907
  -4.700  -0.1556   0.06191   0.05643  -0.0266  0.0326  0.0176  -1.2070   0.0000   0.0000   0.0000   0.0770
  -4.600  -0.1444   0.06138   0.05589  -0.0275  0.0326  0.0204  -1.1355   0.0000   0.0000   0.0000   0.0569
  -4.500  -0.1241   0.06270   0.05716  -0.0289  0.0327  0.0235  -1.0557   0.0000   0.0000   0.0000   0.0145
  -4.400  -0.1110   0.06195   0.05638  -0.0301  0.0327  0.0239  -1.0282   0.0000   0.0000   0.0000  -0.0242
  -4.300  -0.0990   0.06081   0.05520  -0.0312  0.0327  0.0241  -1.0100   0.0000   0.0000   0.0000  -0.0695
  -4.200  -0.0871   0.05953   0.05389  -0.0324  0.0327  0.0242  -0.9951   0.0000   0.0000   0.0000  -0.1262
  -4.100  -0.0758   0.05792   0.05225  -0.0335  0.0326  0.0242  -0.9896   0.0000   0.0000   0.0000  -0.1972
  -4.000  -0.0646   0.05613   0.05041  -0.0346  0.0326  0.0242  -0.9905   0.0000   0.0000   0.0000  -0.2921
  -3.900  -0.0535   0.05428   0.04853  -0.0357  0.0325  0.0241  -0.9936   0.0000   0.0000   0.0000  -0.4250
  -3.800  -0.0425   0.05233   0.04653  -0.0368  0.0325  0.0239  -1.0012   0.0000   0.0000   0.0000  -0.6258
  -3.700  -0.0318   0.05003   0.04418  -0.0378  0.0324  0.0236  -1.0209   0.0000   0.0000   0.0000  -0.9538
  -3.600  -0.0243   0.04548   0.03955  -0.0394  0.0321  0.0209  -1.1242   0.0000   0.0000   0.0000  -1.3952
  -3.500  -0.0069   0.04045   0.03434  -0.0412  0.0319  0.0164  -1.3717   0.0000   0.0000   0.0000  -5.8079
  -3.400   0.0072   0.03849   0.03228  -0.0419  0.0318  0.0169  -1.4237   0.0000   0.0000   0.0000   6.1766
  -3.300   0.0220   0.03996   0.03377  -0.0418  0.0319  0.0228  -1.2863   0.0000   0.0000   0.0000   2.1790
  -3.200   0.0367   0.04263   0.03646  -0.0415  0.0321  0.0247  -1.0888   0.0000   0.0000   0.0000   1.3971
  -3.100   0.0480   0.04211   0.03589  -0.0420  0.0322  0.0248  -1.0124   0.0000   0.0000   0.0000   1.1373
  -3.000   0.0587   0.04145   0.03519  -0.0424  0.0323  0.0248  -0.9363   0.0000   0.0000   0.0000   0.9833
  -2.900   0.0692   0.04077   0.03447  -0.0429  0.0324  0.0249  -0.9118   0.0000   0.0000   0.0000   0.8783
  -2.800   0.0796   0.04007   0.03374  -0.0433  0.0326  0.0249  -0.8995   0.0000   0.0000   0.0000   0.8014
  -2.700   0.0899   0.03938   0.03300  -0.0437  0.0328  0.0249  -0.8871   0.0000   0.0000   0.0000   0.7424
  -2.600   0.1003   0.03869   0.03228  -0.0441  0.0331  0.0249  -0.8747   0.0000   0.0000   0.0000   0.6955
  -2.500   0.1106   0.03801   0.03155  -0.0445  0.0336  0.0249  -0.8622   0.0000   0.0000   0.0000   0.6573
  -2.400   0.1209   0.03734   0.03084  -0.0449  0.0341  0.0249  -0.8497   0.0000   0.0000   0.0000   0.6255
  -2.300   0.1314   0.03673   0.03018  -0.0452  0.0347  0.0249  -0.8366   0.0000   0.0000   0.0000   0.5984
  -2.200   0.1418   0.03613   0.02954  -0.0456  0.0353  0.0249  -0.8236   0.0000   0.0000   0.0000   0.5751
  -2.100   0.1518   0.03617   0.02908  -0.0460  0.0418  0.0249  -0.8122   0.0000   0.0000   0.0000   0.5566
  -2.000   0.1622   0.03537   0.02832  -0.0463  0.0427  0.0249  -0.7995   0.0000   0.0000   0.0000   0.5387
  -1.900   0.1727   0.03456   0.02756  -0.0466  0.0434  0.0249  -0.7868   0.0000   0.0000   0.0000   0.5228
  -1.800   0.1832   0.03381   0.02683  -0.0469  0.0442  0.0249  -0.7742   0.0000   0.0000   0.0000   0.5088
  -1.700   0.1936   0.03311   0.02616  -0.0472  0.0449  0.0249  -0.7617   0.0000   0.0000   0.0000   0.4963
  -1.600   0.2041   0.03245   0.02551  -0.0475  0.0456  0.0249  -0.7493   0.0000   0.0000   0.0000   0.4850
  -1.500   0.2145   0.03182   0.02490  -0.0478  0.0463  0.0249  -0.7368   0.0000   0.0000   0.0000   0.4748
  -1.400   0.2250   0.03121   0.02430  -0.0481  0.0470  0.0249  -0.7243   0.0000   0.0000   0.0000   0.4655
  -1.300   0.2355   0.03063   0.02372  -0.0483  0.0476  0.0249  -0.7117   0.0000   0.0000   0.0000   0.4570
  -1.200   0.2460   0.03007   0.02316  -0.0486  0.0483  0.0248  -0.6990   0.0000   0.0000   0.0000   0.4492
  -1.100   0.2564   0.02953   0.02261  -0.0489  0.0489  0.0248  -0.7027   0.0000   0.0000   0.0000   0.4420
  -1.000   0.2669   0.02900   0.02206  -0.0491  0.0495  0.0248  -0.7103   0.0000   0.0000   0.0000   0.4353
  -0.900   0.2774   0.02847   0.02151  -0.0494  0.0516  0.0248  -0.7179   0.0000   0.0000   0.0000   0.4291
  -0.800   0.2880   0.02789   0.02091  -0.0496  0.0732  0.0248  -0.7261   0.0000   0.0000   0.0000   0.4232
  -0.700   0.2986   0.02738   0.02036  -0.0498  0.0738  0.0248  -0.7337   0.0000   0.0000   0.0000   0.4178
  -0.600   0.3091   0.02689   0.01983  -0.0500  0.0742  0.0248  -0.7414   0.0000   0.0000   0.0000   0.4127
  -0.500   0.3197   0.02641   0.01931  -0.0502  0.0745  0.0248  -0.7490   0.0000   0.0000   0.0000   0.4079
  -0.400   0.3303   0.02594   0.01879  -0.0504  0.0749  0.0248  -0.7567   0.0000   0.0000   0.0000   0.4033
  -0.300   0.3409   0.02547   0.01828  -0.0506  0.0777  0.0248  -0.7645   0.0000   0.0000   0.0000   0.3990
   0.200   0.3941   0.02327   0.01589  -0.0515  0.0946  0.0248  -0.8041   0.0000   0.0000   0.0000   0.3807
   0.300   0.4049   0.02283   0.01542  -0.0516  0.0981  0.0248  -0.8119   0.0000   0.0000   0.0000   0.3776
   0.400   0.4160   0.02226   0.01487  -0.0518  0.1139  0.0248  -0.8196   0.0000   0.0000   0.0000   0.3744
   0.500   0.4272   0.02164   0.01425  -0.0519  0.1422  0.0247  -0.8266   0.0000   0.0000   0.0000   0.3713
   0.600   0.4379   0.02126   0.01383  -0.0520  0.1426  0.0247  -0.8344   0.0000   0.0000   0.0000   0.3686
   0.700   0.4486   0.02088   0.01342  -0.0522  0.1430  0.0247  -0.8441   0.0000   0.0000   0.0000   0.3660
   0.800   0.4594   0.02052   0.01301  -0.0523  0.1435  0.0247  -0.8549   0.0000   0.0000   0.0000   0.3635
   0.900   0.4701   0.02016   0.01261  -0.0525  0.1451  0.0247  -0.8657   0.0000   0.0000   0.0000   0.3611
   1.000   0.4809   0.01980   0.01222  -0.0526  0.1467  0.0247  -0.8767   0.0000   0.0000   0.0000   0.3588
   1.100   0.4916   0.01946   0.01184  -0.0527  0.1482  0.0247  -0.8876   0.0000   0.0000   0.0000   0.3565
   1.200   0.5024   0.01912   0.01147  -0.0528  0.1497  0.0247  -0.8987   0.0000   0.0000   0.0000   0.3544
   1.300   0.5132   0.01880   0.01111  -0.0530  0.1539  0.0247  -0.9098   0.0000   0.0000   0.0000   0.3523
   1.400   0.5240   0.01847   0.01075  -0.0531  0.1606  0.0247  -0.9215   0.0000   0.0000   0.0000   0.3503
   1.500   0.5388   0.01689   0.00998  -0.0531  0.2903  0.0248  -0.9409   0.0000   0.0000   0.0000   0.3474
   1.600   0.5498   0.01653   0.00963  -0.0532  0.2972  0.0248  -0.9521   0.0000   0.0000   0.0000   0.3456
   1.700   0.5609   0.01618   0.00930  -0.0533  0.3141  0.0248  -0.9635   0.0000   0.0000   0.0000   0.3438
   1.800   0.5723   0.01572   0.00895  -0.0534  0.3417  0.0248  -0.9752   0.0000   0.0000   0.0000   0.3420
   1.900   0.5840   0.01523   0.00857  -0.0535  0.3653  0.0248  -0.9869   0.0000   0.0000   0.0000   0.3402
   2.000   0.5954   0.01484   0.00825  -0.0537  0.3788  0.0248  -0.9984   0.0000   0.0000   0.0000   0.3386
   2.100   0.6065   0.01453   0.00795  -0.0538  0.3851  0.0248  -1.0098   0.0000   0.0000   0.0000   0.3371
   2.200   0.6175   0.01426   0.00768  -0.0539  0.3886  0.0249  -1.0211   0.0000   0.0000   0.0000   0.3356
   2.300   0.6284   0.01400   0.00741  -0.0540  0.3910  0.0249  -1.0325   0.0000   0.0000   0.0000   0.3342
   2.400   0.6394   0.01376   0.00715  -0.0542  0.3927  0.0249  -1.0440   0.0000   0.0000   0.0000   0.3328
   2.500   0.6503   0.01353   0.00691  -0.0543  0.3940  0.0249  -1.0554   0.0000   0.0000   0.0000   0.3315
   2.600   0.6612   0.01331   0.00668  -0.0544  0.3952  0.0249  -1.0669   0.0000   0.0000   0.0000   0.3303
   2.700   0.6722   0.01310   0.00645  -0.0545  0.3966  0.0249  -1.0783   0.0000   0.0000   0.0000   0.3290
   2.800   0.6831   0.01289   0.00624  -0.0547  0.3979  0.0249  -1.0897   0.0000   0.0000   0.0000   0.3278
   2.900   0.6940   0.01271   0.00604  -0.0548  0.3987  0.0249  -1.1010   0.0000   0.0000   0.0000   0.3266
   3.000   0.7049   0.01253   0.00585  -0.0549  0.3992  0.0249  -1.1123   0.0000   0.0000   0.0000   0.3255
   3.100   0.7157   0.01237   0.00567  -0.0551  0.3992  0.0250  -1.1236   0.0000   0.0000   0.0000   0.3244
   3.200   0.7265   0.01221   0.00549  -0.0552  0.3991  0.0250  -1.1353   0.0000   0.0000   0.0000   0.3234
   3.300   0.7374   0.01205   0.00531  -0.0553  0.3989  0.0250  -1.1470   0.0000   0.0000   0.0000   0.3223
   3.400   0.7482   0.01190   0.00515  -0.0554  0.3987  0.0250  -1.1587   0.0000   0.0000   0.0000   0.3213
   3.500   0.7590   0.01176   0.00499  -0.0556  0.3986  0.0250  -1.1704   0.0000   0.0000   0.0000   0.3203
   3.600   0.7698   0.01162   0.00484  -0.0557  0.3984  0.0250  -1.1822   0.0000   0.0000   0.0000   0.3193
   3.700   0.7806   0.01149   0.00469  -0.0558  0.3982  0.0250  -1.1940   0.0000   0.0000   0.0000   0.3184
   3.800   0.7914   0.01136   0.00455  -0.0559  0.3980  0.0250  -1.2059   0.0000   0.0000   0.0000   0.3175
   3.900   0.8022   0.01124   0.00442  -0.0561  0.3978  0.0251  -1.2177   0.0000   0.0000   0.0000   0.3166
   4.000   0.8130   0.01112   0.00430  -0.0562  0.3976  0.0251  -1.2296   0.0000   0.0000   0.0000   0.3157
   4.100   0.8237   0.01101   0.00418  -0.0563  0.3973  0.0251  -1.2415   0.0000   0.0000   0.0000   0.3149
   7.900   1.1358   0.02814   0.02007  -0.0466  0.0125  0.0748  -2.6597   0.0000   0.0000   0.0000   0.2825
   8.000   1.1445   0.02905   0.02101  -0.0461  0.0124  0.0744  -2.7233   0.0000   0.0000   0.0000   0.2817
   8.100   1.1531   0.02999   0.02200  -0.0456  0.0124  0.0740  -2.7862   0.0000   0.0000   0.0000   0.2808
   8.200   1.1617   0.03097   0.02303  -0.0452  0.0124  0.0737  -2.8482   0.0000   0.0000   0.0000   0.2800
   8.300   1.1700   0.03199   0.02411  -0.0447  0.0123  0.0739  -2.9090   0.0000   0.0000   0.0000   0.2791
   8.400   1.1782   0.03304   0.02523  -0.0442  0.0123  0.0747  -2.9683   0.0000   0.0000   0.0000   0.2783
   8.500   1.1855   0.03347   0.02644  -0.0440  0.0122  0.6331  -3.0219   0.0000   0.0000   0.0000   0.2777
   8.600   1.1954   0.03398   0.02779  -0.0438  0.0122  1.0000  -3.0854   0.0000   0.0000   0.0000   0.2771
   8.700   1.2024   0.03513   0.02901  -0.0433  0.0122  1.0000  -3.1389   0.0000   0.0000   0.0000   0.2763
   8.800   1.2090   0.03631   0.03025  -0.0427  0.0121  1.0000  -3.1905   0.0000   0.0000   0.0000   0.2755
   8.900   1.2152   0.03752   0.03153  -0.0421  0.0121  1.0000  -3.2399   0.0000   0.0000   0.0000   0.2746
   9.000   1.2209   0.03875   0.03283  -0.0414  0.0121  1.0000  -3.2872   0.0000   0.0000   0.0000   0.2738
   9.100   1.2262   0.04000   0.03415  -0.0408  0.0120  1.0000  -3.3322   0.0000   0.0000   0.0000   0.2730
   9.200   1.2309   0.04127   0.03549  -0.0401  0.0120  1.0000  -3.3750   0.0000   0.0000   0.0000   0.2721
   9.300   1.2352   0.04255   0.03686  -0.0394  0.0120  1.0000  -3.4171   0.0000   0.0000   0.0000   0.2713
   9.400   1.2389   0.04386   0.03824  -0.0386  0.0119  1.0000  -3.4574   0.0000   0.0000   0.0000   0.2705
   9.500   1.2422   0.04517   0.03963  -0.0379  0.0119  1.0000  -3.4953   0.0000   0.0000   0.0000   0.2696
   9.600   1.2448   0.04650   0.04103  -0.0371  0.0119  1.0000  -3.5307   0.0000   0.0000   0.0000   0.2688
   9.700   1.2470   0.04783   0.04245  -0.0363  0.0118  1.0000  -3.5639   0.0000   0.0000   0.0000   0.2679
   9.800   1.2488   0.04918   0.04387  -0.0355  0.0118  1.0000  -3.5952   0.0000   0.0000   0.0000   0.2671
   9.900   1.2501   0.05053   0.04530  -0.0347  0.0118  1.0000  -3.6241   0.0000   0.0000   0.0000   0.2663
  10.000   1.2507   0.05188   0.04672  -0.0339  0.0118  1.0000  -3.6502   0.0000   0.0000   0.0000   0.2655
  10.100   1.2506   0.05323   0.04814  -0.0330  0.0118  1.0000  -3.6733   0.0000   0.0000   0.0000   0.2646
  10.200   1.2497   0.05456   0.04954  -0.0321  0.0117  1.0000  -3.6935   0.0000   0.0000   0.0000   0.2638
  10.300   1.2480   0.05587   0.05092  -0.0312  0.0117  1.0000  -3.7103   0.0000   0.0000   0.0000   0.2629
  10.400   1.2448   0.05708   0.05220  -0.0301  0.0117  1.0000  -3.7223   0.0000   0.0000   0.0000   0.2620
  10.500   1.2402   0.05822   0.05340  -0.0289  0.0117  1.0000  -3.7295   0.0000   0.0000   0.0000   0.2609
  10.600   1.2348   0.05936   0.05461  -0.0278  0.0117  1.0000  -3.7335   0.0000   0.0000   0.0000   0.2600
  10.700   1.2294   0.06059   0.05589  -0.0270  0.0117  1.0000  -3.7362   0.0000   0.0000   0.0000   0.2593
  10.800   1.2243   0.06189   0.05725  -0.0263  0.0117  1.0000  -3.7392   0.0000   0.0000   0.0000   0.2586
  10.900   1.2192   0.06324   0.05867  -0.0257  0.0117  1.0000  -3.7413   0.0000   0.0000   0.0000   0.2581
  11.000   1.2126   0.06460   0.06008  -0.0253  0.0117  1.0000  -3.7377   0.0000   0.0000   0.0000   0.2576
  11.100   1.2061   0.06599   0.06153  -0.0249  0.0116  1.0000  -3.7339   0.0000   0.0000   0.0000   0.2573
  11.200   1.2002   0.06747   0.06307  -0.0246  0.0116  1.0000  -3.7313   0.0000   0.0000   0.0000   0.2569
  11.300   1.1946   0.06901   0.06467  -0.0243  0.0116  1.0000  -3.7286   0.0000   0.0000   0.0000   0.2567
  11.400   1.1888   0.07061   0.06633  -0.0242  0.0116  1.0000  -3.7250   0.0000   0.0000   0.0000   0.2565
  11.500   1.1816   0.07230   0.06808  -0.0243  0.0116  1.0000  -3.7150   0.0000   0.0000   0.0000   0.2566
  11.600   1.1744   0.07405   0.06989  -0.0246  0.0116  1.0000  -3.7040   0.0000   0.0000   0.0000   0.2567
  11.700   1.1680   0.07583   0.07173  -0.0248  0.0116  1.0000  -3.6952   0.0000   0.0000   0.0000   0.2568
  11.800   1.1618   0.07764   0.07359  -0.0250  0.0116  1.0000  -3.6867   0.0000   0.0000   0.0000   0.2570
  11.900   1.1556   0.07948   0.07548  -0.0253  0.0116  1.0000  -3.6773   0.0000   0.0000   0.0000   0.2572
  12.000   1.1490   0.08130   0.07736  -0.0256  0.0116  1.0000  -3.6659   0.0000   0.0000   0.0000   0.2574
  12.100   1.1406   0.08320   0.07932  -0.0261  0.0116  1.0000  -3.6472   0.0000   0.0000   0.0000   0.2578
  12.200   1.1318   0.08524   0.08141  -0.0268  0.0116  1.0000  -3.6253   0.0000   0.0000   0.0000   0.2584
  12.300   1.1246   0.08729   0.08351  -0.0274  0.0116  1.0000  -3.6085   0.0000   0.0000   0.0000   0.2590
  12.400   1.1180   0.08937   0.08564  -0.0281  0.0116  1.0000  -3.5934   0.0000   0.0000   0.0000   0.2595
  12.500   1.1117   0.09149   0.08781  -0.0288  0.0116  1.0000  -3.5780   0.0000   0.0000   0.0000   0.2601
  12.600   1.1054   0.09365   0.09003  -0.0295  0.0116  1.0000  -3.5615   0.0000   0.0000   0.0000   0.2608
  12.700   1.0989   0.09588   0.09231  -0.0304  0.0116  1.0000  -3.5431   0.0000   0.0000   0.0000   0.2615
  12.800   1.0916   0.09823   0.09471  -0.0314  0.0116  1.0000  -3.5201   0.0000   0.0000   0.0000   0.2625
  12.900   1.0819   0.10090   0.09743  -0.0330  0.0116  1.0000  -3.4848   0.0000   0.0000   0.0000   0.2641
  13.000   1.0746   0.10340   0.09998  -0.0342  0.0116  1.0000  -3.4588   0.0000   0.0000   0.0000   0.2653
  13.100   1.0684   0.10584   0.10246  -0.0354  0.0116  1.0000  -3.4362   0.0000   0.0000   0.0000   0.2664
  13.200   1.0627   0.10830   0.10497  -0.0365  0.0116  1.0000  -3.4140   0.0000   0.0000   0.0000   0.2675
  13.300   1.0571   0.11079   0.10751  -0.0377  0.0116  1.0000  -3.3910   0.0000   0.0000   0.0000   0.2687
  13.400   1.0515   0.11336   0.11012  -0.0390  0.0116  1.0000  -3.3661   0.0000   0.0000   0.0000   0.2700
  13.500   1.0457   0.11601   0.11282  -0.0404  0.0116  1.0000  -3.3386   0.0000   0.0000   0.0000   0.2714
  13.600   1.0383   0.11900   0.11586  -0.0423  0.0116  1.0000  -3.3004   0.0000   0.0000   0.0000   0.2733
  13.700   1.0299   0.12230   0.11920  -0.0446  0.0116  1.0000  -3.2538   0.0000   0.0000   0.0000   0.2757
  13.800   1.0245   0.12522   0.12216  -0.0462  0.0116  1.0000  -3.2209   0.0000   0.0000   0.0000   0.2775
  13.900   1.0201   0.12800   0.12498  -0.0478  0.0116  1.0000  -3.1911   0.0000   0.0000   0.0000   0.2790
  14.000   1.0160   0.13076   0.12777  -0.0492  0.0116  1.0000  -3.1613   0.0000   0.0000   0.0000   0.2805
  14.100   1.0120   0.13352   0.13057  -0.0507  0.0116  1.0000  -3.1303   0.0000   0.0000   0.0000   0.2821
  14.200   1.0082   0.13632   0.13341  -0.0522  0.0116  1.0000  -3.0972   0.0000   0.0000   0.0000   0.2836
  14.300   1.0044   0.13921   0.13634  -0.0538  0.0116  1.0000  -3.0609   0.0000   0.0000   0.0000   0.2853
  14.400   1.0005   0.14215   0.13932  -0.0555  0.0116  1.0000  -3.0201   0.0000   0.0000   0.0000   0.2871
  14.500   0.9941   0.14587   0.14308  -0.0581  0.0116  1.0000  -2.9545   0.0000   0.0000   0.0000   0.2901
  14.600   0.9902   0.14903   0.14625  -0.0601  0.0116  1.0000  -2.9042   0.0000   0.0000   0.0000   0.2922
  14.700   0.9875   0.15194   0.14920  -0.0617  0.0116  1.0000  -2.8600   0.0000   0.0000   0.0000   0.2940
  14.800   0.9852   0.15483   0.15210  -0.0633  0.0116  1.0000  -2.8164   0.0000   0.0000   0.0000   0.2956
  14.900   0.9833   0.15774   0.15504  -0.0648  0.0116  1.0000  -2.7715   0.0000   0.0000   0.0000   0.2972
  15.000   0.9817   0.16075   0.15808  -0.0663  0.0116  1.0000  -2.7242   0.0000   0.0000   0.0000   0.2988
  15.100   0.9800   0.16414   0.16148  -0.0680  0.0116  1.0000  -2.6662   0.0000   0.0000   0.0000   0.3006
  15.200   0.9790   0.16776   0.16512  -0.0697  0.0116  1.0000  -2.5999   0.0000   0.0000   0.0000   0.3024
  15.300   0.9786   0.17102   0.16839  -0.0711  0.0116  1.0000  -2.5456   0.0000   0.0000   0.0000   0.3038
  15.400   0.9784   0.17402   0.17139  -0.0724  0.0116  1.0000  -2.5009   0.0000   0.0000   0.0000   0.3051
  15.500   0.9783   0.17686   0.17424  -0.0736  0.0116  1.0000  -2.4617   0.0000   0.0000   0.0000   0.3063
  15.600   0.9784   0.17960   0.17698  -0.0747  0.0116  1.0000  -2.4263   0.0000   0.0000   0.0000   0.3074
  15.700   0.9785   0.18228   0.17966  -0.0758  0.0116  1.0000  -2.3937   0.0000   0.0000   0.0000   0.3084
  15.800   0.9790   0.18599   0.18222  -0.0773  0.0115  0.4407  -2.3593   0.0000   0.0000   0.0000   0.3097
  16.100   0.9796   0.19365   0.18954  -0.0801  0.0115  0.0509  -2.2783   0.0000   0.0000   0.0000   0.3122
  16.200   0.9802   0.19614   0.19201  -0.0810  0.0115  0.0499  -2.2544   0.0000   0.0000   0.0000   0.3131
  16.300   0.9809   0.19863   0.19447  -0.0820  0.0115  0.0496  -2.2307   0.0000   0.0000   0.0000   0.3139
  16.400   0.9816   0.20110   0.19691  -0.0830  0.0114  0.0494  -2.2078   0.0000   0.0000   0.0000   0.3147
  16.500   0.9823   0.20355   0.19934  -0.0839  0.0114  0.0492  -2.1858   0.0000   0.0000   0.0000   0.3155
  16.600   0.9831   0.20599   0.20175  -0.0848  0.0114  0.0490  -2.1648   0.0000   0.0000   0.0000   0.3163
  16.700   0.9839   0.20842   0.20414  -0.0857  0.0114  0.0488  -2.1446   0.0000   0.0000   0.0000   0.3170
  16.800   0.9847   0.21083   0.20651  -0.0866  0.0114  0.0485  -2.1251   0.0000   0.0000   0.0000   0.3177
  19.100   1.0117   0.26412   0.26003  -0.1044  0.0109  0.0367  -1.8243   0.0000   0.0000   0.0000   0.3297
  19.200   1.0129   0.26642   0.26233  -0.1051  0.0109  0.0366  -1.8143   0.0000   0.0000   0.0000   0.3302
  19.300   1.0139   0.26871   0.26464  -0.1058  0.0109  0.0366  -1.8045   0.0000   0.0000   0.0000   0.3306
  19.400   1.0150   0.27101   0.26694  -0.1065  0.0108  0.0366  -1.7950   0.0000   0.0000   0.0000   0.3310
  19.500   1.0161   0.27331   0.26924  -0.1071  0.0108  0.0366  -1.7856   0.0000   0.0000   0.0000   0.3313
  19.600   1.0171   0.27561   0.27155  -0.1078  0.0108  0.0366  -1.7765   0.0000   0.0000   0.0000   0.3317
  19.700   1.0181   0.27790   0.27385  -0.1084  0.0108  0.0366  -1.7675   0.0000   0.0000   0.0000   0.3321
  19.800   1.0191   0.28020   0.27615  -0.1090  0.0107  0.0366  -1.7587   0.0000   0.0000   0.0000   0.3325
  19.900   1.0201   0.28249   0.27845  -0.1097  0.0107  0.0366  -1.7501   0.0000   0.0000   0.0000   0.3328
  20.000   1.0210   0.28479   0.28075  -0.1103  0.0107  0.0367  -1.7416   0.0000   0.0000   0.0000   0.3332
  20.100   1.0219   0.28708   0.28305  -0.1109  0.0107  0.0367  -1.7332   0.0000   0.0000   0.0000   0.3335
  20.200   1.0228   0.28938   0.28535  -0.1115  0.0107  0.0368  -1.7249   0.0000   0.0000   0.0000   0.3338
  20.300   1.0236   0.29167   0.28765  -0.1121  0.0106  0.0368  -1.7168   0.0000   0.0000   0.0000   0.3341
  20.400   1.0244   0.29396   0.28995  -0.1126  0.0106  0.0369  -1.7087   0.0000   0.0000   0.0000   0.3345
  20.500   1.0251   0.29625   0.29224  -0.1132  0.0106  0.0370  -1.7008   0.0000   0.0000   0.0000   0.3348
  23.600   0.9155   0.33351   0.33118  -0.1073  0.0100  1.0000  -1.2664   0.0000   0.0000   0.0000   0.3380
  23.700   0.9104   0.33338   0.33106  -0.1068  0.0100  1.0000  -1.2511   0.0000   0.0000   0.0000   0.3380
  23.800   0.9057   0.33335   0.33104  -0.1064  0.0100  1.0000  -1.2367   0.0000   0.0000   0.0000   0.3381
  23.900   0.9015   0.33339   0.33109  -0.1060  0.0100  1.0000  -1.2232   0.0000   0.0000   0.0000   0.3381
  24.000   0.8976   0.33349   0.33120  -0.1057  0.0099  1.0000  -1.2105   0.0000   0.0000   0.0000   0.3382
  24.100   0.8939   0.33364   0.33136  -0.1054  0.0099  1.0000  -1.1983   0.0000   0.0000   0.0000   0.3382
  24.200   0.8905   0.33382   0.33155  -0.1052  0.0099  1.0000  -1.1866   0.0000   0.0000   0.0000   0.3383
  24.300   0.8873   0.33403   0.33177  -0.1050  0.0099  1.0000  -1.1755   0.0000   0.0000   0.0000   0.3384
  24.400   0.8842   0.33428   0.33202  -0.1048  0.0099  1.0000  -1.1647   0.0000   0.0000   0.0000   0.3385
  24.500   0.8814   0.33455   0.33229  -0.1046  0.0098  1.0000  -1.1543   0.0000   0.0000   0.0000   0.3386
  24.600   0.8787   0.33484   0.33260  -0.1045  0.0098  1.0000  -1.1443   0.0000   0.0000   0.0000   0.3387
  24.700   0.8761   0.33516   0.33292  -0.1044  0.0098  1.0000  -1.1347   0.0000   0.0000   0.0000   0.3388
  24.800   0.8736   0.33549   0.33326  -0.1043  0.0098  1.0000  -1.1253   0.0000   0.0000   0.0000   0.3389
  24.900   0.8713   0.33585   0.33362  -0.1042  0.0098  1.0000  -1.1162   0.0000   0.0000   0.0000   0.3390
  25.000   0.8691   0.33622   0.33400  -0.1042  0.0097  1.0000  -1.1074   0.0000   0.0000   0.0000   0.3391
  25.100   0.8669   0.33660   0.33439  -0.1041  0.0097  1.0000  -1.0989   0.0000   0.0000   0.0000   0.3392
  25.200   0.8649   0.33699   0.33479  -0.1041  0.0097  1.0000  -1.0905   0.0000   0.0000   0.0000   0.3393
  25.300   0.8629   0.33740   0.33520  -0.1041  0.0097  1.0000  -1.0825   0.0000   0.0000   0.0000   0.3394
  25.400   0.8611   0.33782   0.33563  -0.1041  0.0096  1.0000  -1.0746   0.0000   0.0000   0.0000   0.3396
  25.500   0.8592   0.33825   0.33606  -0.1041  0.0096  1.0000  -1.0669   0.0000   0.0000   0.0000   0.3397
  25.600   0.8575   0.33869   0.33651  -0.1041  0.0096  1.0000  -1.0594   0.0000   0.0000   0.0000   0.3398
  25.700   0.8558   0.33914   0.33696  -0.1041  0.0096  1.0000  -1.0521   0.0000   0.0000   0.0000   0.3399
  25.800   0.8542   0.33960   0.33743  -0.1042  0.0096  1.0000  -1.0449   0.0000   0.0000   0.0000   0.3401
  25.900   0.8527   0.34006   0.33790  -0.1042  0.0095  1.0000  -1.0380   0.0000   0.0000   0.0000   0.3402
  26.000   0.8512   0.34053   0.33838  -0.1043  0.0095  1.0000  -1.0312   0.0000   0.0000   0.0000   0.3403
  26.100   0.8497   0.34101   0.33886  -0.1043  0.0095  1.0000  -1.0245   0.0000   0.0000   0.0000   0.3405
  26.200   0.8483   0.34150   0.33935  -0.1044  0.0095  1.0000  -1.0180   0.0000   0.0000   0.0000   0.3406
  26.300   0.8470   0.34199   0.33985  -0.1045  0.0095  1.0000  -1.0116   0.0000   0.0000   0.0000   0.3407
  26.400   0.8457   0.34249   0.34036  -0.1046  0.0094  1.0000  -1.0053   0.0000   0.0000   0.0000   0.3409
  26.500   0.8444   0.34300   0.34087  -0.1047  0.0094  1.0000  -0.9992   0.0000   0.0000   0.0000   0.3410
  26.600   0.8432   0.34351   0.34138  -0.1048  0.0094  1.0000  -0.9932   0.0000   0.0000   0.0000   0.3411
  26.700   0.8420   0.34402   0.34190  -0.1049  0.0094  1.0000  -0.9874   0.0000   0.0000   0.0000   0.3413
  26.800   0.8408   0.34454   0.34243  -0.1050  0.0093  1.0000  -0.9816   0.0000   0.0000   0.0000   0.3414
  26.900   0.8397   0.34507   0.34296  -0.1051  0.0093  1.0000  -0.9760   0.0000   0.0000   0.0000   0.3416
  27.000   0.8386   0.34560   0.34350  -0.1052  0.0093  1.0000  -0.9705   0.0000   0.0000   0.0000   0.3417
  27.100   0.8376   0.34613   0.34403  -0.1054  0.0093  1.0000  -0.9650   0.0000   0.0000   0.0000   0.3419
  27.200   0.8366   0.34667   0.34458  -0.1055  0.0093  1.0000  -0.9597   0.0000   0.0000   0.0000   0.3420
  27.300   0.8356   0.34721   0.34513  -0.1057  0.0092  1.0000  -0.9545   0.0000   0.0000   0.0000   0.3422
  27.400   0.8346   0.34776   0.34568  -0.1058  0.0092  1.0000  -0.9494   0.0000   0.0000   0.0000   0.3423
  27.500   0.8337   0.34831   0.34623  -0.1060  0.0092  1.0000  -0.9443   0.0000   0.0000   0.0000   0.3425
  27.600   0.8328   0.34886   0.34679  -0.1061  0.0092  1.0000  -0.9394   0.0000   0.0000   0.0000   0.3426
  27.700   0.8319   0.34942   0.34735  -0.1063  0.0092  1.0000  -0.9345   0.0000   0.0000   0.0000   0.3428
  27.800   0.8310   0.34998   0.34792  -0.1064  0.0091  1.0000  -0.9298   0.0000   0.0000   0.0000   0.3429
  27.900   0.8302   0.35054   0.34849  -0.1066  0.0091  1.0000  -0.9251   0.0000   0.0000   0.0000   0.3431
  28.000   0.8294   0.35111   0.34906  -0.1068  0.0091  1.0000  -0.9205   0.0000   0.0000   0.0000   0.3432
  28.100   0.8286   0.35168   0.34963  -0.1070  0.0091  1.0000  -0.9159   0.0000   0.0000   0.0000   0.3434
  28.200   0.8278   0.35225   0.35021  -0.1071  0.0090  1.0000  -0.9115   0.0000   0.0000   0.0000   0.3435
  28.300   0.8270   0.35282   0.35079  -0.1073  0.0090  1.0000  -0.9071   0.0000   0.0000   0.0000   0.3437
  28.400   0.8263   0.35340   0.35137  -0.1075  0.0090  1.0000  -0.9028   0.0000   0.0000   0.0000   0.3438
  28.500   0.8256   0.35398   0.35196  -0.1077  0.0090  1.0000  -0.8985   0.0000   0.0000   0.0000   0.3440
  28.600   0.8249   0.35456   0.35254  -0.1079  0.0090  1.0000  -0.8944   0.0000   0.0000   0.0000   0.3442
  28.700   0.8242   0.35515   0.35313  -0.1081  0.0089  1.0000  -0.8903   0.0000   0.0000   0.0000   0.3443
  28.800   0.8235   0.35573   0.35373  -0.1083  0.0089  1.0000  -0.8862   0.0000   0.0000   0.0000   0.3445
  28.900   0.8229   0.35632   0.35432  -0.1085  0.0089  1.0000  -0.8823   0.0000   0.0000   0.0000   0.3446
  29.000   0.8222   0.35691   0.35492  -0.1087  0.0089  1.0000  -0.8783   0.0000   0.0000   0.0000   0.3448
  29.100   0.8208   0.35770   0.35575  -0.1089  0.0096  1.0000  -0.8437   0.0000   0.0000   0.0000   0.3451
  29.200   0.8196   0.35839   0.35642  -0.1091  0.0099  1.0000  -0.8402   0.0000   0.0000   0.0000   0.3454
  29.300   0.8188   0.35902   0.35705  -0.1093  0.0100  1.0000  -0.8368   0.0000   0.0000   0.0000   0.3456
  29.400   0.8180   0.35965   0.35767  -0.1095  0.0101  1.0000  -0.8333   0.0000   0.0000   0.0000   0.3457
  29.500   0.8174   0.36026   0.35829  -0.1097  0.0101  1.0000  -0.8297   0.0000   0.0000   0.0000   0.3459
  29.600   0.8168   0.36088   0.35890  -0.1100  0.0101  1.0000  -0.8260   0.0000   0.0000   0.0000   0.3461
  29.700   0.8163   0.36149   0.35952  -0.1102  0.0100  1.0000  -0.8224   0.0000   0.0000   0.0000   0.3462
  29.800   0.8158   0.36210   0.36013  -0.1104  0.0100  1.0000  -0.8188   0.0000   0.0000   0.0000   0.3464
  29.900   0.8153   0.36271   0.36074  -0.1107  0.0099  1.0000  -0.8153   0.0000   0.0000   0.0000   0.3465
  30.000   0.8149   0.36332   0.36135  -0.1109  0.0098  1.0000  -0.8118   0.0000   0.0000   0.0000   0.3467


