xflr5 v6.61

 Calculated polar for: NACA65-012

 1 1 Reynolds number fixed          Mach number fixed         

 xtrf =   1.000 (top)        1.000 (bottom)
 Mach =   0.000     Re =     0.688 e 6     Ncrit =   9.000

  alpha     CL        CD       CDp       Cm    Top Xtr Bot Xtr   Cpmin    Chinge    XCp    
 ------- -------- --------- --------- -------- ------- ------- -------- --------- ---------
 -10.000  -0.9706   0.03096   0.02657  -0.0127  1.0000  0.0128  -6.5615   0.0000   0.0000   0.0000   0.2274
  -9.900  -0.9666   0.02976   0.02523  -0.0121  1.0000  0.0129  -6.5402   0.0000   0.0000   0.0000   0.2280
  -9.800  -0.9616   0.02871   0.02405  -0.0116  1.0000  0.0130  -6.5041   0.0000   0.0000   0.0000   0.2286
  -9.700  -0.9556   0.02780   0.02302  -0.0111  1.0000  0.0131  -6.4543   0.0000   0.0000   0.0000   0.2291
  -9.600  -0.9490   0.02704   0.02215  -0.0107  1.0000  0.0132  -6.3915   0.0000   0.0000   0.0000   0.2296
  -9.500  -0.9414   0.02653   0.02155  -0.0104  1.0000  0.0133  -6.3079   0.0000   0.0000   0.0000   0.2299
  -9.400  -0.9332   0.02627   0.02123  -0.0102  1.0000  0.0135  -6.2045   0.0000   0.0000   0.0000   0.2302
  -9.300  -0.9282   0.02484   0.01961  -0.0096  1.0000  0.0137  -6.1876   0.0000   0.0000   0.0000   0.2308
  -9.200  -0.9223   0.02329   0.01796  -0.0093  1.0000  0.0141  -6.1514   0.0000   0.0000   0.0000   0.2312
  -9.100  -0.9139   0.02281   0.01746  -0.0092  1.0000  0.0143  -6.0407   0.0000   0.0000   0.0000   0.2313
  -9.000  -0.9050   0.02248   0.01711  -0.0091  1.0000  0.0146  -5.9224   0.0000   0.0000   0.0000   0.2314
  -8.900  -0.8961   0.02217   0.01678  -0.0090  1.0000  0.0148  -5.8060   0.0000   0.0000   0.0000   0.2315
  -8.800  -0.8870   0.02183   0.01640  -0.0090  1.0000  0.0150  -5.6951   0.0000   0.0000   0.0000   0.2316
  -8.700  -0.8777   0.02144   0.01597  -0.0089  1.0000  0.0152  -5.5902   0.0000   0.0000   0.0000   0.2316
  -8.600  -0.8684   0.02106   0.01556  -0.0088  1.0000  0.0154  -5.4852   0.0000   0.0000   0.0000   0.2317
  -8.500  -0.8589   0.02066   0.01513  -0.0088  1.0000  0.0157  -5.3830   0.0000   0.0000   0.0000   0.2317
  -8.400  -0.8465   0.02022   0.01463  -0.0094  0.9904  0.0160  -5.2686   0.0000   0.0000   0.0000   0.2310
  -8.300  -0.8337   0.01976   0.01412  -0.0100  0.9841  0.0162  -5.1544   0.0000   0.0000   0.0000   0.2302
  -8.200  -0.8212   0.01932   0.01363  -0.0105  0.9787  0.0165  -5.0427   0.0000   0.0000   0.0000   0.2295
  -8.100  -0.8094   0.01891   0.01317  -0.0108  0.9731  0.0168  -4.9346   0.0000   0.0000   0.0000   0.2290
  -8.000  -0.7987   0.01855   0.01276  -0.0109  0.9671  0.0170  -4.8312   0.0000   0.0000   0.0000   0.2288
  -7.900  -0.7891   0.01824   0.01239  -0.0107  0.9609  0.0172  -4.7326   0.0000   0.0000   0.0000   0.2289
  -7.800  -0.7805   0.01797   0.01208  -0.0103  0.9548  0.0174  -4.6390   0.0000   0.0000   0.0000   0.2294
  -7.700  -0.7722   0.01775   0.01180  -0.0098  0.9491  0.0175  -4.5613   0.0000   0.0000   0.0000   0.2300
  -7.600  -0.7639   0.01756   0.01157  -0.0093  0.9438  0.0177  -4.4818   0.0000   0.0000   0.0000   0.2306
  -7.500  -0.7556   0.01742   0.01137  -0.0088  0.9388  0.0178  -4.3998   0.0000   0.0000   0.0000   0.2313
  -7.400  -0.7493   0.01656   0.01047  -0.0081  0.9338  0.0181  -4.3652   0.0000   0.0000   0.0000   0.2322
  -7.300  -0.7427   0.01600   0.00989  -0.0074  0.9292  0.0185  -4.3070   0.0000   0.0000   0.0000   0.2332
  -7.200  -0.7351   0.01568   0.00955  -0.0068  0.9247  0.0188  -4.2301   0.0000   0.0000   0.0000   0.2339
  -7.100  -0.7268   0.01543   0.00929  -0.0064  0.9204  0.0191  -4.1460   0.0000   0.0000   0.0000   0.2344
  -7.000  -0.7183   0.01523   0.00906  -0.0060  0.9163  0.0195  -4.0610   0.0000   0.0000   0.0000   0.2350
  -6.900  -0.7093   0.01505   0.00886  -0.0057  0.9123  0.0198  -3.9728   0.0000   0.0000   0.0000   0.2354
  -6.800  -0.7003   0.01489   0.00868  -0.0054  0.9085  0.0203  -3.8848   0.0000   0.0000   0.0000   0.2358
  -6.700  -0.6911   0.01473   0.00849  -0.0051  0.9049  0.0207  -3.7976   0.0000   0.0000   0.0000   0.2362
  -6.600  -0.6817   0.01456   0.00830  -0.0049  0.9011  0.0212  -3.7114   0.0000   0.0000   0.0000   0.2365
  -6.500  -0.6726   0.01440   0.00810  -0.0046  0.8980  0.0216  -3.6279   0.0000   0.0000   0.0000   0.2370
  -6.400  -0.6628   0.01424   0.00791  -0.0044  0.8942  0.0220  -3.5433   0.0000   0.0000   0.0000   0.2372
  -6.300  -0.6534   0.01408   0.00772  -0.0041  0.8908  0.0222  -3.4606   0.0000   0.0000   0.0000   0.2376
  -6.200  -0.6438   0.01394   0.00754  -0.0039  0.8877  0.0225  -3.3776   0.0000   0.0000   0.0000   0.2380
  -6.100  -0.6351   0.01362   0.00720  -0.0036  0.8839  0.0227  -3.3059   0.0000   0.0000   0.0000   0.2385
  -6.000  -0.6278   0.01317   0.00671  -0.0030  0.8806  0.0232  -3.2445   0.0000   0.0000   0.0000   0.2394
  -5.900  -0.6190   0.01290   0.00642  -0.0027  0.8772  0.0237  -3.1683   0.0000   0.0000   0.0000   0.2399
  -5.800  -0.6096   0.01269   0.00620  -0.0025  0.8737  0.0241  -3.0867   0.0000   0.0000   0.0000   0.2402
  -5.700  -0.6001   0.01252   0.00601  -0.0023  0.8708  0.0246  -3.0048   0.0000   0.0000   0.0000   0.2406
  -5.600  -0.5903   0.01236   0.00583  -0.0021  0.8677  0.0251  -2.9224   0.0000   0.0000   0.0000   0.2409
  -5.500  -0.5804   0.01220   0.00566  -0.0020  0.8643  0.0256  -2.8408   0.0000   0.0000   0.0000   0.2411
  -5.400  -0.5705   0.01205   0.00548  -0.0018  0.8615  0.0262  -2.7605   0.0000   0.0000   0.0000   0.2414
  -5.300  -0.5605   0.01191   0.00531  -0.0017  0.8588  0.0268  -2.6805   0.0000   0.0000   0.0000   0.2417
  -5.200  -0.5502   0.01178   0.00515  -0.0016  0.8556  0.0273  -2.5991   0.0000   0.0000   0.0000   0.2419
  -5.100  -0.5398   0.01168   0.00503  -0.0015  0.8527  0.0278  -2.5278   0.0000   0.0000   0.0000   0.2421
  -5.000  -0.5310   0.01138   0.00471  -0.0012  0.8500  0.0290  -2.4722   0.0000   0.0000   0.0000   0.2426
  -4.900  -0.5209   0.01122   0.00455  -0.0011  0.8471  0.0300  -2.4043   0.0000   0.0000   0.0000   0.2428
  -4.800  -0.5105   0.01110   0.00442  -0.0011  0.8441  0.0310  -2.3361   0.0000   0.0000   0.0000   0.2430
  -4.700  -0.5002   0.01098   0.00428  -0.0010  0.8413  0.0319  -2.2701   0.0000   0.0000   0.0000   0.2432
  -4.600  -0.4898   0.01088   0.00414  -0.0009  0.8389  0.0328  -2.2051   0.0000   0.0000   0.0000   0.2434
  -4.500  -0.4795   0.01073   0.00398  -0.0008  0.8358  0.0340  -2.1426   0.0000   0.0000   0.0000   0.2436
  -4.400  -0.4693   0.01055   0.00381  -0.0007  0.8328  0.0357  -2.0798   0.0000   0.0000   0.0000   0.2438
  -4.300  -0.4589   0.01044   0.00368  -0.0006  0.8302  0.0375  -2.0150   0.0000   0.0000   0.0000   0.2440
  -4.200  -0.4485   0.01034   0.00355  -0.0005  0.8279  0.0395  -1.9516   0.0000   0.0000   0.0000   0.2443
  -4.100  -0.4382   0.01017   0.00341  -0.0005  0.8250  0.0434  -1.8895   0.0000   0.0000   0.0000   0.2444
  -4.000  -0.4278   0.01001   0.00326  -0.0004  0.8221  0.0494  -1.8278   0.0000   0.0000   0.0000   0.2446
  -3.900  -0.4181   0.00978   0.00311  -0.0003  0.8196  0.0655  -1.7683   0.0000   0.0000   0.0000   0.2450
  -3.800  -0.4096   0.00937   0.00290  -0.0000  0.8172  0.1125  -1.7129   0.0000   0.0000   0.0000   0.2456
  -3.700  -0.4019   0.00884   0.00268   0.0002  0.8146  0.1854  -1.6591   0.0000   0.0000   0.0000   0.2462
  -3.600  -0.3945   0.00823   0.00245   0.0005  0.8116  0.2717  -1.6067   0.0000   0.0000   0.0000   0.2469
  -3.500  -0.3875   0.00758   0.00219   0.0008  0.8089  0.3673  -1.5627   0.0000   0.0000   0.0000   0.2478
  -3.400  -0.3807   0.00698   0.00199   0.0012  0.8065  0.4661  -1.5182   0.0000   0.0000   0.0000   0.2490
  -3.300  -0.3717   0.00670   0.00192   0.0014  0.8042  0.5233  -1.4676   0.0000   0.0000   0.0000   0.2498
  -3.200  -0.3613   0.00657   0.00188   0.0015  0.8014  0.5526  -1.4134   0.0000   0.0000   0.0000   0.2502
  -3.100  -0.3506   0.00650   0.00186   0.0015  0.7988  0.5714  -1.3586   0.0000   0.0000   0.0000   0.2504
  -3.000  -0.3397   0.00645   0.00183   0.0016  0.7964  0.5852  -1.3039   0.0000   0.0000   0.0000   0.2507
  -2.900  -0.3287   0.00642   0.00180   0.0016  0.7943  0.5962  -1.2495   0.0000   0.0000   0.0000   0.2509
  -2.800  -0.3175   0.00640   0.00176   0.0015  0.7922  0.6058  -1.1949   0.0000   0.0000   0.0000   0.2511
  -2.700  -0.3064   0.00636   0.00175   0.0015  0.7897  0.6140  -1.1411   0.0000   0.0000   0.0000   0.2512
  -2.600  -0.2951   0.00634   0.00173   0.0015  0.7872  0.6220  -1.0875   0.0000   0.0000   0.0000   0.2512
  -2.500  -0.2840   0.00632   0.00172   0.0015  0.7849  0.6295  -1.0349   0.0000   0.0000   0.0000   0.2514
  -2.400  -0.2728   0.00631   0.00169   0.0014  0.7828  0.6366  -0.9826   0.0000   0.0000   0.0000   0.2516
  -2.300  -0.2618   0.00631   0.00169   0.0015  0.7809  0.6458  -0.9314   0.0000   0.0000   0.0000   0.2520
  -2.200  -0.2507   0.00629   0.00171   0.0015  0.7784  0.6565  -0.8805   0.0000   0.0000   0.0000   0.2523
  -2.100  -0.2397   0.00628   0.00173   0.0015  0.7759  0.6674  -0.8302   0.0000   0.0000   0.0000   0.2528
  -2.000  -0.2285   0.00630   0.00174   0.0015  0.7736  0.6776  -0.7804   0.0000   0.0000   0.0000   0.2532
  -1.900  -0.2176   0.00631   0.00177   0.0016  0.7715  0.6851  -0.7345   0.0000   0.0000   0.0000   0.2540
  -1.800  -0.2064   0.00633   0.00176   0.0016  0.7696  0.6913  -0.6923   0.0000   0.0000   0.0000   0.2544
  -1.700  -0.1952   0.00633   0.00177   0.0016  0.7675  0.6957  -0.6506   0.0000   0.0000   0.0000   0.2549
  -1.600  -0.1838   0.00633   0.00177   0.0015  0.7652  0.6994  -0.6090   0.0000   0.0000   0.0000   0.2550
  -1.500  -0.1722   0.00633   0.00176   0.0014  0.7629  0.7027  -0.5678   0.0000   0.0000   0.0000   0.2550
  -1.400  -0.1608   0.00632   0.00174   0.0014  0.7607  0.7053  -0.5274   0.0000   0.0000   0.0000   0.2552
  -1.300  -0.1495   0.00631   0.00173   0.0013  0.7587  0.7076  -0.4876   0.0000   0.0000   0.0000   0.2555
  -1.200  -0.1382   0.00632   0.00172   0.0013  0.7569  0.7098  -0.4482   0.0000   0.0000   0.0000   0.2559
  -1.100  -0.1266   0.00632   0.00171   0.0012  0.7548  0.7118  -0.4091   0.0000   0.0000   0.0000   0.2559
  -1.000  -0.1150   0.00631   0.00170   0.0010  0.7526  0.7139  -0.3983   0.0000   0.0000   0.0000   0.2557
  -0.900  -0.1034   0.00631   0.00168   0.0009  0.7504  0.7160  -0.3931   0.0000   0.0000   0.0000   0.2554
  -0.800  -0.0919   0.00631   0.00167   0.0008  0.7484  0.7178  -0.3881   0.0000   0.0000   0.0000   0.2553
  -0.700  -0.0805   0.00629   0.00165   0.0007  0.7465  0.7195  -0.3830   0.0000   0.0000   0.0000   0.2556
  -0.600  -0.0691   0.00629   0.00165   0.0006  0.7447  0.7212  -0.3779   0.0000   0.0000   0.0000   0.2561
  -0.500  -0.0577   0.00630   0.00164   0.0006  0.7428  0.7230  -0.3728   0.0000   0.0000   0.0000   0.2565
  -0.400  -0.0461   0.00629   0.00164   0.0004  0.7407  0.7249  -0.3677   0.0000   0.0000   0.0000   0.2561
  -0.300  -0.0345   0.00629   0.00164   0.0003  0.7385  0.7270  -0.3625   0.0000   0.0000   0.0000   0.2555
  -0.200  -0.0229   0.00629   0.00163   0.0002  0.7364  0.7291  -0.3574   0.0000   0.0000   0.0000   0.2545
  -0.100  -0.0114   0.00629   0.00162   0.0001  0.7345  0.7310  -0.3523   0.0000   0.0000   0.0000   0.2526
   0.000   0.0000   0.00628   0.00162  -0.0000  0.7327  0.7327  -0.3473   0.0000   0.0000   0.0000   0.4836
   0.100   0.0114   0.00629   0.00162  -0.0001  0.7310  0.7345  -0.3523   0.0000   0.0000   0.0000   0.2526
   0.200   0.0229   0.00629   0.00163  -0.0002  0.7291  0.7364  -0.3574   0.0000   0.0000   0.0000   0.2545
   0.300   0.0345   0.00629   0.00164  -0.0003  0.7270  0.7385  -0.3625   0.0000   0.0000   0.0000   0.2555
   0.400   0.0461   0.00629   0.00164  -0.0004  0.7249  0.7407  -0.3677   0.0000   0.0000   0.0000   0.2561
   0.500   0.0577   0.00630   0.00164  -0.0006  0.7230  0.7428  -0.3728   0.0000   0.0000   0.0000   0.2565
   0.600   0.0691   0.00629   0.00165  -0.0006  0.7212  0.7447  -0.3779   0.0000   0.0000   0.0000   0.2561
   0.700   0.0805   0.00629   0.00165  -0.0007  0.7195  0.7465  -0.3830   0.0000   0.0000   0.0000   0.2556
   0.800   0.0919   0.00631   0.00167  -0.0008  0.7178  0.7484  -0.3881   0.0000   0.0000   0.0000   0.2553
   0.900   0.1034   0.00631   0.00168  -0.0009  0.7160  0.7504  -0.3931   0.0000   0.0000   0.0000   0.2554
   1.000   0.1150   0.00631   0.00170  -0.0010  0.7139  0.7526  -0.3983   0.0000   0.0000   0.0000   0.2557
   1.100   0.1266   0.00632   0.00171  -0.0012  0.7118  0.7548  -0.4091   0.0000   0.0000   0.0000   0.2559
   1.200   0.1382   0.00632   0.00172  -0.0013  0.7098  0.7569  -0.4482   0.0000   0.0000   0.0000   0.2559
   1.300   0.1495   0.00631   0.00173  -0.0013  0.7076  0.7587  -0.4876   0.0000   0.0000   0.0000   0.2555
   1.400   0.1608   0.00632   0.00174  -0.0014  0.7053  0.7607  -0.5274   0.0000   0.0000   0.0000   0.2552
   1.500   0.1722   0.00633   0.00176  -0.0014  0.7027  0.7629  -0.5678   0.0000   0.0000   0.0000   0.2550
   1.600   0.1838   0.00633   0.00177  -0.0015  0.6994  0.7652  -0.6090   0.0000   0.0000   0.0000   0.2550
   1.700   0.1952   0.00633   0.00177  -0.0016  0.6957  0.7675  -0.6506   0.0000   0.0000   0.0000   0.2549
   1.800   0.2064   0.00633   0.00176  -0.0016  0.6913  0.7696  -0.6923   0.0000   0.0000   0.0000   0.2544
   1.900   0.2176   0.00631   0.00177  -0.0016  0.6851  0.7715  -0.7345   0.0000   0.0000   0.0000   0.2540
   2.000   0.2285   0.00630   0.00174  -0.0015  0.6776  0.7736  -0.7804   0.0000   0.0000   0.0000   0.2532
   2.100   0.2397   0.00628   0.00173  -0.0015  0.6674  0.7759  -0.8302   0.0000   0.0000   0.0000   0.2528
   2.200   0.2507   0.00629   0.00171  -0.0015  0.6565  0.7784  -0.8805   0.0000   0.0000   0.0000   0.2523
   2.300   0.2618   0.00631   0.00169  -0.0015  0.6458  0.7809  -0.9314   0.0000   0.0000   0.0000   0.2520
   2.400   0.2728   0.00631   0.00169  -0.0014  0.6366  0.7828  -0.9826   0.0000   0.0000   0.0000   0.2516
   2.500   0.2840   0.00632   0.00172  -0.0015  0.6295  0.7849  -1.0349   0.0000   0.0000   0.0000   0.2514
   2.600   0.2951   0.00634   0.00173  -0.0015  0.6220  0.7872  -1.0875   0.0000   0.0000   0.0000   0.2512
   2.700   0.3064   0.00636   0.00175  -0.0015  0.6140  0.7897  -1.1411   0.0000   0.0000   0.0000   0.2512
   2.800   0.3175   0.00640   0.00176  -0.0015  0.6058  0.7922  -1.1949   0.0000   0.0000   0.0000   0.2511
   2.900   0.3287   0.00642   0.00180  -0.0016  0.5962  0.7943  -1.2495   0.0000   0.0000   0.0000   0.2509
   3.000   0.3397   0.00645   0.00183  -0.0016  0.5852  0.7964  -1.3039   0.0000   0.0000   0.0000   0.2507
   3.100   0.3506   0.00650   0.00186  -0.0015  0.5714  0.7988  -1.3586   0.0000   0.0000   0.0000   0.2504
   3.200   0.3613   0.00657   0.00188  -0.0015  0.5526  0.8014  -1.4134   0.0000   0.0000   0.0000   0.2502
   3.300   0.3717   0.00670   0.00192  -0.0014  0.5233  0.8042  -1.4676   0.0000   0.0000   0.0000   0.2498
   3.400   0.3807   0.00698   0.00199  -0.0012  0.4661  0.8065  -1.5182   0.0000   0.0000   0.0000   0.2490
   3.500   0.3875   0.00758   0.00219  -0.0008  0.3673  0.8089  -1.5627   0.0000   0.0000   0.0000   0.2478
   3.600   0.3945   0.00823   0.00245  -0.0005  0.2717  0.8116  -1.6067   0.0000   0.0000   0.0000   0.2469
   3.700   0.4019   0.00884   0.00268  -0.0002  0.1854  0.8146  -1.6591   0.0000   0.0000   0.0000   0.2462
   3.800   0.4096   0.00937   0.00290   0.0000  0.1125  0.8172  -1.7129   0.0000   0.0000   0.0000   0.2456
   3.900   0.4181   0.00978   0.00311   0.0003  0.0655  0.8196  -1.7683   0.0000   0.0000   0.0000   0.2450
   4.000   0.4278   0.01001   0.00326   0.0004  0.0494  0.8221  -1.8278   0.0000   0.0000   0.0000   0.2446
   4.100   0.4382   0.01017   0.00341   0.0005  0.0434  0.8250  -1.8895   0.0000   0.0000   0.0000   0.2444
   4.200   0.4485   0.01034   0.00355   0.0005  0.0395  0.8279  -1.9516   0.0000   0.0000   0.0000   0.2443
   4.300   0.4589   0.01044   0.00368   0.0006  0.0375  0.8302  -2.0151   0.0000   0.0000   0.0000   0.2440
   4.400   0.4693   0.01055   0.00381   0.0007  0.0357  0.8328  -2.0799   0.0000   0.0000   0.0000   0.2438
   4.500   0.4795   0.01073   0.00398   0.0008  0.0340  0.8358  -2.1426   0.0000   0.0000   0.0000   0.2436
   4.600   0.4898   0.01088   0.00414   0.0009  0.0328  0.8389  -2.2051   0.0000   0.0000   0.0000   0.2434
   4.700   0.5002   0.01098   0.00428   0.0010  0.0319  0.8413  -2.2701   0.0000   0.0000   0.0000   0.2432
   4.800   0.5105   0.01110   0.00442   0.0011  0.0310  0.8440  -2.3362   0.0000   0.0000   0.0000   0.2430
   4.900   0.5209   0.01122   0.00455   0.0011  0.0300  0.8471  -2.4043   0.0000   0.0000   0.0000   0.2428
   5.000   0.5310   0.01138   0.00471   0.0012  0.0290  0.8500  -2.4722   0.0000   0.0000   0.0000   0.2427
   5.100   0.5398   0.01168   0.00503   0.0015  0.0278  0.8527  -2.5278   0.0000   0.0000   0.0000   0.2421
   5.200   0.5502   0.01178   0.00515   0.0016  0.0273  0.8556  -2.5992   0.0000   0.0000   0.0000   0.2419
   5.300   0.5605   0.01191   0.00531   0.0017  0.0268  0.8588  -2.6806   0.0000   0.0000   0.0000   0.2417
   5.400   0.5705   0.01205   0.00548   0.0018  0.0262  0.8615  -2.7606   0.0000   0.0000   0.0000   0.2414
   5.500   0.5804   0.01220   0.00566   0.0020  0.0256  0.8643  -2.8408   0.0000   0.0000   0.0000   0.2411
   5.600   0.5903   0.01236   0.00583   0.0021  0.0251  0.8676  -2.9224   0.0000   0.0000   0.0000   0.2409
   5.700   0.6001   0.01252   0.00601   0.0023  0.0246  0.8708  -3.0048   0.0000   0.0000   0.0000   0.2406
   5.800   0.6096   0.01269   0.00620   0.0025  0.0241  0.8737  -3.0868   0.0000   0.0000   0.0000   0.2402
   5.900   0.6190   0.01290   0.00642   0.0027  0.0237  0.8772  -3.1684   0.0000   0.0000   0.0000   0.2399
   6.000   0.6278   0.01317   0.00671   0.0030  0.0232  0.8806  -3.2446   0.0000   0.0000   0.0000   0.2394
   6.100   0.6351   0.01362   0.00720   0.0036  0.0227  0.8839  -3.3060   0.0000   0.0000   0.0000   0.2385
   6.200   0.6438   0.01394   0.00754   0.0039  0.0225  0.8877  -3.3777   0.0000   0.0000   0.0000   0.2380
   6.300   0.6534   0.01408   0.00772   0.0041  0.0222  0.8908  -3.4607   0.0000   0.0000   0.0000   0.2376
   6.400   0.6629   0.01424   0.00791   0.0044  0.0220  0.8942  -3.5434   0.0000   0.0000   0.0000   0.2373
   6.500   0.6726   0.01440   0.00810   0.0046  0.0216  0.8980  -3.6280   0.0000   0.0000   0.0000   0.2370
   6.600   0.6817   0.01456   0.00830   0.0049  0.0212  0.9011  -3.7115   0.0000   0.0000   0.0000   0.2365
   6.700   0.6911   0.01473   0.00849   0.0051  0.0207  0.9048  -3.7977   0.0000   0.0000   0.0000   0.2362
   6.800   0.7003   0.01489   0.00868   0.0054  0.0203  0.9085  -3.8849   0.0000   0.0000   0.0000   0.2358
   6.900   0.7093   0.01505   0.00886   0.0057  0.0198  0.9123  -3.9729   0.0000   0.0000   0.0000   0.2354
   7.000   0.7183   0.01523   0.00906   0.0060  0.0195  0.9163  -4.0612   0.0000   0.0000   0.0000   0.2350
   7.100   0.7268   0.01543   0.00929   0.0064  0.0191  0.9204  -4.1461   0.0000   0.0000   0.0000   0.2344
   7.200   0.7351   0.01568   0.00955   0.0068  0.0188  0.9247  -4.2302   0.0000   0.0000   0.0000   0.2339
   7.300   0.7428   0.01600   0.00989   0.0074  0.0185  0.9292  -4.3071   0.0000   0.0000   0.0000   0.2332
   7.400   0.7494   0.01656   0.01047   0.0081  0.0181  0.9338  -4.3652   0.0000   0.0000   0.0000   0.2322
   7.500   0.7557   0.01742   0.01137   0.0088  0.0178  0.9388  -4.4000   0.0000   0.0000   0.0000   0.2313
   7.600   0.7640   0.01756   0.01157   0.0093  0.0177  0.9438  -4.4820   0.0000   0.0000   0.0000   0.2307
   7.700   0.7722   0.01775   0.01180   0.0098  0.0175  0.9491  -4.5615   0.0000   0.0000   0.0000   0.2300
   7.800   0.7805   0.01797   0.01208   0.0103  0.0174  0.9548  -4.6392   0.0000   0.0000   0.0000   0.2294
   7.900   0.7892   0.01824   0.01239   0.0107  0.0172  0.9609  -4.7329   0.0000   0.0000   0.0000   0.2290
   8.000   0.7987   0.01855   0.01276   0.0109  0.0170  0.9671  -4.8314   0.0000   0.0000   0.0000   0.2288
   8.100   0.8095   0.01891   0.01317   0.0108  0.0168  0.9731  -4.9349   0.0000   0.0000   0.0000   0.2290
   8.200   0.8213   0.01932   0.01363   0.0105  0.0165  0.9787  -5.0430   0.0000   0.0000   0.0000   0.2295
   8.300   0.8338   0.01976   0.01412   0.0100  0.0162  0.9842  -5.1547   0.0000   0.0000   0.0000   0.2302
   8.400   0.8466   0.02022   0.01463   0.0093  0.0160  0.9904  -5.2690   0.0000   0.0000   0.0000   0.2310
   8.500   0.8590   0.02066   0.01513   0.0088  0.0157  1.0000  -5.3832   0.0000   0.0000   0.0000   0.2318
   8.600   0.8684   0.02106   0.01556   0.0088  0.0154  1.0000  -5.4855   0.0000   0.0000   0.0000   0.2317
   8.700   0.8778   0.02144   0.01597   0.0089  0.0152  1.0000  -5.5905   0.0000   0.0000   0.0000   0.2317
   8.800   0.8870   0.02183   0.01640   0.0090  0.0150  1.0000  -5.6954   0.0000   0.0000   0.0000   0.2316
   8.900   0.8961   0.02217   0.01678   0.0090  0.0148  1.0000  -5.8063   0.0000   0.0000   0.0000   0.2315
   9.000   0.9051   0.02248   0.01711   0.0091  0.0146  1.0000  -5.9228   0.0000   0.0000   0.0000   0.2314
   9.100   0.9139   0.02281   0.01746   0.0092  0.0143  1.0000  -6.0411   0.0000   0.0000   0.0000   0.2313
   9.200   0.9224   0.02329   0.01796   0.0093  0.0141  1.0000  -6.1517   0.0000   0.0000   0.0000   0.2312
   9.300   0.9282   0.02486   0.01963   0.0096  0.0137  1.0000  -6.1868   0.0000   0.0000   0.0000   0.2308
   9.400   0.9333   0.02627   0.02122   0.0101  0.0135  1.0000  -6.2049   0.0000   0.0000   0.0000   0.2302
   9.500   0.9415   0.02653   0.02155   0.0104  0.0133  1.0000  -6.3084   0.0000   0.0000   0.0000   0.2299
   9.600   0.9491   0.02704   0.02215   0.0107  0.0132  1.0000  -6.3918   0.0000   0.0000   0.0000   0.2296
   9.700   0.9557   0.02780   0.02302   0.0111  0.0131  1.0000  -6.4546   0.0000   0.0000   0.0000   0.2291
   9.800   0.9616   0.02871   0.02405   0.0116  0.0130  1.0000  -6.5044   0.0000   0.0000   0.0000   0.2286
   9.900   0.9667   0.02977   0.02523   0.0121  0.0129  1.0000  -6.5404   0.0000   0.0000   0.0000   0.2281
  10.000   0.9707   0.03096   0.02657   0.0127  0.0128  1.0000  -6.5617   0.0000   0.0000   0.0000   0.2274
  10.100   0.9735   0.03231   0.02807   0.0134  0.0127  1.0000  -6.5671   0.0000   0.0000   0.0000   0.2266
  10.200   0.9750   0.03382   0.02974   0.0142  0.0126  1.0000  -6.5551   0.0000   0.0000   0.0000   0.2257
  10.300   0.9749   0.03547   0.03157   0.0152  0.0126  1.0000  -6.5259   0.0000   0.0000   0.0000   0.2247
  10.400   0.9733   0.03725   0.03351   0.0162  0.0126  1.0000  -6.4821   0.0000   0.0000   0.0000   0.2235
  10.500   0.9701   0.03914   0.03558   0.0172  0.0125  1.0000  -6.4234   0.0000   0.0000   0.0000   0.2223
  10.600   0.9654   0.04108   0.03767   0.0184  0.0126  1.0000  -6.3568   0.0000   0.0000   0.0000   0.2209
  10.700   0.9592   0.04295   0.03970   0.0196  0.0126  1.0000  -6.2864   0.0000   0.0000   0.0000   0.2194
  10.800   0.9515   0.04466   0.04152   0.0210  0.0126  1.0000  -6.2201   0.0000   0.0000   0.0000   0.2177
  10.900   0.9431   0.04634   0.04331   0.0222  0.0126  1.0000  -6.1558   0.0000   0.0000   0.0000   0.2160
  11.000   0.9343   0.04806   0.04513   0.0233  0.0126  1.0000  -6.0916   0.0000   0.0000   0.0000   0.2146
  11.100   0.9253   0.04981   0.04697   0.0241  0.0127  1.0000  -6.0289   0.0000   0.0000   0.0000   0.2133
  11.200   0.9160   0.05161   0.04887   0.0246  0.0127  1.0000  -5.9670   0.0000   0.0000   0.0000   0.2123
  11.300   0.9066   0.05349   0.05083   0.0250  0.0127  1.0000  -5.9057   0.0000   0.0000   0.0000   0.2115
  11.400   0.8970   0.05543   0.05285   0.0251  0.0128  1.0000  -5.8454   0.0000   0.0000   0.0000   0.2109
  11.500   0.8874   0.05746   0.05496   0.0249  0.0128  1.0000  -5.7859   0.0000   0.0000   0.0000   0.2106
  11.600   0.8777   0.05959   0.05715   0.0245  0.0128  1.0000  -5.7265   0.0000   0.0000   0.0000   0.2106
  11.700   0.8679   0.06181   0.05944   0.0239  0.0129  1.0000  -5.6675   0.0000   0.0000   0.0000   0.2108
  11.800   0.8580   0.06416   0.06186   0.0230  0.0129  1.0000  -5.6080   0.0000   0.0000   0.0000   0.2113
  11.900   0.8481   0.06663   0.06439   0.0219  0.0130  1.0000  -5.5480   0.0000   0.0000   0.0000   0.2122
  12.000   0.8381   0.06926   0.06708   0.0204  0.0130  1.0000  -5.4865   0.0000   0.0000   0.0000   0.2133
  12.100   0.8281   0.07207   0.06994   0.0188  0.0131  1.0000  -5.4229   0.0000   0.0000   0.0000   0.2149
  12.200   0.8179   0.07507   0.07298   0.0168  0.0132  1.0000  -5.3567   0.0000   0.0000   0.0000   0.2168
  12.300   0.8078   0.07828   0.07624   0.0145  0.0132  1.0000  -5.2876   0.0000   0.0000   0.0000   0.2192
  12.400   0.7980   0.08165   0.07963   0.0120  0.0133  1.0000  -5.2212   0.0000   0.0000   0.0000   0.2219
  18.700   0.8026   0.23120   0.22924  -0.0668  0.0098  1.0000  -2.3950   0.0000   0.0000   0.0000   0.3140
  18.800   0.8056   0.23284   0.23088  -0.0678  0.0098  1.0000  -2.3827   0.0000   0.0000   0.0000   0.3148
  18.900   0.8086   0.23447   0.23251  -0.0688  0.0098  1.0000  -2.3708   0.0000   0.0000   0.0000   0.3156
  19.000   0.8116   0.23609   0.23413  -0.0698  0.0098  1.0000  -2.3595   0.0000   0.0000   0.0000   0.3163
  19.100   0.8146   0.23769   0.23573  -0.0708  0.0097  1.0000  -2.3487   0.0000   0.0000   0.0000   0.3171
  19.200   0.8177   0.23927   0.23731  -0.0718  0.0097  1.0000  -2.3381   0.0000   0.0000   0.0000   0.3178
  19.300   0.8207   0.24085   0.23889  -0.0728  0.0097  1.0000  -2.3269   0.0000   0.0000   0.0000   0.3186
  19.400   0.8236   0.24244   0.24048  -0.0738  0.0097  1.0000  -2.3092   0.0000   0.0000   0.0000   0.3194
  19.500   0.8265   0.24402   0.24206  -0.0749  0.0097  1.0000  -2.2908   0.0000   0.0000   0.0000   0.3203
  19.600   0.8293   0.24562   0.24366  -0.0760  0.0097  1.0000  -2.2676   0.0000   0.0000   0.0000   0.3212
  19.700   0.8322   0.24721   0.24525  -0.0772  0.0097  1.0000  -2.2433   0.0000   0.0000   0.0000   0.3221
  19.800   0.8350   0.24882   0.24686  -0.0784  0.0097  1.0000  -2.2165   0.0000   0.0000   0.0000   0.3231
  19.900   0.8380   0.25042   0.24845  -0.0796  0.0096  1.0000  -2.1857   0.0000   0.0000   0.0000   0.3241
  20.000   0.8410   0.25206   0.25010  -0.0808  0.0096  1.0000  -2.1481   0.0000   0.0000   0.0000   0.3251
  20.100   0.8442   0.25380   0.25183  -0.0822  0.0095  1.0000  -2.0960   0.0000   0.0000   0.0000   0.3262
  20.200   0.8479   0.25564   0.25367  -0.0834  0.0092  1.0000  -2.0385   0.0000   0.0000   0.0000   0.3272
  20.300   0.8514   0.25720   0.25523  -0.0844  0.0089  1.0000  -2.0212   0.0000   0.0000   0.0000   0.3278
  20.400   0.8547   0.25864   0.25667  -0.0854  0.0087  1.0000  -2.0159   0.0000   0.0000   0.0000   0.3284
  20.500   0.8581   0.26008   0.25811  -0.0863  0.0085  1.0000  -2.0143   0.0000   0.0000   0.0000   0.3289
  20.600   0.8614   0.26149   0.25952  -0.0873  0.0083  1.0000  -2.0149   0.0000   0.0000   0.0000   0.3294
  20.700   0.8648   0.26287   0.26091  -0.0882  0.0082  1.0000  -2.0171   0.0000   0.0000   0.0000   0.3300
  20.800   0.8681   0.26424   0.26228  -0.0891  0.0080  1.0000  -2.0205   0.0000   0.0000   0.0000   0.3305
  20.900   0.8715   0.26560   0.26363  -0.0901  0.0079  1.0000  -2.0250   0.0000   0.0000   0.0000   0.3310
  21.000   0.8748   0.26693   0.26497  -0.0910  0.0078  1.0000  -2.0307   0.0000   0.0000   0.0000   0.3315
  21.100   0.8782   0.26825   0.26629  -0.0919  0.0076  1.0000  -2.0377   0.0000   0.0000   0.0000   0.3319
  21.200   0.8815   0.26956   0.26760  -0.0928  0.0075  1.0000  -2.0459   0.0000   0.0000   0.0000   0.3324
  21.300   0.8848   0.27084   0.26889  -0.0938  0.0074  1.0000  -2.0555   0.0000   0.0000   0.0000   0.3329
  21.400   0.8882   0.27211   0.27016  -0.0947  0.0073  1.0000  -2.0667   0.0000   0.0000   0.0000   0.3333
  21.500   0.8915   0.27337   0.27141  -0.0956  0.0072  1.0000  -2.0795   0.0000   0.0000   0.0000   0.3338
  21.600   0.8948   0.27460   0.27265  -0.0965  0.0072  1.0000  -2.0942   0.0000   0.0000   0.0000   0.3342
  21.700   0.8982   0.27581   0.27386  -0.0974  0.0071  1.0000  -2.1108   0.0000   0.0000   0.0000   0.3346
  21.800   0.9015   0.27701   0.27506  -0.0983  0.0070  1.0000  -2.1296   0.0000   0.0000   0.0000   0.3350
  21.900   0.9048   0.27819   0.27624  -0.0992  0.0070  1.0000  -2.1505   0.0000   0.0000   0.0000   0.3354
  22.000   0.9081   0.27935   0.27741  -0.1001  0.0069  1.0000  -2.1738   0.0000   0.0000   0.0000   0.3357
  22.100   0.9113   0.28050   0.27856  -0.1009  0.0069  1.0000  -2.1996   0.0000   0.0000   0.0000   0.3360
  22.200   0.9146   0.28164   0.27970  -0.1017  0.0068  1.0000  -2.2282   0.0000   0.0000   0.0000   0.3363
  22.300   0.9179   0.28282   0.28089  -0.1025  0.0068  1.0000  -2.2601   0.0000   0.0000   0.0000   0.3365
  22.400   0.9211   0.28399   0.28206  -0.1032  0.0067  1.0000  -2.2960   0.0000   0.0000   0.0000   0.3367
  22.500   0.9245   0.28525   0.28332  -0.1038  0.0067  1.0000  -2.3391   0.0000   0.0000   0.0000   0.3367
  22.600   0.9274   0.28756   0.28563  -0.1042  0.0066  1.0000  -2.3321   0.0000   0.0000   0.0000   0.3366
  22.700   0.9306   0.28901   0.28708  -0.1052  0.0065  1.0000  -2.3253   0.0000   0.0000   0.0000   0.3371
  22.800   0.9338   0.29045   0.28851  -0.1062  0.0065  1.0000  -2.3186   0.0000   0.0000   0.0000   0.3377
  22.900   0.9370   0.29189   0.28996  -0.1073  0.0065  1.0000  -2.3115   0.0000   0.0000   0.0000   0.3382
  23.000   0.9402   0.29330   0.29137  -0.1083  0.0065  1.0000  -2.3043   0.0000   0.0000   0.0000   0.3388
  23.100   0.9434   0.29471   0.29278  -0.1094  0.0065  1.0000  -2.2942   0.0000   0.0000   0.0000   0.3393
  23.200   0.9465   0.29613   0.29420  -0.1105  0.0065  1.0000  -2.2801   0.0000   0.0000   0.0000   0.3400
  23.300   0.9497   0.29754   0.29561  -0.1117  0.0065  1.0000  -2.2664   0.0000   0.0000   0.0000   0.3406
  23.400   0.9528   0.29895   0.29702  -0.1128  0.0065  1.0000  -2.2534   0.0000   0.0000   0.0000   0.3412
  23.500   0.9560   0.30034   0.29842  -0.1139  0.0065  1.0000  -2.2408   0.0000   0.0000   0.0000   0.3417
  23.600   0.9592   0.30174   0.29981  -0.1150  0.0065  1.0000  -2.2286   0.0000   0.0000   0.0000   0.3423
  23.700   0.9625   0.30312   0.30119  -0.1161  0.0065  1.0000  -2.2167   0.0000   0.0000   0.0000   0.3429
  23.800   0.9657   0.30451   0.30258  -0.1172  0.0065  1.0000  -2.2046   0.0000   0.0000   0.0000   0.3434
  23.900   0.9689   0.30589   0.30396  -0.1183  0.0065  1.0000  -2.1911   0.0000   0.0000   0.0000   0.3440
  24.000   0.9722   0.30728   0.30535  -0.1194  0.0064  1.0000  -2.1759   0.0000   0.0000   0.0000   0.3445
  24.100   0.9756   0.30867   0.30674  -0.1206  0.0064  1.0000  -2.1585   0.0000   0.0000   0.0000   0.3451
  24.200   0.9789   0.31008   0.30815  -0.1217  0.0064  1.0000  -2.1384   0.0000   0.0000   0.0000   0.3457
  24.300   0.9824   0.31151   0.30958  -0.1229  0.0063  1.0000  -2.1152   0.0000   0.0000   0.0000   0.3462
  24.400   0.9860   0.31296   0.31103  -0.1240  0.0063  1.0000  -2.0906   0.0000   0.0000   0.0000   0.3467
  24.500   0.9896   0.31441   0.31248  -0.1251  0.0062  1.0000  -2.0684   0.0000   0.0000   0.0000   0.3472
  24.600   0.9932   0.31584   0.31391  -0.1261  0.0061  1.0000  -2.0500   0.0000   0.0000   0.0000   0.3476
  24.700   0.9967   0.31721   0.31529  -0.1271  0.0059  1.0000  -2.0394   0.0000   0.0000   0.0000   0.3480
  24.800   1.0000   0.31855   0.31663  -0.1281  0.0057  1.0000  -2.0345   0.0000   0.0000   0.0000   0.3483
  24.900   1.0033   0.31981   0.31789  -0.1291  0.0056  1.0000  -2.0328   0.0000   0.0000   0.0000   0.3487
  25.000   1.0065   0.32112   0.31920  -0.1301  0.0055  1.0000  -2.0329   0.0000   0.0000   0.0000   0.3491
  25.100   1.0098   0.32239   0.32048  -0.1311  0.0053  1.0000  -2.0341   0.0000   0.0000   0.0000   0.3494
  25.200   1.0130   0.32365   0.32174  -0.1321  0.0052  1.0000  -2.0364   0.0000   0.0000   0.0000   0.3498
  25.300   1.0162   0.32489   0.32298  -0.1331  0.0051  1.0000  -2.0395   0.0000   0.0000   0.0000   0.3502
  25.400   1.0193   0.32612   0.32421  -0.1342  0.0050  1.0000  -2.0434   0.0000   0.0000   0.0000   0.3505
  25.500   1.0225   0.32733   0.32542  -0.1352  0.0049  1.0000  -2.0483   0.0000   0.0000   0.0000   0.3509
  25.600   1.0256   0.32852   0.32662  -0.1362  0.0048  1.0000  -2.0542   0.0000   0.0000   0.0000   0.3512
  25.700   1.0288   0.32971   0.32781  -0.1372  0.0047  1.0000  -2.0611   0.0000   0.0000   0.0000   0.3516
  25.800   1.0319   0.33088   0.32898  -0.1382  0.0046  1.0000  -2.0692   0.0000   0.0000   0.0000   0.3519
  25.900   1.0350   0.33203   0.33013  -0.1392  0.0046  1.0000  -2.0785   0.0000   0.0000   0.0000   0.3522
  26.000   1.0380   0.33317   0.33127  -0.1402  0.0045  1.0000  -2.0892   0.0000   0.0000   0.0000   0.3526
  26.100   1.0411   0.33429   0.33240  -0.1412  0.0044  1.0000  -2.1013   0.0000   0.0000   0.0000   0.3529
  26.200   1.0441   0.33540   0.33351  -0.1422  0.0044  1.0000  -2.1148   0.0000   0.0000   0.0000   0.3532
  26.300   1.0471   0.33648   0.33460  -0.1432  0.0043  1.0000  -2.1299   0.0000   0.0000   0.0000   0.3535
  26.400   1.0501   0.33756   0.33568  -0.1442  0.0043  1.0000  -2.1467   0.0000   0.0000   0.0000   0.3538
  26.500   1.0530   0.33862   0.33674  -0.1452  0.0042  1.0000  -2.1651   0.0000   0.0000   0.0000   0.3541
  26.600   1.0559   0.33974   0.33787  -0.1462  0.0042  1.0000  -2.1852   0.0000   0.0000   0.0000   0.3544
  26.700   1.0588   0.34080   0.33892  -0.1472  0.0042  1.0000  -2.2071   0.0000   0.0000   0.0000   0.3547
  26.800   1.0616   0.34184   0.33997  -0.1481  0.0041  1.0000  -2.2309   0.0000   0.0000   0.0000   0.3550
  26.900   1.0644   0.34289   0.34103  -0.1491  0.0041  1.0000  -2.2567   0.0000   0.0000   0.0000   0.3552
  27.000   1.0672   0.34397   0.34210  -0.1500  0.0041  1.0000  -2.2849   0.0000   0.0000   0.0000   0.3554
  27.100   1.0699   0.34511   0.34325  -0.1508  0.0040  1.0000  -2.3162   0.0000   0.0000   0.0000   0.3556
  27.200   1.0724   0.34672   0.34486  -0.1513  0.0040  1.0000  -2.3559   0.0000   0.0000   0.0000   0.3554


