xflr5 v6.61

 Calculated polar for: NACA 4408

 1 1 Reynolds number fixed          Mach number fixed         

 xtrf =   1.000 (top)        1.000 (bottom)
 Mach =   0.000     Re =     0.400 e 6     Ncrit =   9.000

  alpha     CL        CD       CDp       Cm    Top Xtr Bot Xtr   Cpmin    Chinge    XCp    
 ------- -------- --------- --------- -------- ------- ------- -------- --------- ---------
 -10.000  -0.3714   0.11406   0.11135  -0.0291  1.0001  0.0163  -1.7479   0.0000   0.0000   0.0000   0.1650
  -9.900  -0.3696   0.11258   0.10987  -0.0296  1.0001  0.0164  -1.7699   0.0000   0.0000   0.0000   0.1632
  -9.800  -0.3679   0.11109   0.10839  -0.0302  1.0001  0.0164  -1.7944   0.0000   0.0000   0.0000   0.1614
  -9.700  -0.3664   0.10960   0.10690  -0.0307  1.0001  0.0164  -1.8220   0.0000   0.0000   0.0000   0.1597
  -9.600  -0.3650   0.10809   0.10540  -0.0313  1.0001  0.0164  -1.8532   0.0000   0.0000   0.0000   0.1579
  -9.500  -0.3637   0.10658   0.10390  -0.0318  1.0001  0.0164  -1.8888   0.0000   0.0000   0.0000   0.1561
  -9.400  -0.3627   0.10507   0.10240  -0.0324  1.0001  0.0164  -1.9290   0.0000   0.0000   0.0000   0.1543
  -9.300  -0.3766   0.09993   0.09730  -0.0332  1.0001  0.0174  -2.1753   0.0000   0.0000   0.0000   0.1554
  -9.200  -0.3726   0.09924   0.09662  -0.0325  1.0001  0.0180  -2.0716   0.0000   0.0000   0.0000   0.1565
  -9.100  -0.3673   0.09882   0.09621  -0.0318  1.0001  0.0186  -1.9581   0.0000   0.0000   0.0000   0.1573
  -9.000  -0.3637   0.09822   0.09561  -0.0316  1.0001  0.0193  -1.8869   0.0000   0.0000   0.0000   0.1571
  -8.900  -0.3610   0.09747   0.09487  -0.0316  1.0001  0.0201  -1.8406   0.0000   0.0000   0.0000   0.1565
  -8.800  -0.3590   0.09661   0.09402  -0.0317  1.0001  0.0209  -1.8102   0.0000   0.0000   0.0000   0.1558
  -8.700  -0.3575   0.09567   0.09309  -0.0319  1.0001  0.0217  -1.7914   0.0000   0.0000   0.0000   0.1551
  -8.600  -0.3565   0.09468   0.09211  -0.0321  1.0001  0.0226  -1.7814   0.0000   0.0000   0.0000   0.1544
  -8.500  -0.3560   0.09367   0.09112  -0.0323  1.0001  0.0235  -1.7790   0.0000   0.0000   0.0000   0.1539
  -8.400  -0.3561   0.09268   0.09015  -0.0324  1.0001  0.0244  -1.7847   0.0000   0.0000   0.0000   0.1536
  -8.300  -0.3569   0.09178   0.08927  -0.0326  1.0001  0.0253  -1.8020   0.0000   0.0000   0.0000   0.1533
  -8.200  -0.3591   0.09110   0.08861  -0.0328  1.0001  0.0261  -1.8334   0.0000   0.0000   0.0000   0.1534
  -8.100  -0.3623   0.09063   0.08817  -0.0328  1.0001  0.0266  -1.8639   0.0000   0.0000   0.0000   0.1546
  -8.000  -0.3661   0.09021   0.08777  -0.0322  1.0001  0.0269  -1.8822   0.0000   0.0000   0.0000   0.1573
  -7.900  -0.3701   0.08981   0.08739  -0.0312  1.0001  0.0270  -1.8891   0.0000   0.0000   0.0000   0.1610
  -7.800  -0.3755   0.08941   0.08702  -0.0300  1.0001  0.0271  -1.8982   0.0000   0.0000   0.0000   0.1657
  -7.700  -0.3819   0.08905   0.08669  -0.0285  1.0001  0.0271  -1.9090   0.0000   0.0000   0.0000   0.1711
  -7.600  -0.3884   0.08867   0.08634  -0.0271  1.0001  0.0272  -1.9202   0.0000   0.0000   0.0000   0.1761
  -7.500  -0.3931   0.08811   0.08580  -0.0262  1.0001  0.0272  -1.9289   0.0000   0.0000   0.0000   0.1794
  -7.400  -0.3968   0.08744   0.08515  -0.0256  1.0001  0.0273  -1.9363   0.0000   0.0000   0.0000   0.1816
  -7.300  -0.3973   0.08645   0.08418  -0.0260  0.9998  0.0273  -1.9398   0.0000   0.0000   0.0000   0.1808
  -7.200  -0.3856   0.08432   0.08203  -0.0299  0.9985  0.0274  -1.9281   0.0000   0.0000   0.0000   0.1688
  -7.100  -0.3746   0.08217   0.07988  -0.0335  0.9971  0.0275  -1.9175   0.0000   0.0000   0.0000   0.1567
  -7.000  -0.3630   0.07998   0.07767  -0.0374  0.9957  0.0276  -1.9068   0.0000   0.0000   0.0000   0.1431
  -6.900  -0.3504   0.07771   0.07539  -0.0416  0.9944  0.0276  -1.8968   0.0000   0.0000   0.0000   0.1274
  -6.800  -0.3381   0.07542   0.07308  -0.0456  0.9928  0.0277  -1.8885   0.0000   0.0000   0.0000   0.1111
  -6.700  -0.3256   0.07305   0.07069  -0.0496  0.9910  0.0277  -1.8810   0.0000   0.0000   0.0000   0.0935
  -6.600  -0.3123   0.07055   0.06816  -0.0538  0.9894  0.0278  -1.8730   0.0000   0.0000   0.0000   0.0735
  -6.500  -0.2983   0.06795   0.06553  -0.0580  0.9880  0.0278  -1.8646   0.0000   0.0000   0.0000   0.0510
  -6.400  -0.2959   0.05935   0.05690  -0.0665  0.9859  0.0290  -2.1010   0.0000   0.0000   0.0000   0.0207
  -6.300  -0.2868   0.05740   0.05493  -0.0687  0.9835  0.0295  -2.0526   0.0000   0.0000   0.0000   0.0059
  -6.200  -0.2756   0.05597   0.05347  -0.0705  0.9818  0.0299  -1.9957   0.0000   0.0000   0.0000  -0.0105
  -6.100  -0.2628   0.05433   0.05180  -0.0729  0.9803  0.0302  -1.9603   0.0000   0.0000   0.0000  -0.0320
  -6.000  -0.2491   0.05263   0.05007  -0.0755  0.9790  0.0306  -1.9270   0.0000   0.0000   0.0000  -0.0579
  -5.900  -0.2347   0.05087   0.04827  -0.0783  0.9779  0.0310  -1.8971   0.0000   0.0000   0.0000  -0.0885
  -5.800  -0.2198   0.04910   0.04647  -0.0810  0.9771  0.0315  -1.8689   0.0000   0.0000   0.0000  -0.1240
  -5.700  -0.2046   0.04727   0.04458  -0.0839  0.9763  0.0320  -1.8459   0.0000   0.0000   0.0000  -0.1659
  -5.600  -0.1928   0.04560   0.04287  -0.0859  0.9739  0.0325  -1.8325   0.0000   0.0000   0.0000  -0.2011
  -5.500  -0.1807   0.04385   0.04107  -0.0879  0.9714  0.0331  -1.8237   0.0000   0.0000   0.0000  -0.2425
  -5.400  -0.1666   0.04192   0.03907  -0.0903  0.9697  0.0338  -1.8192   0.0000   0.0000   0.0000  -0.2983
  -5.300  -0.1517   0.03987   0.03693  -0.0928  0.9683  0.0346  -1.8212   0.0000   0.0000   0.0000  -0.3689
  -5.200  -0.1363   0.03769   0.03465  -0.0954  0.9672  0.0355  -1.8316   0.0000   0.0000   0.0000  -0.4579
  -5.100  -0.1204   0.03540   0.03223  -0.0979  0.9662  0.0364  -1.8521   0.0000   0.0000   0.0000  -0.5723
  -5.000  -0.1001   0.02468   0.02063  -0.1030  0.9648  0.0251  -2.4750   0.0000   0.0000   0.0000  -0.7919
  -4.900  -0.0858   0.02133   0.01687  -0.1047  0.9640  0.0234  -2.6095   0.0000   0.0000   0.0000  -0.9855
  -4.800  -0.0714   0.01875   0.01389  -0.1057  0.9633  0.0222  -2.7180   0.0000   0.0000   0.0000  -1.2505
  -4.700  -0.0569   0.01697   0.01179  -0.1066  0.9627  0.0215  -2.7770   0.0000   0.0000   0.0000  -1.6462
  -4.600  -0.0473   0.01594   0.01058  -0.1062  0.9598  0.0213  -2.7918   0.0000   0.0000   0.0000  -2.0264
  -4.500  -0.0359   0.01509   0.00957  -0.1063  0.9574  0.0214  -2.7878   0.0000   0.0000   0.0000  -2.7490
  -4.400  -0.0233   0.01435   0.00863  -0.1065  0.9556  0.0221  -2.7958   0.0000   0.0000   0.0000  -4.3817
  -4.300  -0.0102   0.01369   0.00786  -0.1068  0.9541  0.0228  -2.7776   0.0000   0.0000   0.0000  -10.3419
  -4.200   0.0031   0.01315   0.00722  -0.1072  0.9526  0.0242  -2.7596   0.0000   0.0000   0.0000  34.7107
  -4.100   0.0168   0.01294   0.00697  -0.1076  0.9512  0.0266  -2.7206   0.0000   0.0000   0.0000   6.7216
  -4.000   0.0299   0.01223   0.00615  -0.1080  0.9499  0.0302  -2.7043   0.0000   0.0000   0.0000   3.8953
  -3.900   0.0434   0.01193   0.00584  -0.1085  0.9487  0.0326  -2.6208   0.0000   0.0000   0.0000   2.7766
  -3.800   0.0570   0.01178   0.00569  -0.1090  0.9475  0.0342  -2.5252   0.0000   0.0000   0.0000   2.1828
  -3.700   0.0704   0.01160   0.00549  -0.1095  0.9463  0.0357  -2.4342   0.0000   0.0000   0.0000   1.8189
  -3.600   0.0794   0.01145   0.00532  -0.1089  0.9426  0.0368  -2.3629   0.0000   0.0000   0.0000   1.6351
  -3.500   0.0901   0.01135   0.00520  -0.1088  0.9395  0.0385  -2.2791   0.0000   0.0000   0.0000   1.4686
  -3.400   0.1018   0.01129   0.00513  -0.1088  0.9369  0.0402  -2.1879   0.0000   0.0000   0.0000   1.3288
  -3.300   0.1139   0.01123   0.00506  -0.1090  0.9346  0.0413  -2.0981   0.0000   0.0000   0.0000   1.2147
  -3.200   0.1260   0.01088   0.00467  -0.1091  0.9325  0.0428  -2.0310   0.0000   0.0000   0.0000   1.1227
  -3.100   0.1380   0.01029   0.00405  -0.1092  0.9305  0.0481  -1.9813   0.0000   0.0000   0.0000   1.0479
  -3.000   0.1503   0.01013   0.00389  -0.1094  0.9286  0.0517  -1.8981   0.0000   0.0000   0.0000   0.9832
  -2.900   0.1620   0.01001   0.00376  -0.1094  0.9261  0.0548  -1.8175   0.0000   0.0000   0.0000   0.9304
  -2.800   0.1718   0.00993   0.00366  -0.1090  0.9221  0.0572  -1.7433   0.0000   0.0000   0.0000   0.8894
  -2.700   0.1824   0.00987   0.00358  -0.1088  0.9183  0.0588  -1.6639   0.0000   0.0000   0.0000   0.8507
  -2.600   0.1934   0.00950   0.00324  -0.1087  0.9149  0.0676  -1.5994   0.0000   0.0000   0.0000   0.8160
  -2.500   0.2047   0.00938   0.00313  -0.1087  0.9117  0.0736  -1.5199   0.0000   0.0000   0.0000   0.7842
  -2.400   0.2164   0.00931   0.00302  -0.1087  0.9088  0.0781  -1.4387   0.0000   0.0000   0.0000   0.7552
  -2.300   0.2282   0.00908   0.00285  -0.1088  0.9061  0.0907  -1.3631   0.0000   0.0000   0.0000   0.7292
  -2.200   0.2386   0.00901   0.00279  -0.1085  0.9022  0.0986  -1.2880   0.0000   0.0000   0.0000   0.7074
  -2.100   0.2489   0.00888   0.00271  -0.1084  0.8980  0.1116  -1.2148   0.0000   0.0000   0.0000   0.6875
  -2.000   0.2596   0.00880   0.00266  -0.1082  0.8941  0.1233  -1.1388   0.0000   0.0000   0.0000   0.6688
  -1.900   0.2706   0.00866   0.00260  -0.1082  0.8904  0.1405  -1.0631   0.0000   0.0000   0.0000   0.6515
  -1.800   0.2818   0.00857   0.00248  -0.1081  0.8870  0.1560  -1.0277   0.0000   0.0000   0.0000   0.6352
  -1.700   0.2932   0.00846   0.00241  -0.1081  0.8838  0.1728  -0.9770   0.0000   0.0000   0.0000   0.6201
  -1.600   0.3044   0.00838   0.00236  -0.1081  0.8804  0.1889  -0.9272   0.0000   0.0000   0.0000   0.6063
  -1.500   0.3148   0.00830   0.00234  -0.1079  0.8760  0.2057  -0.8794   0.0000   0.0000   0.0000   0.5939
  -1.400   0.3254   0.00821   0.00231  -0.1078  0.8715  0.2252  -0.8318   0.0000   0.0000   0.0000   0.5822
  -1.300   0.3362   0.00813   0.00227  -0.1077  0.8671  0.2455  -0.7840   0.0000   0.0000   0.0000   0.5711
  -1.200   0.3472   0.00803   0.00223  -0.1077  0.8630  0.2707  -0.7365   0.0000   0.0000   0.0000   0.5607
  -1.100   0.3582   0.00792   0.00218  -0.1076  0.8590  0.2977  -0.6893   0.0000   0.0000   0.0000   0.5509
  -0.900   0.3798   0.00771   0.00213  -0.1075  0.8503  0.3600  -0.5981   0.0000   0.0000   0.0000   0.5332
  -0.800   0.3902   0.00755   0.00211  -0.1074  0.8450  0.4091  -0.5663   0.0000   0.0000   0.0000   0.5254
  -0.700   0.3999   0.00720   0.00212  -0.1072  0.8397  0.5284  -0.5730   0.0000   0.0000   0.0000   0.5181
  -0.600   0.4080   0.00675   0.00214  -0.1066  0.8345  0.6875  -0.5790   0.0000   0.0000   0.0000   0.5111
  -0.500   0.4117   0.00629   0.00215  -0.1045  0.8296  0.8543  -0.5832   0.0000   0.0000   0.0000   0.5036
  -0.400   0.4316   0.00611   0.00205  -0.1060  0.8251  0.9999  -0.5949   0.0000   0.0000   0.0000   0.4954
  -0.300   0.4423   0.00612   0.00203  -0.1059  0.8198  0.9999  -0.6023   0.0000   0.0000   0.0000   0.4891
  -0.200   0.4530   0.00613   0.00201  -0.1058  0.8141  0.9999  -0.6102   0.0000   0.0000   0.0000   0.4830
  -0.100   0.4639   0.00615   0.00199  -0.1056  0.8085  0.9999  -0.6182   0.0000   0.0000   0.0000   0.4772
   0.000   0.4748   0.00618   0.00196  -0.1055  0.8030  0.9999  -0.6262   0.0000   0.0000   0.0000   0.4716
   0.100   0.4857   0.00621   0.00193  -0.1054  0.7976  0.9999  -0.6343   0.0000   0.0000   0.0000   0.4662
   0.200   0.4966   0.00624   0.00192  -0.1053  0.7925  0.9999  -0.6423   0.0000   0.0000   0.0000   0.4612
   0.300   0.5074   0.00626   0.00192  -0.1052  0.7868  0.9999  -0.6503   0.0000   0.0000   0.0000   0.4564
   0.400   0.5182   0.00629   0.00191  -0.1051  0.7806  0.9999  -0.6583   0.0000   0.0000   0.0000   0.4517
   0.500   0.5290   0.00632   0.00190  -0.1049  0.7741  0.9999  -0.6663   0.0000   0.0000   0.0000   0.4472
   0.600   0.5398   0.00636   0.00188  -0.1048  0.7677  0.9999  -0.6743   0.0000   0.0000   0.0000   0.4429
   0.700   0.5505   0.00641   0.00187  -0.1046  0.7613  0.9999  -0.6824   0.0000   0.0000   0.0000   0.4388
   0.800   0.5613   0.00643   0.00188  -0.1045  0.7552  0.9999  -0.6903   0.0000   0.0000   0.0000   0.4349
   0.900   0.5721   0.00647   0.00189  -0.1044  0.7482  0.9999  -0.6991   0.0000   0.0000   0.0000   0.4311
   1.000   0.5827   0.00651   0.00191  -0.1043  0.7411  0.9999  -0.7080   0.0000   0.0000   0.0000   0.4274
   1.100   0.5934   0.00657   0.00190  -0.1041  0.7342  0.9999  -0.7169   0.0000   0.0000   0.0000   0.4238
   1.200   0.6041   0.00663   0.00191  -0.1040  0.7277  0.9999  -0.7258   0.0000   0.0000   0.0000   0.4204
   1.300   0.6150   0.00666   0.00193  -0.1039  0.7220  0.9999  -0.7347   0.0000   0.0000   0.0000   0.4172
   1.400   0.6258   0.00670   0.00195  -0.1038  0.7154  0.9999  -0.7436   0.0000   0.0000   0.0000   0.4140
   1.500   0.6364   0.00675   0.00196  -0.1037  0.7084  0.9999  -0.7526   0.0000   0.0000   0.0000   0.4110
   1.600   0.6470   0.00681   0.00197  -0.1035  0.7011  0.9999  -0.7614   0.0000   0.0000   0.0000   0.4080
   1.700   0.6575   0.00690   0.00198  -0.1033  0.6934  0.9999  -0.7707   0.0000   0.0000   0.0000   0.4051
   1.800   0.6683   0.00693   0.00201  -0.1033  0.6876  0.9999  -0.7807   0.0000   0.0000   0.0000   0.4023
   1.900   0.6790   0.00697   0.00204  -0.1032  0.6806  0.9999  -0.7907   0.0000   0.0000   0.0000   0.3996
   2.000   0.6897   0.00703   0.00206  -0.1030  0.6733  0.9999  -0.8006   0.0000   0.0000   0.0000   0.3970
   2.100   0.7002   0.00710   0.00208  -0.1029  0.6660  0.9999  -0.8105   0.0000   0.0000   0.0000   0.3945
   2.200   0.7106   0.00719   0.00212  -0.1027  0.6587  0.9999  -0.8203   0.0000   0.0000   0.0000   0.3920
   2.300   0.7213   0.00725   0.00216  -0.1026  0.6530  0.9999  -0.8309   0.0000   0.0000   0.0000   0.3896
   2.400   0.7322   0.00729   0.00220  -0.1025  0.6472  0.9999  -0.8421   0.0000   0.0000   0.0000   0.3874
   2.500   0.7429   0.00735   0.00224  -0.1024  0.6406  0.9999  -0.8533   0.0000   0.0000   0.0000   0.3851
   2.600   0.7534   0.00742   0.00227  -0.1023  0.6337  0.9999  -0.8644   0.0000   0.0000   0.0000   0.3829
   2.700   0.7638   0.00751   0.00231  -0.1021  0.6266  0.9999  -0.8760   0.0000   0.0000   0.0000   0.3808
   2.800   0.7741   0.00762   0.00236  -0.1020  0.6190  0.9999  -0.9050   0.0000   0.0000   0.0000   0.3787
   2.900   0.7850   0.00766   0.00242  -0.1019  0.6143  0.9999  -0.9386   0.0000   0.0000   0.0000   0.3767
   3.000   0.7958   0.00771   0.00247  -0.1018  0.6092  0.9999  -0.9827   0.0000   0.0000   0.0000   0.3748
   3.100   0.8065   0.00777   0.00252  -0.1018  0.6034  0.9999  -1.0366   0.0000   0.0000   0.0000   0.3729
   3.200   0.8171   0.00784   0.00257  -0.1016  0.5973  0.9999  -1.0909   0.0000   0.0000   0.0000   0.3710
   3.300   0.8275   0.00793   0.00262  -0.1015  0.5910  0.9999  -1.1456   0.0000   0.0000   0.0000   0.3691
   3.400   0.8377   0.00804   0.00268  -0.1013  0.5841  0.9999  -1.2004   0.0000   0.0000   0.0000   0.3673
   3.500   0.8483   0.00813   0.00276  -0.1012  0.5781  0.9999  -1.2567   0.0000   0.0000   0.0000   0.3656
   3.600   0.8592   0.00817   0.00291  -0.1011  0.5740  0.9999  -1.3016   0.0000   0.0000   0.0000   0.3639
   3.700   0.8699   0.00822   0.00298  -0.1010  0.5687  0.9999  -1.3504   0.0000   0.0000   0.0000   0.3623
   3.800   0.8804   0.00829   0.00304  -0.1009  0.5622  0.9999  -1.4054   0.0000   0.0000   0.0000   0.3607
   3.900   0.8903   0.00839   0.00309  -0.1007  0.5532  0.9999  -1.4610   0.0000   0.0000   0.0000   0.3590
   4.000   0.8997   0.00855   0.00316  -0.1003  0.5406  0.9999  -1.5163   0.0000   0.0000   0.0000   0.3573
   4.100   0.9102   0.00858   0.00321  -0.1002  0.5324  0.9999  -1.5757   0.0000   0.0000   0.0000   0.3558
   4.200   0.9203   0.00866   0.00326  -0.1000  0.5218  0.9999  -1.6348   0.0000   0.0000   0.0000   0.3543
   4.300   0.9299   0.00878   0.00331  -0.0997  0.5108  0.9999  -1.7098   0.0000   0.0000   0.0000   0.3527
   4.400   0.9395   0.00893   0.00340  -0.0994  0.4999  0.9999  -1.7946   0.0000   0.0000   0.0000   0.3512
   4.500   0.9501   0.00897   0.00346  -0.0993  0.4923  0.9999  -1.8847   0.0000   0.0000   0.0000   0.3498
   4.600   0.9602   0.00906   0.00353  -0.0991  0.4823  0.9999  -1.9741   0.0000   0.0000   0.0000   0.3484
   4.700   0.9698   0.00919   0.00360  -0.0988  0.4716  0.9999  -2.0627   0.0000   0.0000   0.0000   0.3470
   4.800   0.9792   0.00935   0.00370  -0.0985  0.4605  0.9999  -2.1516   0.0000   0.0000   0.0000   0.3456
   4.900   0.9898   0.00940   0.00378  -0.0984  0.4527  0.9999  -2.2465   0.0000   0.0000   0.0000   0.3443
   5.000   0.9999   0.00950   0.00386  -0.0982  0.4426  0.9999  -2.3405   0.0000   0.0000   0.0000   0.3430
   5.100   1.0094   0.00965   0.00395  -0.0980  0.4317  0.9999  -2.4334   0.0000   0.0000   0.0000   0.3417
   5.200   1.0189   0.00980   0.00406  -0.0977  0.4206  0.9999  -2.5267   0.0000   0.0000   0.0000   0.3404
   5.300   1.0293   0.00987   0.00415  -0.0975  0.4104  0.9999  -2.6254   0.0000   0.0000   0.0000   0.3392
   5.400   1.0386   0.01004   0.00425  -0.0972  0.3940  0.9999  -2.7204   0.0000   0.0000   0.0000   0.3380
   5.500   1.0476   0.01023   0.00437  -0.0969  0.3767  0.9999  -2.8146   0.0000   0.0000   0.0000   0.3367
   5.600   1.0561   0.01047   0.00450  -0.0965  0.3526  0.9999  -2.9077   0.0000   0.0000   0.0000   0.3355
   5.700   1.0643   0.01075   0.00465  -0.0960  0.3251  0.9999  -2.9995   0.0000   0.0000   0.0000   0.3342
   5.800   1.0713   0.01114   0.00486  -0.0954  0.2895  0.9999  -3.0865   0.0000   0.0000   0.0000   0.3330
   5.900   1.0773   0.01167   0.00513  -0.0947  0.2458  0.9999  -3.1685   0.0000   0.0000   0.0000   0.3317
   6.000   1.0825   0.01231   0.00549  -0.0939  0.1972  0.9999  -3.2457   0.0000   0.0000   0.0000   0.3304
   6.100   1.0870   0.01304   0.00590  -0.0930  0.1456  0.9999  -3.3193   0.0000   0.0000   0.0000   0.3292
   6.200   1.0920   0.01373   0.00632  -0.0922  0.1016  0.9999  -3.3937   0.0000   0.0000   0.0000   0.3279
   6.300   1.0973   0.01438   0.00674  -0.0914  0.0699  0.9999  -3.4674   0.0000   0.0000   0.0000   0.3266
   6.400   1.1046   0.01479   0.00713  -0.0909  0.0557  0.9999  -3.5348   0.0000   0.0000   0.0000   0.3255
   6.500   1.1127   0.01511   0.00742  -0.0904  0.0460  0.9999  -3.6185   0.0000   0.0000   0.0000   0.3244
   6.600   1.1198   0.01556   0.00780  -0.0897  0.0380  0.9999  -3.6932   0.0000   0.0000   0.0000   0.3232
   6.700   1.1275   0.01592   0.00819  -0.0891  0.0331  0.9999  -3.7650   0.0000   0.0000   0.0000   0.3220
   6.800   1.1363   0.01616   0.00846  -0.0888  0.0306  0.9999  -3.8536   0.0000   0.0000   0.0000   0.3209
   6.900   1.1445   0.01645   0.00875  -0.0883  0.0282  0.9999  -3.9400   0.0000   0.0000   0.0000   0.3198
   7.000   1.1523   0.01679   0.00908  -0.0878  0.0259  0.9999  -4.0212   0.0000   0.0000   0.0000   0.3187
   7.100   1.1581   0.01734   0.00967  -0.0868  0.0232  0.9999  -4.0727   0.0000   0.0000   0.0000   0.3174
   7.200   1.1623   0.01804   0.01045  -0.0857  0.0212  0.9999  -4.1017   0.0000   0.0000   0.0000   0.3160
   7.300   1.1721   0.01813   0.01056  -0.0855  0.0204  0.9999  -4.2008   0.0000   0.0000   0.0000   0.3151
   7.400   1.1809   0.01834   0.01078  -0.0851  0.0189  0.9999  -4.2759   0.0000   0.0000   0.0000   0.3141
   7.500   1.1883   0.01868   0.01115  -0.0845  0.0171  0.9999  -4.3274   0.0000   0.0000   0.0000   0.3130
   7.600   1.1950   0.01909   0.01159  -0.0837  0.0160  0.9999  -4.3778   0.0000   0.0000   0.0000   0.3119
   7.700   1.2012   0.01954   0.01207  -0.0829  0.0152  0.9999  -4.4292   0.0000   0.0000   0.0000   0.3107
   7.800   1.2069   0.02003   0.01260  -0.0820  0.0147  0.9999  -4.4780   0.0000   0.0000   0.0000   0.3095
   7.900   1.2122   0.02056   0.01318  -0.0811  0.0143  0.9999  -4.5235   0.0000   0.0000   0.0000   0.3083
   8.000   1.2171   0.02112   0.01379  -0.0801  0.0140  0.9999  -4.5665   0.0000   0.0000   0.0000   0.3071
   8.100   1.2218   0.02172   0.01443  -0.0790  0.0138  0.9999  -4.6081   0.0000   0.0000   0.0000   0.3058
   8.200   1.2264   0.02233   0.01510  -0.0780  0.0136  0.9999  -4.6497   0.0000   0.0000   0.0000   0.3046
   8.300   1.2311   0.02295   0.01577  -0.0769  0.0135  0.9999  -4.6919   0.0000   0.0000   0.0000   0.3034
   8.400   1.2358   0.02359   0.01646  -0.0759  0.0134  0.9999  -4.7348   0.0000   0.0000   0.0000   0.3022
   8.500   1.2407   0.02424   0.01717  -0.0749  0.0133  0.9999  -4.7786   0.0000   0.0000   0.0000   0.3010
   8.600   1.2459   0.02490   0.01789  -0.0740  0.0133  0.9999  -4.8233   0.0000   0.0000   0.0000   0.2999
   8.700   1.2513   0.02558   0.01862  -0.0731  0.0133  0.9999  -4.8687   0.0000   0.0000   0.0000   0.2988
   8.800   1.2571   0.02628   0.01938  -0.0722  0.0134  0.9999  -4.9143   0.0000   0.0000   0.0000   0.2977
   8.900   1.2631   0.02701   0.02017  -0.0714  0.0134  0.9999  -4.9592   0.0000   0.0000   0.0000   0.2967
   9.000   1.2695   0.02779   0.02101  -0.0707  0.0135  0.9999  -5.0021   0.0000   0.0000   0.0000   0.2957
   9.100   1.2763   0.02863   0.02193  -0.0700  0.0136  0.9999  -5.0407   0.0000   0.0000   0.0000   0.2947
   9.200   1.2834   0.02959   0.02299  -0.0693  0.0138  0.9999  -5.0707   0.0000   0.0000   0.0000   0.2938
   9.300   1.2911   0.03077   0.02428  -0.0687  0.0141  0.9999  -5.0842   0.0000   0.0000   0.0000   0.2928
   9.400   1.2995   0.03235   0.02601  -0.0681  0.0146  0.9999  -5.0677   0.0000   0.0000   0.0000   0.2919
   9.500   1.3081   0.03448   0.02833  -0.0676  0.0153  0.9999  -5.0146   0.0000   0.0000   0.0000   0.2910
   9.600   1.3140   0.03729   0.03148  -0.0665  0.0164  0.9999  -4.9139   0.0000   0.0000   0.0000   0.2899
   9.700   1.3169   0.03968   0.03410  -0.0653  0.0173  0.9999  -4.8457   0.0000   0.0000   0.0000   0.2888
   9.800   1.3182   0.04182   0.03642  -0.0640  0.0180  0.9999  -4.8008   0.0000   0.0000   0.0000   0.2876
   9.900   1.3187   0.04371   0.03848  -0.0627  0.0185  0.9999  -4.7749   0.0000   0.0000   0.0000   0.2865
  10.000   1.3183   0.04548   0.04039  -0.0613  0.0188  0.9999  -4.7575   0.0000   0.0000   0.0000   0.2854
  10.100   1.3175   0.04717   0.04221  -0.0600  0.0191  0.9999  -4.7453   0.0000   0.0000   0.0000   0.2843
  10.200   1.3163   0.04875   0.04391  -0.0586  0.0193  0.9999  -4.7384   0.0000   0.0000   0.0000   0.2832
  10.300   1.3150   0.05016   0.04544  -0.0573  0.0194  0.9999  -4.7397   0.0000   0.0000   0.0000   0.2821
  10.400   1.3141   0.05132   0.04669  -0.0560  0.0193  0.9999  -4.7542   0.0000   0.0000   0.0000   0.2810
  10.500   1.3134   0.05223   0.04768  -0.0546  0.0191  0.9999  -4.7786   0.0000   0.0000   0.0000   0.2799
  10.600   1.3118   0.05304   0.04856  -0.0532  0.0189  0.9999  -4.8039   0.0000   0.0000   0.0000   0.2787
  10.700   1.3098   0.05384   0.04943  -0.0517  0.0186  0.9999  -4.8283   0.0000   0.0000   0.0000   0.2775
  10.800   1.3072   0.05467   0.05033  -0.0502  0.0184  0.9999  -4.8502   0.0000   0.0000   0.0000   0.2763
  10.900   1.3040   0.05555   0.05129  -0.0488  0.0182  0.9999  -4.8691   0.0000   0.0000   0.0000   0.2752
  11.000   1.3004   0.05649   0.05230  -0.0474  0.0180  0.9999  -4.8850   0.0000   0.0000   0.0000   0.2741
  11.100   1.2960   0.05750   0.05339  -0.0461  0.0178  0.9999  -4.8959   0.0000   0.0000   0.0000   0.2731
  11.200   1.2911   0.05860   0.05456  -0.0449  0.0177  0.9999  -4.9024   0.0000   0.0000   0.0000   0.2721
  11.300   1.2858   0.05980   0.05584  -0.0437  0.0176  0.9999  -4.9038   0.0000   0.0000   0.0000   0.2712
  11.400   1.2798   0.06112   0.05723  -0.0427  0.0175  0.9999  -4.8994   0.0000   0.0000   0.0000   0.2704
  11.500   1.2732   0.06255   0.05874  -0.0417  0.0175  0.9999  -4.8888   0.0000   0.0000   0.0000   0.2697
  11.600   1.2656   0.06408   0.06036  -0.0408  0.0175  0.9999  -4.8698   0.0000   0.0000   0.0000   0.2691
  11.700   1.2573   0.06574   0.06210  -0.0401  0.0176  0.9999  -4.8454   0.0000   0.0000   0.0000   0.2686
  11.800   1.2487   0.06754   0.06398  -0.0395  0.0177  0.9999  -4.8163   0.0000   0.0000   0.0000   0.2682
  11.900   1.2395   0.06949   0.06601  -0.0391  0.0179  0.9999  -4.7818   0.0000   0.0000   0.0000   0.2680
  12.000   1.2297   0.07159   0.06819  -0.0390  0.0181  0.9999  -4.7421   0.0000   0.0000   0.0000   0.2679
  12.100   1.2192   0.07388   0.07056  -0.0390  0.0183  0.9999  -4.6954   0.0000   0.0000   0.0000   0.2681
  12.200   1.2065   0.07657   0.07334  -0.0393  0.0187  0.9999  -4.6297   0.0000   0.0000   0.0000   0.2685
  14.200   1.0062   0.15993   0.15759  -0.0850  0.0260  0.9999  -2.6365   0.0000   0.0000   0.0000   0.3192
  14.300   1.0050   0.16234   0.16000  -0.0862  0.0258  0.9999  -2.6121   0.0000   0.0000   0.0000   0.3204
  14.400   1.0042   0.16465   0.16230  -0.0873  0.0256  0.9999  -2.5913   0.0000   0.0000   0.0000   0.3215
  14.500   1.0037   0.16680   0.16445  -0.0884  0.0254  0.9999  -2.5741   0.0000   0.0000   0.0000   0.3225
  14.600   1.0035   0.16881   0.16645  -0.0894  0.0252  0.9999  -2.5601   0.0000   0.0000   0.0000   0.3234
  14.700   1.0035   0.17072   0.16836  -0.0904  0.0250  0.9999  -2.5492   0.0000   0.0000   0.0000   0.3243
  14.800   1.0037   0.17257   0.17020  -0.0913  0.0248  0.9999  -2.5409   0.0000   0.0000   0.0000   0.3251
  14.900   1.0041   0.17434   0.17198  -0.0922  0.0246  0.9999  -2.5362   0.0000   0.0000   0.0000   0.3258
  15.000   1.0048   0.17601   0.17365  -0.0930  0.0244  0.9999  -2.5373   0.0000   0.0000   0.0000   0.3264
  15.100   1.0058   0.17757   0.17520  -0.0938  0.0242  0.9999  -2.5451   0.0000   0.0000   0.0000   0.3269
  15.200   1.0071   0.17897   0.17660  -0.0944  0.0240  0.9999  -2.5616   0.0000   0.0000   0.0000   0.3272
  15.300   1.0088   0.18016   0.17780  -0.0948  0.0237  0.9999  -2.6037   0.0000   0.0000   0.0000   0.3274
  15.400   1.0110   0.18106   0.17870  -0.0951  0.0234  0.9999  -2.6662   0.0000   0.0000   0.0000   0.3272
  15.500   1.0130   0.18191   0.17955  -0.0953  0.0231  0.9999  -2.7324   0.0000   0.0000   0.0000   0.3270
  15.600   1.0133   0.18344   0.18109  -0.0959  0.0227  0.9999  -2.7612   0.0000   0.0000   0.0000   0.3275
  15.700   1.0120   0.18550   0.18314  -0.0967  0.0223  0.9999  -2.7627   0.0000   0.0000   0.0000   0.3282
  15.800   1.0050   0.18983   0.18746  -0.0983  0.0218  0.9999  -2.6453   0.0000   0.0000   0.0000   0.3305
  15.900   0.9943   0.19661   0.19419  -0.1009  0.0214  0.9999  -2.4079   0.0000   0.0000   0.0000   0.3342
  16.000   0.9952   0.19885   0.19643  -0.1019  0.0214  0.9999  -2.3993   0.0000   0.0000   0.0000   0.3350
  16.100   0.9962   0.20107   0.19864  -0.1029  0.0213  0.9999  -2.3916   0.0000   0.0000   0.0000   0.3358
  16.200   0.9972   0.20326   0.20084  -0.1039  0.0213  0.9999  -2.3849   0.0000   0.0000   0.0000   0.3366
  16.300   0.9983   0.20544   0.20301  -0.1049  0.0213  0.9999  -2.3790   0.0000   0.0000   0.0000   0.3374
  16.400   0.9994   0.20760   0.20517  -0.1059  0.0213  0.9999  -2.3740   0.0000   0.0000   0.0000   0.3381
  16.500   1.0007   0.20974   0.20731  -0.1069  0.0213  0.9999  -2.3700   0.0000   0.0000   0.0000   0.3388
  16.600   1.0019   0.21185   0.20943  -0.1078  0.0212  0.9999  -2.3668   0.0000   0.0000   0.0000   0.3395
  16.700   1.0032   0.21396   0.21153  -0.1088  0.0212  0.9999  -2.3644   0.0000   0.0000   0.0000   0.3402
  16.800   1.0046   0.21606   0.21363  -0.1097  0.0212  0.9999  -2.3628   0.0000   0.0000   0.0000   0.3408
  16.900   1.0060   0.21815   0.21572  -0.1106  0.0212  0.9999  -2.3617   0.0000   0.0000   0.0000   0.3414
  17.000   1.0074   0.22023   0.21780  -0.1114  0.0212  0.9999  -2.3610   0.0000   0.0000   0.0000   0.3420
  17.100   1.0088   0.22230   0.21987  -0.1123  0.0211  0.9999  -2.3605   0.0000   0.0000   0.0000   0.3426
  17.200   1.0103   0.22436   0.22193  -0.1132  0.0211  0.9999  -2.3602   0.0000   0.0000   0.0000   0.3432
  17.300   1.0118   0.22640   0.22397  -0.1141  0.0211  0.9999  -2.3603   0.0000   0.0000   0.0000   0.3438
  17.400   1.0135   0.22840   0.22598  -0.1150  0.0210  0.9999  -2.3605   0.0000   0.0000   0.0000   0.3443
  17.500   1.0152   0.23037   0.22794  -0.1159  0.0209  0.9999  -2.3613   0.0000   0.0000   0.0000   0.3449
  17.600   1.0172   0.23225   0.22983  -0.1169  0.0208  0.9999  -2.3631   0.0000   0.0000   0.0000   0.3455
  17.700   1.0200   0.23390   0.23148  -0.1179  0.0205  0.9999  -2.3684   0.0000   0.0000   0.0000   0.3460
  17.800   1.0227   0.23587   0.23345  -0.1199  0.0194  0.9999  -2.3287   0.0000   0.0000   0.0000   0.3476
  17.900   1.0242   0.23814   0.23571  -0.1213  0.0182  0.9999  -2.2992   0.0000   0.0000   0.0000   0.3487
  18.000   1.0258   0.24017   0.23774  -0.1223  0.0172  0.9999  -2.2954   0.0000   0.0000   0.0000   0.3493
  18.100   1.0274   0.24201   0.23958  -0.1231  0.0163  0.9999  -2.3055   0.0000   0.0000   0.0000   0.3498
  18.300   1.0332   0.24340   0.24103  -0.1237  0.0137  0.9999  -2.4540   0.0000   0.0000   0.0000   0.3492
  18.400   1.0370   0.24341   0.24105  -0.1234  0.0130  0.9999  -2.5862   0.0000   0.0000   0.0000   0.3482
  18.500   1.0406   0.24333   0.24097  -0.1230  0.0125  0.9999  -2.7317   0.0000   0.0000   0.0000   0.3470
  18.600   1.0399   0.24531   0.24296  -0.1234  0.0120  0.9999  -2.7527   0.0000   0.0000   0.0000   0.3474
  19.700   1.0414   0.27687   0.27447  -0.1326  0.0113  0.9999  -2.1236   0.0000   0.0000   0.0000   0.3548
  19.800   1.0425   0.27916   0.27676  -0.1333  0.0113  0.9999  -2.1058   0.0000   0.0000   0.0000   0.3551
  19.900   1.0436   0.28145   0.27904  -0.1340  0.0113  0.9999  -2.0889   0.0000   0.0000   0.0000   0.3555
  20.000   1.0446   0.28372   0.28131  -0.1346  0.0112  0.9999  -2.0729   0.0000   0.0000   0.0000   0.3558
  20.100   1.0456   0.28598   0.28358  -0.1353  0.0112  0.9999  -2.0576   0.0000   0.0000   0.0000   0.3562
  20.200   1.0466   0.28824   0.28584  -0.1359  0.0112  0.9999  -2.0430   0.0000   0.0000   0.0000   0.3565
  20.300   1.0476   0.29049   0.28809  -0.1366  0.0112  0.9999  -2.0290   0.0000   0.0000   0.0000   0.3569
  20.400   1.0486   0.29273   0.29033  -0.1372  0.0112  0.9999  -2.0155   0.0000   0.0000   0.0000   0.3572
  20.500   1.0495   0.29496   0.29256  -0.1378  0.0112  0.9999  -2.0024   0.0000   0.0000   0.0000   0.3575
  20.600   1.0504   0.29719   0.29479  -0.1385  0.0112  0.9999  -1.9898   0.0000   0.0000   0.0000   0.3578
  20.700   1.0512   0.29940   0.29701  -0.1391  0.0112  0.9999  -1.9776   0.0000   0.0000   0.0000   0.3582
  20.800   1.0520   0.30161   0.29922  -0.1397  0.0112  0.9999  -1.9657   0.0000   0.0000   0.0000   0.3585
  20.900   1.0528   0.30381   0.30142  -0.1403  0.0111  0.9999  -1.9542   0.0000   0.0000   0.0000   0.3588
  21.000   1.0535   0.30600   0.30361  -0.1409  0.0111  0.9999  -1.9428   0.0000   0.0000   0.0000   0.3591
  21.100   1.0542   0.30817   0.30579  -0.1415  0.0111  0.9999  -1.9317   0.0000   0.0000   0.0000   0.3594
  21.200   1.0549   0.31034   0.30795  -0.1421  0.0111  0.9999  -1.9209   0.0000   0.0000   0.0000   0.3597
  21.300   1.0555   0.31249   0.31010  -0.1426  0.0111  0.9999  -1.9104   0.0000   0.0000   0.0000   0.3600
  21.400   1.0560   0.31462   0.31224  -0.1432  0.0110  0.9999  -1.8997   0.0000   0.0000   0.0000   0.3604
  21.500   1.0566   0.31674   0.31436  -0.1438  0.0110  0.9999  -1.8891   0.0000   0.0000   0.0000   0.3607
  21.600   1.0571   0.31884   0.31647  -0.1444  0.0110  0.9999  -1.8785   0.0000   0.0000   0.0000   0.3610
  21.700   1.0574   0.32095   0.31858  -0.1450  0.0109  0.9999  -1.8649   0.0000   0.0000   0.0000   0.3614
  21.800   1.0577   0.32307   0.32070  -0.1457  0.0108  0.9999  -1.8484   0.0000   0.0000   0.0000   0.3618
  21.900   1.0580   0.32517   0.32280  -0.1464  0.0108  0.9999  -1.8310   0.0000   0.0000   0.0000   0.3623
  22.000   1.0583   0.32725   0.32488  -0.1471  0.0106  0.9999  -1.8122   0.0000   0.0000   0.0000   0.3628
  22.100   1.0589   0.32934   0.32697  -0.1478  0.0105  0.9999  -1.7909   0.0000   0.0000   0.0000   0.3633
  22.200   1.0596   0.33146   0.32910  -0.1486  0.0102  0.9999  -1.7676   0.0000   0.0000   0.0000   0.3637
  22.300   1.0600   0.33362   0.33126  -0.1492  0.0099  0.9999  -1.7466   0.0000   0.0000   0.0000   0.3641
  22.400   1.0601   0.33575   0.33340  -0.1496  0.0096  0.9999  -1.7301   0.0000   0.0000   0.0000   0.3644
  22.500   1.0599   0.33785   0.33550  -0.1500  0.0093  0.9999  -1.7170   0.0000   0.0000   0.0000   0.3646
  22.600   1.0594   0.33991   0.33756  -0.1504  0.0090  0.9999  -1.7059   0.0000   0.0000   0.0000   0.3648
  22.700   1.0587   0.34193   0.33959  -0.1507  0.0088  0.9999  -1.6960   0.0000   0.0000   0.0000   0.3651
  22.800   1.0578   0.34391   0.34157  -0.1509  0.0086  0.9999  -1.6869   0.0000   0.0000   0.0000   0.3653
  22.900   1.0566   0.34584   0.34351  -0.1512  0.0084  0.9999  -1.6783   0.0000   0.0000   0.0000   0.3655
  23.000   1.0552   0.34773   0.34540  -0.1513  0.0083  0.9999  -1.6697   0.0000   0.0000   0.0000   0.3657
  23.100   1.0535   0.34955   0.34723  -0.1514  0.0081  0.9999  -1.6612   0.0000   0.0000   0.0000   0.3659
  23.200   1.0514   0.35130   0.34899  -0.1515  0.0080  0.9999  -1.6527   0.0000   0.0000   0.0000   0.3660
  23.300   1.0488   0.35296   0.35065  -0.1514  0.0078  0.9999  -1.6437   0.0000   0.0000   0.0000   0.3662
  23.400   1.0457   0.35450   0.35219  -0.1513  0.0077  0.9999  -1.6337   0.0000   0.0000   0.0000   0.3664
  23.500   1.0417   0.35586   0.35356  -0.1510  0.0076  0.9999  -1.6220   0.0000   0.0000   0.0000   0.3665
  23.600   1.0354   0.35678   0.35448  -0.1503  0.0075  0.9999  -1.6054   0.0000   0.0000   0.0000   0.3666
  23.700   0.9402   0.33518   0.33297  -0.1340  0.0081  0.9999  -1.3893   0.0000   0.0000   0.0000   0.3654
  23.800   0.9341   0.33477   0.33257  -0.1333  0.0080  0.9999  -1.3725   0.0000   0.0000   0.0000   0.3655
  23.900   0.9287   0.33451   0.33232  -0.1327  0.0079  0.9999  -1.3576   0.0000   0.0000   0.0000   0.3656
  24.000   0.9239   0.33435   0.33216  -0.1322  0.0078  0.9999  -1.3442   0.0000   0.0000   0.0000   0.3658
  24.100   0.9196   0.33427   0.33209  -0.1318  0.0076  0.9999  -1.3320   0.0000   0.0000   0.0000   0.3659
  24.200   0.9156   0.33424   0.33207  -0.1314  0.0075  0.9999  -1.3209   0.0000   0.0000   0.0000   0.3661
  24.300   0.9119   0.33427   0.33210  -0.1311  0.0074  0.9999  -1.3107   0.0000   0.0000   0.0000   0.3662
  24.400   0.9084   0.33432   0.33217  -0.1308  0.0073  0.9999  -1.3012   0.0000   0.0000   0.0000   0.3663
  24.500   0.9051   0.33441   0.33226  -0.1306  0.0072  0.9999  -1.2924   0.0000   0.0000   0.0000   0.3665
  24.600   0.9020   0.33452   0.33238  -0.1304  0.0071  0.9999  -1.2843   0.0000   0.0000   0.0000   0.3666
  24.700   0.8991   0.33466   0.33252  -0.1302  0.0070  0.9999  -1.2769   0.0000   0.0000   0.0000   0.3668
  24.800   0.8964   0.33482   0.33269  -0.1300  0.0069  0.9999  -1.2701   0.0000   0.0000   0.0000   0.3670
  24.900   0.8938   0.33501   0.33288  -0.1299  0.0068  0.9999  -1.2638   0.0000   0.0000   0.0000   0.3671
  25.000   0.8914   0.33521   0.33309  -0.1298  0.0067  0.9999  -1.2582   0.0000   0.0000   0.0000   0.3673
  25.100   0.8890   0.33543   0.33331  -0.1297  0.0066  0.9999  -1.2530   0.0000   0.0000   0.0000   0.3674
  25.200   0.8868   0.33566   0.33355  -0.1296  0.0065  0.9999  -1.2483   0.0000   0.0000   0.0000   0.3676
  25.300   0.8847   0.33590   0.33380  -0.1296  0.0064  0.9999  -1.2442   0.0000   0.0000   0.0000   0.3677
  25.400   0.8826   0.33615   0.33406  -0.1295  0.0064  0.9999  -1.2405   0.0000   0.0000   0.0000   0.3679
  25.500   0.8807   0.33642   0.33433  -0.1295  0.0063  0.9999  -1.2373   0.0000   0.0000   0.0000   0.3680
  25.600   0.8788   0.33669   0.33461  -0.1295  0.0062  0.9999  -1.2346   0.0000   0.0000   0.0000   0.3682
  25.700   0.8770   0.33697   0.33490  -0.1295  0.0061  0.9999  -1.2324   0.0000   0.0000   0.0000   0.3683
  25.800   0.8753   0.33726   0.33519  -0.1295  0.0061  0.9999  -1.2306   0.0000   0.0000   0.0000   0.3685
  25.900   0.8736   0.33755   0.33549  -0.1295  0.0060  0.9999  -1.2293   0.0000   0.0000   0.0000   0.3687
  26.000   0.8720   0.33785   0.33579  -0.1295  0.0059  0.9999  -1.2285   0.0000   0.0000   0.0000   0.3688
  26.100   0.8705   0.33815   0.33610  -0.1296  0.0058  0.9999  -1.2281   0.0000   0.0000   0.0000   0.3690
  26.200   0.8690   0.33845   0.33644  -0.1296  0.0058  0.9999  -1.2266   0.0000   0.0000   0.0000   0.3691
  26.300   0.8676   0.33877   0.33677  -0.1297  0.0057  0.9999  -1.2269   0.0000   0.0000   0.0000   0.3693
  26.400   0.8662   0.33908   0.33708  -0.1297  0.0057  0.9999  -1.2278   0.0000   0.0000   0.0000   0.3694
  26.500   0.8648   0.33939   0.33740  -0.1298  0.0056  0.9999  -1.2293   0.0000   0.0000   0.0000   0.3695
  26.600   0.8635   0.33970   0.33772  -0.1299  0.0055  0.9999  -1.2313   0.0000   0.0000   0.0000   0.3697
  26.700   0.8622   0.34001   0.33803  -0.1299  0.0055  0.9999  -1.2339   0.0000   0.0000   0.0000   0.3698
  26.800   0.8610   0.34032   0.33835  -0.1300  0.0054  0.9999  -1.2370   0.0000   0.0000   0.0000   0.3700
  26.900   0.8598   0.34063   0.33866  -0.1301  0.0054  0.9999  -1.2406   0.0000   0.0000   0.0000   0.3701
  27.000   0.8586   0.34093   0.33897  -0.1302  0.0053  0.9999  -1.2447   0.0000   0.0000   0.0000   0.3702
  27.100   0.8574   0.34123   0.33927  -0.1303  0.0053  0.9999  -1.2494   0.0000   0.0000   0.0000   0.3703
  27.200   0.8563   0.34152   0.33958  -0.1303  0.0052  0.9999  -1.2546   0.0000   0.0000   0.0000   0.3704
  27.300   0.8552   0.34181   0.33987  -0.1304  0.0052  0.9999  -1.2602   0.0000   0.0000   0.0000   0.3705
  27.400   0.8541   0.34210   0.34016  -0.1305  0.0051  0.9999  -1.2664   0.0000   0.0000   0.0000   0.3706
  27.500   0.8530   0.34238   0.34045  -0.1305  0.0051  0.9999  -1.2730   0.0000   0.0000   0.0000   0.3707
  27.600   0.8519   0.34265   0.34073  -0.1306  0.0050  0.9999  -1.2799   0.0000   0.0000   0.0000   0.3708
  27.700   0.8508   0.34292   0.34101  -0.1307  0.0050  0.9999  -1.2872   0.0000   0.0000   0.0000   0.3709
  27.800   0.8497   0.34318   0.34127  -0.1307  0.0049  0.9999  -1.2945   0.0000   0.0000   0.0000   0.3709
  27.900   0.8486   0.34344   0.34154  -0.1307  0.0049  0.9999  -1.3016   0.0000   0.0000   0.0000   0.3709
  28.000   0.8474   0.34370   0.34181  -0.1307  0.0048  0.9999  -1.3079   0.0000   0.0000   0.0000   0.3709
  28.100   0.8461   0.34397   0.34209  -0.1306  0.0048  0.9999  -1.3120   0.0000   0.0000   0.0000   0.3709
  28.200   0.8439   0.34439   0.34251  -0.1304  0.0047  0.9999  -1.2927   0.0000   0.0000   0.0000   0.3709


