xflr5 v6.61

 Calculated polar for: NACA 4412

 1 1 Reynolds number fixed          Mach number fixed         

 xtrf =   1.000 (top)        1.000 (bottom)
 Mach =   0.000     Re =     0.300 e 6     Ncrit =   9.000

  alpha     CL        CD       CDp       Cm    Top Xtr Bot Xtr   Cpmin    Chinge    XCp    
 ------- -------- --------- --------- -------- ------- ------- -------- --------- ---------
 -10.000  -0.3532   0.10189   0.09857  -0.0404  1.0000  0.0501  -1.7806   0.0000   0.0000   0.0000   0.1211
  -9.900  -0.3555   0.10097   0.09767  -0.0402  1.0000  0.0501  -1.7822   0.0000   0.0000   0.0000   0.1227
  -9.800  -0.3584   0.10004   0.09676  -0.0398  1.0000  0.0502  -1.7850   0.0000   0.0000   0.0000   0.1249
  -9.700  -0.3619   0.09915   0.09589  -0.0394  1.0000  0.0502  -1.7889   0.0000   0.0000   0.0000   0.1276
  -9.600  -0.3663   0.09832   0.09508  -0.0387  1.0000  0.0503  -1.7945   0.0000   0.0000   0.0000   0.1312
  -9.500  -0.3717   0.09758   0.09437  -0.0377  1.0000  0.0503  -1.8020   0.0000   0.0000   0.0000   0.1356
  -9.300  -0.6242   0.03809   0.03426  -0.0665  0.9891  0.0178  -5.0186   0.0000   0.0000   0.0000   0.1325
  -9.200  -0.6204   0.03488   0.03076  -0.0687  0.9862  0.0179  -5.0556   0.0000   0.0000   0.0000   0.1284
  -9.100  -0.6126   0.03278   0.02846  -0.0701  0.9837  0.0182  -5.0296   0.0000   0.0000   0.0000   0.1246
  -9.000  -0.6028   0.03124   0.02676  -0.0714  0.9813  0.0185  -4.9686   0.0000   0.0000   0.0000   0.1207
  -8.900  -0.5915   0.03005   0.02543  -0.0725  0.9790  0.0191  -4.8829   0.0000   0.0000   0.0000   0.1166
  -8.800  -0.5792   0.02914   0.02442  -0.0736  0.9769  0.0198  -4.7731   0.0000   0.0000   0.0000   0.1121
  -8.700  -0.5654   0.02873   0.02397  -0.0745  0.9749  0.0210  -4.6238   0.0000   0.0000   0.0000   0.1073
  -8.100  -0.4011   0.05850   0.05515  -0.0695  0.9748  0.0513  -2.3376   0.0000   0.0000   0.0000   0.0663
  -8.000  -0.3935   0.05586   0.05242  -0.0726  0.9719  0.0513  -2.3506   0.0000   0.0000   0.0000   0.0552
  -7.900  -0.3852   0.05346   0.04993  -0.0753  0.9692  0.0512  -2.3667   0.0000   0.0000   0.0000   0.0439
  -7.800  -0.3761   0.05128   0.04766  -0.0778  0.9669  0.0512  -2.3760   0.0000   0.0000   0.0000   0.0325
  -7.700  -0.3665   0.04931   0.04560  -0.0801  0.9648  0.0511  -2.3792   0.0000   0.0000   0.0000   0.0208
  -7.600  -0.3563   0.04753   0.04373  -0.0821  0.9630  0.0511  -2.3770   0.0000   0.0000   0.0000   0.0088
  -7.500  -0.3455   0.04591   0.04202  -0.0839  0.9613  0.0510  -2.3698   0.0000   0.0000   0.0000  -0.0040
  -7.400  -0.3340   0.04442   0.04045  -0.0857  0.9598  0.0509  -2.3582   0.0000   0.0000   0.0000  -0.0178
  -7.300  -0.3225   0.04291   0.03885  -0.0875  0.9584  0.0509  -2.3475   0.0000   0.0000   0.0000  -0.0327
  -7.200  -0.3128   0.04049   0.03628  -0.0896  0.9567  0.0510  -2.3644   0.0000   0.0000   0.0000  -0.0482
  -7.100  -0.3037   0.03771   0.03330  -0.0918  0.9550  0.0512  -2.3927   0.0000   0.0000   0.0000  -0.0642
  -7.000  -0.2944   0.03502   0.03041  -0.0938  0.9531  0.0515  -2.4191   0.0000   0.0000   0.0000  -0.0808
  -6.900  -0.2845   0.03274   0.02794  -0.0955  0.9511  0.0520  -2.4352   0.0000   0.0000   0.0000  -0.0982
  -6.800  -0.2774   0.03113   0.02618  -0.0959  0.9490  0.0523  -2.4388   0.0000   0.0000   0.0000  -0.1084
  -6.700  -0.2721   0.02989   0.02484  -0.0954  0.9468  0.0525  -2.4342   0.0000   0.0000   0.0000  -0.1135
  -6.600  -0.2658   0.02893   0.02379  -0.0950  0.9443  0.0526  -2.4217   0.0000   0.0000   0.0000  -0.1203
  -6.500  -0.2578   0.02828   0.02306  -0.0947  0.9416  0.0525  -2.3998   0.0000   0.0000   0.0000  -0.1305
  -5.900  -0.1931   0.02409   0.01846  -0.0960  0.9279  0.0492  -2.2700   0.0000   0.0000   0.0000  -0.2627
  -5.800  -0.1821   0.02273   0.01694  -0.0965  0.9259  0.0489  -2.2711   0.0000   0.0000   0.0000  -0.2962
  -5.700  -0.1702   0.02162   0.01569  -0.0970  0.9242  0.0486  -2.2626   0.0000   0.0000   0.0000  -0.3373
  -5.600  -0.1578   0.02066   0.01460  -0.0976  0.9225  0.0484  -2.2486   0.0000   0.0000   0.0000  -0.3868
  -5.500  -0.1451   0.01981   0.01363  -0.0981  0.9209  0.0482  -2.2312   0.0000   0.0000   0.0000  -0.4459
  -5.400  -0.1321   0.01904   0.01276  -0.0987  0.9193  0.0480  -2.2108   0.0000   0.0000   0.0000  -0.5177
  -5.300  -0.1190   0.01834   0.01196  -0.0992  0.9178  0.0478  -2.1880   0.0000   0.0000   0.0000  -0.6065
  -5.200  -0.1058   0.01771   0.01124  -0.0998  0.9163  0.0477  -2.1632   0.0000   0.0000   0.0000  -0.7180
  -5.100  -0.0926   0.01713   0.01057  -0.1003  0.9148  0.0476  -2.1368   0.0000   0.0000   0.0000  -0.8616
  -5.000  -0.0793   0.01659   0.00996  -0.1008  0.9133  0.0475  -2.1090   0.0000   0.0000   0.0000  -1.0521
  -4.900  -0.0662   0.01610   0.00940  -0.1012  0.9117  0.0474  -2.0800   0.0000   0.0000   0.0000  -1.3168
  -4.800  -0.0528   0.01565   0.00888  -0.1017  0.9100  0.0473  -2.0497   0.0000   0.0000   0.0000  -1.7222
  -4.700  -0.0390   0.01522   0.00839  -0.1023  0.9081  0.0473  -2.0179   0.0000   0.0000   0.0000  -2.4313
  -4.600  -0.0252   0.01483   0.00795  -0.1029  0.9058  0.0473  -1.9850   0.0000   0.0000   0.0000  -3.9314
  -4.500  -0.0113   0.01450   0.00756  -0.1035  0.9029  0.0474  -1.9515   0.0000   0.0000   0.0000  -9.0856
  -4.400   0.0010   0.01424   0.00725  -0.1038  0.8997  0.0474  -1.9196   0.0000   0.0000   0.0000  111.4908
  -4.300   0.0099   0.01396   0.00695  -0.1033  0.8984  0.0475  -1.8921   0.0000   0.0000   0.0000  10.8684
  -4.200   0.0189   0.01371   0.00666  -0.1028  0.8968  0.0477  -1.8643   0.0000   0.0000   0.0000   5.8137
  -4.100   0.0278   0.01347   0.00639  -0.1023  0.8948  0.0479  -1.8362   0.0000   0.0000   0.0000   4.0043
  -4.000   0.0369   0.01326   0.00614  -0.1019  0.8925  0.0481  -1.8077   0.0000   0.0000   0.0000   3.0679
  -3.900   0.0461   0.01306   0.00591  -0.1015  0.8899  0.0484  -1.7787   0.0000   0.0000   0.0000   2.4930
  -3.800   0.0556   0.01287   0.00570  -0.1011  0.8870  0.0488  -1.7492   0.0000   0.0000   0.0000   2.1025
  -3.700   0.0654   0.01271   0.00550  -0.1008  0.8840  0.0492  -1.7189   0.0000   0.0000   0.0000   1.8201
  -3.600   0.0754   0.01255   0.00532  -0.1006  0.8808  0.0497  -1.6877   0.0000   0.0000   0.0000   1.6075
  -3.500   0.0852   0.01208   0.00486  -0.1002  0.8773  0.0621  -1.6993   0.0000   0.0000   0.0000   1.4471
  -3.400   0.0952   0.01177   0.00470  -0.1001  0.8736  0.0833  -1.6798   0.0000   0.0000   0.0000   1.3194
  -3.300   0.1055   0.01158   0.00463  -0.1001  0.8698  0.0973  -1.6436   0.0000   0.0000   0.0000   1.2135
  -3.200   0.1164   0.01147   0.00453  -0.1000  0.8660  0.1069  -1.6044   0.0000   0.0000   0.0000   1.1228
  -3.100   0.1273   0.01134   0.00445  -0.1000  0.8620  0.1198  -1.5639   0.0000   0.0000   0.0000   1.0477
  -3.000   0.1385   0.01121   0.00437  -0.1001  0.8579  0.1294  -1.5215   0.0000   0.0000   0.0000   0.9834
  -2.900   0.1502   0.01111   0.00429  -0.1003  0.8538  0.1371  -1.4780   0.0000   0.0000   0.0000   0.9270
  -2.800   0.1621   0.01101   0.00420  -0.1005  0.8496  0.1432  -1.4339   0.0000   0.0000   0.0000   0.8780
  -2.700   0.1742   0.01093   0.00411  -0.1007  0.8453  0.1479  -1.3895   0.0000   0.0000   0.0000   0.8352
  -2.600   0.1864   0.01085   0.00401  -0.1009  0.8409  0.1527  -1.3453   0.0000   0.0000   0.0000   0.7979
  -2.500   0.1986   0.01074   0.00393  -0.1011  0.8362  0.1637  -1.3019   0.0000   0.0000   0.0000   0.7653
  -2.400   0.2106   0.01063   0.00386  -0.1014  0.8311  0.1737  -1.2586   0.0000   0.0000   0.0000   0.7367
  -2.300   0.2226   0.01055   0.00379  -0.1016  0.8253  0.1826  -1.2154   0.0000   0.0000   0.0000   0.7113
  -2.200   0.2348   0.01050   0.00375  -0.1019  0.8187  0.1907  -1.1725   0.0000   0.0000   0.0000   0.6884
  -2.100   0.2471   0.01049   0.00374  -0.1023  0.8110  0.1974  -1.1296   0.0000   0.0000   0.0000   0.6678
  -2.000   0.2593   0.01053   0.00379  -0.1027  0.8023  0.2059  -1.0876   0.0000   0.0000   0.0000   0.6496
  -1.900   0.2698   0.01048   0.00380  -0.1027  0.7992  0.2177  -1.0487   0.0000   0.0000   0.0000   0.6338
  -1.800   0.2799   0.01039   0.00377  -0.1025  0.7980  0.2281  -1.0106   0.0000   0.0000   0.0000   0.6193
  -1.700   0.2900   0.01033   0.00374  -0.1024  0.7966  0.2371  -0.9727   0.0000   0.0000   0.0000   0.6056
  -1.600   0.3003   0.01028   0.00371  -0.1022  0.7948  0.2440  -0.9350   0.0000   0.0000   0.0000   0.5928
  -1.500   0.3106   0.01024   0.00367  -0.1021  0.7927  0.2490  -0.8975   0.0000   0.0000   0.0000   0.5808
  -1.400   0.3209   0.01018   0.00364  -0.1019  0.7902  0.2567  -0.8605   0.0000   0.0000   0.0000   0.5696
  -1.300   0.3310   0.01009   0.00361  -0.1018  0.7873  0.2668  -0.8240   0.0000   0.0000   0.0000   0.5592
  -1.200   0.3412   0.01000   0.00358  -0.1017  0.7840  0.2762  -0.7876   0.0000   0.0000   0.0000   0.5494
  -1.100   0.3517   0.00993   0.00355  -0.1016  0.7804  0.2849  -0.7511   0.0000   0.0000   0.0000   0.5401
  -1.000   0.3624   0.00987   0.00351  -0.1015  0.7760  0.2929  -0.7146   0.0000   0.0000   0.0000   0.5311
  -0.900   0.3734   0.00982   0.00345  -0.1015  0.7708  0.2997  -0.6856   0.0000   0.0000   0.0000   0.5226
  -0.800   0.3845   0.00976   0.00338  -0.1015  0.7650  0.3150  -0.6936   0.0000   0.0000   0.0000   0.5145
  -0.700   0.3958   0.00966   0.00331  -0.1015  0.7584  0.3340  -0.7016   0.0000   0.0000   0.0000   0.5068
  -0.600   0.4071   0.00955   0.00323  -0.1015  0.7510  0.3512  -0.7097   0.0000   0.0000   0.0000   0.4996
  -0.500   0.4185   0.00946   0.00314  -0.1015  0.7424  0.3673  -0.7179   0.0000   0.0000   0.0000   0.4927
  -0.400   0.4299   0.00941   0.00306  -0.1016  0.7320  0.3824  -0.7268   0.0000   0.0000   0.0000   0.4862
  -0.300   0.4416   0.00940   0.00302  -0.1017  0.7189  0.3966  -0.7362   0.0000   0.0000   0.0000   0.4800
  -0.200   0.4534   0.00937   0.00304  -0.1019  0.7046  0.4313  -0.7454   0.0000   0.0000   0.0000   0.4745
  -0.100   0.4631   0.00923   0.00305  -0.1018  0.6988  0.4746  -0.7539   0.0000   0.0000   0.0000   0.4692
   0.000   0.4715   0.00901   0.00308  -0.1013  0.6966  0.5412  -0.7617   0.0000   0.0000   0.0000   0.4641
   0.100   0.4799   0.00883   0.00309  -0.1007  0.6934  0.6073  -0.7695   0.0000   0.0000   0.0000   0.4590
   0.200   0.4873   0.00860   0.00313  -0.0998  0.6893  0.6824  -0.7769   0.0000   0.0000   0.0000   0.4540
   0.300   0.4946   0.00841   0.00316  -0.0988  0.6840  0.7536  -0.7842   0.0000   0.0000   0.0000   0.4488
   0.400   0.5025   0.00826   0.00320  -0.0978  0.6774  0.8385  -0.7919   0.0000   0.0000   0.0000   0.4435
   0.500   0.5277   0.00817   0.00318  -0.1005  0.6659  0.9551  -0.8094   0.0000   0.0000   0.0000   0.4391
   0.600   0.5555   0.00818   0.00309  -0.1041  0.6514  1.0000  -0.8283   0.0000   0.0000   0.0000   0.4359
   0.700   0.5648   0.00826   0.00306  -0.1037  0.6396  1.0000  -0.8366   0.0000   0.0000   0.0000   0.4320
   0.800   0.5762   0.00827   0.00318  -0.1039  0.6475  1.0000  -0.8454   0.0000   0.0000   0.0000   0.4287
   0.900   0.5858   0.00834   0.00316  -0.1036  0.6393  1.0000  -0.8537   0.0000   0.0000   0.0000   0.4251
   1.000   0.5951   0.00841   0.00315  -0.1033  0.6295  1.0000  -0.8619   0.0000   0.0000   0.0000   0.4216
   1.100   0.6046   0.00850   0.00316  -0.1030  0.6187  1.0000  -0.8709   0.0000   0.0000   0.0000   0.4183
   1.200   0.6149   0.00858   0.00318  -0.1029  0.6080  1.0000  -0.8811   0.0000   0.0000   0.0000   0.4152
   1.300   0.6256   0.00866   0.00322  -0.1029  0.5997  1.0000  -0.8913   0.0000   0.0000   0.0000   0.4123
   1.400   0.6356   0.00869   0.00324  -0.1028  0.5984  1.0000  -0.9015   0.0000   0.0000   0.0000   0.4093
   1.500   0.6457   0.00872   0.00326  -0.1026  0.5967  1.0000  -0.9117   0.0000   0.0000   0.0000   0.4065
   1.600   0.6558   0.00875   0.00328  -0.1025  0.5947  1.0000  -0.9218   0.0000   0.0000   0.0000   0.4037
   1.700   0.6658   0.00879   0.00330  -0.1023  0.5924  1.0000  -0.9320   0.0000   0.0000   0.0000   0.4010
   1.800   0.6760   0.00883   0.00333  -0.1022  0.5896  1.0000  -0.9423   0.0000   0.0000   0.0000   0.3984
   1.900   0.6861   0.00887   0.00335  -0.1020  0.5864  1.0000  -0.9525   0.0000   0.0000   0.0000   0.3958
   2.000   0.6962   0.00892   0.00338  -0.1019  0.5829  1.0000  -0.9628   0.0000   0.0000   0.0000   0.3934
   2.100   0.7064   0.00897   0.00340  -0.1018  0.5790  1.0000  -0.9731   0.0000   0.0000   0.0000   0.3910
   2.200   0.7165   0.00903   0.00342  -0.1016  0.5748  1.0000  -0.9834   0.0000   0.0000   0.0000   0.3886
   2.300   0.7266   0.00909   0.00345  -0.1015  0.5703  1.0000  -0.9953   0.0000   0.0000   0.0000   0.3863
   2.400   0.7367   0.00915   0.00347  -0.1013  0.5656  1.0000  -1.0077   0.0000   0.0000   0.0000   0.3841
   2.500   0.7468   0.00921   0.00349  -0.1012  0.5608  1.0000  -1.0200   0.0000   0.0000   0.0000   0.3819
   2.600   0.7568   0.00928   0.00351  -0.1010  0.5561  1.0000  -1.0405   0.0000   0.0000   0.0000   0.3798
   2.700   0.7668   0.00936   0.00354  -0.1008  0.5513  1.0000  -1.0754   0.0000   0.0000   0.0000   0.3777
   2.800   0.7767   0.00944   0.00357  -0.1006  0.5467  1.0000  -1.1104   0.0000   0.0000   0.0000   0.3757
   2.900   0.7865   0.00952   0.00361  -0.1004  0.5416  1.0000  -1.1455   0.0000   0.0000   0.0000   0.3737
   3.000   0.7962   0.00961   0.00366  -0.1002  0.5357  1.0000  -1.1808   0.0000   0.0000   0.0000   0.3718
   3.100   0.8060   0.00970   0.00371  -0.1000  0.5291  1.0000  -1.2164   0.0000   0.0000   0.0000   0.3699
   3.200   0.8161   0.00980   0.00377  -0.0999  0.5219  1.0000  -1.2526   0.0000   0.0000   0.0000   0.3681
   3.300   0.8264   0.00990   0.00384  -0.0998  0.5146  1.0000  -1.2896   0.0000   0.0000   0.0000   0.3664
   3.400   0.8371   0.01001   0.00392  -0.0998  0.5075  1.0000  -1.3274   0.0000   0.0000   0.0000   0.3647
   3.500   0.8479   0.01013   0.00401  -0.0998  0.5009  1.0000  -1.3657   0.0000   0.0000   0.0000   0.3632
   3.600   0.8584   0.01017   0.00407  -0.0998  0.4994  1.0000  -1.4040   0.0000   0.0000   0.0000   0.3615
   3.700   0.8688   0.01021   0.00411  -0.0997  0.4987  1.0000  -1.4425   0.0000   0.0000   0.0000   0.3599
   3.800   0.8792   0.01025   0.00416  -0.0996  0.4980  1.0000  -1.4813   0.0000   0.0000   0.0000   0.3584
   3.900   0.8896   0.01029   0.00422  -0.0995  0.4970  1.0000  -1.5204   0.0000   0.0000   0.0000   0.3569
   4.000   0.8999   0.01033   0.00427  -0.0994  0.4958  1.0000  -1.5596   0.0000   0.0000   0.0000   0.3554
   4.100   0.9101   0.01036   0.00431  -0.0993  0.4940  1.0000  -1.5990   0.0000   0.0000   0.0000   0.3539
   4.200   0.9203   0.01040   0.00436  -0.0992  0.4917  1.0000  -1.6386   0.0000   0.0000   0.0000   0.3524
   4.300   0.9304   0.01045   0.00441  -0.0990  0.4888  1.0000  -1.6783   0.0000   0.0000   0.0000   0.3510
   4.400   0.9405   0.01051   0.00446  -0.0989  0.4851  1.0000  -1.7183   0.0000   0.0000   0.0000   0.3496
   4.500   0.9505   0.01057   0.00451  -0.0987  0.4807  1.0000  -1.7584   0.0000   0.0000   0.0000   0.3482
   4.600   0.9604   0.01064   0.00456  -0.0986  0.4758  1.0000  -1.7986   0.0000   0.0000   0.0000   0.3468
   4.700   0.9704   0.01071   0.00461  -0.0984  0.4706  1.0000  -1.8391   0.0000   0.0000   0.0000   0.3454
   4.800   0.9803   0.01080   0.00467  -0.0982  0.4655  1.0000  -1.8798   0.0000   0.0000   0.0000   0.3441
   4.900   0.9901   0.01088   0.00472  -0.0980  0.4598  1.0000  -1.9205   0.0000   0.0000   0.0000   0.3428
   5.000   0.9998   0.01098   0.00478  -0.0978  0.4538  1.0000  -1.9611   0.0000   0.0000   0.0000   0.3415
   5.100   1.0092   0.01109   0.00484  -0.0975  0.4471  1.0000  -2.0015   0.0000   0.0000   0.0000   0.3402
   5.200   1.0181   0.01122   0.00491  -0.0971  0.4395  1.0000  -2.0412   0.0000   0.0000   0.0000   0.3389
   5.300   1.0266   0.01136   0.00499  -0.0967  0.4307  1.0000  -2.0803   0.0000   0.0000   0.0000   0.3375
   5.400   1.0353   0.01150   0.00509  -0.0963  0.4211  1.0000  -2.1197   0.0000   0.0000   0.0000   0.3362
   5.500   1.0446   0.01163   0.00519  -0.0960  0.4119  1.0000  -2.1604   0.0000   0.0000   0.0000   0.3350
   5.600   1.0545   0.01176   0.00530  -0.0959  0.4038  1.0000  -2.2024   0.0000   0.0000   0.0000   0.3339
   5.700   1.0647   0.01186   0.00541  -0.0958  0.3995  1.0000  -2.2454   0.0000   0.0000   0.0000   0.3328
   5.800   1.0750   0.01192   0.00549  -0.0957  0.3984  1.0000  -2.2890   0.0000   0.0000   0.0000   0.3317
   5.900   1.0850   0.01198   0.00556  -0.0955  0.3964  1.0000  -2.3324   0.0000   0.0000   0.0000   0.3306
   6.000   1.0949   0.01205   0.00564  -0.0954  0.3932  1.0000  -2.3756   0.0000   0.0000   0.0000   0.3296
   6.100   1.1046   0.01214   0.00572  -0.0952  0.3887  1.0000  -2.4187   0.0000   0.0000   0.0000   0.3285
   6.200   1.1143   0.01223   0.00580  -0.0950  0.3831  1.0000  -2.4616   0.0000   0.0000   0.0000   0.3274
   6.300   1.1235   0.01235   0.00589  -0.0947  0.3751  1.0000  -2.5038   0.0000   0.0000   0.0000   0.3263
   6.400   1.1321   0.01251   0.00598  -0.0943  0.3638  1.0000  -2.5447   0.0000   0.0000   0.0000   0.3252
   6.500   1.1396   0.01272   0.00607  -0.0937  0.3483  1.0000  -2.5832   0.0000   0.0000   0.0000   0.3240
   6.600   1.1453   0.01301   0.00619  -0.0928  0.3291  1.0000  -2.6180   0.0000   0.0000   0.0000   0.3227
   6.700   1.1504   0.01330   0.00637  -0.0918  0.3057  1.0000  -2.6511   0.0000   0.0000   0.0000   0.3213
   6.800   1.1579   0.01352   0.00653  -0.0912  0.2907  1.0000  -2.6885   0.0000   0.0000   0.0000   0.3202
   6.900   1.1624   0.01393   0.00673  -0.0902  0.2691  1.0000  -2.7196   0.0000   0.0000   0.0000   0.3188
   7.000   1.1643   0.01448   0.00700  -0.0888  0.2449  1.0000  -2.7443   0.0000   0.0000   0.0000   0.3173
   7.100   1.1655   0.01509   0.00738  -0.0873  0.2151  1.0000  -2.7664   0.0000   0.0000   0.0000   0.3159
   7.200   1.1656   0.01580   0.00783  -0.0857  0.1770  1.0000  -2.7840   0.0000   0.0000   0.0000   0.3143
   7.300   1.1633   0.01675   0.00844  -0.0838  0.1291  1.0000  -2.7939   0.0000   0.0000   0.0000   0.3127
   7.400   1.1598   0.01777   0.00912  -0.0817  0.0834  1.0000  -2.7976   0.0000   0.0000   0.0000   0.3110
   7.500   1.1578   0.01858   0.00971  -0.0796  0.0656  1.0000  -2.8001   0.0000   0.0000   0.0000   0.3092
   7.600   1.1573   0.01930   0.01036  -0.0776  0.0529  1.0000  -2.7809   0.0000   0.0000   0.0000   0.3074
   7.700   1.1598   0.01982   0.01093  -0.0762  0.0501  1.0000  -2.7814   0.0000   0.0000   0.0000   0.3058
   7.800   1.1659   0.02010   0.01123  -0.0754  0.0499  1.0000  -2.8114   0.0000   0.0000   0.0000   0.3047
   7.900   1.1719   0.02038   0.01154  -0.0746  0.0497  1.0000  -2.8411   0.0000   0.0000   0.0000   0.3036
   8.000   1.1777   0.02067   0.01187  -0.0739  0.0495  1.0000  -2.8702   0.0000   0.0000   0.0000   0.3024
   8.100   1.1832   0.02098   0.01221  -0.0730  0.0493  1.0000  -2.8988   0.0000   0.0000   0.0000   0.3013
   8.200   1.1886   0.02129   0.01256  -0.0722  0.0492  1.0000  -2.9275   0.0000   0.0000   0.0000   0.3002
   8.300   1.1940   0.02159   0.01288  -0.0714  0.0489  1.0000  -2.9584   0.0000   0.0000   0.0000   0.2991
   8.400   1.1992   0.02188   0.01320  -0.0706  0.0487  1.0000  -2.9910   0.0000   0.0000   0.0000   0.2980
   8.500   1.2042   0.02217   0.01351  -0.0697  0.0483  1.0000  -3.0247   0.0000   0.0000   0.0000   0.2969
   8.600   1.2093   0.02246   0.01382  -0.0690  0.0479  1.0000  -3.0596   0.0000   0.0000   0.0000   0.2958
   8.700   1.2145   0.02276   0.01413  -0.0682  0.0475  1.0000  -3.0954   0.0000   0.0000   0.0000   0.2948
   8.800   1.2197   0.02306   0.01445  -0.0675  0.0470  1.0000  -3.1320   0.0000   0.0000   0.0000   0.2938
   8.900   1.2250   0.02336   0.01477  -0.0668  0.0464  1.0000  -3.1690   0.0000   0.0000   0.0000   0.2929
   9.000   1.2303   0.02368   0.01510  -0.0661  0.0458  1.0000  -3.2059   0.0000   0.0000   0.0000   0.2919
   9.100   1.2355   0.02401   0.01545  -0.0654  0.0453  1.0000  -3.2423   0.0000   0.0000   0.0000   0.2910
   9.200   1.2405   0.02436   0.01583  -0.0646  0.0447  1.0000  -3.2776   0.0000   0.0000   0.0000   0.2900
   9.300   1.2452   0.02474   0.01623  -0.0639  0.0443  1.0000  -3.3114   0.0000   0.0000   0.0000   0.2890
   9.400   1.2465   0.02536   0.01729  -0.0629  0.0377  1.0000  -3.4294   0.0000   0.0000   0.0000   0.2880
   9.500   1.2430   0.02630   0.01821  -0.0612  0.0327  1.0000  -3.4833   0.0000   0.0000   0.0000   0.2866
   9.600   1.2411   0.02719   0.01913  -0.0597  0.0302  1.0000  -3.5090   0.0000   0.0000   0.0000   0.2853
   9.700   1.2394   0.02810   0.02010  -0.0583  0.0283  1.0000  -3.5277   0.0000   0.0000   0.0000   0.2841
   9.800   1.2373   0.02907   0.02114  -0.0569  0.0269  1.0000  -3.5412   0.0000   0.0000   0.0000   0.2828
   9.900   1.2348   0.03010   0.02225  -0.0554  0.0258  1.0000  -3.5498   0.0000   0.0000   0.0000   0.2816
  10.000   1.2510   0.02957   0.02159  -0.0563  0.0244  1.0000  -3.7205   0.0000   0.0000   0.0000   0.2815
  10.100   1.2654   0.02922   0.02115  -0.0569  0.0232  1.0000  -3.8644   0.0000   0.0000   0.0000   0.2813
  10.200   1.2738   0.02935   0.02126  -0.0568  0.0223  1.0000  -3.9560   0.0000   0.0000   0.0000   0.2807
  10.300   1.2806   0.02961   0.02150  -0.0565  0.0215  1.0000  -4.0339   0.0000   0.0000   0.0000   0.2801
  10.400   1.2865   0.02995   0.02183  -0.0561  0.0207  1.0000  -4.1050   0.0000   0.0000   0.0000   0.2794
  10.500   1.2919   0.03032   0.02220  -0.0556  0.0201  1.0000  -4.1732   0.0000   0.0000   0.0000   0.2787
  10.600   1.2968   0.03072   0.02260  -0.0551  0.0195  1.0000  -4.2390   0.0000   0.0000   0.0000   0.2779
  10.700   1.3013   0.03115   0.02302  -0.0546  0.0190  1.0000  -4.3030   0.0000   0.0000   0.0000   0.2772
  10.800   1.3054   0.03160   0.02348  -0.0540  0.0185  1.0000  -4.3646   0.0000   0.0000   0.0000   0.2765
  10.900   1.3090   0.03211   0.02399  -0.0534  0.0181  1.0000  -4.4235   0.0000   0.0000   0.0000   0.2757
  11.000   1.3121   0.03266   0.02455  -0.0528  0.0177  1.0000  -4.4790   0.0000   0.0000   0.0000   0.2750
  11.100   1.3145   0.03328   0.02518  -0.0522  0.0174  1.0000  -4.5310   0.0000   0.0000   0.0000   0.2742
  11.200   1.3150   0.03408   0.02599  -0.0515  0.0171  1.0000  -4.5731   0.0000   0.0000   0.0000   0.2735
  11.300   1.3156   0.03489   0.02682  -0.0508  0.0168  1.0000  -4.6149   0.0000   0.0000   0.0000   0.2728
  11.400   1.3170   0.03567   0.02761  -0.0502  0.0165  1.0000  -4.6593   0.0000   0.0000   0.0000   0.2721
  11.500   1.3186   0.03644   0.02840  -0.0496  0.0163  1.0000  -4.7040   0.0000   0.0000   0.0000   0.2714
  11.600   1.3203   0.03722   0.02920  -0.0491  0.0160  1.0000  -4.7480   0.0000   0.0000   0.0000   0.2707
  11.700   1.3219   0.03802   0.03002  -0.0485  0.0158  1.0000  -4.7908   0.0000   0.0000   0.0000   0.2700
  11.800   1.3233   0.03884   0.03088  -0.0479  0.0156  1.0000  -4.8321   0.0000   0.0000   0.0000   0.2694
  11.900   1.3245   0.03970   0.03177  -0.0474  0.0153  1.0000  -4.8718   0.0000   0.0000   0.0000   0.2687
  12.000   1.3254   0.04059   0.03269  -0.0468  0.0152  1.0000  -4.9097   0.0000   0.0000   0.0000   0.2681
  12.100   1.3260   0.04152   0.03366  -0.0463  0.0150  1.0000  -4.9459   0.0000   0.0000   0.0000   0.2675
  12.200   1.3263   0.04250   0.03468  -0.0457  0.0148  1.0000  -4.9800   0.0000   0.0000   0.0000   0.2669
  12.300   1.3260   0.04354   0.03577  -0.0452  0.0147  1.0000  -5.0113   0.0000   0.0000   0.0000   0.2663
  12.400   1.3235   0.04488   0.03716  -0.0449  0.0146  1.0000  -5.0321   0.0000   0.0000   0.0000   0.2658
  12.500   1.3217   0.04614   0.03847  -0.0445  0.0145  1.0000  -5.0557   0.0000   0.0000   0.0000   0.2654
  12.600   1.3209   0.04729   0.03966  -0.0441  0.0144  1.0000  -5.0831   0.0000   0.0000   0.0000   0.2649
  12.700   1.3204   0.04840   0.04081  -0.0436  0.0143  1.0000  -5.1118   0.0000   0.0000   0.0000   0.2644
  12.800   1.3200   0.04948   0.04194  -0.0432  0.0142  1.0000  -5.1407   0.0000   0.0000   0.0000   0.2638
  12.900   1.3197   0.05057   0.04307  -0.0427  0.0141  1.0000  -5.1693   0.0000   0.0000   0.0000   0.2633
  13.000   1.3194   0.05166   0.04421  -0.0423  0.0140  1.0000  -5.1976   0.0000   0.0000   0.0000   0.2628
  13.100   1.3190   0.05276   0.04536  -0.0419  0.0139  1.0000  -5.2253   0.0000   0.0000   0.0000   0.2623
  13.200   1.3185   0.05388   0.04653  -0.0415  0.0138  1.0000  -5.2522   0.0000   0.0000   0.0000   0.2617
  13.300   1.3178   0.05503   0.04773  -0.0411  0.0137  1.0000  -5.2780   0.0000   0.0000   0.0000   0.2613
  13.400   1.3169   0.05620   0.04895  -0.0407  0.0137  1.0000  -5.3025   0.0000   0.0000   0.0000   0.2608
  13.500   1.3156   0.05738   0.05018  -0.0403  0.0136  1.0000  -5.3250   0.0000   0.0000   0.0000   0.2603
  13.600   1.3327   0.05668   0.04950  -0.0413  0.0135  1.0000  -5.3494   0.0000   0.0000   0.0000   0.2605
  13.700   1.3307   0.05801   0.05088  -0.0411  0.0134  1.0000  -5.3686   0.0000   0.0000   0.0000   0.2601
  13.800   1.3258   0.05978   0.05273  -0.0411  0.0134  1.0000  -5.3745   0.0000   0.0000   0.0000   0.2601
  13.900   1.3224   0.06135   0.05436  -0.0410  0.0134  1.0000  -5.3869   0.0000   0.0000   0.0000   0.2599
  14.000   1.3200   0.06277   0.05584  -0.0408  0.0133  1.0000  -5.4041   0.0000   0.0000   0.0000   0.2596
  14.100   1.3180   0.06414   0.05726  -0.0406  0.0133  1.0000  -5.4230   0.0000   0.0000   0.0000   0.2592
  14.200   1.3163   0.06550   0.05867  -0.0404  0.0133  1.0000  -5.4427   0.0000   0.0000   0.0000   0.2588
  14.300   1.3146   0.06685   0.06009  -0.0401  0.0132  1.0000  -5.4627   0.0000   0.0000   0.0000   0.2585
  14.400   1.3129   0.06823   0.06152  -0.0399  0.0132  1.0000  -5.4825   0.0000   0.0000   0.0000   0.2581
  14.500   1.3113   0.06962   0.06297  -0.0397  0.0132  1.0000  -5.5020   0.0000   0.0000   0.0000   0.2578
  14.600   1.3095   0.07104   0.06445  -0.0395  0.0132  1.0000  -5.5210   0.0000   0.0000   0.0000   0.2575
  14.700   1.3079   0.07250   0.06597  -0.0394  0.0132  1.0000  -5.5399   0.0000   0.0000   0.0000   0.2572
  14.800   1.3061   0.07400   0.06753  -0.0393  0.0132  1.0000  -5.5581   0.0000   0.0000   0.0000   0.2570
  14.900   1.3041   0.07555   0.06914  -0.0393  0.0132  1.0000  -5.5751   0.0000   0.0000   0.0000   0.2568
  15.000   1.3019   0.07715   0.07081  -0.0394  0.0132  1.0000  -5.5906   0.0000   0.0000   0.0000   0.2567
  15.100   1.2994   0.07882   0.07255  -0.0395  0.0132  1.0000  -5.6043   0.0000   0.0000   0.0000   0.2566
  15.200   1.2961   0.08063   0.07442  -0.0397  0.0132  1.0000  -5.6141   0.0000   0.0000   0.0000   0.2567
  15.300   1.2885   0.08330   0.07716  -0.0407  0.0132  1.0000  -5.5990   0.0000   0.0000   0.0000   0.2574
  15.400   1.2845   0.08529   0.07921  -0.0412  0.0132  1.0000  -5.6035   0.0000   0.0000   0.0000   0.2576
  15.500   1.2818   0.08704   0.08102  -0.0415  0.0133  1.0000  -5.6149   0.0000   0.0000   0.0000   0.2577
  15.600   1.2795   0.08870   0.08274  -0.0417  0.0133  1.0000  -5.6290   0.0000   0.0000   0.0000   0.2577
  15.700   1.2776   0.09031   0.08441  -0.0420  0.0133  1.0000  -5.6446   0.0000   0.0000   0.0000   0.2577
  15.800   1.2760   0.09192   0.08608  -0.0422  0.0133  1.0000  -5.6615   0.0000   0.0000   0.0000   0.2577
  15.900   1.2743   0.09353   0.08774  -0.0425  0.0134  1.0000  -5.6785   0.0000   0.0000   0.0000   0.2578
  16.000   1.2727   0.09515   0.08941  -0.0428  0.0134  1.0000  -5.6951   0.0000   0.0000   0.0000   0.2578
  16.100   1.2710   0.09678   0.09111  -0.0431  0.0135  1.0000  -5.7111   0.0000   0.0000   0.0000   0.2579
  16.200   1.2691   0.09845   0.09283  -0.0436  0.0135  1.0000  -5.7258   0.0000   0.0000   0.0000   0.2581
  16.300   1.2670   0.10017   0.09461  -0.0440  0.0136  1.0000  -5.7389   0.0000   0.0000   0.0000   0.2583
  16.400   1.2645   0.10196   0.09645  -0.0446  0.0136  1.0000  -5.7495   0.0000   0.0000   0.0000   0.2586
  16.500   1.2617   0.10384   0.09839  -0.0452  0.0137  1.0000  -5.7569   0.0000   0.0000   0.0000   0.2589
  16.600   1.2582   0.10583   0.10044  -0.0460  0.0137  1.0000  -5.7599   0.0000   0.0000   0.0000   0.2594
  16.700   1.2539   0.10800   0.10268  -0.0469  0.0138  1.0000  -5.7565   0.0000   0.0000   0.0000   0.2600
  16.800   1.2430   0.11162   0.10638  -0.0490  0.0138  1.0000  -5.7071   0.0000   0.0000   0.0000   0.2618
  16.900   1.2387   0.11395   0.10877  -0.0501  0.0138  1.0000  -5.7003   0.0000   0.0000   0.0000   0.2626
  17.000   1.2359   0.11594   0.11081  -0.0509  0.0139  1.0000  -5.7031   0.0000   0.0000   0.0000   0.2632
  17.100   1.2336   0.11781   0.11273  -0.0517  0.0140  1.0000  -5.7088   0.0000   0.0000   0.0000   0.2636
  17.200   1.2315   0.11963   0.11460  -0.0524  0.0140  1.0000  -5.7151   0.0000   0.0000   0.0000   0.2641
  17.300   1.2294   0.12143   0.11647  -0.0532  0.0141  1.0000  -5.7204   0.0000   0.0000   0.0000   0.2645
  17.400   1.2272   0.12321   0.11830  -0.0539  0.0142  1.0000  -5.7236   0.0000   0.0000   0.0000   0.2650
  17.500   1.2248   0.12499   0.12014  -0.0547  0.0143  1.0000  -5.7234   0.0000   0.0000   0.0000   0.2655
  17.600   1.2219   0.12684   0.12205  -0.0556  0.0144  1.0000  -5.7184   0.0000   0.0000   0.0000   0.2662
  17.700   1.2185   0.12883   0.12411  -0.0566  0.0145  1.0000  -5.7069   0.0000   0.0000   0.0000   0.2669
  17.800   1.2144   0.13102   0.12637  -0.0577  0.0147  1.0000  -5.6872   0.0000   0.0000   0.0000   0.2678
  17.900   1.2092   0.13347   0.12889  -0.0591  0.0148  1.0000  -5.6569   0.0000   0.0000   0.0000   0.2689
  18.000   1.2030   0.13634   0.13185  -0.0607  0.0149  1.0000  -5.6138   0.0000   0.0000   0.0000   0.2704
  18.100   1.1938   0.14017   0.13576  -0.0631  0.0149  1.0000  -5.5452   0.0000   0.0000   0.0000   0.2726
  18.200   1.1853   0.14381   0.13949  -0.0653  0.0150  1.0000  -5.4772   0.0000   0.0000   0.0000   0.2747
  18.300   1.1765   0.14759   0.14334  -0.0675  0.0151  1.0000  -5.4008   0.0000   0.0000   0.0000   0.2769
  18.400   1.1661   0.15191   0.14775  -0.0701  0.0152  1.0000  -5.3066   0.0000   0.0000   0.0000   0.2795
  18.500   1.1545   0.15669   0.15261  -0.0729  0.0153  1.0000  -5.1965   0.0000   0.0000   0.0000   0.2826
  18.600   1.1425   0.16171   0.15773  -0.0758  0.0154  1.0000  -5.0697   0.0000   0.0000   0.0000   0.2857
  18.700   1.1274   0.16800   0.16412  -0.0793  0.0154  1.0000  -4.9009   0.0000   0.0000   0.0000   0.2898
  18.800   1.1083   0.17571   0.17192  -0.0834  0.0156  1.0000  -4.6621   0.0000   0.0000   0.0000   0.2949
  19.000   0.9871   0.23024   0.22664  -0.1008  0.0272  1.0000  -2.3671   0.0000   0.0000   0.0000   0.3254
  19.100   0.9872   0.23402   0.23041  -0.1023  0.0283  1.0000  -2.2905   0.0000   0.0000   0.0000   0.3270
  19.200   0.9859   0.23783   0.23423  -0.1036  0.0288  1.0000  -2.2189   0.0000   0.0000   0.0000   0.3284
  19.300   0.9853   0.24105   0.23745  -0.1047  0.0290  1.0000  -2.1717   0.0000   0.0000   0.0000   0.3295
  19.400   0.9852   0.24395   0.24035  -0.1056  0.0292  1.0000  -2.1376   0.0000   0.0000   0.0000   0.3304
  19.500   0.9851   0.24673   0.24313  -0.1065  0.0293  1.0000  -2.1082   0.0000   0.0000   0.0000   0.3312
  19.600   0.9852   0.24941   0.24580  -0.1074  0.0293  1.0000  -2.0835   0.0000   0.0000   0.0000   0.3320
  19.700   0.9855   0.25197   0.24836  -0.1082  0.0293  1.0000  -2.0633   0.0000   0.0000   0.0000   0.3327
  19.800   0.9859   0.25445   0.25084  -0.1090  0.0293  1.0000  -2.0465   0.0000   0.0000   0.0000   0.3332
  19.900   0.9865   0.25687   0.25326  -0.1097  0.0293  1.0000  -2.0321   0.0000   0.0000   0.0000   0.3338
  20.000   0.9871   0.25925   0.25564  -0.1104  0.0292  1.0000  -2.0197   0.0000   0.0000   0.0000   0.3343
  20.100   0.9877   0.26159   0.25799  -0.1111  0.0292  1.0000  -2.0086   0.0000   0.0000   0.0000   0.3347
  20.200   0.9884   0.26392   0.26031  -0.1118  0.0291  1.0000  -1.9987   0.0000   0.0000   0.0000   0.3352
  20.300   0.9891   0.26622   0.26261  -0.1124  0.0291  1.0000  -1.9897   0.0000   0.0000   0.0000   0.3356
  20.400   0.9898   0.26852   0.26491  -0.1130  0.0290  1.0000  -1.9813   0.0000   0.0000   0.0000   0.3360
  20.500   0.9905   0.27080   0.26719  -0.1136  0.0289  1.0000  -1.9735   0.0000   0.0000   0.0000   0.3363
  20.600   0.9912   0.27308   0.26947  -0.1142  0.0289  1.0000  -1.9660   0.0000   0.0000   0.0000   0.3367
  20.700   0.9919   0.27536   0.27175  -0.1148  0.0288  1.0000  -1.9588   0.0000   0.0000   0.0000   0.3370
  20.800   0.9926   0.27764   0.27403  -0.1154  0.0288  1.0000  -1.9517   0.0000   0.0000   0.0000   0.3374
  20.900   0.9932   0.27992   0.27631  -0.1159  0.0287  1.0000  -1.9448   0.0000   0.0000   0.0000   0.3377
  21.000   0.9938   0.28220   0.27859  -0.1165  0.0286  1.0000  -1.9378   0.0000   0.0000   0.0000   0.3380
  21.100   0.9944   0.28448   0.28088  -0.1170  0.0286  1.0000  -1.9307   0.0000   0.0000   0.0000   0.3384
  21.200   0.9949   0.28677   0.28317  -0.1176  0.0285  1.0000  -1.9236   0.0000   0.0000   0.0000   0.3387
  21.300   0.9954   0.28906   0.28546  -0.1181  0.0285  1.0000  -1.9163   0.0000   0.0000   0.0000   0.3390
  21.400   0.9959   0.29136   0.28775  -0.1186  0.0284  1.0000  -1.9088   0.0000   0.0000   0.0000   0.3393
  21.500   0.9962   0.29366   0.29005  -0.1191  0.0284  1.0000  -1.9011   0.0000   0.0000   0.0000   0.3396
  21.600   0.9985   0.29511   0.29150  -0.1190  0.0280  1.0000  -1.9357   0.0000   0.0000   0.0000   0.3390
  21.700   0.9994   0.29685   0.29325  -0.1190  0.0274  1.0000  -1.9629   0.0000   0.0000   0.0000   0.3387
  21.800   0.9974   0.29994   0.29634  -0.1190  0.0266  1.0000  -1.9598   0.0000   0.0000   0.0000   0.3387
  22.000   0.9725   0.31672   0.31311  -0.1209  0.0251  1.0000  -1.6169   0.0000   0.0000   0.0000   0.3442
  22.100   0.9722   0.31883   0.31521  -0.1214  0.0251  1.0000  -1.6081   0.0000   0.0000   0.0000   0.3446
  22.200   0.9719   0.32089   0.31728  -0.1218  0.0251  1.0000  -1.5996   0.0000   0.0000   0.0000   0.3449
  22.300   0.9715   0.32292   0.31931  -0.1223  0.0250  1.0000  -1.5913   0.0000   0.0000   0.0000   0.3453
  22.400   0.9710   0.32490   0.32129  -0.1227  0.0250  1.0000  -1.5833   0.0000   0.0000   0.0000   0.3457
  22.500   0.9704   0.32683   0.32323  -0.1231  0.0250  1.0000  -1.5756   0.0000   0.0000   0.0000   0.3460
  22.600   0.9697   0.32872   0.32512  -0.1235  0.0249  1.0000  -1.5683   0.0000   0.0000   0.0000   0.3463
  22.700   0.9690   0.33054   0.32694  -0.1238  0.0249  1.0000  -1.5614   0.0000   0.0000   0.0000   0.3467
  22.800   0.9682   0.33229   0.32870  -0.1242  0.0248  1.0000  -1.5551   0.0000   0.0000   0.0000   0.3470
  22.900   0.9672   0.33396   0.33037  -0.1245  0.0248  1.0000  -1.5492   0.0000   0.0000   0.0000   0.3473
  23.000   0.9662   0.33551   0.33193  -0.1248  0.0247  1.0000  -1.5441   0.0000   0.0000   0.0000   0.3476
  23.100   0.9651   0.33694   0.33336  -0.1251  0.0246  1.0000  -1.5405   0.0000   0.0000   0.0000   0.3479
  23.200   0.9643   0.33818   0.33461  -0.1254  0.0244  1.0000  -1.5393   0.0000   0.0000   0.0000   0.3481
  23.300   0.9639   0.33917   0.33560  -0.1257  0.0242  1.0000  -1.5424   0.0000   0.0000   0.0000   0.3484
  23.400   0.9649   0.33974   0.33617  -0.1263  0.0237  1.0000  -1.5536   0.0000   0.0000   0.0000   0.3487
  23.500   0.9672   0.34025   0.33668  -0.1276  0.0226  1.0000  -1.5562   0.0000   0.0000   0.0000   0.3495
  23.600   0.9684   0.34159   0.33802  -0.1287  0.0209  1.0000  -1.5470   0.0000   0.0000   0.0000   0.3502
  23.700   0.9671   0.34298   0.33942  -0.1289  0.0197  1.0000  -1.5430   0.0000   0.0000   0.0000   0.3506
  23.800   0.9669   0.34376   0.34030  -0.1291  0.0182  1.0000  -1.5625   0.0000   0.0000   0.0000   0.3506
  23.900   0.9628   0.34458   0.34113  -0.1288  0.0176  1.0000  -1.5631   0.0000   0.0000   0.0000   0.3507
  24.000   0.8944   0.33109   0.32765  -0.1180  0.0188  1.0000  -1.3822   0.0000   0.0000   0.0000   0.3504
  24.100   0.8891   0.33070   0.32727  -0.1174  0.0180  1.0000  -1.3797   0.0000   0.0000   0.0000   0.3505
  24.200   0.8846   0.33041   0.32699  -0.1169  0.0173  1.0000  -1.3834   0.0000   0.0000   0.0000   0.3505
  24.300   0.8833   0.33009   0.32676  -0.1167  0.0164  1.0000  -1.4133   0.0000   0.0000   0.0000   0.3503
  24.400   0.8797   0.32986   0.32655  -0.1163  0.0160  1.0000  -1.4217   0.0000   0.0000   0.0000   0.3503
  24.500   0.8767   0.32966   0.32635  -0.1159  0.0156  1.0000  -1.4349   0.0000   0.0000   0.0000   0.3502
  24.600   0.8741   0.32945   0.32615  -0.1156  0.0153  1.0000  -1.4526   0.0000   0.0000   0.0000   0.3500
  24.700   0.8719   0.32923   0.32594  -0.1152  0.0150  1.0000  -1.4744   0.0000   0.0000   0.0000   0.3498
  24.800   0.8700   0.32898   0.32570  -0.1149  0.0147  1.0000  -1.5001   0.0000   0.0000   0.0000   0.3496
  24.900   0.8683   0.32871   0.32543  -0.1145  0.0144  1.0000  -1.5298   0.0000   0.0000   0.0000   0.3492
  25.000   0.8670   0.32841   0.32513  -0.1142  0.0142  1.0000  -1.5637   0.0000   0.0000   0.0000   0.3488
  25.100   0.8659   0.32807   0.32480  -0.1137  0.0139  1.0000  -1.6021   0.0000   0.0000   0.0000   0.3482
  25.200   0.8650   0.32772   0.32445  -0.1131  0.0137  1.0000  -1.6447   0.0000   0.0000   0.0000   0.3474
  25.300   0.8387   0.32883   0.32556  -0.1104  0.0127  1.0000  -1.4050   0.0000   0.0000   0.0000   0.3493
  25.400   0.8359   0.32928   0.32602  -0.1104  0.0127  1.0000  -1.3858   0.0000   0.0000   0.0000   0.3497
  25.500   0.8332   0.32975   0.32649  -0.1104  0.0126  1.0000  -1.3674   0.0000   0.0000   0.0000   0.3500
  25.600   0.8307   0.33023   0.32698  -0.1104  0.0126  1.0000  -1.3497   0.0000   0.0000   0.0000   0.3504
  25.700   0.8283   0.33072   0.32748  -0.1104  0.0126  1.0000  -1.3328   0.0000   0.0000   0.0000   0.3507
  25.800   0.8260   0.33122   0.32799  -0.1105  0.0126  1.0000  -1.3163   0.0000   0.0000   0.0000   0.3511
  25.900   0.8239   0.33172   0.32850  -0.1105  0.0126  1.0000  -1.3002   0.0000   0.0000   0.0000   0.3514
  26.000   0.8218   0.33224   0.32902  -0.1106  0.0125  1.0000  -1.2848   0.0000   0.0000   0.0000   0.3517
  26.100   0.8198   0.33276   0.32955  -0.1106  0.0125  1.0000  -1.2699   0.0000   0.0000   0.0000   0.3521
  26.200   0.8180   0.33328   0.33009  -0.1107  0.0125  1.0000  -1.2555   0.0000   0.0000   0.0000   0.3524
  26.300   0.8162   0.33382   0.33063  -0.1108  0.0125  1.0000  -1.2416   0.0000   0.0000   0.0000   0.3527
  26.400   0.8145   0.33436   0.33118  -0.1109  0.0125  1.0000  -1.2282   0.0000   0.0000   0.0000   0.3530
  26.500   0.8129   0.33491   0.33173  -0.1110  0.0124  1.0000  -1.2152   0.0000   0.0000   0.0000   0.3534
  26.600   0.8113   0.33546   0.33229  -0.1111  0.0124  1.0000  -1.2026   0.0000   0.0000   0.0000   0.3537
  26.700   0.8098   0.33602   0.33286  -0.1112  0.0124  1.0000  -1.1901   0.0000   0.0000   0.0000   0.3540
  26.800   0.8084   0.33658   0.33343  -0.1114  0.0124  1.0000  -1.1776   0.0000   0.0000   0.0000   0.3543
  26.900   0.8070   0.33715   0.33400  -0.1115  0.0124  1.0000  -1.1655   0.0000   0.0000   0.0000   0.3546
  27.000   0.8056   0.33772   0.33458  -0.1117  0.0123  1.0000  -1.1538   0.0000   0.0000   0.0000   0.3549
  27.100   0.8043   0.33830   0.33517  -0.1118  0.0123  1.0000  -1.1424   0.0000   0.0000   0.0000   0.3552
  27.200   0.8031   0.33888   0.33575  -0.1120  0.0123  1.0000  -1.1313   0.0000   0.0000   0.0000   0.3555
  27.300   0.8020   0.33946   0.33634  -0.1121  0.0123  1.0000  -1.1206   0.0000   0.0000   0.0000   0.3558
  27.400   0.8008   0.34005   0.33694  -0.1123  0.0122  1.0000  -1.1102   0.0000   0.0000   0.0000   0.3561
  27.500   0.7998   0.34064   0.33754  -0.1125  0.0122  1.0000  -1.1001   0.0000   0.0000   0.0000   0.3564
  27.600   0.7987   0.34123   0.33814  -0.1127  0.0122  1.0000  -1.0902   0.0000   0.0000   0.0000   0.3567
  27.700   0.7977   0.34184   0.33875  -0.1129  0.0122  1.0000  -1.0795   0.0000   0.0000   0.0000   0.3570
  27.800   0.7967   0.34245   0.33937  -0.1131  0.0122  1.0000  -1.0687   0.0000   0.0000   0.0000   0.3573
  27.900   0.7957   0.34307   0.34000  -0.1133  0.0121  1.0000  -1.0584   0.0000   0.0000   0.0000   0.3576
  28.000   0.7948   0.34369   0.34063  -0.1135  0.0121  1.0000  -1.0483   0.0000   0.0000   0.0000   0.3580
  28.100   0.7939   0.34431   0.34126  -0.1137  0.0121  1.0000  -1.0385   0.0000   0.0000   0.0000   0.3583
  28.200   0.7931   0.34494   0.34189  -0.1139  0.0121  1.0000  -1.0290   0.0000   0.0000   0.0000   0.3586
  28.300   0.7922   0.34557   0.34252  -0.1141  0.0120  1.0000  -1.0198   0.0000   0.0000   0.0000   0.3588
  28.400   0.7915   0.34620   0.34316  -0.1143  0.0120  1.0000  -1.0108   0.0000   0.0000   0.0000   0.3591
  28.500   0.7907   0.34683   0.34380  -0.1146  0.0120  1.0000  -1.0021   0.0000   0.0000   0.0000   0.3594
  28.600   0.7900   0.34747   0.34444  -0.1148  0.0120  1.0000  -0.9936   0.0000   0.0000   0.0000   0.3597
  28.700   0.7894   0.34810   0.34509  -0.1150  0.0119  1.0000  -0.9854   0.0000   0.0000   0.0000   0.3600
  28.800   0.7887   0.34874   0.34573  -0.1153  0.0119  1.0000  -0.9773   0.0000   0.0000   0.0000   0.3602
  28.900   0.7881   0.34938   0.34638  -0.1155  0.0119  1.0000  -0.9695   0.0000   0.0000   0.0000   0.3605
  29.000   0.7875   0.35002   0.34703  -0.1157  0.0119  1.0000  -0.9619   0.0000   0.0000   0.0000   0.3608
  29.100   0.7869   0.35066   0.34768  -0.1160  0.0119  1.0000  -0.9544   0.0000   0.0000   0.0000   0.3610
  29.200   0.7864   0.35131   0.34833  -0.1162  0.0118  1.0000  -0.9471   0.0000   0.0000   0.0000   0.3613
  29.300   0.7858   0.35195   0.34898  -0.1164  0.0118  1.0000  -0.9401   0.0000   0.0000   0.0000   0.3615
  29.400   0.7853   0.35260   0.34963  -0.1167  0.0118  1.0000  -0.9331   0.0000   0.0000   0.0000   0.3618
  29.500   0.7848   0.35325   0.35028  -0.1169  0.0118  1.0000  -0.9264   0.0000   0.0000   0.0000   0.3620
  29.600   0.7844   0.35389   0.35094  -0.1172  0.0117  1.0000  -0.9198   0.0000   0.0000   0.0000   0.3623
  29.700   0.7839   0.35454   0.35159  -0.1174  0.0117  1.0000  -0.9134   0.0000   0.0000   0.0000   0.3625
  29.800   0.7835   0.35519   0.35225  -0.1177  0.0117  1.0000  -0.9071   0.0000   0.0000   0.0000   0.3628
  29.900   0.7831   0.35584   0.35291  -0.1179  0.0117  1.0000  -0.9009   0.0000   0.0000   0.0000   0.3630
  30.000   0.7826   0.35649   0.35356  -0.1182  0.0116  1.0000  -0.8949   0.0000   0.0000   0.0000   0.3632


