xflr5 v6.61

 Calculated polar for: NACA 2415

 1 1 Reynolds number fixed          Mach number fixed         

 xtrf =   1.000 (top)        1.000 (bottom)
 Mach =   0.000     Re =     0.100 e 6     Ncrit =   9.000

  alpha     CL        CD       CDp       Cm    Top Xtr Bot Xtr   Cpmin    Chinge    XCp    
 ------- -------- --------- --------- -------- ------- ------- -------- --------- ---------
 -10.000  -0.5828   0.06503   0.05898  -0.0571  1.0000  0.0856  -2.5337   0.0000   0.0000   0.0000   0.1375
  -9.900  -0.6121   0.06198   0.05587  -0.0570  1.0000  0.0850  -2.6261   0.0000   0.0000   0.0000   0.1431
  -9.800  -0.6277   0.06068   0.05501  -0.0558  1.0000  0.0847  -2.6841   0.0000   0.0000   0.0000   0.1477
  -9.700  -0.6413   0.05963   0.05396  -0.0541  1.0000  0.0847  -2.7145   0.0000   0.0000   0.0000   0.1527
  -9.600  -0.6563   0.05829   0.05259  -0.0522  1.0000  0.0846  -2.7525   0.0000   0.0000   0.0000   0.1577
  -9.500  -0.6712   0.05670   0.05095  -0.0505  1.0000  0.0843  -2.7947   0.0000   0.0000   0.0000   0.1624
  -9.400  -0.6857   0.05509   0.04927  -0.0486  1.0000  0.0839  -2.8369   0.0000   0.0000   0.0000   0.1670
  -9.300  -0.6994   0.05347   0.04757  -0.0467  1.0000  0.0836  -2.8780   0.0000   0.0000   0.0000   0.1714
  -9.200  -0.7115   0.05188   0.04589  -0.0448  1.0000  0.0832  -2.9150   0.0000   0.0000   0.0000   0.1754
  -9.100  -0.7213   0.05036   0.04427  -0.0430  1.0000  0.0828  -2.9462   0.0000   0.0000   0.0000   0.1790
  -9.000  -0.7297   0.04886   0.04266  -0.0412  1.0000  0.0825  -2.9742   0.0000   0.0000   0.0000   0.1823
  -8.900  -0.7368   0.04741   0.04110  -0.0395  1.0000  0.0822  -2.9987   0.0000   0.0000   0.0000   0.1853
  -8.800  -0.7425   0.04601   0.03957  -0.0378  1.0000  0.0820  -3.0194   0.0000   0.0000   0.0000   0.1880
  -8.700  -0.7468   0.04465   0.03810  -0.0363  1.0000  0.0817  -3.0363   0.0000   0.0000   0.0000   0.1905
  -8.600  -0.7499   0.04335   0.03668  -0.0348  1.0000  0.0816  -3.0495   0.0000   0.0000   0.0000   0.1928
  -8.500  -0.7517   0.04211   0.03530  -0.0335  1.0000  0.0814  -3.0591   0.0000   0.0000   0.0000   0.1948
  -8.400  -0.7526   0.04091   0.03398  -0.0322  1.0000  0.0813  -3.0655   0.0000   0.0000   0.0000   0.1967
  -8.300  -0.7526   0.03975   0.03270  -0.0310  1.0000  0.0813  -3.0692   0.0000   0.0000   0.0000   0.1984
  -8.200  -0.7520   0.03861   0.03142  -0.0298  1.0000  0.0813  -3.0706   0.0000   0.0000   0.0000   0.2000
  -8.100  -0.7509   0.03742   0.03008  -0.0287  1.0000  0.0812  -3.0710   0.0000   0.0000   0.0000   0.2015
  -8.000  -0.7490   0.03619   0.02817  -0.0275  1.0000  0.0814  -3.0462   0.0000   0.0000   0.0000   0.2031
  -7.900  -0.7456   0.03540   0.02730  -0.0266  1.0000  0.0818  -3.0362   0.0000   0.0000   0.0000   0.2043
  -7.800  -0.7417   0.03466   0.02648  -0.0257  1.0000  0.0821  -3.0244   0.0000   0.0000   0.0000   0.2053
  -7.700  -0.7375   0.03396   0.02572  -0.0249  1.0000  0.0826  -3.0113   0.0000   0.0000   0.0000   0.2063
  -7.600  -0.7328   0.03331   0.02500  -0.0241  1.0000  0.0831  -2.9968   0.0000   0.0000   0.0000   0.2073
  -7.500  -0.7279   0.03269   0.02433  -0.0233  1.0000  0.0837  -2.9812   0.0000   0.0000   0.0000   0.2082
  -7.400  -0.7228   0.03211   0.02369  -0.0226  1.0000  0.0844  -2.9649   0.0000   0.0000   0.0000   0.2091
  -7.300  -0.7174   0.03156   0.02310  -0.0219  1.0000  0.0852  -2.9479   0.0000   0.0000   0.0000   0.2099
  -7.200  -0.7118   0.03104   0.02253  -0.0212  1.0000  0.0862  -2.9305   0.0000   0.0000   0.0000   0.2107
  -7.100  -0.7059   0.03054   0.02198  -0.0205  1.0000  0.0873  -2.9130   0.0000   0.0000   0.0000   0.2115
  -7.000  -0.6998   0.03007   0.02146  -0.0199  1.0000  0.0886  -2.8954   0.0000   0.0000   0.0000   0.2122
  -6.900  -0.6934   0.02962   0.02097  -0.0193  1.0000  0.0902  -2.8779   0.0000   0.0000   0.0000   0.2129
  -6.800  -0.6868   0.02920   0.02050  -0.0187  1.0000  0.0920  -2.8608   0.0000   0.0000   0.0000   0.2135
  -6.700  -0.6800   0.02882   0.02007  -0.0182  1.0000  0.0941  -2.8437   0.0000   0.0000   0.0000   0.2142
  -6.600  -0.6730   0.02853   0.01973  -0.0176  1.0000  0.0963  -2.8252   0.0000   0.0000   0.0000   0.2148
  -6.500  -0.6659   0.02836   0.01952  -0.0171  1.0000  0.0984  -2.8037   0.0000   0.0000   0.0000   0.2154
  -6.400  -0.6587   0.02837   0.01950  -0.0165  1.0000  0.1000  -2.7778   0.0000   0.0000   0.0000   0.2161
  -6.300  -0.6525   0.02531   0.01634  -0.0161  1.0000  0.1154  -2.8404   0.0000   0.0000   0.0000   0.2164
  -6.200  -0.6457   0.02502   0.01611  -0.0156  1.0000  0.1221  -2.8188   0.0000   0.0000   0.0000   0.2170
  -6.100  -0.6386   0.02483   0.01594  -0.0151  1.0000  0.1295  -2.7960   0.0000   0.0000   0.0000   0.2176
  -6.000  -0.6313   0.02465   0.01574  -0.0146  1.0000  0.1377  -2.7741   0.0000   0.0000   0.0000   0.2182
  -5.900  -0.6239   0.02455   0.01559  -0.0142  1.0000  0.1444  -2.7484   0.0000   0.0000   0.0000   0.2187
  -5.800  -0.6165   0.02458   0.01555  -0.0138  1.0000  0.1485  -2.7174   0.0000   0.0000   0.0000   0.2192
  -5.700  -0.6085   0.02374   0.01472  -0.0135  1.0000  0.1585  -2.6991   0.0000   0.0000   0.0000   0.2193
  -5.600  -0.6015   0.02335   0.01444  -0.0131  1.0000  0.1675  -2.6696   0.0000   0.0000   0.0000   0.2198
  -5.500  -0.5945   0.02324   0.01440  -0.0127  1.0000  0.1741  -2.6350   0.0000   0.0000   0.0000   0.2202
  -5.400  -0.5873   0.02319   0.01435  -0.0124  1.0000  0.1802  -2.6000   0.0000   0.0000   0.0000   0.2207
  -5.300  -0.5800   0.02313   0.01429  -0.0120  1.0000  0.1861  -2.5652   0.0000   0.0000   0.0000   0.2211
  -5.200  -0.5666   0.02310   0.01421  -0.0127  0.9985  0.1928  -2.5176   0.0000   0.0000   0.0000   0.2194
  -5.100  -0.5513   0.02318   0.01422  -0.0138  0.9961  0.1984  -2.4640   0.0000   0.0000   0.0000   0.2168
  -5.000  -0.5371   0.02277   0.01388  -0.0147  0.9939  0.2082  -2.4167   0.0000   0.0000   0.0000   0.2144
  -4.900  -0.5232   0.02258   0.01389  -0.0157  0.9911  0.2186  -2.3644   0.0000   0.0000   0.0000   0.2119
  -4.800  -0.5089   0.02266   0.01408  -0.0167  0.9879  0.2282  -2.3085   0.0000   0.0000   0.0000   0.2092
  -4.700  -0.4942   0.02280   0.01428  -0.0177  0.9844  0.2381  -2.2529   0.0000   0.0000   0.0000   0.2062
  -4.600  -0.4790   0.02300   0.01448  -0.0188  0.9808  0.2464  -2.1974   0.0000   0.0000   0.0000   0.2028
  -4.500  -0.4639   0.02285   0.01436  -0.0199  0.9775  0.2551  -2.1461   0.0000   0.0000   0.0000   0.1991
  -4.400  -0.4494   0.02260   0.01432  -0.0209  0.9743  0.2658  -2.0940   0.0000   0.0000   0.0000   0.1955
  -4.300  -0.4338   0.02269   0.01453  -0.0221  0.9708  0.2741  -2.0378   0.0000   0.0000   0.0000   0.1912
  -4.200  -0.4174   0.02280   0.01471  -0.0233  0.9675  0.2827  -1.9818   0.0000   0.0000   0.0000   0.1862
  -4.100  -0.4001   0.02291   0.01483  -0.0247  0.9643  0.2909  -1.9260   0.0000   0.0000   0.0000   0.1803
  -4.000  -0.3820   0.02306   0.01497  -0.0263  0.9613  0.2973  -1.8695   0.0000   0.0000   0.0000   0.1733
  -3.900  -0.3640   0.02253   0.01438  -0.0279  0.9590  0.3111  -1.8218   0.0000   0.0000   0.0000   0.1652
  -3.800  -0.3465   0.02196   0.01391  -0.0294  0.9570  0.3342  -1.7748   0.0000   0.0000   0.0000   0.1568
  -3.700  -0.3283   0.02190   0.01399  -0.0310  0.9546  0.3508  -1.7203   0.0000   0.0000   0.0000   0.1472
  -3.600  -0.3093   0.02201   0.01418  -0.0327  0.9522  0.3662  -1.6637   0.0000   0.0000   0.0000   0.1356
  -3.500  -0.2918   0.02220   0.01438  -0.0342  0.9494  0.3796  -1.6105   0.0000   0.0000   0.0000   0.1242
  -3.400  -0.2868   0.02192   0.01408  -0.0330  0.9446  0.3872  -1.5812   0.0000   0.0000   0.0000   0.1261
  -3.300  -0.2782   0.02180   0.01393  -0.0326  0.9391  0.3940  -1.5451   0.0000   0.0000   0.0000   0.1240
  -3.200  -0.2666   0.02176   0.01386  -0.0328  0.9334  0.3991  -1.5033   0.0000   0.0000   0.0000   0.1183
  -3.100  -0.2519   0.02123   0.01341  -0.0336  0.9290  0.4232  -1.4606   0.0000   0.0000   0.0000   0.1077
  -3.000  -0.2371   0.02094   0.01330  -0.0342  0.9243  0.4437  -1.4146   0.0000   0.0000   0.0000   0.0963
  -2.900  -0.2209   0.02077   0.01326  -0.0351  0.9198  0.4609  -1.3654   0.0000   0.0000   0.0000   0.0815
  -2.800  -0.2036   0.02065   0.01318  -0.0362  0.9156  0.4772  -1.3147   0.0000   0.0000   0.0000   0.0622
  -2.700  -0.1851   0.02057   0.01308  -0.0376  0.9119  0.4912  -1.2623   0.0000   0.0000   0.0000   0.0365
  -2.600  -0.1658   0.02049   0.01300  -0.0391  0.9087  0.5051  -1.2093   0.0000   0.0000   0.0000   0.0029
  -2.500  -0.1475   0.02020   0.01295  -0.0403  0.9063  0.5360  -1.1589   0.0000   0.0000   0.0000  -0.0350
  -2.400  -0.1293   0.02013   0.01304  -0.0414  0.9039  0.5603  -1.1077   0.0000   0.0000   0.0000  -0.0831
  -2.300  -0.1102   0.02016   0.01312  -0.0428  0.9017  0.5826  -1.0560   0.0000   0.0000   0.0000  -0.1524
  -2.200  -0.0964   0.02024   0.01318  -0.0432  0.8989  0.5971  -1.0141   0.0000   0.0000   0.0000  -0.2140
  -2.100  -0.0965   0.02008   0.01310  -0.0411  0.8942  0.6139  -0.9966   0.0000   0.0000   0.0000  -0.1911
  -2.000  -0.0942   0.01996   0.01313  -0.0392  0.8890  0.6344  -0.9744   0.0000   0.0000   0.0000  -0.1813
  -1.900  -0.0897   0.01991   0.01320  -0.0377  0.8834  0.6535  -0.9484   0.0000   0.0000   0.0000  -0.1855
  -1.800  -0.0833   0.01990   0.01325  -0.0367  0.8777  0.6727  -0.9196   0.0000   0.0000   0.0000  -0.2054
  -1.700  -0.0756   0.01991   0.01327  -0.0359  0.8718  0.6896  -0.8957   0.0000   0.0000   0.0000  -0.2409
  -1.600  -0.0663   0.01990   0.01327  -0.0355  0.8661  0.7052  -0.8698   0.0000   0.0000   0.0000  -0.3031
  -1.500  -0.0551   0.01984   0.01334  -0.0351  0.8612  0.7309  -0.8412   0.0000   0.0000   0.0000  -0.4061
  -1.400  -0.0441   0.01986   0.01345  -0.0346  0.8562  0.7522  -0.8127   0.0000   0.0000   0.0000  -0.5580
  -1.300  -0.0325   0.01988   0.01352  -0.0342  0.8513  0.7725  -0.7838   0.0000   0.0000   0.0000  -0.8338
  -1.200  -0.0208   0.01990   0.01354  -0.0340  0.8465  0.7905  -0.7552   0.0000   0.0000   0.0000  -1.4230
  -1.100  -0.0072   0.01988   0.01354  -0.0341  0.8422  0.8087  -0.7243   0.0000   0.0000   0.0000  -4.6252
  -1.000   0.0114   0.01990   0.01362  -0.0348  0.8390  0.8317  -0.6884   0.0000   0.0000   0.0000   3.3687
  -0.900   0.0311   0.01995   0.01370  -0.0357  0.8359  0.8521  -0.6647   0.0000   0.0000   0.0000   1.4194
  -0.800   0.0501   0.01998   0.01373  -0.0366  0.8327  0.8706  -0.6419   0.0000   0.0000   0.0000   0.9937
  -0.700   0.0661   0.01997   0.01370  -0.0370  0.8293  0.8864  -0.6217   0.0000   0.0000   0.0000   0.8190
  -0.600   0.0790   0.01994   0.01365  -0.0369  0.8255  0.8990  -0.6043   0.0000   0.0000   0.0000   0.7243
  -0.500   0.1088   0.01995   0.01365  -0.0400  0.8231  0.9081  -0.5733   0.0000   0.0000   0.0000   0.6216
  -0.400   0.1401   0.01996   0.01365  -0.0433  0.8205  0.9166  -0.5854   0.0000   0.0000   0.0000   0.5613
  -0.300   0.1703   0.01996   0.01362  -0.0464  0.8173  0.9252  -0.6041   0.0000   0.0000   0.0000   0.5238
  -0.200   0.1994   0.01996   0.01359  -0.0494  0.8132  0.9334  -0.6231   0.0000   0.0000   0.0000   0.4985
  -0.100   0.2245   0.02010   0.01371  -0.0519  0.8070  0.9412  -0.6435   0.0000   0.0000   0.0000   0.4811
   0.000   0.2371   0.02056   0.01415  -0.0523  0.7988  0.9501  -0.6553   0.0000   0.0000   0.0000   0.4703
   0.100   0.2682   0.02028   0.01386  -0.0561  0.7966  0.9545  -0.6798   0.0000   0.0000   0.0000   0.4585
   0.200   0.2970   0.02005   0.01362  -0.0595  0.7938  0.9596  -0.7029   0.0000   0.0000   0.0000   0.4495
   0.300   0.3234   0.01987   0.01345  -0.0625  0.7902  0.9654  -0.7243   0.0000   0.0000   0.0000   0.4423
   0.400   0.3484   0.01973   0.01328  -0.0654  0.7862  0.9721  -0.7449   0.0000   0.0000   0.0000   0.4363
   0.500   0.3728   0.01959   0.01312  -0.0681  0.7817  0.9794  -0.7652   0.0000   0.0000   0.0000   0.4311
   0.600   0.3968   0.01946   0.01297  -0.0707  0.7768  0.9869  -0.7854   0.0000   0.0000   0.0000   0.4265
   0.700   0.4208   0.01932   0.01281  -0.0733  0.7717  0.9937  -0.8057   0.0000   0.0000   0.0000   0.4223
   0.800   0.4447   0.01918   0.01264  -0.0759  0.7664  0.9991  -0.8261   0.0000   0.0000   0.0000   0.4185
   0.900   0.4545   0.01909   0.01253  -0.0759  0.7603  1.0000  -0.8370   0.0000   0.0000   0.0000   0.4148
   1.000   0.4613   0.01900   0.01241  -0.0754  0.7543  1.0000  -0.8459   0.0000   0.0000   0.0000   0.4110
   1.100   0.4689   0.01890   0.01228  -0.0749  0.7485  1.0000  -0.8555   0.0000   0.0000   0.0000   0.4072
   1.200   0.4770   0.01879   0.01214  -0.0744  0.7430  1.0000  -0.8655   0.0000   0.0000   0.0000   0.4034
   1.300   0.4857   0.01868   0.01200  -0.0740  0.7376  1.0000  -0.8759   0.0000   0.0000   0.0000   0.3996
   1.400   0.4953   0.01857   0.01185  -0.0738  0.7322  1.0000  -0.8872   0.0000   0.0000   0.0000   0.3960
   1.500   0.5059   0.01847   0.01170  -0.0736  0.7264  1.0000  -0.8991   0.0000   0.0000   0.0000   0.3924
   1.600   0.5169   0.01842   0.01159  -0.0735  0.7197  1.0000  -0.9112   0.0000   0.0000   0.0000   0.3890
   1.700   0.5274   0.01855   0.01166  -0.0735  0.7111  1.0000  -0.9227   0.0000   0.0000   0.0000   0.3860
   1.800   0.5341   0.01918   0.01227  -0.0732  0.6995  1.0000  -0.9335   0.0000   0.0000   0.0000   0.3837
   1.900   0.5399   0.01910   0.01218  -0.0723  0.6969  1.0000  -0.9466   0.0000   0.0000   0.0000   0.3805
   2.000   0.5455   0.01903   0.01210  -0.0714  0.6935  1.0000  -0.9597   0.0000   0.0000   0.0000   0.3772
   2.100   0.5513   0.01898   0.01204  -0.0704  0.6894  1.0000  -0.9728   0.0000   0.0000   0.0000   0.3740
   2.200   0.5573   0.01894   0.01198  -0.0695  0.6844  1.0000  -0.9863   0.0000   0.0000   0.0000   0.3708
   2.300   0.5637   0.01891   0.01194  -0.0687  0.6789  1.0000  -1.0002   0.0000   0.0000   0.0000   0.3677
   2.400   0.5707   0.01888   0.01189  -0.0679  0.6730  1.0000  -1.0147   0.0000   0.0000   0.0000   0.3647
   2.500   0.5784   0.01885   0.01184  -0.0672  0.6670  1.0000  -1.0297   0.0000   0.0000   0.0000   0.3619
   2.600   0.5864   0.01884   0.01181  -0.0666  0.6611  1.0000  -1.0451   0.0000   0.0000   0.0000   0.3591
   2.700   0.5950   0.01882   0.01177  -0.0660  0.6554  1.0000  -1.0611   0.0000   0.0000   0.0000   0.3564
   2.800   0.6039   0.01880   0.01173  -0.0655  0.6499  1.0000  -1.0774   0.0000   0.0000   0.0000   0.3539
   2.900   0.6131   0.01878   0.01168  -0.0651  0.6445  1.0000  -1.0941   0.0000   0.0000   0.0000   0.3513
   3.000   0.6228   0.01875   0.01162  -0.0646  0.6391  1.0000  -1.1193   0.0000   0.0000   0.0000   0.3489
   3.100   0.6334   0.01873   0.01156  -0.0644  0.6336  1.0000  -1.1556   0.0000   0.0000   0.0000   0.3467
   3.200   0.6442   0.01875   0.01152  -0.0642  0.6276  1.0000  -1.1924   0.0000   0.0000   0.0000   0.3445
   3.300   0.6549   0.01884   0.01156  -0.0640  0.6209  1.0000  -1.2291   0.0000   0.0000   0.0000   0.3425
   3.400   0.6649   0.01913   0.01180  -0.0639  0.6127  1.0000  -1.2640   0.0000   0.0000   0.0000   0.3408
   3.500   0.6707   0.02005   0.01272  -0.0635  0.6009  1.0000  -1.2898   0.0000   0.0000   0.0000   0.3393
   3.600   0.6771   0.02021   0.01288  -0.0627  0.5983  1.0000  -1.3191   0.0000   0.0000   0.0000   0.3372
   3.700   0.6837   0.02027   0.01295  -0.0620  0.5961  1.0000  -1.3494   0.0000   0.0000   0.0000   0.3350
   3.800   0.6902   0.02036   0.01305  -0.0612  0.5936  1.0000  -1.3797   0.0000   0.0000   0.0000   0.3329
   3.900   0.6966   0.02046   0.01316  -0.0604  0.5907  1.0000  -1.4100   0.0000   0.0000   0.0000   0.3309
   4.000   0.7031   0.02057   0.01328  -0.0596  0.5873  1.0000  -1.4405   0.0000   0.0000   0.0000   0.3288
   4.100   0.7097   0.02069   0.01341  -0.0588  0.5836  1.0000  -1.4713   0.0000   0.0000   0.0000   0.3269
   4.200   0.7165   0.02082   0.01355  -0.0581  0.5795  1.0000  -1.5027   0.0000   0.0000   0.0000   0.3249
   4.300   0.7236   0.02093   0.01367  -0.0574  0.5752  1.0000  -1.5348   0.0000   0.0000   0.0000   0.3230
   4.400   0.7312   0.02102   0.01376  -0.0567  0.5704  1.0000  -1.5684   0.0000   0.0000   0.0000   0.3212
   4.500   0.7395   0.02106   0.01380  -0.0561  0.5652  1.0000  -1.6035   0.0000   0.0000   0.0000   0.3194
   4.600   0.7485   0.02106   0.01380  -0.0556  0.5598  1.0000  -1.6405   0.0000   0.0000   0.0000   0.3177
   4.700   0.7581   0.02103   0.01374  -0.0551  0.5541  1.0000  -1.6792   0.0000   0.0000   0.0000   0.3160
   4.800   0.7683   0.02096   0.01365  -0.0547  0.5484  1.0000  -1.7194   0.0000   0.0000   0.0000   0.3144
   4.900   0.7788   0.02087   0.01353  -0.0543  0.5426  1.0000  -1.7607   0.0000   0.0000   0.0000   0.3128
   5.000   0.7899   0.02079   0.01340  -0.0540  0.5364  1.0000  -1.8037   0.0000   0.0000   0.0000   0.3113
   5.100   0.8015   0.02075   0.01330  -0.0538  0.5298  1.0000  -1.8474   0.0000   0.0000   0.0000   0.3099
   5.200   0.8127   0.02084   0.01332  -0.0536  0.5224  1.0000  -1.8902   0.0000   0.0000   0.0000   0.3087
   5.300   0.8228   0.02119   0.01362  -0.0534  0.5130  1.0000  -1.9300   0.0000   0.0000   0.0000   0.3076
   5.400   0.8271   0.02239   0.01485  -0.0528  0.5002  1.0000  -1.9549   0.0000   0.0000   0.0000   0.3064
   5.500   0.8357   0.02227   0.01472  -0.0522  0.4979  1.0000  -1.9938   0.0000   0.0000   0.0000   0.3049
   5.600   0.8439   0.02213   0.01459  -0.0515  0.4952  1.0000  -2.0324   0.0000   0.0000   0.0000   0.3034
   5.700   0.8519   0.02200   0.01447  -0.0508  0.4917  1.0000  -2.0708   0.0000   0.0000   0.0000   0.3018
   5.800   0.8598   0.02189   0.01437  -0.0500  0.4872  1.0000  -2.1093   0.0000   0.0000   0.0000   0.3002
   5.900   0.8678   0.02180   0.01428  -0.0493  0.4817  1.0000  -2.1482   0.0000   0.0000   0.0000   0.2988
   6.000   0.8762   0.02173   0.01420  -0.0486  0.4754  1.0000  -2.1879   0.0000   0.0000   0.0000   0.2973
   6.100   0.8850   0.02163   0.01410  -0.0480  0.4684  1.0000  -2.2290   0.0000   0.0000   0.0000   0.2959
   6.200   0.8944   0.02151   0.01395  -0.0475  0.4608  1.0000  -2.2717   0.0000   0.0000   0.0000   0.2946
   6.300   0.9039   0.02136   0.01377  -0.0469  0.4529  1.0000  -2.3154   0.0000   0.0000   0.0000   0.2933
   6.400   0.9141   0.02120   0.01352  -0.0464  0.4442  1.0000  -2.3610   0.0000   0.0000   0.0000   0.2920
   6.500   0.9246   0.02106   0.01326  -0.0459  0.4345  1.0000  -2.4077   0.0000   0.0000   0.0000   0.2908
   6.600   0.9348   0.02105   0.01310  -0.0455  0.4229  1.0000  -2.4536   0.0000   0.0000   0.0000   0.2897
   6.700   0.9448   0.02146   0.01338  -0.0453  0.4071  1.0000  -2.4962   0.0000   0.0000   0.0000   0.2888
   6.800   0.9529   0.02174   0.01365  -0.0448  0.3984  1.0000  -2.5354   0.0000   0.0000   0.0000   0.2878
   6.900   0.9600   0.02162   0.01354  -0.0440  0.3953  1.0000  -2.5751   0.0000   0.0000   0.0000   0.2865
   7.000   0.9670   0.02155   0.01350  -0.0432  0.3912  1.0000  -2.6143   0.0000   0.0000   0.0000   0.2852
   7.100   0.9740   0.02154   0.01351  -0.0425  0.3860  1.0000  -2.6532   0.0000   0.0000   0.0000   0.2839
   7.200   0.9812   0.02157   0.01357  -0.0417  0.3799  1.0000  -2.6923   0.0000   0.0000   0.0000   0.2828
   7.300   0.9887   0.02164   0.01366  -0.0411  0.3734  1.0000  -2.7316   0.0000   0.0000   0.0000   0.2816
   7.400   0.9963   0.02173   0.01376  -0.0404  0.3666  1.0000  -2.7713   0.0000   0.0000   0.0000   0.2805
   7.500   1.0040   0.02182   0.01384  -0.0398  0.3590  1.0000  -2.8115   0.0000   0.0000   0.0000   0.2795
   7.600   1.0118   0.02190   0.01387  -0.0391  0.3507  1.0000  -2.8521   0.0000   0.0000   0.0000   0.2784
   7.700   1.0193   0.02199   0.01388  -0.0384  0.3417  1.0000  -2.8925   0.0000   0.0000   0.0000   0.2773
   7.800   1.0262   0.02210   0.01388  -0.0376  0.3319  1.0000  -2.9318   0.0000   0.0000   0.0000   0.2761
   7.900   1.0323   0.02232   0.01397  -0.0367  0.3207  1.0000  -2.9687   0.0000   0.0000   0.0000   0.2749
   8.000   1.0398   0.02271   0.01427  -0.0362  0.3062  1.0000  -3.0068   0.0000   0.0000   0.0000   0.2739
   8.100   1.0475   0.02299   0.01454  -0.0356  0.2977  1.0000  -3.0455   0.0000   0.0000   0.0000   0.2730
   8.200   1.0534   0.02309   0.01469  -0.0348  0.2932  1.0000  -3.0822   0.0000   0.0000   0.0000   0.2719
   8.300   1.0595   0.02320   0.01484  -0.0340  0.2873  1.0000  -3.1192   0.0000   0.0000   0.0000   0.2708
   8.400   1.0654   0.02333   0.01497  -0.0332  0.2803  1.0000  -3.1561   0.0000   0.0000   0.0000   0.2697
   8.500   1.0687   0.02361   0.01580  -0.0317  0.2687  1.0000  -3.2255   0.0000   0.0000   0.0000   0.2680
   8.600   1.0715   0.02389   0.01595  -0.0304  0.2602  1.0000  -3.2632   0.0000   0.0000   0.0000   0.2665
   8.700   1.0736   0.02429   0.01617  -0.0290  0.2503  1.0000  -3.2943   0.0000   0.0000   0.0000   0.2649
   8.800   1.0785   0.02452   0.01646  -0.0280  0.2430  1.0000  -3.3295   0.0000   0.0000   0.0000   0.2638
   8.900   1.0822   0.02479   0.01674  -0.0269  0.2336  1.0000  -3.3610   0.0000   0.0000   0.0000   0.2625
   9.000   1.0840   0.02514   0.01699  -0.0256  0.2233  1.0000  -3.3876   0.0000   0.0000   0.0000   0.2611
   9.100   1.0832   0.02558   0.01727  -0.0239  0.2128  1.0000  -3.4071   0.0000   0.0000   0.0000   0.2593
   9.200   1.0813   0.02621   0.01769  -0.0220  0.1995  1.0000  -3.4203   0.0000   0.0000   0.0000   0.2574
   9.300   1.0833   0.02650   0.01812  -0.0207  0.1890  1.0000  -3.4405   0.0000   0.0000   0.0000   0.2561
   9.400   1.0811   0.02706   0.01861  -0.0189  0.1737  1.0000  -3.4485   0.0000   0.0000   0.0000   0.2543
   9.500   1.0738   0.02793   0.01928  -0.0166  0.1588  1.0000  -3.4430   0.0000   0.0000   0.0000   0.2521
   9.600   1.0684   0.02890   0.02017  -0.0145  0.1405  1.0000  -3.4238   0.0000   0.0000   0.0000   0.2500
   9.700   1.0627   0.02987   0.02103  -0.0125  0.1255  1.0000  -3.4040   0.0000   0.0000   0.0000   0.2480
   9.800   1.0551   0.03102   0.02200  -0.0104  0.1148  1.0000  -3.3814   0.0000   0.0000   0.0000   0.2459
   9.900   1.0511   0.03305   0.02391  -0.0082  0.0991  1.0000  -3.3142   0.0000   0.0000   0.0000   0.2437
  10.000   1.0544   0.03360   0.02452  -0.0074  0.0971  1.0000  -3.3273   0.0000   0.0000   0.0000   0.2427
  10.100   1.0580   0.03421   0.02518  -0.0066  0.0950  1.0000  -3.3400   0.0000   0.0000   0.0000   0.2418
  10.200   1.0618   0.03485   0.02585  -0.0058  0.0930  1.0000  -3.3537   0.0000   0.0000   0.0000   0.2409
  10.300   1.0659   0.03549   0.02653  -0.0051  0.0913  1.0000  -3.3687   0.0000   0.0000   0.0000   0.2400
  10.400   1.0702   0.03615   0.02721  -0.0044  0.0898  1.0000  -3.3850   0.0000   0.0000   0.0000   0.2392
  10.500   1.0743   0.03679   0.02787  -0.0038  0.0884  1.0000  -3.4028   0.0000   0.0000   0.0000   0.2384
  10.600   1.0782   0.03741   0.02851  -0.0031  0.0870  1.0000  -3.4229   0.0000   0.0000   0.0000   0.2377
  10.700   1.0816   0.03802   0.02912  -0.0025  0.0857  1.0000  -3.4445   0.0000   0.0000   0.0000   0.2369
  10.800   1.0845   0.03863   0.02974  -0.0019  0.0844  1.0000  -3.4670   0.0000   0.0000   0.0000   0.2361
  10.900   1.0871   0.03926   0.03036  -0.0013  0.0831  1.0000  -3.4906   0.0000   0.0000   0.0000   0.2354
  11.000   1.0893   0.03990   0.03099  -0.0007  0.0819  1.0000  -3.5144   0.0000   0.0000   0.0000   0.2347
  11.100   1.0915   0.04060   0.03167  -0.0001  0.0805  1.0000  -3.5374   0.0000   0.0000   0.0000   0.2339
  11.200   1.0941   0.04139   0.03243   0.0005  0.0791  1.0000  -3.5590   0.0000   0.0000   0.0000   0.2332
  11.300   1.0975   0.04241   0.03344   0.0011  0.0773  1.0000  -3.5756   0.0000   0.0000   0.0000   0.2326
  11.400   1.1018   0.04395   0.03503   0.0016  0.0753  1.0000  -3.5809   0.0000   0.0000   0.0000   0.2320
  11.500   1.1043   0.04471   0.03580   0.0022  0.0746  1.0000  -3.6010   0.0000   0.0000   0.0000   0.2313
  11.600   1.1065   0.04522   0.03636   0.0027  0.0740  1.0000  -3.6269   0.0000   0.0000   0.0000   0.2307
  11.700   1.1086   0.04578   0.03696   0.0032  0.0733  1.0000  -3.6521   0.0000   0.0000   0.0000   0.2300
  11.800   1.1105   0.04639   0.03762   0.0037  0.0726  1.0000  -3.6762   0.0000   0.0000   0.0000   0.2294
  11.900   1.1117   0.04709   0.03836   0.0041  0.0718  1.0000  -3.6978   0.0000   0.0000   0.0000   0.2288
  12.000   1.1125   0.04784   0.03916   0.0046  0.0710  1.0000  -3.7182   0.0000   0.0000   0.0000   0.2282
  12.100   1.1133   0.04863   0.03999   0.0050  0.0701  1.0000  -3.7380   0.0000   0.0000   0.0000   0.2277
  12.200   1.1140   0.04944   0.04085   0.0054  0.0693  1.0000  -3.7573   0.0000   0.0000   0.0000   0.2271
  12.300   1.1149   0.05027   0.04172   0.0057  0.0684  1.0000  -3.7768   0.0000   0.0000   0.0000   0.2266
  12.400   1.1157   0.05111   0.04261   0.0061  0.0676  1.0000  -3.7962   0.0000   0.0000   0.0000   0.2261
  12.500   1.1165   0.05198   0.04352   0.0064  0.0667  1.0000  -3.8153   0.0000   0.0000   0.0000   0.2257
  12.600   1.1173   0.05287   0.04444   0.0067  0.0659  1.0000  -3.8340   0.0000   0.0000   0.0000   0.2252
  12.700   1.1180   0.05378   0.04539   0.0069  0.0652  1.0000  -3.8521   0.0000   0.0000   0.0000   0.2248
  12.800   1.1185   0.05473   0.04638   0.0072  0.0645  1.0000  -3.8693   0.0000   0.0000   0.0000   0.2244
  12.900   1.1188   0.05571   0.04740   0.0074  0.0638  1.0000  -3.8854   0.0000   0.0000   0.0000   0.2240
  13.000   1.1185   0.05677   0.04851   0.0076  0.0633  1.0000  -3.8985   0.0000   0.0000   0.0000   0.2236
  13.100   1.1174   0.05793   0.04971   0.0077  0.0628  1.0000  -3.9084   0.0000   0.0000   0.0000   0.2232
  13.200   1.1164   0.05912   0.05096   0.0079  0.0625  1.0000  -3.9171   0.0000   0.0000   0.0000   0.2229
  13.300   1.1154   0.06034   0.05224   0.0080  0.0621  1.0000  -3.9245   0.0000   0.0000   0.0000   0.2226
  13.400   1.1143   0.06161   0.05356   0.0081  0.0619  1.0000  -3.9304   0.0000   0.0000   0.0000   0.2223
  13.500   1.1130   0.06290   0.05492   0.0082  0.0616  1.0000  -3.9354   0.0000   0.0000   0.0000   0.2220
  13.600   1.1113   0.06422   0.05631   0.0083  0.0614  1.0000  -3.9389   0.0000   0.0000   0.0000   0.2217
  13.700   1.1091   0.06560   0.05774   0.0083  0.0612  1.0000  -3.9406   0.0000   0.0000   0.0000   0.2214
  13.800   1.1061   0.06706   0.05927   0.0083  0.0610  1.0000  -3.9395   0.0000   0.0000   0.0000   0.2212
  14.100   0.7847   0.13599   0.13012  -0.0236  0.0902  1.0000  -2.1534   0.0000   0.0000   0.0000   0.2595
  14.200   0.7721   0.14134   0.13545  -0.0259  0.0921  1.0000  -2.0530   0.0000   0.0000   0.0000   0.2630
  14.300   0.7639   0.14557   0.13966  -0.0276  0.0937  1.0000  -1.9824   0.0000   0.0000   0.0000   0.2656
  14.400   0.7571   0.14956   0.14364  -0.0290  0.0954  1.0000  -1.9206   0.0000   0.0000   0.0000   0.2678
  14.800   1.0305   0.09015   0.08327   0.0016  0.0608  1.0000  -3.7147   0.0000   0.0000   0.0000   0.2249
  14.900   1.0164   0.09388   0.08712  -0.0002  0.0610  1.0000  -3.6558   0.0000   0.0000   0.0000   0.2264
  15.000   1.0009   0.09799   0.09135  -0.0021  0.0613  1.0000  -3.5862   0.0000   0.0000   0.0000   0.2282
  15.100   0.9793   0.10338   0.09689  -0.0050  0.0618  1.0000  -3.4821   0.0000   0.0000   0.0000   0.2309
  15.200   0.9338   0.11407   0.10780  -0.0111  0.0632  1.0000  -3.2378   0.0000   0.0000   0.0000   0.2377
  15.300   0.7932   0.15535   0.14938  -0.0317  0.0807  1.0000  -2.0999   0.0000   0.0000   0.0000   0.2677
  15.400   0.7910   0.15785   0.15187  -0.0329  0.0806  1.0000  -2.0672   0.0000   0.0000   0.0000   0.2693
  15.500   0.7889   0.16037   0.15439  -0.0341  0.0806  1.0000  -2.0335   0.0000   0.0000   0.0000   0.2709
  15.600   0.7867   0.16292   0.15693  -0.0354  0.0806  1.0000  -1.9989   0.0000   0.0000   0.0000   0.2725
  15.700   0.7846   0.16549   0.15949  -0.0366  0.0806  1.0000  -1.9638   0.0000   0.0000   0.0000   0.2742
  15.800   0.7826   0.16808   0.16207  -0.0379  0.0807  1.0000  -1.9282   0.0000   0.0000   0.0000   0.2759
  15.900   0.7807   0.17068   0.16465  -0.0392  0.0809  1.0000  -1.8925   0.0000   0.0000   0.0000   0.2776
  16.000   0.7789   0.17326   0.16723  -0.0405  0.0811  1.0000  -1.8572   0.0000   0.0000   0.0000   0.2793
  16.100   0.7774   0.17582   0.16978  -0.0417  0.0814  1.0000  -1.8229   0.0000   0.0000   0.0000   0.2809
  16.200   0.7761   0.17832   0.17227  -0.0430  0.0816  1.0000  -1.7904   0.0000   0.0000   0.0000   0.2825
  16.300   0.7753   0.18071   0.17465  -0.0441  0.0819  1.0000  -1.7615   0.0000   0.0000   0.0000   0.2840
  16.400   0.7753   0.18285   0.17679  -0.0451  0.0820  1.0000  -1.7402   0.0000   0.0000   0.0000   0.2851
  16.500   0.7770   0.18443   0.17836  -0.0458  0.0817  1.0000  -1.7359   0.0000   0.0000   0.0000   0.2857
  16.600   0.7813   0.18521   0.17914  -0.0459  0.0809  1.0000  -1.7565   0.0000   0.0000   0.0000   0.2854
  16.700   0.7854   0.18610   0.18003  -0.0461  0.0802  1.0000  -1.7749   0.0000   0.0000   0.0000   0.2851
  16.800   0.7893   0.18710   0.18102  -0.0462  0.0796  1.0000  -1.7909   0.0000   0.0000   0.0000   0.2848
  16.900   0.7931   0.18818   0.18209  -0.0465  0.0792  1.0000  -1.8053   0.0000   0.0000   0.0000   0.2846
  17.000   0.7967   0.18933   0.18323  -0.0467  0.0787  1.0000  -1.8183   0.0000   0.0000   0.0000   0.2845
  17.100   0.8002   0.19054   0.18444  -0.0469  0.0784  1.0000  -1.8303   0.0000   0.0000   0.0000   0.2843
  17.200   0.8037   0.19181   0.18571  -0.0472  0.0780  1.0000  -1.8412   0.0000   0.0000   0.0000   0.2842
  17.300   0.8071   0.19315   0.18704  -0.0475  0.0777  1.0000  -1.8513   0.0000   0.0000   0.0000   0.2841
  17.400   0.8104   0.19455   0.18844  -0.0477  0.0775  1.0000  -1.8607   0.0000   0.0000   0.0000   0.2841
  17.500   0.8135   0.19589   0.18977  -0.0478  0.0768  1.0000  -1.8768   0.0000   0.0000   0.0000   0.2837
  17.600   0.7799   0.22421   0.21811  -0.0535  0.0999  1.0000  -1.4613   0.0000   0.0000   0.0000   0.2949
  17.700   0.7818   0.22593   0.21983  -0.0542  0.0999  1.0000  -1.4564   0.0000   0.0000   0.0000   0.2955
  17.800   0.7836   0.22762   0.22151  -0.0549  0.0998  1.0000  -1.4517   0.0000   0.0000   0.0000   0.2961
  17.900   0.7855   0.22926   0.22314  -0.0556  0.0997  1.0000  -1.4471   0.0000   0.0000   0.0000   0.2967
  18.000   0.7874   0.23085   0.22473  -0.0564  0.0997  1.0000  -1.4427   0.0000   0.0000   0.0000   0.2972
  18.100   0.7892   0.23238   0.22625  -0.0571  0.0996  1.0000  -1.4386   0.0000   0.0000   0.0000   0.2978
  18.200   0.7910   0.23382   0.22769  -0.0578  0.0995  1.0000  -1.4347   0.0000   0.0000   0.0000   0.2984
  18.300   0.7929   0.23515   0.22901  -0.0585  0.0994  1.0000  -1.4312   0.0000   0.0000   0.0000   0.2990
  18.400   0.7947   0.23630   0.23016  -0.0593  0.0992  1.0000  -1.4282   0.0000   0.0000   0.0000   0.2996
  18.500   0.7965   0.23716   0.23100  -0.0601  0.0990  1.0000  -1.4260   0.0000   0.0000   0.0000   0.3002
  18.600   0.7985   0.23732   0.23116  -0.0609  0.0985  1.0000  -1.4258   0.0000   0.0000   0.0000   0.3009
  18.700   0.7987   0.23117   0.22499  -0.0633  0.0940  1.0000  -1.4227   0.0000   0.0000   0.0000   0.3034
  18.800   0.7975   0.23096   0.22477  -0.0651  0.0906  1.0000  -1.4040   0.0000   0.0000   0.0000   0.3056
  18.900   0.7990   0.23167   0.22547  -0.0661  0.0876  1.0000  -1.4034   0.0000   0.0000   0.0000   0.3065
  19.000   0.8026   0.23234   0.22613  -0.0666  0.0847  1.0000  -1.4207   0.0000   0.0000   0.0000   0.3065
  19.100   0.8093   0.23245   0.22624  -0.0662  0.0816  1.0000  -1.4689   0.0000   0.0000   0.0000   0.3051
  19.300   0.8328   0.23728   0.23102  -0.0610  0.0748  1.0000  -1.6713   0.0000   0.0000   0.0000   0.2959
  19.400   0.8336   0.23928   0.23302  -0.0619  0.0748  1.0000  -1.6586   0.0000   0.0000   0.0000   0.2968
  19.500   0.8344   0.24133   0.23507  -0.0628  0.0747  1.0000  -1.6464   0.0000   0.0000   0.0000   0.2977
  19.600   0.8353   0.24346   0.23719  -0.0637  0.0746  1.0000  -1.6347   0.0000   0.0000   0.0000   0.2986
  19.700   0.8362   0.24567   0.23939  -0.0646  0.0745  1.0000  -1.6235   0.0000   0.0000   0.0000   0.2994
  19.800   0.8371   0.24793   0.24166  -0.0654  0.0744  1.0000  -1.6126   0.0000   0.0000   0.0000   0.3002
  19.900   0.8380   0.25021   0.24394  -0.0663  0.0744  1.0000  -1.6019   0.0000   0.0000   0.0000   0.3010
  20.000   0.8389   0.25245   0.24617  -0.0671  0.0743  1.0000  -1.5913   0.0000   0.0000   0.0000   0.3018
  20.100   0.8397   0.25463   0.24835  -0.0680  0.0742  1.0000  -1.5804   0.0000   0.0000   0.0000   0.3026
  20.200   0.8405   0.25671   0.25043  -0.0689  0.0741  1.0000  -1.5691   0.0000   0.0000   0.0000   0.3035
  20.300   0.8401   0.25860   0.25232  -0.0700  0.0739  1.0000  -1.5515   0.0000   0.0000   0.0000   0.3047
  20.400   0.8388   0.26019   0.25391  -0.0713  0.0736  1.0000  -1.5275   0.0000   0.0000   0.0000   0.3062
  20.500   0.8262   0.25879   0.25249  -0.0766  0.0638  1.0000  -1.4234   0.0000   0.0000   0.0000   0.3137
  20.600   0.8277   0.26069   0.25439  -0.0773  0.0628  1.0000  -1.4231   0.0000   0.0000   0.0000   0.3142
  20.700   0.8292   0.26259   0.25629  -0.0779  0.0619  1.0000  -1.4232   0.0000   0.0000   0.0000   0.3146
  20.800   0.8308   0.26451   0.25821  -0.0785  0.0612  1.0000  -1.4233   0.0000   0.0000   0.0000   0.3150
  20.900   0.8323   0.26644   0.26014  -0.0791  0.0606  1.0000  -1.4232   0.0000   0.0000   0.0000   0.3153
  21.000   0.8339   0.26838   0.26208  -0.0797  0.0601  1.0000  -1.4231   0.0000   0.0000   0.0000   0.3157
  21.100   0.8354   0.27032   0.26402  -0.0803  0.0596  1.0000  -1.4231   0.0000   0.0000   0.0000   0.3161
  21.200   0.8369   0.27226   0.26596  -0.0808  0.0592  1.0000  -1.4232   0.0000   0.0000   0.0000   0.3164
  21.300   0.8384   0.27420   0.26790  -0.0814  0.0588  1.0000  -1.4235   0.0000   0.0000   0.0000   0.3167
  21.400   0.8400   0.27613   0.26984  -0.0819  0.0584  1.0000  -1.4242   0.0000   0.0000   0.0000   0.3170
  21.500   0.8415   0.27806   0.27176  -0.0824  0.0580  1.0000  -1.4252   0.0000   0.0000   0.0000   0.3173
  21.600   0.8430   0.27997   0.27368  -0.0830  0.0576  1.0000  -1.4268   0.0000   0.0000   0.0000   0.3176
  21.700   0.8446   0.28188   0.27558  -0.0834  0.0572  1.0000  -1.4288   0.0000   0.0000   0.0000   0.3178
  21.800   0.8460   0.28358   0.27746  -0.0842  0.0577  1.0000  -1.4157   0.0000   0.0000   0.0000   0.3183
  21.900   0.8474   0.28547   0.27935  -0.0847  0.0575  1.0000  -1.4131   0.0000   0.0000   0.0000   0.3186
  22.000   0.8489   0.28735   0.28125  -0.0852  0.0572  1.0000  -1.4141   0.0000   0.0000   0.0000   0.3188
  22.100   0.8504   0.28923   0.28314  -0.0857  0.0568  1.0000  -1.4164   0.0000   0.0000   0.0000   0.3190
  22.200   0.8519   0.29111   0.28502  -0.0861  0.0565  1.0000  -1.4196   0.0000   0.0000   0.0000   0.3192
  22.300   0.8534   0.29298   0.28689  -0.0865  0.0561  1.0000  -1.4237   0.0000   0.0000   0.0000   0.3193
  22.400   0.8549   0.29484   0.28876  -0.0869  0.0557  1.0000  -1.4285   0.0000   0.0000   0.0000   0.3194
  22.500   0.8564   0.29670   0.29063  -0.0873  0.0553  1.0000  -1.4340   0.0000   0.0000   0.0000   0.3195
  22.600   0.8580   0.29856   0.29249  -0.0876  0.0550  1.0000  -1.4402   0.0000   0.0000   0.0000   0.3195
  22.700   0.8596   0.30043   0.29436  -0.0879  0.0546  1.0000  -1.4470   0.0000   0.0000   0.0000   0.3195
  22.800   0.8612   0.30230   0.29623  -0.0882  0.0543  1.0000  -1.4547   0.0000   0.0000   0.0000   0.3195
  22.900   0.8628   0.30418   0.29812  -0.0885  0.0540  1.0000  -1.4630   0.0000   0.0000   0.0000   0.3194
  23.000   0.8645   0.30609   0.30003  -0.0887  0.0536  1.0000  -1.4721   0.0000   0.0000   0.0000   0.3193
  23.100   0.8662   0.30802   0.30197  -0.0889  0.0533  1.0000  -1.4821   0.0000   0.0000   0.0000   0.3191
  23.200   0.8680   0.31000   0.30395  -0.0890  0.0530  1.0000  -1.4930   0.0000   0.0000   0.0000   0.3189
  23.300   0.8699   0.31203   0.30599  -0.0891  0.0527  1.0000  -1.5049   0.0000   0.0000   0.0000   0.3186
  23.400   0.8720   0.31416   0.30812  -0.0891  0.0524  1.0000  -1.5180   0.0000   0.0000   0.0000   0.3183
  23.500   0.8742   0.31642   0.31038  -0.0891  0.0521  1.0000  -1.5323   0.0000   0.0000   0.0000   0.3179
  23.600   0.8767   0.31889   0.31287  -0.0891  0.0518  1.0000  -1.5481   0.0000   0.0000   0.0000   0.3173
  23.700   0.8797   0.32175   0.31573  -0.0889  0.0515  1.0000  -1.5657   0.0000   0.0000   0.0000   0.3167
  23.800   0.8831   0.32538   0.31937  -0.0887  0.0511  1.0000  -1.5838   0.0000   0.0000   0.0000   0.3159
  24.000   0.8766   0.33857   0.33252  -0.0891  0.0500  1.0000  -1.5064   0.0000   0.0000   0.0000   0.3172
  24.100   0.8765   0.34070   0.33465  -0.0895  0.0500  1.0000  -1.4992   0.0000   0.0000   0.0000   0.3176
  24.200   0.8762   0.34279   0.33675  -0.0899  0.0499  1.0000  -1.4919   0.0000   0.0000   0.0000   0.3180
  24.300   0.8759   0.34485   0.33881  -0.0903  0.0499  1.0000  -1.4844   0.0000   0.0000   0.0000   0.3183
  24.400   0.8754   0.34686   0.34083  -0.0907  0.0499  1.0000  -1.4767   0.0000   0.0000   0.0000   0.3187
  24.500   0.8748   0.34883   0.34281  -0.0910  0.0499  1.0000  -1.4688   0.0000   0.0000   0.0000   0.3191
  24.600   0.8740   0.35075   0.34474  -0.0914  0.0499  1.0000  -1.4607   0.0000   0.0000   0.0000   0.3194
  24.700   0.8730   0.35261   0.34661  -0.0917  0.0499  1.0000  -1.4522   0.0000   0.0000   0.0000   0.3198
  24.800   0.8719   0.35441   0.34841  -0.0919  0.0499  1.0000  -1.4434   0.0000   0.0000   0.0000   0.3201
  24.900   0.8704   0.35611   0.35013  -0.0921  0.0498  1.0000  -1.4339   0.0000   0.0000   0.0000   0.3205
  25.000   0.8686   0.35772   0.35175  -0.0923  0.0498  1.0000  -1.4240   0.0000   0.0000   0.0000   0.3208
  25.100   0.8665   0.35922   0.35325  -0.0925  0.0498  1.0000  -1.4133   0.0000   0.0000   0.0000   0.3211
  25.200   0.8639   0.36058   0.35463  -0.0925  0.0498  1.0000  -1.4019   0.0000   0.0000   0.0000   0.3215
  25.300   0.8609   0.36177   0.35584  -0.0925  0.0498  1.0000  -1.3895   0.0000   0.0000   0.0000   0.3218
  25.400   0.8570   0.36272   0.35681  -0.0924  0.0497  1.0000  -1.3756   0.0000   0.0000   0.0000   0.3221
  25.500   0.8162   0.35311   0.34730  -0.0863  0.0497  1.0000  -1.2882   0.0000   0.0000   0.0000   0.3213
  25.600   0.8052   0.35115   0.34537  -0.0850  0.0497  1.0000  -1.2602   0.0000   0.0000   0.0000   0.3214
  25.700   0.7976   0.35009   0.34434  -0.0842  0.0497  1.0000  -1.2391   0.0000   0.0000   0.0000   0.3216
  25.800   0.7912   0.34928   0.34356  -0.0837  0.0497  1.0000  -1.2202   0.0000   0.0000   0.0000   0.3219
  25.900   0.7857   0.34869   0.34299  -0.0832  0.0496  1.0000  -1.2032   0.0000   0.0000   0.0000   0.3222
  26.000   0.7808   0.34823   0.34255  -0.0829  0.0496  1.0000  -1.1875   0.0000   0.0000   0.0000   0.3225
  26.100   0.7764   0.34786   0.34220  -0.0827  0.0496  1.0000  -1.1727   0.0000   0.0000   0.0000   0.3228
  26.200   0.7716   0.34730   0.34166  -0.0825  0.0495  1.0000  -1.1561   0.0000   0.0000   0.0000   0.3233
  26.300   0.7668   0.34668   0.34106  -0.0823  0.0495  1.0000  -1.1390   0.0000   0.0000   0.0000   0.3238
  26.400   0.7623   0.34612   0.34051  -0.0821  0.0495  1.0000  -1.1226   0.0000   0.0000   0.0000   0.3242
  26.500   0.7581   0.34559   0.34000  -0.0821  0.0494  1.0000  -1.1068   0.0000   0.0000   0.0000   0.3248
  26.600   0.7542   0.34510   0.33953  -0.0820  0.0494  1.0000  -1.0915   0.0000   0.0000   0.0000   0.3253
  26.700   0.7505   0.34464   0.33908  -0.0820  0.0493  1.0000  -1.0767   0.0000   0.0000   0.0000   0.3258
  26.800   0.7470   0.34419   0.33865  -0.0820  0.0493  1.0000  -1.0622   0.0000   0.0000   0.0000   0.3264
  26.900   0.7436   0.34376   0.33823  -0.0821  0.0492  1.0000  -1.0480   0.0000   0.0000   0.0000   0.3270
  27.000   0.7404   0.34335   0.33784  -0.0822  0.0491  1.0000  -1.0341   0.0000   0.0000   0.0000   0.3275
  27.100   0.7374   0.34296   0.33746  -0.0823  0.0491  1.0000  -1.0205   0.0000   0.0000   0.0000   0.3281
  27.200   0.7346   0.34260   0.33711  -0.0824  0.0490  1.0000  -1.0071   0.0000   0.0000   0.0000   0.3288
  27.300   0.7319   0.34226   0.33678  -0.0826  0.0489  1.0000  -0.9939   0.0000   0.0000   0.0000   0.3294
  27.400   0.7294   0.34195   0.33649  -0.0828  0.0488  1.0000  -0.9809   0.0000   0.0000   0.0000   0.3301
  27.500   0.7270   0.34168   0.33624  -0.0831  0.0486  1.0000  -0.9680   0.0000   0.0000   0.0000   0.3307
  27.600   0.7249   0.34147   0.33604  -0.0834  0.0485  1.0000  -0.9552   0.0000   0.0000   0.0000   0.3314
  27.700   0.7230   0.34133   0.33591  -0.0837  0.0483  1.0000  -0.9427   0.0000   0.0000   0.0000   0.3321
  27.800   0.7212   0.34128   0.33587  -0.0841  0.0481  1.0000  -0.9304   0.0000   0.0000   0.0000   0.3329
  27.900   0.7198   0.34134   0.33594  -0.0845  0.0478  1.0000  -0.9184   0.0000   0.0000   0.0000   0.3336
  28.000   0.7186   0.34152   0.33613  -0.0849  0.0475  1.0000  -0.9071   0.0000   0.0000   0.0000   0.3343
  28.100   0.7176   0.34181   0.33644  -0.0853  0.0472  1.0000  -0.8965   0.0000   0.0000   0.0000   0.3350
  28.200   0.7167   0.34221   0.33685  -0.0857  0.0468  1.0000  -0.8868   0.0000   0.0000   0.0000   0.3356
  28.300   0.7160   0.34267   0.33732  -0.0861  0.0464  1.0000  -0.8782   0.0000   0.0000   0.0000   0.3361
  28.400   0.7153   0.34317   0.33784  -0.0865  0.0460  1.0000  -0.8704   0.0000   0.0000   0.0000   0.3367
  28.500   0.7147   0.34369   0.33837  -0.0868  0.0456  1.0000  -0.8635   0.0000   0.0000   0.0000   0.3371
  28.600   0.7141   0.34423   0.33892  -0.0871  0.0452  1.0000  -0.8571   0.0000   0.0000   0.0000   0.3376
  28.700   0.7137   0.34480   0.33951  -0.0875  0.0442  1.0000  -0.8504   0.0000   0.0000   0.0000   0.3381
  28.800   0.7132   0.34537   0.34008  -0.0878  0.0432  1.0000  -0.8451   0.0000   0.0000   0.0000   0.3385
  28.900   0.7128   0.34591   0.34063  -0.0881  0.0423  1.0000  -0.8409   0.0000   0.0000   0.0000   0.3389
  29.000   0.7123   0.34643   0.34117  -0.0884  0.0414  1.0000  -0.8375   0.0000   0.0000   0.0000   0.3393
  29.100   0.7118   0.34694   0.34169  -0.0886  0.0405  1.0000  -0.8347   0.0000   0.0000   0.0000   0.3396
  29.200   0.7114   0.34744   0.34220  -0.0889  0.0397  1.0000  -0.8324   0.0000   0.0000   0.0000   0.3399
  29.300   0.7110   0.34793   0.34270  -0.0891  0.0389  1.0000  -0.8306   0.0000   0.0000   0.0000   0.3402
  29.400   0.7106   0.34842   0.34320  -0.0894  0.0381  1.0000  -0.8291   0.0000   0.0000   0.0000   0.3405
  29.500   0.7102   0.34889   0.34369  -0.0896  0.0374  1.0000  -0.8281   0.0000   0.0000   0.0000   0.3408
  29.600   0.7099   0.34936   0.34417  -0.0899  0.0367  1.0000  -0.8274   0.0000   0.0000   0.0000   0.3411
  29.700   0.7096   0.34983   0.34464  -0.0901  0.0360  1.0000  -0.8271   0.0000   0.0000   0.0000   0.3413
  29.800   0.7093   0.35028   0.34510  -0.0903  0.0354  1.0000  -0.8271   0.0000   0.0000   0.0000   0.3416
  29.900   0.7090   0.35073   0.34556  -0.0906  0.0347  1.0000  -0.8276   0.0000   0.0000   0.0000   0.3418
  30.000   0.7088   0.35117   0.34602  -0.0908  0.0342  1.0000  -0.8284   0.0000   0.0000   0.0000   0.3421


