xflr5 v6.61

 Calculated polar for: NACA 0012-34

 1 1 Reynolds number fixed          Mach number fixed         

 xtrf =   1.000 (top)        1.000 (bottom)
 Mach =   0.000     Re =     0.130 e 6     Ncrit =   9.000

  alpha     CL        CD       CDp       Cm    Top Xtr Bot Xtr   Cpmin    Chinge    XCp    
 ------- -------- --------- --------- -------- ------- ------- -------- --------- ---------
 -10.000  -0.5702   0.09798   0.09271  -0.0226  1.0000  0.1171  -1.5151   0.0000   0.0000   0.0000   0.2016
  -9.900  -0.5694   0.09656   0.09130  -0.0225  1.0000  0.1195  -1.5027   0.0000   0.0000   0.0000   0.2017
  -9.800  -0.5699   0.09500   0.08975  -0.0228  1.0000  0.1219  -1.4983   0.0000   0.0000   0.0000   0.2015
  -9.700  -0.5711   0.09335   0.08812  -0.0232  1.0000  0.1243  -1.4980   0.0000   0.0000   0.0000   0.2009
  -9.600  -0.5732   0.09158   0.08637  -0.0239  1.0000  0.1266  -1.5036   0.0000   0.0000   0.0000   0.2001
  -9.500  -0.5764   0.08971   0.08451  -0.0248  1.0000  0.1289  -1.5144   0.0000   0.0000   0.0000   0.1989
  -9.400  -0.5806   0.08770   0.08252  -0.0260  1.0000  0.1310  -1.5308   0.0000   0.0000   0.0000   0.1974
  -9.300  -0.5860   0.08553   0.08036  -0.0275  1.0000  0.1329  -1.5531   0.0000   0.0000   0.0000   0.1954
  -9.200  -0.5921   0.08326   0.07810  -0.0292  1.0000  0.1348  -1.5781   0.0000   0.0000   0.0000   0.1931
  -9.100  -0.5985   0.08123   0.07607  -0.0305  1.0000  0.1366  -1.6013   0.0000   0.0000   0.0000   0.1916
  -9.000  -0.6053   0.07946   0.07429  -0.0314  1.0000  0.1383  -1.6224   0.0000   0.0000   0.0000   0.1909
  -8.900  -0.6127   0.07801   0.07281  -0.0318  1.0000  0.1399  -1.6410   0.0000   0.0000   0.0000   0.1912
  -8.800  -0.6204   0.07686   0.07165  -0.0316  1.0000  0.1415  -1.6570   0.0000   0.0000   0.0000   0.1923
  -8.700  -0.6282   0.07611   0.07087  -0.0309  1.0000  0.1432  -1.6694   0.0000   0.0000   0.0000   0.1942
  -6.100  -0.7228   0.04027   0.03385   0.0075  1.0000  0.1376  -1.7874   0.0000   0.0000   0.0000   0.2560
  -6.000  -0.7219   0.03542   0.02720   0.0132  1.0000  0.0714  -2.1403   0.0000   0.0000   0.0000   0.2636
  -5.900  -0.7172   0.03206   0.02343   0.0151  1.0000  0.0608  -2.2208   0.0000   0.0000   0.0000   0.2663
  -5.800  -0.7019   0.03185   0.02270   0.0171  1.0000  0.0481  -2.2633   0.0000   0.0000   0.0000   0.2696
  -5.700  -0.6937   0.02939   0.02002   0.0180  1.0000  0.0449  -2.2824   0.0000   0.0000   0.0000   0.2713
  -5.600  -0.6835   0.02768   0.01812   0.0189  1.0000  0.0421  -2.2806   0.0000   0.0000   0.0000   0.2730
  -5.500  -0.6722   0.02621   0.01645   0.0196  1.0000  0.0396  -2.2710   0.0000   0.0000   0.0000   0.2746
  -5.400  -0.6605   0.02492   0.01499   0.0203  1.0000  0.0376  -2.2525   0.0000   0.0000   0.0000   0.2762
  -5.300  -0.6496   0.02380   0.01376   0.0210  1.0000  0.0364  -2.2249   0.0000   0.0000   0.0000   0.2779
  -5.200  -0.6404   0.02287   0.01275   0.0218  1.0000  0.0357  -2.1985   0.0000   0.0000   0.0000   0.2797
  -5.100  -0.6329   0.02210   0.01191   0.0229  1.0000  0.0356  -2.1689   0.0000   0.0000   0.0000   0.2819
  -5.000  -0.6268   0.02141   0.01117   0.0241  1.0000  0.0359  -2.1379   0.0000   0.0000   0.0000   0.2842
  -4.900  -0.6214   0.02080   0.01050   0.0253  1.0000  0.0368  -2.1062   0.0000   0.0000   0.0000   0.2866
  -4.800  -0.6163   0.02024   0.00988   0.0266  1.0000  0.0383  -2.0757   0.0000   0.0000   0.0000   0.2891
  -4.700  -0.6113   0.01970   0.00926   0.0279  1.0000  0.0410  -2.0489   0.0000   0.0000   0.0000   0.2918
  -4.600  -0.6055   0.01923   0.00870   0.0291  1.0000  0.0457  -2.0215   0.0000   0.0000   0.0000   0.2943
  -4.500  -0.5989   0.01888   0.00831   0.0301  1.0000  0.0515  -1.9752   0.0000   0.0000   0.0000   0.2964
  -4.400  -0.5941   0.01825   0.00776   0.0312  1.0000  0.0647  -1.9365   0.0000   0.0000   0.0000   0.2989
  -4.300  -0.5881   0.01777   0.00743   0.0320  1.0000  0.0813  -1.8766   0.0000   0.0000   0.0000   0.3009
  -4.200  -0.5866   0.01654   0.00694   0.0332  1.0000  0.1745  -1.8381   0.0000   0.0000   0.0000   0.3032
  -4.100  -0.5888   0.01513   0.00662   0.0350  1.0000  0.3527  -1.8034   0.0000   0.0000   0.0000   0.3060
  -4.000  -0.5869   0.01438   0.00653   0.0365  1.0000  0.4667  -1.7433   0.0000   0.0000   0.0000   0.3090
  -3.900  -0.5827   0.01397   0.00660   0.0379  1.0000  0.5466  -1.6760   0.0000   0.0000   0.0000   0.3119
  -3.800  -0.5771   0.01373   0.00689   0.0395  1.0000  0.6374  -1.6429   0.0000   0.0000   0.0000   0.3154
  -3.700  -0.5725   0.01374   0.00716   0.0413  1.0000  0.6992  -1.6108   0.0000   0.0000   0.0000   0.3191
  -3.600  -0.5619   0.01414   0.00789   0.0428  1.0000  0.7555  -1.5650   0.0000   0.0000   0.0000   0.3232
  -3.500  -0.5560   0.01439   0.00819   0.0443  1.0000  0.7802  -1.5306   0.0000   0.0000   0.0000   0.3268
  -3.400  -0.5513   0.01453   0.00830   0.0457  1.0000  0.7930  -1.4999   0.0000   0.0000   0.0000   0.3301
  -3.300  -0.5460   0.01466   0.00840   0.0469  1.0000  0.8020  -1.4685   0.0000   0.0000   0.0000   0.3332
  -3.200  -0.5313   0.01498   0.00876   0.0468  1.0000  0.8243  -1.4180   0.0000   0.0000   0.0000   0.3354
  -3.100  -0.5145   0.01564   0.00945   0.0468  1.0000  0.8442  -1.3630   0.0000   0.0000   0.0000   0.3382
  -3.000  -0.5016   0.01621   0.01000   0.0473  1.0000  0.8606  -1.3165   0.0000   0.0000   0.0000   0.3416
  -2.900  -0.4909   0.01661   0.01038   0.0479  1.0000  0.8741  -1.2757   0.0000   0.0000   0.0000   0.3448
  -2.800  -0.4848   0.01682   0.01057   0.0490  1.0000  0.8848  -1.2446   0.0000   0.0000   0.0000   0.3484
  -2.700  -0.4826   0.01692   0.01063   0.0507  1.0000  0.8932  -1.2213   0.0000   0.0000   0.0000   0.3526
  -2.600  -0.4822   0.01697   0.01066   0.0527  1.0000  0.8993  -1.2016   0.0000   0.0000   0.0000   0.3569
  -2.500  -0.4648   0.01713   0.01078   0.0514  1.0000  0.9042  -1.1518   0.0000   0.0000   0.0000   0.3581
  -2.400  -0.4460   0.01730   0.01091   0.0496  1.0000  0.9076  -1.1009   0.0000   0.0000   0.0000   0.3587
  -2.300  -0.4271   0.01747   0.01104   0.0477  1.0000  0.9107  -1.0505   0.0000   0.0000   0.0000   0.3593
  -2.200  -0.4075   0.01766   0.01119   0.0456  1.0000  0.9139  -0.9998   0.0000   0.0000   0.0000   0.3597
  -2.100  -0.3864   0.01789   0.01138   0.0433  1.0000  0.9175  -0.9475   0.0000   0.0000   0.0000   0.3598
  -2.000  -0.3643   0.01813   0.01158   0.0408  1.0000  0.9213  -0.8943   0.0000   0.0000   0.0000   0.3598
  -1.900  -0.3434   0.01835   0.01177   0.0385  1.0000  0.9255  -0.8440   0.0000   0.0000   0.0000   0.3599
  -1.800  -0.3254   0.01853   0.01192   0.0368  1.0000  0.9302  -0.7992   0.0000   0.0000   0.0000   0.3607
  -1.700  -0.3110   0.01868   0.01204   0.0357  1.0000  0.9354  -0.7608   0.0000   0.0000   0.0000   0.3625
  -1.600  -0.3007   0.01880   0.01215   0.0354  1.0000  0.9410  -0.7294   0.0000   0.0000   0.0000   0.3655
  -1.500  -0.2950   0.01893   0.01226   0.0360  1.0000  0.9467  -0.7051   0.0000   0.0000   0.0000   0.3700
  -1.400  -0.2863   0.01901   0.01233   0.0360  1.0000  0.9510  -0.6767   0.0000   0.0000   0.0000   0.3736
  -1.300  -0.2660   0.01899   0.01229   0.0334  1.0000  0.9533  -0.6315   0.0000   0.0000   0.0000   0.3737
  -1.200  -0.2459   0.01901   0.01229   0.0309  1.0000  0.9555  -0.5875   0.0000   0.0000   0.0000   0.3738
  -1.100  -0.2263   0.01905   0.01231   0.0285  1.0000  0.9578  -0.5449   0.0000   0.0000   0.0000   0.3741
  -1.000  -0.2073   0.01910   0.01235   0.0262  1.0000  0.9602  -0.5037   0.0000   0.0000   0.0000   0.3745
  -0.900  -0.1856   0.01912   0.01234   0.0234  0.9989  0.9620  -0.4596   0.0000   0.0000   0.0000   0.3743
  -0.800  -0.1641   0.01912   0.01234   0.0207  0.9975  0.9639  -0.4215   0.0000   0.0000   0.0000   0.3740
  -0.700  -0.1432   0.01913   0.01233   0.0180  0.9961  0.9659  -0.4076   0.0000   0.0000   0.0000   0.3738
  -0.600  -0.1226   0.01914   0.01233   0.0154  0.9945  0.9680  -0.3939   0.0000   0.0000   0.0000   0.3738
  -0.500  -0.1021   0.01914   0.01232   0.0128  0.9927  0.9701  -0.3804   0.0000   0.0000   0.0000   0.3737
  -0.400  -0.0811   0.01915   0.01233   0.0102  0.9909  0.9726  -0.3673   0.0000   0.0000   0.0000   0.3734
  -0.300  -0.0596   0.01917   0.01234   0.0074  0.9890  0.9752  -0.3561   0.0000   0.0000   0.0000   0.3722
  -0.200  -0.0389   0.01915   0.01232   0.0048  0.9864  0.9773  -0.3453   0.0000   0.0000   0.0000   0.3709
  -0.100  -0.0193   0.01910   0.01226   0.0024  0.9831  0.9786  -0.3353   0.0000   0.0000   0.0000   0.3704
   0.000  -0.0000   0.01903   0.01219   0.0000  0.9794  0.9794  -0.3253   0.0000   0.0000   0.0000   0.4306
   0.100   0.0193   0.01909   0.01226  -0.0024  0.9786  0.9831  -0.3353   0.0000   0.0000   0.0000   0.3704
   0.200   0.0389   0.01915   0.01232  -0.0048  0.9773  0.9864  -0.3453   0.0000   0.0000   0.0000   0.3709
   0.300   0.0596   0.01917   0.01234  -0.0074  0.9753  0.9890  -0.3561   0.0000   0.0000   0.0000   0.3722
   0.400   0.0811   0.01915   0.01232  -0.0102  0.9726  0.9910  -0.3673   0.0000   0.0000   0.0000   0.3734
   0.500   0.1021   0.01913   0.01232  -0.0128  0.9702  0.9928  -0.3804   0.0000   0.0000   0.0000   0.3737
   0.600   0.1225   0.01913   0.01232  -0.0154  0.9680  0.9946  -0.3939   0.0000   0.0000   0.0000   0.3737
   0.700   0.1432   0.01912   0.01232  -0.0180  0.9660  0.9962  -0.4076   0.0000   0.0000   0.0000   0.3738
   0.800   0.1641   0.01911   0.01233  -0.0206  0.9640  0.9976  -0.4215   0.0000   0.0000   0.0000   0.3740
   0.900   0.1856   0.01911   0.01233  -0.0234  0.9621  0.9989  -0.4595   0.0000   0.0000   0.0000   0.3743
   1.000   0.2070   0.01909   0.01233  -0.0262  0.9602  1.0000  -0.5034   0.0000   0.0000   0.0000   0.3745
   1.100   0.2260   0.01903   0.01229  -0.0285  0.9578  1.0000  -0.5445   0.0000   0.0000   0.0000   0.3740
   1.200   0.2456   0.01899   0.01227  -0.0309  0.9555  1.0000  -0.5871   0.0000   0.0000   0.0000   0.3737
   1.300   0.2657   0.01898   0.01227  -0.0334  0.9533  1.0000  -0.6311   0.0000   0.0000   0.0000   0.3736
   1.400   0.2860   0.01899   0.01231  -0.0359  0.9510  1.0000  -0.6763   0.0000   0.0000   0.0000   0.3735
   1.500   0.2950   0.01891   0.01225  -0.0360  0.9468  1.0000  -0.7050   0.0000   0.0000   0.0000   0.3700
   1.600   0.3006   0.01878   0.01213  -0.0354  0.9411  1.0000  -0.7292   0.0000   0.0000   0.0000   0.3655
   1.700   0.3108   0.01866   0.01203  -0.0357  0.9355  1.0000  -0.7606   0.0000   0.0000   0.0000   0.3625
   1.800   0.3251   0.01851   0.01190  -0.0367  0.9303  1.0000  -0.7989   0.0000   0.0000   0.0000   0.3607
   1.900   0.3431   0.01833   0.01175  -0.0385  0.9256  1.0000  -0.8435   0.0000   0.0000   0.0000   0.3598
   2.000   0.3640   0.01811   0.01156  -0.0408  0.9214  1.0000  -0.8938   0.0000   0.0000   0.0000   0.3597
   2.100   0.3861   0.01787   0.01136  -0.0433  0.9176  1.0000  -0.9469   0.0000   0.0000   0.0000   0.3598
   2.200   0.4071   0.01764   0.01117  -0.0456  0.9139  1.0000  -0.9992   0.0000   0.0000   0.0000   0.3596
   2.300   0.4267   0.01746   0.01103  -0.0476  0.9107  1.0000  -1.0499   0.0000   0.0000   0.0000   0.3592
   2.400   0.4457   0.01729   0.01090  -0.0495  0.9076  1.0000  -1.1002   0.0000   0.0000   0.0000   0.3587
   2.500   0.4644   0.01712   0.01077  -0.0513  0.9042  1.0000  -1.1512   0.0000   0.0000   0.0000   0.3580
   2.600   0.4820   0.01695   0.01064  -0.0527  0.8994  1.0000  -1.2013   0.0000   0.0000   0.0000   0.3568
   2.700   0.4824   0.01690   0.01062  -0.0507  0.8933  1.0000  -1.2210   0.0000   0.0000   0.0000   0.3525
   2.800   0.4846   0.01681   0.01055  -0.0490  0.8849  1.0000  -1.2442   0.0000   0.0000   0.0000   0.3484
   2.900   0.4906   0.01660   0.01037  -0.0478  0.8743  1.0000  -1.2752   0.0000   0.0000   0.0000   0.3448
   3.000   0.5012   0.01620   0.00999  -0.0472  0.8608  1.0000  -1.3159   0.0000   0.0000   0.0000   0.3415
   3.100   0.5141   0.01564   0.00944  -0.0467  0.8445  1.0000  -1.3621   0.0000   0.0000   0.0000   0.3382
   3.200   0.5308   0.01497   0.00875  -0.0467  0.8246  1.0000  -1.4171   0.0000   0.0000   0.0000   0.3353
   3.300   0.5455   0.01465   0.00839  -0.0468  0.8023  1.0000  -1.4675   0.0000   0.0000   0.0000   0.3331
   3.400   0.5509   0.01452   0.00829  -0.0456  0.7931  1.0000  -1.4991   0.0000   0.0000   0.0000   0.3300
   3.500   0.5556   0.01438   0.00818  -0.0442  0.7805  1.0000  -1.5299   0.0000   0.0000   0.0000   0.3267
   3.600   0.5615   0.01413   0.00789  -0.0427  0.7561  1.0000  -1.5641   0.0000   0.0000   0.0000   0.3231
   3.700   0.5721   0.01373   0.00715  -0.0412  0.6998  1.0000  -1.6100   0.0000   0.0000   0.0000   0.3191
   3.800   0.5767   0.01372   0.00689  -0.0395  0.6397  1.0000  -1.6420   0.0000   0.0000   0.0000   0.3154
   3.900   0.5823   0.01395   0.00659  -0.0379  0.5487  1.0000  -1.6752   0.0000   0.0000   0.0000   0.3119
   4.000   0.5865   0.01436   0.00652  -0.0365  0.4690  1.0000  -1.7415   0.0000   0.0000   0.0000   0.3089
   4.100   0.5885   0.01509   0.00660  -0.0349  0.3565  1.0000  -1.8022   0.0000   0.0000   0.0000   0.3060
   4.200   0.5864   0.01649   0.00692  -0.0332  0.1794  1.0000  -1.8373   0.0000   0.0000   0.0000   0.3031
   4.300   0.5877   0.01774   0.00741  -0.0320  0.0821  1.0000  -1.8755   0.0000   0.0000   0.0000   0.3008
   4.400   0.5937   0.01823   0.00774  -0.0311  0.0649  1.0000  -1.9350   0.0000   0.0000   0.0000   0.2988
   4.500   0.5986   0.01885   0.00828  -0.0300  0.0518  1.0000  -1.9753   0.0000   0.0000   0.0000   0.2964
   4.600   0.6051   0.01921   0.00868  -0.0291  0.0458  1.0000  -2.0207   0.0000   0.0000   0.0000   0.2942
   4.700   0.6110   0.01968   0.00924  -0.0279  0.0410  1.0000  -2.0483   0.0000   0.0000   0.0000   0.2917
   4.800   0.6160   0.02021   0.00985  -0.0265  0.0383  1.0000  -2.0750   0.0000   0.0000   0.0000   0.2891
   4.900   0.6211   0.02078   0.01048  -0.0253  0.0368  1.0000  -2.1056   0.0000   0.0000   0.0000   0.2866
   5.000   0.6265   0.02138   0.01114  -0.0240  0.0359  1.0000  -2.1372   0.0000   0.0000   0.0000   0.2841
   5.100   0.6325   0.02207   0.01188  -0.0228  0.0356  1.0000  -2.1682   0.0000   0.0000   0.0000   0.2818
   5.200   0.6400   0.02284   0.01272  -0.0218  0.0357  1.0000  -2.1979   0.0000   0.0000   0.0000   0.2797
   5.300   0.6492   0.02377   0.01373  -0.0209  0.0364  1.0000  -2.2244   0.0000   0.0000   0.0000   0.2778
   5.400   0.6600   0.02488   0.01495  -0.0203  0.0376  1.0000  -2.2520   0.0000   0.0000   0.0000   0.2762
   5.500   0.6717   0.02617   0.01641  -0.0196  0.0395  1.0000  -2.2707   0.0000   0.0000   0.0000   0.2746
   5.600   0.6831   0.02764   0.01807  -0.0188  0.0420  1.0000  -2.2804   0.0000   0.0000   0.0000   0.2729
   5.700   0.6932   0.02934   0.01997  -0.0180  0.0449  1.0000  -2.2824   0.0000   0.0000   0.0000   0.2712
   5.800   0.7015   0.03176   0.02261  -0.0170  0.0480  1.0000  -2.2644   0.0000   0.0000   0.0000   0.2695
   5.900   0.7168   0.03196   0.02329  -0.0151  0.0603  1.0000  -2.2274   0.0000   0.0000   0.0000   0.2663
   6.000   0.7216   0.03533   0.02710  -0.0132  0.0713  1.0000  -2.1414   0.0000   0.0000   0.0000   0.2635
   6.100   0.7227   0.04019   0.03376  -0.0075  0.1374  1.0000  -1.7884   0.0000   0.0000   0.0000   0.2560
   8.800   0.6216   0.07684   0.07163   0.0314  0.1411  1.0000  -1.6585   0.0000   0.0000   0.0000   0.1928
   8.900   0.6140   0.07803   0.07284   0.0315  0.1395  1.0000  -1.6423   0.0000   0.0000   0.0000   0.1918
   9.000   0.6067   0.07954   0.07436   0.0310  0.1379  1.0000  -1.6236   0.0000   0.0000   0.0000   0.1917
   9.100   0.6001   0.08134   0.07617   0.0301  0.1361  1.0000  -1.6026   0.0000   0.0000   0.0000   0.1925
   9.200   0.5938   0.08341   0.07824   0.0287  0.1343  1.0000  -1.5795   0.0000   0.0000   0.0000   0.1941
   9.300   0.5880   0.08570   0.08053   0.0269  0.1324  1.0000  -1.5549   0.0000   0.0000   0.0000   0.1964
   9.400   0.5829   0.08786   0.08268   0.0254  0.1304  1.0000  -1.5335   0.0000   0.0000   0.0000   0.1984
   9.500   0.5789   0.08986   0.08465   0.0243  0.1283  1.0000  -1.5182   0.0000   0.0000   0.0000   0.2000
   9.600   0.5760   0.09172   0.08650   0.0234  0.1260  1.0000  -1.5086   0.0000   0.0000   0.0000   0.2011
   9.700   0.5741   0.09346   0.08823   0.0228  0.1236  1.0000  -1.5045   0.0000   0.0000   0.0000   0.2019
   9.800   0.5732   0.09510   0.08985   0.0224  0.1212  1.0000  -1.5056   0.0000   0.0000   0.0000   0.2024
   9.900   0.5730   0.09663   0.09137   0.0222  0.1189  1.0000  -1.5122   0.0000   0.0000   0.0000   0.2026
  10.000   0.5742   0.09802   0.09275   0.0223  0.1164  1.0000  -1.5273   0.0000   0.0000   0.0000   0.2023
  10.100   0.5773   0.09922   0.09394   0.0229  0.1139  1.0000  -1.5547   0.0000   0.0000   0.0000   0.2013
  10.200   0.5842   0.10005   0.09476   0.0246  0.1110  1.0000  -1.6082   0.0000   0.0000   0.0000   0.1988
  10.400   0.5983   0.10309   0.09775   0.0309  0.1039  1.0000  -1.7440   0.0000   0.0000   0.0000   0.1892
  10.500   0.5861   0.10862   0.10327   0.0297  0.1018  1.0000  -1.6800   0.0000   0.0000   0.0000   0.1902
  10.600   0.5639   0.11631   0.11090   0.0262  0.1000  1.0000  -1.5468   0.0000   0.0000   0.0000   0.1942
  10.700   0.5611   0.11829   0.11287   0.0247  0.0999  1.0000  -1.5254   0.0000   0.0000   0.0000   0.1964
  10.800   0.5588   0.12013   0.11471   0.0233  0.0998  1.0000  -1.5065   0.0000   0.0000   0.0000   0.1986
  10.900   0.5569   0.12179   0.11636   0.0220  0.0996  1.0000  -1.4902   0.0000   0.0000   0.0000   0.2006
  11.000   0.5555   0.12320   0.11776   0.0207  0.0994  1.0000  -1.4766   0.0000   0.0000   0.0000   0.2026
  11.100   0.5545   0.12422   0.11878   0.0195  0.0989  1.0000  -1.4664   0.0000   0.0000   0.0000   0.2046
  11.200   0.5546   0.12456   0.11910   0.0181  0.0979  1.0000  -1.4618   0.0000   0.0000   0.0000   0.2068
  11.300   0.5560   0.12453   0.11906   0.0168  0.0960  1.0000  -1.4611   0.0000   0.0000   0.0000   0.2092
  11.400   0.5573   0.12509   0.11961   0.0156  0.0939  1.0000  -1.4569   0.0000   0.0000   0.0000   0.2113
  11.500   0.5575   0.12617   0.12068   0.0145  0.0919  1.0000  -1.4486   0.0000   0.0000   0.0000   0.2131
  11.600   0.5571   0.12748   0.12198   0.0135  0.0901  1.0000  -1.4392   0.0000   0.0000   0.0000   0.2147
  11.700   0.5572   0.12887   0.12336   0.0127  0.0884  1.0000  -1.4342   0.0000   0.0000   0.0000   0.2161
  11.800   0.5578   0.13028   0.12476   0.0120  0.0866  1.0000  -1.4342   0.0000   0.0000   0.0000   0.2171
  11.900   0.5591   0.13169   0.12616   0.0116  0.0849  1.0000  -1.4402   0.0000   0.0000   0.0000   0.2178
  12.000   0.5612   0.13306   0.12752   0.0114  0.0833  1.0000  -1.4542   0.0000   0.0000   0.0000   0.2180
  12.100   0.5648   0.13437   0.12882   0.0116  0.0816  1.0000  -1.4811   0.0000   0.0000   0.0000   0.2177
  12.200   0.5702   0.13563   0.13007   0.0124  0.0798  1.0000  -1.5268   0.0000   0.0000   0.0000   0.2165
  12.600   0.5768   0.14649   0.14087   0.0139  0.0743  1.0000  -1.5846   0.0000   0.0000   0.0000   0.2138
  12.700   0.5749   0.14756   0.14193   0.0123  0.0739  1.0000  -1.5569   0.0000   0.0000   0.0000   0.2164
  12.800   0.5719   0.14867   0.14303   0.0104  0.0735  1.0000  -1.5213   0.0000   0.0000   0.0000   0.2193
  12.900   0.5692   0.14970   0.14405   0.0085  0.0728  1.0000  -1.4837   0.0000   0.0000   0.0000   0.2224
  13.000   0.5672   0.15078   0.14512   0.0066  0.0717  1.0000  -1.4470   0.0000   0.0000   0.0000   0.2255
  13.100   0.5656   0.15206   0.14639   0.0050  0.0703  1.0000  -1.4161   0.0000   0.0000   0.0000   0.2281
  13.200   0.5648   0.15347   0.14780   0.0037  0.0686  1.0000  -1.3944   0.0000   0.0000   0.0000   0.2303
  13.300   0.5647   0.15492   0.14925   0.0027  0.0667  1.0000  -1.3814   0.0000   0.0000   0.0000   0.2319
  13.400   0.5652   0.15639   0.15070   0.0019  0.0648  1.0000  -1.3760   0.0000   0.0000   0.0000   0.2332
  13.500   0.5663   0.15782   0.15212   0.0013  0.0628  1.0000  -1.3776   0.0000   0.0000   0.0000   0.2342
  13.600   0.5680   0.15919   0.15349   0.0008  0.0607  1.0000  -1.3871   0.0000   0.0000   0.0000   0.2348
  13.700   0.5705   0.16049   0.15478   0.0006  0.0586  1.0000  -1.4083   0.0000   0.0000   0.0000   0.2351
  13.800   0.5750   0.16169   0.15597   0.0010  0.0561  1.0000  -1.4578   0.0000   0.0000   0.0000   0.2343
  13.900   0.5870   0.16702   0.16130   0.0065  0.0506  1.0000  -1.6529   0.0000   0.0000   0.0000   0.2250
  14.000   0.5830   0.17155   0.16577   0.0055  0.0500  1.0000  -1.5888   0.0000   0.0000   0.0000   0.2267
  14.100   0.5836   0.17303   0.16724   0.0045  0.0499  1.0000  -1.5755   0.0000   0.0000   0.0000   0.2282
  14.200   0.5844   0.17444   0.16864   0.0035  0.0498  1.0000  -1.5626   0.0000   0.0000   0.0000   0.2298
  14.300   0.5852   0.17576   0.16996   0.0025  0.0497  1.0000  -1.5502   0.0000   0.0000   0.0000   0.2313
  14.400   0.5862   0.17696   0.17115   0.0015  0.0495  1.0000  -1.5380   0.0000   0.0000   0.0000   0.2329
  14.500   0.5873   0.17801   0.17219   0.0004  0.0493  1.0000  -1.5259   0.0000   0.0000   0.0000   0.2346
  14.600   0.5885   0.17883   0.17301  -0.0007  0.0490  1.0000  -1.5135   0.0000   0.0000   0.0000   0.2364
  14.700   0.5889   0.17949   0.17367  -0.0021  0.0485  1.0000  -1.4922   0.0000   0.0000   0.0000   0.2387
  14.800   0.5891   0.18002   0.17419  -0.0037  0.0479  1.0000  -1.4664   0.0000   0.0000   0.0000   0.2411
  14.900   0.5892   0.18050   0.17467  -0.0052  0.0471  1.0000  -1.4391   0.0000   0.0000   0.0000   0.2435
  15.000   0.5893   0.18106   0.17523  -0.0066  0.0461  1.0000  -1.4149   0.0000   0.0000   0.0000   0.2456
  15.100   0.5901   0.18193   0.17609  -0.0077  0.0450  1.0000  -1.3967   0.0000   0.0000   0.0000   0.2475
  15.200   0.5914   0.18305   0.17720  -0.0087  0.0437  1.0000  -1.3848   0.0000   0.0000   0.0000   0.2490
  15.300   0.5931   0.18430   0.17845  -0.0096  0.0424  1.0000  -1.3777   0.0000   0.0000   0.0000   0.2503
  15.400   0.5949   0.18562   0.17977  -0.0104  0.0411  1.0000  -1.3740   0.0000   0.0000   0.0000   0.2514
  15.500   0.5968   0.18698   0.18112  -0.0111  0.0399  1.0000  -1.3730   0.0000   0.0000   0.0000   0.2524
  15.600   0.5988   0.18835   0.18249  -0.0118  0.0387  1.0000  -1.3741   0.0000   0.0000   0.0000   0.2533
  15.700   0.6009   0.18973   0.18386  -0.0124  0.0375  1.0000  -1.3773   0.0000   0.0000   0.0000   0.2542
  15.800   0.6031   0.19111   0.18524  -0.0130  0.0364  1.0000  -1.3825   0.0000   0.0000   0.0000   0.2550
  15.900   0.6054   0.19250   0.18662  -0.0136  0.0353  1.0000  -1.3900   0.0000   0.0000   0.0000   0.2558
  16.000   0.6077   0.19387   0.18799  -0.0142  0.0342  1.0000  -1.3998   0.0000   0.0000   0.0000   0.2565
  16.100   0.6101   0.19525   0.18937  -0.0147  0.0332  1.0000  -1.4127   0.0000   0.0000   0.0000   0.2571
  16.200   0.6127   0.19663   0.19074  -0.0151  0.0322  1.0000  -1.4292   0.0000   0.0000   0.0000   0.2576
  16.300   0.6154   0.19801   0.19211  -0.0155  0.0312  1.0000  -1.4505   0.0000   0.0000   0.0000   0.2579
  16.400   0.6184   0.19942   0.19351  -0.0158  0.0303  1.0000  -1.4785   0.0000   0.0000   0.0000   0.2581
  16.500   0.6218   0.20090   0.19498  -0.0158  0.0293  1.0000  -1.5167   0.0000   0.0000   0.0000   0.2580
  16.600   0.6262   0.20264   0.19672  -0.0155  0.0283  1.0000  -1.5753   0.0000   0.0000   0.0000   0.2572
  16.700   0.6338   0.20598   0.20005  -0.0140  0.0268  1.0000  -1.6899   0.0000   0.0000   0.0000   0.2544
  16.800   0.6336   0.21048   0.20455  -0.0139  0.0258  1.0000  -1.6809   0.0000   0.0000   0.0000   0.2542
  16.900   0.6289   0.21729   0.21131  -0.0148  0.0250  1.0000  -1.5564   0.0000   0.0000   0.0000   0.2559
  17.000   0.6309   0.21862   0.21263  -0.0157  0.0249  1.0000  -1.5504   0.0000   0.0000   0.0000   0.2570
  17.100   0.6329   0.21989   0.21390  -0.0165  0.0249  1.0000  -1.5448   0.0000   0.0000   0.0000   0.2581
  17.200   0.6350   0.22110   0.21511  -0.0174  0.0248  1.0000  -1.5396   0.0000   0.0000   0.0000   0.2592
  17.300   0.6370   0.22222   0.21622  -0.0182  0.0247  1.0000  -1.5350   0.0000   0.0000   0.0000   0.2603
  17.400   0.6392   0.22321   0.21722  -0.0191  0.0246  1.0000  -1.5310   0.0000   0.0000   0.0000   0.2615
  17.500   0.6414   0.22405   0.21805  -0.0200  0.0245  1.0000  -1.5278   0.0000   0.0000   0.0000   0.2626
  17.600   0.6437   0.22467   0.21867  -0.0210  0.0242  1.0000  -1.5253   0.0000   0.0000   0.0000   0.2639
  17.700   0.6462   0.22509   0.21909  -0.0220  0.0239  1.0000  -1.5225   0.0000   0.0000   0.0000   0.2652
  17.800   0.6474   0.22543   0.21942  -0.0233  0.0235  1.0000  -1.5067   0.0000   0.0000   0.0000   0.2669
  17.900   0.6490   0.22595   0.21995  -0.0245  0.0231  1.0000  -1.4894   0.0000   0.0000   0.0000   0.2685
  18.000   0.6512   0.22678   0.22077  -0.0257  0.0226  1.0000  -1.4731   0.0000   0.0000   0.0000   0.2701
  18.100   0.6536   0.22790   0.22189  -0.0268  0.0220  1.0000  -1.4594   0.0000   0.0000   0.0000   0.2714
  18.200   0.6561   0.22924   0.22324  -0.0278  0.0215  1.0000  -1.4491   0.0000   0.0000   0.0000   0.2726
  18.300   0.6586   0.23072   0.22472  -0.0286  0.0209  1.0000  -1.4419   0.0000   0.0000   0.0000   0.2736
  18.400   0.6612   0.23228   0.22627  -0.0294  0.0204  1.0000  -1.4374   0.0000   0.0000   0.0000   0.2745
  18.500   0.6637   0.23388   0.22787  -0.0302  0.0199  1.0000  -1.4349   0.0000   0.0000   0.0000   0.2753
  18.600   0.6661   0.23550   0.22950  -0.0309  0.0194  1.0000  -1.4342   0.0000   0.0000   0.0000   0.2761
  18.700   0.6686   0.23714   0.23114  -0.0316  0.0189  1.0000  -1.4349   0.0000   0.0000   0.0000   0.2769
  18.800   0.6710   0.23879   0.23279  -0.0322  0.0185  1.0000  -1.4369   0.0000   0.0000   0.0000   0.2776
  18.900   0.6734   0.24045   0.23444  -0.0329  0.0180  1.0000  -1.4402   0.0000   0.0000   0.0000   0.2782
  19.000   0.6757   0.24210   0.23610  -0.0335  0.0176  1.0000  -1.4446   0.0000   0.0000   0.0000   0.2789
  19.100   0.6781   0.24376   0.23775  -0.0342  0.0172  1.0000  -1.4503   0.0000   0.0000   0.0000   0.2795
  19.200   0.6805   0.24542   0.23941  -0.0348  0.0169  1.0000  -1.4573   0.0000   0.0000   0.0000   0.2801
  19.300   0.6828   0.24707   0.24106  -0.0354  0.0165  1.0000  -1.4656   0.0000   0.0000   0.0000   0.2807
  19.400   0.6851   0.24873   0.24272  -0.0360  0.0161  1.0000  -1.4754   0.0000   0.0000   0.0000   0.2812
  19.500   0.6874   0.25038   0.24437  -0.0366  0.0158  1.0000  -1.4869   0.0000   0.0000   0.0000   0.2817
  19.600   0.6897   0.25204   0.24603  -0.0371  0.0155  1.0000  -1.5002   0.0000   0.0000   0.0000   0.2822
  19.700   0.6920   0.25371   0.24769  -0.0376  0.0152  1.0000  -1.5157   0.0000   0.0000   0.0000   0.2827
  19.800   0.6944   0.25538   0.24937  -0.0381  0.0149  1.0000  -1.5335   0.0000   0.0000   0.0000   0.2830
  19.900   0.6967   0.25708   0.25107  -0.0386  0.0146  1.0000  -1.5543   0.0000   0.0000   0.0000   0.2834
  20.000   0.6990   0.25882   0.25280  -0.0390  0.0143  1.0000  -1.5786   0.0000   0.0000   0.0000   0.2836
  20.100   0.7014   0.26063   0.25461  -0.0393  0.0140  1.0000  -1.6073   0.0000   0.0000   0.0000   0.2837
  20.200   0.7039   0.26260   0.25657  -0.0395  0.0138  1.0000  -1.6418   0.0000   0.0000   0.0000   0.2836
  20.300   0.7068   0.26491   0.25889  -0.0394  0.0135  1.0000  -1.6850   0.0000   0.0000   0.0000   0.2833
  20.400   0.7111   0.26884   0.26281  -0.0387  0.0130  1.0000  -1.7505   0.0000   0.0000   0.0000   0.2818
  21.000   0.7195   0.28515   0.27907  -0.0419  0.0124  1.0000  -1.6218   0.0000   0.0000   0.0000   0.2851
  21.100   0.7213   0.28695   0.28087  -0.0426  0.0124  1.0000  -1.6147   0.0000   0.0000   0.0000   0.2857
  21.200   0.7230   0.28873   0.28266  -0.0432  0.0124  1.0000  -1.6076   0.0000   0.0000   0.0000   0.2864
  21.300   0.7247   0.29052   0.28445  -0.0439  0.0124  1.0000  -1.6006   0.0000   0.0000   0.0000   0.2870
  22.700   0.7452   0.31459   0.30868  -0.0557  0.0328  1.0000  -1.2397   0.0000   0.0000   0.0000   0.2995
  22.800   0.7465   0.31645   0.31054  -0.0561  0.0324  1.0000  -1.2433   0.0000   0.0000   0.0000   0.2999
  22.900   0.7478   0.31828   0.31237  -0.0565  0.0318  1.0000  -1.2494   0.0000   0.0000   0.0000   0.3002
  23.000   0.7491   0.32009   0.31418  -0.0569  0.0312  1.0000  -1.2584   0.0000   0.0000   0.0000   0.3004
  23.100   0.7503   0.32190   0.31599  -0.0572  0.0304  1.0000  -1.2708   0.0000   0.0000   0.0000   0.3006
  23.200   0.7515   0.32374   0.31784  -0.0574  0.0297  1.0000  -1.2872   0.0000   0.0000   0.0000   0.3006
  23.300   0.7528   0.32570   0.31980  -0.0575  0.0289  1.0000  -1.3090   0.0000   0.0000   0.0000   0.3005


