xflr5 v6.61

 Calculated polar for: NACA 2415

 1 1 Reynolds number fixed          Mach number fixed         

 xtrf =   1.000 (top)        1.000 (bottom)
 Mach =   0.000     Re =     1.000 e 6     Ncrit =   9.000

  alpha     CL        CD       CDp       Cm    Top Xtr Bot Xtr   Cpmin    Chinge    XCp    
 ------- -------- --------- --------- -------- ------- ------- -------- --------- ---------
 -10.000  -0.8524   0.01534   0.01008  -0.0484  0.9749  0.0245  -4.6106   0.0000   0.0000   0.0000   0.1802
  -9.900  -0.8387   0.01531   0.01007  -0.0490  0.9737  0.0245  -4.5307   0.0000   0.0000   0.0000   0.1786
  -9.800  -0.8251   0.01530   0.01008  -0.0497  0.9726  0.0246  -4.4503   0.0000   0.0000   0.0000   0.1769
  -9.700  -0.8113   0.01530   0.01010  -0.0503  0.9716  0.0246  -4.3693   0.0000   0.0000   0.0000   0.1751
  -9.600  -0.7973   0.01532   0.01015  -0.0511  0.9706  0.0247  -4.2866   0.0000   0.0000   0.0000   0.1732
  -9.500  -0.7829   0.01537   0.01023  -0.0518  0.9696  0.0248  -4.2019   0.0000   0.0000   0.0000   0.1711
  -9.400  -0.7682   0.01545   0.01035  -0.0526  0.9685  0.0248  -4.1144   0.0000   0.0000   0.0000   0.1689
  -9.300  -0.7531   0.01559   0.01053  -0.0535  0.9676  0.0249  -4.0233   0.0000   0.0000   0.0000   0.1664
  -9.200  -0.7374   0.01583   0.01082  -0.0545  0.9666  0.0249  -3.9262   0.0000   0.0000   0.0000   0.1636
  -9.000  -0.7002   0.01762   0.01289  -0.0571  0.9653  0.0252  -3.6512   0.0000   0.0000   0.0000   0.1560
  -8.900  -0.6904   0.01680   0.01198  -0.0573  0.9634  0.0254  -3.6237   0.0000   0.0000   0.0000   0.1546
  -8.800  -0.6805   0.01606   0.01116  -0.0575  0.9614  0.0257  -3.5934   0.0000   0.0000   0.0000   0.1532
  -8.700  -0.6704   0.01540   0.01041  -0.0577  0.9593  0.0261  -3.5608   0.0000   0.0000   0.0000   0.1516
  -8.600  -0.6602   0.01478   0.00972  -0.0579  0.9568  0.0265  -3.5263   0.0000   0.0000   0.0000   0.1501
  -8.500  -0.6504   0.01418   0.00902  -0.0580  0.9536  0.0274  -3.4912   0.0000   0.0000   0.0000   0.1486
  -8.400  -0.6434   0.01344   0.00797  -0.0576  0.9497  0.0311  -3.4534   0.0000   0.0000   0.0000   0.1484
  -8.300  -0.6339   0.01324   0.00776  -0.0574  0.9490  0.0310  -3.4091   0.0000   0.0000   0.0000   0.1475
  -8.200  -0.6244   0.01305   0.00755  -0.0571  0.9480  0.0309  -3.3648   0.0000   0.0000   0.0000   0.1466
  -8.100  -0.6148   0.01287   0.00734  -0.0569  0.9468  0.0308  -3.3205   0.0000   0.0000   0.0000   0.1457
  -8.000  -0.6051   0.01269   0.00714  -0.0566  0.9455  0.0307  -3.2762   0.0000   0.0000   0.0000   0.1446
  -7.900  -0.5953   0.01251   0.00694  -0.0564  0.9439  0.0306  -3.2318   0.0000   0.0000   0.0000   0.1435
  -7.800  -0.5854   0.01234   0.00675  -0.0562  0.9421  0.0305  -3.1873   0.0000   0.0000   0.0000   0.1423
  -7.700  -0.5755   0.01218   0.00656  -0.0560  0.9402  0.0305  -3.1428   0.0000   0.0000   0.0000   0.1410
  -7.600  -0.5654   0.01201   0.00637  -0.0559  0.9381  0.0304  -3.0982   0.0000   0.0000   0.0000   0.1396
  -7.500  -0.5552   0.01185   0.00619  -0.0557  0.9358  0.0303  -3.0537   0.0000   0.0000   0.0000   0.1381
  -7.400  -0.5448   0.01169   0.00601  -0.0556  0.9335  0.0302  -3.0088   0.0000   0.0000   0.0000   0.1364
  -7.300  -0.5340   0.01154   0.00583  -0.0556  0.9310  0.0302  -2.9635   0.0000   0.0000   0.0000   0.1345
  -7.200  -0.5231   0.01138   0.00565  -0.0556  0.9285  0.0301  -2.9182   0.0000   0.0000   0.0000   0.1323
  -7.100  -0.5121   0.01124   0.00548  -0.0556  0.9258  0.0300  -2.8728   0.0000   0.0000   0.0000   0.1301
  -7.000  -0.5010   0.01109   0.00530  -0.0556  0.9231  0.0300  -2.8276   0.0000   0.0000   0.0000   0.1276
  -6.900  -0.4899   0.01095   0.00513  -0.0556  0.9202  0.0299  -2.7825   0.0000   0.0000   0.0000   0.1251
  -6.800  -0.4787   0.01081   0.00496  -0.0557  0.9171  0.0299  -2.7377   0.0000   0.0000   0.0000   0.1224
  -6.700  -0.4676   0.01068   0.00480  -0.0557  0.9135  0.0299  -2.6933   0.0000   0.0000   0.0000   0.1196
  -6.600  -0.4564   0.01056   0.00464  -0.0557  0.9094  0.0299  -2.6492   0.0000   0.0000   0.0000   0.1166
  -6.500  -0.4451   0.01044   0.00449  -0.0558  0.9049  0.0299  -2.6053   0.0000   0.0000   0.0000   0.1133
  -6.100  -0.4043   0.00963   0.00360  -0.0549  0.8978  0.0453  -2.5171   0.0000   0.0000   0.0000   0.1029
  -6.000  -0.3941   0.00952   0.00352  -0.0548  0.8966  0.0479  -2.4716   0.0000   0.0000   0.0000   0.0997
  -5.900  -0.3837   0.00944   0.00345  -0.0546  0.8951  0.0501  -2.4255   0.0000   0.0000   0.0000   0.0962
  -5.800  -0.3740   0.00927   0.00336  -0.0544  0.8931  0.0613  -2.3811   0.0000   0.0000   0.0000   0.0930
  -5.700  -0.3644   0.00909   0.00326  -0.0542  0.8906  0.0694  -2.3368   0.0000   0.0000   0.0000   0.0898
  -5.600  -0.3541   0.00900   0.00318  -0.0541  0.8874  0.0732  -2.2909   0.0000   0.0000   0.0000   0.0857
  -5.500  -0.3435   0.00892   0.00311  -0.0540  0.8835  0.0756  -2.2447   0.0000   0.0000   0.0000   0.0813
  -5.400  -0.3333   0.00880   0.00302  -0.0539  0.8791  0.0822  -2.1997   0.0000   0.0000   0.0000   0.0768
  -5.300  -0.3232   0.00866   0.00294  -0.0537  0.8745  0.0880  -2.1549   0.0000   0.0000   0.0000   0.0721
  -5.200  -0.3127   0.00855   0.00287  -0.0536  0.8696  0.0925  -2.1095   0.0000   0.0000   0.0000   0.0667
  -5.100  -0.3020   0.00848   0.00280  -0.0536  0.8643  0.0956  -2.0638   0.0000   0.0000   0.0000   0.0608
  -5.000  -0.2912   0.00842   0.00274  -0.0535  0.8586  0.0977  -2.0181   0.0000   0.0000   0.0000   0.0542
  -4.900  -0.2803   0.00837   0.00268  -0.0535  0.8524  0.0992  -1.9725   0.0000   0.0000   0.0000   0.0471
  -4.800  -0.2694   0.00833   0.00262  -0.0534  0.8457  0.1003  -1.9274   0.0000   0.0000   0.0000   0.0394
  -4.700  -0.2586   0.00829   0.00256  -0.0534  0.8381  0.1051  -1.8828   0.0000   0.0000   0.0000   0.0312
  -4.600  -0.2478   0.00825   0.00251  -0.0533  0.8297  0.1104  -1.8386   0.0000   0.0000   0.0000   0.0223
  -4.500  -0.2368   0.00820   0.00246  -0.0533  0.8208  0.1157  -1.7943   0.0000   0.0000   0.0000   0.0120
  -4.400  -0.2256   0.00815   0.00241  -0.0534  0.8124  0.1208  -1.7498   0.0000   0.0000   0.0000   0.0003
  -4.300  -0.2143   0.00808   0.00236  -0.0535  0.8050  0.1256  -1.7057   0.0000   0.0000   0.0000  -0.0129
  -4.200  -0.2032   0.00802   0.00232  -0.0536  0.7998  0.1304  -1.6619   0.0000   0.0000   0.0000  -0.0273
  -4.100  -0.1923   0.00795   0.00228  -0.0536  0.7992  0.1349  -1.6191   0.0000   0.0000   0.0000  -0.0424
  -4.000  -0.1815   0.00789   0.00225  -0.0535  0.7985  0.1389  -1.5765   0.0000   0.0000   0.0000  -0.0593
  -3.900  -0.1706   0.00783   0.00221  -0.0535  0.7975  0.1422  -1.5341   0.0000   0.0000   0.0000  -0.0785
  -3.800  -0.1596   0.00778   0.00218  -0.0535  0.7961  0.1448  -1.4919   0.0000   0.0000   0.0000  -0.1004
  -3.700  -0.1487   0.00774   0.00215  -0.0535  0.7943  0.1468  -1.4501   0.0000   0.0000   0.0000  -0.1256
  -3.600  -0.1377   0.00771   0.00211  -0.0535  0.7920  0.1486  -1.4085   0.0000   0.0000   0.0000  -0.1550
  -3.500  -0.1266   0.00767   0.00208  -0.0535  0.7890  0.1500  -1.3672   0.0000   0.0000   0.0000  -0.1895
  -3.400  -0.1156   0.00764   0.00205  -0.0534  0.7852  0.1554  -1.3263   0.0000   0.0000   0.0000  -0.2304
  -3.300  -0.1047   0.00760   0.00202  -0.0534  0.7808  0.1632  -1.2860   0.0000   0.0000   0.0000  -0.2792
  -3.200  -0.0940   0.00754   0.00197  -0.0533  0.7757  0.1707  -1.2462   0.0000   0.0000   0.0000  -0.3386
  -3.100  -0.0833   0.00748   0.00193  -0.0533  0.7699  0.1776  -1.2070   0.0000   0.0000   0.0000  -0.4120
  -3.000  -0.0727   0.00744   0.00189  -0.0532  0.7633  0.1842  -1.1681   0.0000   0.0000   0.0000  -0.5065
  -2.900  -0.0621   0.00741   0.00185  -0.0531  0.7561  0.1900  -1.1294   0.0000   0.0000   0.0000  -0.6339
  -2.800  -0.0514   0.00740   0.00181  -0.0530  0.7482  0.1944  -1.0910   0.0000   0.0000   0.0000  -0.8141
  -2.700  -0.0407   0.00739   0.00178  -0.0529  0.7395  0.1979  -1.0530   0.0000   0.0000   0.0000  -1.0889
  -2.600  -0.0300   0.00739   0.00175  -0.0529  0.7296  0.2016  -1.0152   0.0000   0.0000   0.0000  -1.5648
  -2.500  -0.0191   0.00737   0.00172  -0.0528  0.7193  0.2121  -0.9777   0.0000   0.0000   0.0000  -2.5850
  -2.400  -0.0083   0.00731   0.00169  -0.0528  0.7097  0.2222  -0.9405   0.0000   0.0000   0.0000  -6.2657
  -2.300   0.0026   0.00725   0.00167  -0.0529  0.7005  0.2310  -0.9036   0.0000   0.0000   0.0000  21.1746
  -2.200   0.0135   0.00719   0.00165  -0.0529  0.6990  0.2380  -0.8668   0.0000   0.0000   0.0000   4.2515
  -2.100   0.0246   0.00715   0.00163  -0.0529  0.6975  0.2428  -0.8302   0.0000   0.0000   0.0000   2.4505
  -2.000   0.0356   0.00713   0.00162  -0.0529  0.6952  0.2460  -0.7939   0.0000   0.0000   0.0000   1.7645
  -1.900   0.0467   0.00711   0.00160  -0.0529  0.6914  0.2484  -0.7579   0.0000   0.0000   0.0000   1.4040
  -1.800   0.0577   0.00711   0.00159  -0.0528  0.6854  0.2502  -0.7343   0.0000   0.0000   0.0000   1.1827
  -1.700   0.0681   0.00711   0.00156  -0.0527  0.6756  0.2575  -0.7145   0.0000   0.0000   0.0000   1.0363
  -1.600   0.0778   0.00712   0.00154  -0.0524  0.6606  0.2657  -0.6956   0.0000   0.0000   0.0000   0.9342
  -1.500   0.0866   0.00715   0.00150  -0.0520  0.6417  0.2729  -0.6776   0.0000   0.0000   0.0000   0.8588
  -1.400   0.0955   0.00718   0.00148  -0.0515  0.6183  0.2793  -0.6595   0.0000   0.0000   0.0000   0.7968
  -1.300   0.1056   0.00718   0.00147  -0.0514  0.5996  0.2854  -0.6404   0.0000   0.0000   0.0000   0.7421
  -1.200   0.1165   0.00715   0.00146  -0.0514  0.5962  0.2905  -0.6223   0.0000   0.0000   0.0000   0.6954
  -1.100   0.1273   0.00715   0.00145  -0.0513  0.5908  0.2945  -0.6062   0.0000   0.0000   0.0000   0.6566
  -1.000   0.1380   0.00717   0.00145  -0.0513  0.5830  0.2974  -0.5967   0.0000   0.0000   0.0000   0.6241
  -0.900   0.1484   0.00721   0.00145  -0.0511  0.5728  0.2997  -0.6049   0.0000   0.0000   0.0000   0.5965
  -0.800   0.1587   0.00725   0.00144  -0.0510  0.5630  0.3056  -0.6130   0.0000   0.0000   0.0000   0.5727
  -0.700   0.1690   0.00729   0.00144  -0.0508  0.5544  0.3153  -0.6210   0.0000   0.0000   0.0000   0.5517
  -0.600   0.1793   0.00732   0.00144  -0.0507  0.5458  0.3259  -0.6291   0.0000   0.0000   0.0000   0.5333
  -0.500   0.1895   0.00733   0.00145  -0.0505  0.5369  0.3382  -0.6371   0.0000   0.0000   0.0000   0.5169
  -0.400   0.1996   0.00731   0.00145  -0.0504  0.5274  0.3526  -0.6450   0.0000   0.0000   0.0000   0.5023
  -0.300   0.2098   0.00726   0.00145  -0.0503  0.5177  0.3676  -0.6530   0.0000   0.0000   0.0000   0.4891
  -0.200   0.2202   0.00722   0.00145  -0.0502  0.5087  0.3798  -0.6612   0.0000   0.0000   0.0000   0.4771
  -0.100   0.2310   0.00720   0.00145  -0.0501  0.5014  0.3888  -0.6695   0.0000   0.0000   0.0000   0.4660
   0.000   0.2420   0.00718   0.00146  -0.0502  0.4992  0.3954  -0.6797   0.0000   0.0000   0.0000   0.4559
   0.100   0.2532   0.00716   0.00146  -0.0502  0.4982  0.4027  -0.6917   0.0000   0.0000   0.0000   0.4467
   0.200   0.2642   0.00712   0.00147  -0.0502  0.4971  0.4278  -0.7035   0.0000   0.0000   0.0000   0.4382
   0.300   0.2745   0.00703   0.00149  -0.0501  0.4958  0.4532  -0.7150   0.0000   0.0000   0.0000   0.4305
   0.400   0.2848   0.00693   0.00150  -0.0500  0.4942  0.4767  -0.7265   0.0000   0.0000   0.0000   0.4234
   0.500   0.2953   0.00684   0.00151  -0.0499  0.4948  0.4996  -0.7382   0.0000   0.0000   0.0000   0.4167
   0.600   0.3057   0.00677   0.00152  -0.0498  0.4936  0.5342  -0.7498   0.0000   0.0000   0.0000   0.4104
   0.700   0.3154   0.00664   0.00154  -0.0496  0.4923  0.5673  -0.7610   0.0000   0.0000   0.0000   0.4045
   0.800   0.3259   0.00659   0.00155  -0.0495  0.4907  0.5868  -0.7728   0.0000   0.0000   0.0000   0.3989
   0.900   0.3369   0.00658   0.00156  -0.0495  0.4886  0.5952  -0.7850   0.0000   0.0000   0.0000   0.3938
   1.000   0.3480   0.00659   0.00157  -0.0495  0.4859  0.6018  -0.7971   0.0000   0.0000   0.0000   0.3890
   1.100   0.3580   0.00655   0.00160  -0.0493  0.4822  0.6347  -0.8087   0.0000   0.0000   0.0000   0.3843
   1.200   0.3672   0.00646   0.00163  -0.0489  0.4772  0.6647  -0.8198   0.0000   0.0000   0.0000   0.3797
   1.300   0.3770   0.00644   0.00166  -0.0486  0.4710  0.6867  -0.8313   0.0000   0.0000   0.0000   0.3753
   1.400   0.3873   0.00647   0.00168  -0.0485  0.4644  0.6979  -0.8431   0.0000   0.0000   0.0000   0.3714
   1.500   0.3973   0.00648   0.00170  -0.0482  0.4577  0.7221  -0.8547   0.0000   0.0000   0.0000   0.3675
   1.600   0.4063   0.00646   0.00175  -0.0478  0.4510  0.7528  -0.8658   0.0000   0.0000   0.0000   0.3636
   1.700   0.4156   0.00645   0.00180  -0.0474  0.4440  0.7762  -0.8770   0.0000   0.0000   0.0000   0.3599
   1.800   0.4256   0.00648   0.00183  -0.0471  0.4367  0.7917  -0.8887   0.0000   0.0000   0.0000   0.3565
   2.000   0.4460   0.00652   0.00190  -0.0467  0.4211  0.8290  -0.9124   0.0000   0.0000   0.0000   0.3503
   2.100   0.4558   0.00652   0.00194  -0.0464  0.4133  0.8504  -0.9240   0.0000   0.0000   0.0000   0.3472
   2.200   0.4660   0.00654   0.00198  -0.0461  0.4062  0.8664  -0.9360   0.0000   0.0000   0.0000   0.3443
   2.300   0.4766   0.00656   0.00202  -0.0460  0.4001  0.8775  -0.9497   0.0000   0.0000   0.0000   0.3417
   2.400   0.4876   0.00658   0.00204  -0.0459  0.3990  0.8849  -0.9678   0.0000   0.0000   0.0000   0.3393
   2.500   0.4985   0.00660   0.00207  -0.0459  0.3977  0.8901  -0.9860   0.0000   0.0000   0.0000   0.3371
   2.600   0.5095   0.00664   0.00209  -0.0459  0.3956  0.8939  -1.0042   0.0000   0.0000   0.0000   0.3350
   2.700   0.5202   0.00668   0.00212  -0.0458  0.3925  0.8969  -1.0224   0.0000   0.0000   0.0000   0.3329
   2.800   0.5309   0.00673   0.00215  -0.0457  0.3880  0.8991  -1.0405   0.0000   0.0000   0.0000   0.3309
   2.900   0.5415   0.00681   0.00219  -0.0456  0.3809  0.9039  -1.0587   0.0000   0.0000   0.0000   0.3289
   3.000   0.5520   0.00691   0.00225  -0.0455  0.3704  0.9123  -1.0768   0.0000   0.0000   0.0000   0.3271
   3.100   0.5622   0.00704   0.00231  -0.0454  0.3581  0.9197  -1.1055   0.0000   0.0000   0.0000   0.3252
   3.200   0.5726   0.00719   0.00238  -0.0453  0.3448  0.9263  -1.1415   0.0000   0.0000   0.0000   0.3234
   3.300   0.5833   0.00731   0.00243  -0.0453  0.3322  0.9322  -1.1785   0.0000   0.0000   0.0000   0.3218
   3.400   0.5944   0.00739   0.00248  -0.0453  0.3206  0.9376  -1.2163   0.0000   0.0000   0.0000   0.3203
   3.500   0.6054   0.00745   0.00252  -0.0453  0.3100  0.9423  -1.2544   0.0000   0.0000   0.0000   0.3188
   3.600   0.6162   0.00750   0.00256  -0.0452  0.3019  0.9463  -1.2925   0.0000   0.0000   0.0000   0.3173
   3.700   0.6266   0.00755   0.00260  -0.0450  0.2988  0.9494  -1.3303   0.0000   0.0000   0.0000   0.3157
   3.800   0.6400   0.00760   0.00264  -0.0456  0.2967  0.9533  -1.3733   0.0000   0.0000   0.0000   0.3150
   3.900   0.6542   0.00766   0.00268  -0.0463  0.2936  0.9569  -1.4183   0.0000   0.0000   0.0000   0.3144
   4.000   0.6683   0.00775   0.00274  -0.0470  0.2887  0.9604  -1.4633   0.0000   0.0000   0.0000   0.3139
   4.100   0.6819   0.00790   0.00282  -0.0477  0.2792  0.9641  -1.5079   0.0000   0.0000   0.0000   0.3134
   4.200   0.6942   0.00818   0.00295  -0.0482  0.2629  0.9682  -1.5503   0.0000   0.0000   0.0000   0.3128
   4.300   0.7073   0.00839   0.00305  -0.0488  0.2482  0.9720  -1.5944   0.0000   0.0000   0.0000   0.3122
   4.400   0.7213   0.00851   0.00312  -0.0495  0.2418  0.9755  -1.6407   0.0000   0.0000   0.0000   0.3118
   4.500   0.7354   0.00865   0.00321  -0.0503  0.2344  0.9790  -1.6876   0.0000   0.0000   0.0000   0.3114
   4.600   0.7496   0.00882   0.00331  -0.0511  0.2264  0.9827  -1.7351   0.0000   0.0000   0.0000   0.3111
   4.700   0.7639   0.00899   0.00340  -0.0519  0.2172  0.9860  -1.7829   0.0000   0.0000   0.0000   0.3107
   4.800   0.7782   0.00911   0.00348  -0.0527  0.2070  0.9887  -1.8315   0.0000   0.0000   0.0000   0.3104
   4.900   0.7925   0.00920   0.00354  -0.0534  0.1996  0.9909  -1.8803   0.0000   0.0000   0.0000   0.3100
   5.000   0.8064   0.00927   0.00360  -0.0541  0.1977  0.9925  -1.9288   0.0000   0.0000   0.0000   0.3096
   5.100   0.8197   0.00934   0.00366  -0.0546  0.1952  0.9939  -1.9766   0.0000   0.0000   0.0000   0.3091
   5.200   0.8326   0.00942   0.00372  -0.0551  0.1917  0.9950  -2.0239   0.0000   0.0000   0.0000   0.3085
   5.300   0.8449   0.00955   0.00381  -0.0555  0.1847  0.9961  -2.0704   0.0000   0.0000   0.0000   0.3079
   5.400   0.8565   0.00978   0.00395  -0.0557  0.1709  0.9972  -2.1154   0.0000   0.0000   0.0000   0.3072
   5.500   0.8682   0.01001   0.00408  -0.0561  0.1531  0.9981  -2.1610   0.0000   0.0000   0.0000   0.3066
   5.600   0.8811   0.01014   0.00417  -0.0566  0.1455  0.9988  -2.2094   0.0000   0.0000   0.0000   0.3061
   5.700   0.8938   0.01029   0.00427  -0.0570  0.1391  0.9995  -2.2578   0.0000   0.0000   0.0000   0.3056
   5.800   0.9055   0.01048   0.00439  -0.0573  0.1308  1.0000  -2.3043   0.0000   0.0000   0.0000   0.3050
   5.900   0.9111   0.01064   0.00449  -0.0563  0.1236  1.0000  -2.3386   0.0000   0.0000   0.0000   0.3034
   6.000   0.9172   0.01078   0.00460  -0.0554  0.1159  1.0000  -2.3740   0.0000   0.0000   0.0000   0.3019
   6.100   0.9238   0.01091   0.00468  -0.0546  0.1068  1.0000  -2.4106   0.0000   0.0000   0.0000   0.3005
   6.200   0.9311   0.01100   0.00474  -0.0539  0.0995  1.0000  -2.4489   0.0000   0.0000   0.0000   0.2991
   6.300   0.9379   0.01112   0.00483  -0.0531  0.0952  1.0000  -2.4861   0.0000   0.0000   0.0000   0.2977
   6.400   0.9429   0.01134   0.00497  -0.0520  0.0870  1.0000  -2.5197   0.0000   0.0000   0.0000   0.2962
   6.500   0.9464   0.01166   0.00517  -0.0507  0.0758  1.0000  -2.5499   0.0000   0.0000   0.0000   0.2944
   6.600   0.9524   0.01184   0.00531  -0.0498  0.0693  1.0000  -2.5857   0.0000   0.0000   0.0000   0.2930
   6.700   0.9556   0.01218   0.00553  -0.0484  0.0565  1.0000  -2.6151   0.0000   0.0000   0.0000   0.2913
   6.800   0.9621   0.01234   0.00564  -0.0475  0.0487  1.0000  -2.6519   0.0000   0.0000   0.0000   0.2899
   6.900   0.9693   0.01246   0.00575  -0.0468  0.0464  1.0000  -2.6899   0.0000   0.0000   0.0000   0.2887
   7.000   0.9755   0.01265   0.00588  -0.0459  0.0429  1.0000  -2.7241   0.0000   0.0000   0.0000   0.2874
   7.200   0.9858   0.01327   0.00654  -0.0434  0.0295  1.0000  -2.7099   0.0000   0.0000   0.0000   0.2840
   7.300   0.9941   0.01339   0.00668  -0.0429  0.0294  1.0000  -2.7472   0.0000   0.0000   0.0000   0.2830
   7.400   1.0024   0.01352   0.00682  -0.0424  0.0294  1.0000  -2.7849   0.0000   0.0000   0.0000   0.2820
   7.500   1.0108   0.01365   0.00697  -0.0419  0.0294  1.0000  -2.8230   0.0000   0.0000   0.0000   0.2811
   7.600   1.0192   0.01378   0.00712  -0.0414  0.0294  1.0000  -2.8614   0.0000   0.0000   0.0000   0.2801
   7.700   1.0275   0.01392   0.00727  -0.0409  0.0294  1.0000  -2.9001   0.0000   0.0000   0.0000   0.2792
   7.800   1.0359   0.01406   0.00743  -0.0405  0.0294  1.0000  -2.9389   0.0000   0.0000   0.0000   0.2783
   7.900   1.0443   0.01420   0.00759  -0.0400  0.0295  1.0000  -2.9780   0.0000   0.0000   0.0000   0.2774
   8.000   1.0525   0.01435   0.00776  -0.0395  0.0295  1.0000  -3.0171   0.0000   0.0000   0.0000   0.2766
   8.100   1.0608   0.01450   0.00793  -0.0391  0.0295  1.0000  -3.0563   0.0000   0.0000   0.0000   0.2757
   8.200   1.0690   0.01466   0.00811  -0.0386  0.0296  1.0000  -3.0956   0.0000   0.0000   0.0000   0.2748
   8.300   1.0738   0.01503   0.00874  -0.0376  0.0268  1.0000  -3.1389   0.0000   0.0000   0.0000   0.2736
   8.400   1.0793   0.01534   0.00913  -0.0366  0.0258  1.0000  -3.1737   0.0000   0.0000   0.0000   0.2724
   8.500   1.0847   0.01565   0.00950  -0.0357  0.0253  1.0000  -3.2056   0.0000   0.0000   0.0000   0.2712
   8.700   1.1072   0.01555   0.00927  -0.0360  0.0249  1.0000  -3.3509   0.0000   0.0000   0.0000   0.2706
   8.800   1.1179   0.01552   0.00920  -0.0361  0.0249  1.0000  -3.4204   0.0000   0.0000   0.0000   0.2702
   8.900   1.1276   0.01555   0.00918  -0.0360  0.0248  1.0000  -3.4839   0.0000   0.0000   0.0000   0.2697
   9.000   1.1368   0.01560   0.00921  -0.0358  0.0248  1.0000  -3.5438   0.0000   0.0000   0.0000   0.2691
   9.100   1.1457   0.01567   0.00925  -0.0355  0.0247  1.0000  -3.6013   0.0000   0.0000   0.0000   0.2684
   9.200   1.1543   0.01575   0.00932  -0.0351  0.0247  1.0000  -3.6573   0.0000   0.0000   0.0000   0.2678
   9.300   1.1627   0.01584   0.00940  -0.0348  0.0247  1.0000  -3.7122   0.0000   0.0000   0.0000   0.2671
   9.400   1.1711   0.01594   0.00949  -0.0344  0.0246  1.0000  -3.7662   0.0000   0.0000   0.0000   0.2664
   9.500   1.1794   0.01605   0.00959  -0.0340  0.0246  1.0000  -3.8197   0.0000   0.0000   0.0000   0.2657
   9.600   1.1876   0.01616   0.00970  -0.0336  0.0245  1.0000  -3.8727   0.0000   0.0000   0.0000   0.2650
   9.700   1.1958   0.01628   0.00981  -0.0332  0.0245  1.0000  -3.9254   0.0000   0.0000   0.0000   0.2644
   9.800   1.2039   0.01640   0.00994  -0.0328  0.0244  1.0000  -3.9778   0.0000   0.0000   0.0000   0.2637
   9.900   1.2120   0.01653   0.01007  -0.0324  0.0244  1.0000  -4.0300   0.0000   0.0000   0.0000   0.2630
  10.000   1.2200   0.01667   0.01020  -0.0320  0.0243  1.0000  -4.0819   0.0000   0.0000   0.0000   0.2624
  10.100   1.2279   0.01681   0.01035  -0.0316  0.0243  1.0000  -4.1336   0.0000   0.0000   0.0000   0.2617
  10.200   1.2358   0.01696   0.01049  -0.0312  0.0242  1.0000  -4.1852   0.0000   0.0000   0.0000   0.2610
  10.300   1.2436   0.01711   0.01065  -0.0308  0.0242  1.0000  -4.2365   0.0000   0.0000   0.0000   0.2604
  10.400   1.2513   0.01726   0.01081  -0.0303  0.0241  1.0000  -4.2877   0.0000   0.0000   0.0000   0.2597
  10.500   1.2589   0.01742   0.01097  -0.0299  0.0240  1.0000  -4.3386   0.0000   0.0000   0.0000   0.2591
  10.600   1.2664   0.01759   0.01114  -0.0294  0.0240  1.0000  -4.3893   0.0000   0.0000   0.0000   0.2584
  10.700   1.2736   0.01776   0.01132  -0.0289  0.0239  1.0000  -4.4392   0.0000   0.0000   0.0000   0.2577
  10.800   1.2800   0.01795   0.01152  -0.0283  0.0238  1.0000  -4.4870   0.0000   0.0000   0.0000   0.2570
  10.900   1.2859   0.01815   0.01172  -0.0276  0.0237  1.0000  -4.5333   0.0000   0.0000   0.0000   0.2562
  11.000   1.2917   0.01835   0.01193  -0.0269  0.0237  1.0000  -4.5795   0.0000   0.0000   0.0000   0.2554
  11.100   1.2977   0.01855   0.01214  -0.0263  0.0236  1.0000  -4.6264   0.0000   0.0000   0.0000   0.2546
  11.200   1.3039   0.01876   0.01236  -0.0257  0.0235  1.0000  -4.6739   0.0000   0.0000   0.0000   0.2539
  11.300   1.3102   0.01897   0.01258  -0.0251  0.0234  1.0000  -4.7220   0.0000   0.0000   0.0000   0.2532
  11.500   1.3062   0.02043   0.01434  -0.0215  0.0243  1.0000  -4.6689   0.0000   0.0000   0.0000   0.2501
  11.600   1.3066   0.02100   0.01496  -0.0203  0.0243  1.0000  -4.6848   0.0000   0.0000   0.0000   0.2490
  11.700   1.3085   0.02150   0.01550  -0.0193  0.0243  1.0000  -4.7100   0.0000   0.0000   0.0000   0.2480
  11.800   1.3126   0.02190   0.01593  -0.0186  0.0243  1.0000  -4.7451   0.0000   0.0000   0.0000   0.2472
  11.900   1.3180   0.02224   0.01628  -0.0180  0.0243  1.0000  -4.7868   0.0000   0.0000   0.0000   0.2466
  12.000   1.3242   0.02253   0.01658  -0.0176  0.0243  1.0000  -4.8332   0.0000   0.0000   0.0000   0.2460
  12.100   1.3308   0.02279   0.01685  -0.0172  0.0242  1.0000  -4.8830   0.0000   0.0000   0.0000   0.2455
  12.200   1.3378   0.02303   0.01710  -0.0169  0.0242  1.0000  -4.9351   0.0000   0.0000   0.0000   0.2450
  12.300   1.3450   0.02326   0.01733  -0.0166  0.0241  1.0000  -4.9889   0.0000   0.0000   0.0000   0.2445
  12.400   1.3524   0.02348   0.01755  -0.0163  0.0241  1.0000  -5.0439   0.0000   0.0000   0.0000   0.2441
  12.500   1.3597   0.02370   0.01777  -0.0160  0.0240  1.0000  -5.0996   0.0000   0.0000   0.0000   0.2436
  12.600   1.3671   0.02392   0.01799  -0.0157  0.0240  1.0000  -5.1557   0.0000   0.0000   0.0000   0.2432
  12.700   1.3744   0.02415   0.01821  -0.0155  0.0239  1.0000  -5.2120   0.0000   0.0000   0.0000   0.2427
  12.800   1.3816   0.02438   0.01844  -0.0152  0.0238  1.0000  -5.2682   0.0000   0.0000   0.0000   0.2423
  12.900   1.3887   0.02462   0.01868  -0.0149  0.0238  1.0000  -5.3242   0.0000   0.0000   0.0000   0.2418
  13.000   1.3957   0.02486   0.01892  -0.0146  0.0237  1.0000  -5.3798   0.0000   0.0000   0.0000   0.2414
  13.100   1.4025   0.02512   0.01919  -0.0144  0.0236  1.0000  -5.4350   0.0000   0.0000   0.0000   0.2409
  13.200   1.4091   0.02540   0.01946  -0.0141  0.0235  1.0000  -5.4896   0.0000   0.0000   0.0000   0.2405
  13.300   1.4155   0.02568   0.01975  -0.0137  0.0234  1.0000  -5.5435   0.0000   0.0000   0.0000   0.2400
  13.400   1.4217   0.02599   0.02006  -0.0134  0.0233  1.0000  -5.5966   0.0000   0.0000   0.0000   0.2396
  13.500   1.4276   0.02631   0.02039  -0.0131  0.0232  1.0000  -5.6488   0.0000   0.0000   0.0000   0.2391
  13.600   1.4332   0.02666   0.02075  -0.0127  0.0231  1.0000  -5.7000   0.0000   0.0000   0.0000   0.2386
  13.700   1.4379   0.02707   0.02117  -0.0123  0.0230  1.0000  -5.7478   0.0000   0.0000   0.0000   0.2381
  13.800   1.4372   0.02788   0.02201  -0.0117  0.0229  1.0000  -5.7756   0.0000   0.0000   0.0000   0.2374
  13.900   1.4399   0.02843   0.02258  -0.0112  0.0228  1.0000  -5.8158   0.0000   0.0000   0.0000   0.2369
  14.000   1.4438   0.02888   0.02304  -0.0108  0.0227  1.0000  -5.8610   0.0000   0.0000   0.0000   0.2364
  14.100   1.4484   0.02931   0.02348  -0.0104  0.0225  1.0000  -5.9081   0.0000   0.0000   0.0000   0.2359
  14.200   1.4531   0.02972   0.02390  -0.0101  0.0224  1.0000  -5.9562   0.0000   0.0000   0.0000   0.2354
  14.300   1.4580   0.03014   0.02433  -0.0098  0.0222  1.0000  -6.0048   0.0000   0.0000   0.0000   0.2349
  14.400   1.4630   0.03056   0.02476  -0.0094  0.0221  1.0000  -6.0536   0.0000   0.0000   0.0000   0.2345
  14.500   1.4679   0.03099   0.02520  -0.0091  0.0219  1.0000  -6.1024   0.0000   0.0000   0.0000   0.2341
  14.600   1.4727   0.03143   0.02565  -0.0088  0.0218  1.0000  -6.1509   0.0000   0.0000   0.0000   0.2336
  14.700   1.4773   0.03190   0.02613  -0.0085  0.0216  1.0000  -6.1988   0.0000   0.0000   0.0000   0.2332
  14.800   1.4818   0.03239   0.02662  -0.0082  0.0214  1.0000  -6.2460   0.0000   0.0000   0.0000   0.2327
  14.900   1.4860   0.03291   0.02715  -0.0079  0.0212  1.0000  -6.2924   0.0000   0.0000   0.0000   0.2323
  15.000   1.4899   0.03346   0.02771  -0.0076  0.0210  1.0000  -6.3376   0.0000   0.0000   0.0000   0.2319
  15.100   1.4935   0.03405   0.02832  -0.0073  0.0208  1.0000  -6.3815   0.0000   0.0000   0.0000   0.2315
  15.200   1.4966   0.03470   0.02898  -0.0071  0.0206  1.0000  -6.4234   0.0000   0.0000   0.0000   0.2311
  15.300   1.4938   0.03599   0.03031  -0.0069  0.0205  1.0000  -6.4417   0.0000   0.0000   0.0000   0.2307
  15.400   1.4917   0.03728   0.03162  -0.0068  0.0203  1.0000  -6.4619   0.0000   0.0000   0.0000   0.2303
  15.500   1.4937   0.03808   0.03244  -0.0066  0.0201  1.0000  -6.4995   0.0000   0.0000   0.0000   0.2300
  15.600   1.4965   0.03881   0.03318  -0.0064  0.0199  1.0000  -6.5401   0.0000   0.0000   0.0000   0.2296
  15.700   1.4996   0.03951   0.03389  -0.0062  0.0197  1.0000  -6.5819   0.0000   0.0000   0.0000   0.2293
  15.800   1.5028   0.04021   0.03459  -0.0060  0.0194  1.0000  -6.6242   0.0000   0.0000   0.0000   0.2289
  15.900   1.5059   0.04091   0.03530  -0.0059  0.0192  1.0000  -6.6664   0.0000   0.0000   0.0000   0.2285
  16.000   1.5088   0.04163   0.03602  -0.0057  0.0189  1.0000  -6.7081   0.0000   0.0000   0.0000   0.2282
  16.100   1.5116   0.04237   0.03677  -0.0055  0.0187  1.0000  -6.7489   0.0000   0.0000   0.0000   0.2278
  16.200   1.5140   0.04315   0.03756  -0.0054  0.0184  1.0000  -6.7884   0.0000   0.0000   0.0000   0.2275
  16.300   1.5161   0.04398   0.03840  -0.0052  0.0182  1.0000  -6.8262   0.0000   0.0000   0.0000   0.2272
  16.400   1.5177   0.04489   0.03931  -0.0051  0.0179  1.0000  -6.8623   0.0000   0.0000   0.0000   0.2269
  16.500   1.5186   0.04590   0.04034  -0.0051  0.0177  1.0000  -6.8947   0.0000   0.0000   0.0000   0.2266
  16.600   1.5058   0.04882   0.04335  -0.0058  0.0177  1.0000  -6.8656   0.0000   0.0000   0.0000   0.2268
  16.700   1.5034   0.05029   0.04484  -0.0060  0.0175  1.0000  -6.8828   0.0000   0.0000   0.0000   0.2266
  16.800   1.5035   0.05139   0.04595  -0.0060  0.0173  1.0000  -6.9115   0.0000   0.0000   0.0000   0.2264
  16.900   1.5043   0.05240   0.04696  -0.0059  0.0170  1.0000  -6.9431   0.0000   0.0000   0.0000   0.2261
  17.000   1.5051   0.05338   0.04796  -0.0059  0.0168  1.0000  -6.9748   0.0000   0.0000   0.0000   0.2258
  17.100   1.5061   0.05436   0.04894  -0.0059  0.0165  1.0000  -7.0074   0.0000   0.0000   0.0000   0.2255
  17.200   1.5073   0.05534   0.04993  -0.0059  0.0163  1.0000  -7.0403   0.0000   0.0000   0.0000   0.2253
  17.300   1.5082   0.05634   0.05094  -0.0059  0.0160  1.0000  -7.0723   0.0000   0.0000   0.0000   0.2250
  17.400   1.5089   0.05738   0.05200  -0.0059  0.0157  1.0000  -7.1026   0.0000   0.0000   0.0000   0.2248
  17.500   1.5091   0.05850   0.05314  -0.0060  0.0155  1.0000  -7.1303   0.0000   0.0000   0.0000   0.2246
  17.600   1.5083   0.05975   0.05441  -0.0061  0.0153  1.0000  -7.1534   0.0000   0.0000   0.0000   0.2244
  17.700   1.5055   0.06129   0.05598  -0.0063  0.0151  1.0000  -7.1668   0.0000   0.0000   0.0000   0.2243
  17.800   1.4714   0.06734   0.06220  -0.0086  0.0155  1.0000  -7.0296   0.0000   0.0000   0.0000   0.2255
  17.900   1.4698   0.06864   0.06352  -0.0087  0.0153  1.0000  -7.0483   0.0000   0.0000   0.0000   0.2254
  18.000   1.4691   0.06983   0.06473  -0.0088  0.0151  1.0000  -7.0709   0.0000   0.0000   0.0000   0.2252
  18.100   1.4690   0.07096   0.06588  -0.0089  0.0148  1.0000  -7.0957   0.0000   0.0000   0.0000   0.2250
  18.200   1.4691   0.07207   0.06700  -0.0090  0.0146  1.0000  -7.1216   0.0000   0.0000   0.0000   0.2248
  18.300   1.4694   0.07317   0.06811  -0.0092  0.0143  1.0000  -7.1482   0.0000   0.0000   0.0000   0.2246
  18.400   1.4648   0.07487   0.06989  -0.0094  0.0127  1.0000  -7.1641   0.0000   0.0000   0.0000   0.2245
  18.500   1.4630   0.07625   0.07129  -0.0095  0.0125  1.0000  -7.1830   0.0000   0.0000   0.0000   0.2244
  18.600   1.4621   0.07754   0.07261  -0.0097  0.0124  1.0000  -7.2036   0.0000   0.0000   0.0000   0.2243
  18.700   1.4609   0.07890   0.07400  -0.0100  0.0123  1.0000  -7.2219   0.0000   0.0000   0.0000   0.2242
  18.800   1.4593   0.08039   0.07552  -0.0103  0.0123  1.0000  -7.2372   0.0000   0.0000   0.0000   0.2242
  18.900   1.4558   0.08222   0.07740  -0.0109  0.0123  1.0000  -7.2425   0.0000   0.0000   0.0000   0.2243
  19.100   1.4020   0.09367   0.08909  -0.0158  0.0125  1.0000  -7.0021   0.0000   0.0000   0.0000   0.2274
  19.200   1.3993   0.09529   0.09074  -0.0163  0.0124  1.0000  -7.0118   0.0000   0.0000   0.0000   0.2275
  19.300   1.3984   0.09669   0.09217  -0.0167  0.0124  1.0000  -7.0291   0.0000   0.0000   0.0000   0.2275
  19.400   1.3981   0.09800   0.09350  -0.0170  0.0123  1.0000  -7.0494   0.0000   0.0000   0.0000   0.2275
  19.500   1.3982   0.09927   0.09479  -0.0174  0.0123  1.0000  -7.0708   0.0000   0.0000   0.0000   0.2274
  19.600   1.3984   0.10051   0.09605  -0.0177  0.0122  1.0000  -7.0930   0.0000   0.0000   0.0000   0.2274
  19.700   1.3987   0.10172   0.09729  -0.0181  0.0122  1.0000  -7.1155   0.0000   0.0000   0.0000   0.2274
  19.800   1.3991   0.10293   0.09852  -0.0184  0.0122  1.0000  -7.1380   0.0000   0.0000   0.0000   0.2274
  19.900   1.3995   0.10414   0.09975  -0.0188  0.0121  1.0000  -7.1604   0.0000   0.0000   0.0000   0.2274
  20.000   1.3998   0.10535   0.10098  -0.0192  0.0121  1.0000  -7.1823   0.0000   0.0000   0.0000   0.2273
  20.100   1.4000   0.10659   0.10224  -0.0196  0.0121  1.0000  -7.2034   0.0000   0.0000   0.0000   0.2274
  20.200   1.4001   0.10785   0.10353  -0.0200  0.0120  1.0000  -7.2233   0.0000   0.0000   0.0000   0.2274
  20.300   1.3998   0.10916   0.10486  -0.0204  0.0120  1.0000  -7.2415   0.0000   0.0000   0.0000   0.2274
  20.400   1.3992   0.11053   0.10627  -0.0209  0.0120  1.0000  -7.2570   0.0000   0.0000   0.0000   0.2275
  20.500   1.3979   0.11203   0.10779  -0.0215  0.0120  1.0000  -7.2684   0.0000   0.0000   0.0000   0.2277
  20.600   1.3953   0.11373   0.10953  -0.0222  0.0120  1.0000  -7.2726   0.0000   0.0000   0.0000   0.2279
  20.700   1.3764   0.11840   0.11430  -0.0246  0.0120  1.0000  -7.1772   0.0000   0.0000   0.0000   0.2296
  20.800   1.3729   0.12028   0.11622  -0.0254  0.0120  1.0000  -7.1739   0.0000   0.0000   0.0000   0.2300
  20.900   1.3711   0.12187   0.11783  -0.0261  0.0119  1.0000  -7.1805   0.0000   0.0000   0.0000   0.2303
  21.000   1.3701   0.12335   0.11934  -0.0268  0.0119  1.0000  -7.1913   0.0000   0.0000   0.0000   0.2305
  21.100   1.3692   0.12482   0.12083  -0.0274  0.0119  1.0000  -7.2019   0.0000   0.0000   0.0000   0.2307
  21.200   1.3680   0.12631   0.12235  -0.0281  0.0119  1.0000  -7.2254   0.0000   0.0000   0.0000   0.2310
  21.300   1.3665   0.12786   0.12393  -0.0288  0.0119  1.0000  -7.2519   0.0000   0.0000   0.0000   0.2312
  21.400   1.3643   0.12953   0.12563  -0.0296  0.0118  1.0000  -7.2727   0.0000   0.0000   0.0000   0.2316
  21.500   1.3608   0.13145   0.12759  -0.0306  0.0118  1.0000  -7.2818   0.0000   0.0000   0.0000   0.2321
  21.600   1.3392   0.13667   0.13291  -0.0335  0.0118  1.0000  -7.1423   0.0000   0.0000   0.0000   0.2344
  21.700   1.3357   0.13851   0.13478  -0.0345  0.0118  1.0000  -7.1494   0.0000   0.0000   0.0000   0.2350
  21.800   1.3334   0.14004   0.13634  -0.0354  0.0118  1.0000  -7.1660   0.0000   0.0000   0.0000   0.2354
  21.900   1.3315   0.14147   0.13779  -0.0363  0.0118  1.0000  -7.1858   0.0000   0.0000   0.0000   0.2358
  22.000   1.3297   0.14287   0.13922  -0.0372  0.0118  1.0000  -7.2064   0.0000   0.0000   0.0000   0.2362
  22.100   1.3278   0.14431   0.14069  -0.0381  0.0118  1.0000  -7.2254   0.0000   0.0000   0.0000   0.2367
  22.200   1.3255   0.14586   0.14227  -0.0390  0.0117  1.0000  -7.2401   0.0000   0.0000   0.0000   0.2372
  22.300   1.3220   0.14763   0.14407  -0.0401  0.0117  1.0000  -7.2444   0.0000   0.0000   0.0000   0.2378
  22.400   1.3143   0.15021   0.14670  -0.0418  0.0117  1.0000  -7.2109   0.0000   0.0000   0.0000   0.2390
  22.500   1.2755   0.15894   0.15559  -0.0472  0.0118  1.0000  -6.8927   0.0000   0.0000   0.0000   0.2441
  22.600   1.2742   0.16055   0.15722  -0.0481  0.0118  1.0000  -6.9112   0.0000   0.0000   0.0000   0.2446
  22.700   1.2732   0.16208   0.15877  -0.0491  0.0117  1.0000  -6.9335   0.0000   0.0000   0.0000   0.2451
  22.800   1.2725   0.16357   0.16028  -0.0500  0.0117  1.0000  -6.9579   0.0000   0.0000   0.0000   0.2455
  22.900   1.2722   0.16501   0.16175  -0.0508  0.0117  1.0000  -6.9849   0.0000   0.0000   0.0000   0.2459
  23.000   1.2721   0.16642   0.16318  -0.0517  0.0117  1.0000  -7.0140   0.0000   0.0000   0.0000   0.2463
  23.100   1.2719   0.16785   0.16463  -0.0525  0.0117  1.0000  -7.0424   0.0000   0.0000   0.0000   0.2467
  23.200   1.2716   0.16931   0.16611  -0.0534  0.0116  1.0000  -7.0696   0.0000   0.0000   0.0000   0.2471
  23.300   1.2712   0.17083   0.16765  -0.0543  0.0116  1.0000  -7.0945   0.0000   0.0000   0.0000   0.2475
  23.400   1.2703   0.17244   0.16929  -0.0552  0.0116  1.0000  -7.1154   0.0000   0.0000   0.0000   0.2480
  23.500   1.2688   0.17421   0.17108  -0.0562  0.0116  1.0000  -7.1293   0.0000   0.0000   0.0000   0.2486
  23.600   1.2655   0.17637   0.17328  -0.0575  0.0116  1.0000  -7.1255   0.0000   0.0000   0.0000   0.2494
  23.700   1.2059   0.19183   0.18899  -0.0661  0.0116  1.0000  -6.5389   0.0000   0.0000   0.0000   0.2590
  23.800   1.2049   0.19370   0.19087  -0.0671  0.0116  1.0000  -6.5517   0.0000   0.0000   0.0000   0.2597
  23.900   1.2040   0.19553   0.19272  -0.0681  0.0116  1.0000  -6.5664   0.0000   0.0000   0.0000   0.2603
  24.000   1.2033   0.19733   0.19455  -0.0691  0.0116  1.0000  -6.5820   0.0000   0.0000   0.0000   0.2609
  24.100   1.2026   0.19914   0.19638  -0.0702  0.0116  1.0000  -6.5975   0.0000   0.0000   0.0000   0.2615
  24.200   1.2018   0.20097   0.19823  -0.0712  0.0115  1.0000  -6.6123   0.0000   0.0000   0.0000   0.2621
  24.300   1.2010   0.20284   0.20012  -0.0722  0.0115  1.0000  -6.6255   0.0000   0.0000   0.0000   0.2627
  24.400   1.1999   0.20478   0.20208  -0.0732  0.0115  1.0000  -6.6357   0.0000   0.0000   0.0000   0.2634
  24.500   1.1984   0.20682   0.20415  -0.0743  0.0115  1.0000  -6.6415   0.0000   0.0000   0.0000   0.2641
  24.600   1.1963   0.20904   0.20640  -0.0755  0.0115  1.0000  -6.6396   0.0000   0.0000   0.0000   0.2649
  24.700   1.1931   0.21161   0.20900  -0.0768  0.0114  1.0000  -6.6230   0.0000   0.0000   0.0000   0.2660
  24.800   1.1854   0.21542   0.21286  -0.0787  0.0114  1.0000  -6.5537   0.0000   0.0000   0.0000   0.2678
  24.900   1.1608   0.22426   0.22180  -0.0827  0.0114  1.0000  -6.2746   0.0000   0.0000   0.0000   0.2728
  25.000   1.1559   0.22751   0.22508  -0.0842  0.0114  1.0000  -6.2312   0.0000   0.0000   0.0000   0.2743
  25.100   1.1500   0.23110   0.22871  -0.0858  0.0114  1.0000  -6.1730   0.0000   0.0000   0.0000   0.2759
  25.200   1.1373   0.23686   0.23451  -0.0883  0.0114  1.0000  -6.0251   0.0000   0.0000   0.0000   0.2789
  25.300   1.0701   0.26137   0.25923  -0.0970  0.0113  1.0000  -5.1084   0.0000   0.0000   0.0000   0.2935


