xflr5 v6.61

 Calculated polar for: NACA 2415

 1 1 Reynolds number fixed          Mach number fixed         

 xtrf =   1.000 (top)        1.000 (bottom)
 Mach =   0.000     Re =     0.160 e 6     Ncrit =   9.000

  alpha     CL        CD       CDp       Cm    Top Xtr Bot Xtr   Cpmin    Chinge    XCp    
 ------- -------- --------- --------- -------- ------- ------- -------- --------- ---------
 -10.000  -0.8170   0.04053   0.03430  -0.0446  1.0000  0.0494  -3.7550   0.0000   0.0000   0.0000   0.1825
  -9.900  -0.8182   0.03994   0.03365  -0.0431  1.0000  0.0495  -3.7435   0.0000   0.0000   0.0000   0.1846
  -9.800  -0.8182   0.03948   0.03315  -0.0417  1.0000  0.0496  -3.7252   0.0000   0.0000   0.0000   0.1864
  -9.700  -0.8168   0.03919   0.03283  -0.0405  1.0000  0.0497  -3.6982   0.0000   0.0000   0.0000   0.1880
  -9.600  -0.8138   0.03914   0.03276  -0.0394  1.0000  0.0499  -3.6604   0.0000   0.0000   0.0000   0.1894
  -9.400  -0.8139   0.03803   0.03158  -0.0367  1.0000  0.0504  -3.6253   0.0000   0.0000   0.0000   0.1930
  -9.300  -0.8185   0.03657   0.02998  -0.0350  1.0000  0.0508  -3.6427   0.0000   0.0000   0.0000   0.1954
  -9.200  -0.8218   0.03512   0.02837  -0.0334  1.0000  0.0513  -3.6570   0.0000   0.0000   0.0000   0.1976
  -9.100  -0.8236   0.03374   0.02686  -0.0320  1.0000  0.0519  -3.6660   0.0000   0.0000   0.0000   0.1995
  -9.000  -0.8238   0.03251   0.02551  -0.0308  1.0000  0.0527  -3.6670   0.0000   0.0000   0.0000   0.2011
  -8.900  -0.8224   0.03150   0.02442  -0.0297  1.0000  0.0537  -3.6578   0.0000   0.0000   0.0000   0.2025
  -8.800  -0.8196   0.03075   0.02363  -0.0287  1.0000  0.0548  -3.6370   0.0000   0.0000   0.0000   0.2036
  -8.700  -0.8157   0.03028   0.02315  -0.0279  1.0000  0.0560  -3.6045   0.0000   0.0000   0.0000   0.2046
  -8.600  -0.8109   0.03004   0.02294  -0.0272  1.0000  0.0572  -3.5620   0.0000   0.0000   0.0000   0.2054
  -8.500  -0.8056   0.02996   0.02292  -0.0265  1.0000  0.0584  -3.5133   0.0000   0.0000   0.0000   0.2062
  -8.400  -0.8001   0.02994   0.02295  -0.0259  1.0000  0.0597  -3.4632   0.0000   0.0000   0.0000   0.2069
  -8.300  -0.7945   0.02990   0.02295  -0.0252  1.0000  0.0608  -3.4163   0.0000   0.0000   0.0000   0.2076
  -8.200  -0.7892   0.02974   0.02280  -0.0245  1.0000  0.0618  -3.3755   0.0000   0.0000   0.0000   0.2084
  -8.100  -0.7840   0.02942   0.02245  -0.0238  1.0000  0.0625  -3.3431   0.0000   0.0000   0.0000   0.2092
  -8.000  -0.7791   0.02887   0.02182  -0.0230  1.0000  0.0629  -3.3217   0.0000   0.0000   0.0000   0.2101
  -7.900  -0.7740   0.02819   0.02105  -0.0222  1.0000  0.0629  -3.3058   0.0000   0.0000   0.0000   0.2110
  -7.800  -0.7684   0.02751   0.02027  -0.0214  1.0000  0.0630  -3.2886   0.0000   0.0000   0.0000   0.2119
  -7.700  -0.7626   0.02677   0.01939  -0.0207  1.0000  0.0630  -3.2691   0.0000   0.0000   0.0000   0.2127
  -7.600  -0.7562   0.02610   0.01817  -0.0200  1.0000  0.0630  -3.2287   0.0000   0.0000   0.0000   0.2135
  -7.500  -0.7497   0.02562   0.01763  -0.0194  1.0000  0.0633  -3.2077   0.0000   0.0000   0.0000   0.2142
  -7.400  -0.7430   0.02516   0.01711  -0.0188  1.0000  0.0637  -3.1860   0.0000   0.0000   0.0000   0.2148
  -7.300  -0.7362   0.02473   0.01662  -0.0182  1.0000  0.0642  -3.1637   0.0000   0.0000   0.0000   0.2154
  -7.200  -0.7282   0.02430   0.01613  -0.0179  0.9998  0.0648  -3.1393   0.0000   0.0000   0.0000   0.2157
  -7.100  -0.7146   0.02379   0.01556  -0.0185  0.9985  0.0656  -3.1065   0.0000   0.0000   0.0000   0.2144
  -7.000  -0.7008   0.02330   0.01502  -0.0192  0.9970  0.0667  -3.0736   0.0000   0.0000   0.0000   0.2129
  -6.900  -0.6867   0.02283   0.01450  -0.0200  0.9952  0.0681  -3.0407   0.0000   0.0000   0.0000   0.2113
  -6.800  -0.6723   0.02240   0.01402  -0.0207  0.9931  0.0699  -3.0080   0.0000   0.0000   0.0000   0.2095
  -6.700  -0.6577   0.02202   0.01358  -0.0216  0.9907  0.0720  -2.9748   0.0000   0.0000   0.0000   0.2076
  -6.600  -0.6427   0.02174   0.01325  -0.0224  0.9881  0.0741  -2.9388   0.0000   0.0000   0.0000   0.2055
  -6.500  -0.6309   0.02074   0.01232  -0.0229  0.9857  0.0821  -2.9371   0.0000   0.0000   0.0000   0.2041
  -6.400  -0.6167   0.02048   0.01220  -0.0239  0.9827  0.0891  -2.8950   0.0000   0.0000   0.0000   0.2017
  -6.300  -0.6016   0.02042   0.01217  -0.0249  0.9798  0.0968  -2.8519   0.0000   0.0000   0.0000   0.1991
  -6.200  -0.5898   0.01954   0.01137  -0.0253  0.9776  0.1187  -2.8448   0.0000   0.0000   0.0000   0.1976
  -6.100  -0.5758   0.01935   0.01130  -0.0262  0.9750  0.1304  -2.7972   0.0000   0.0000   0.0000   0.1950
  -6.000  -0.5607   0.01929   0.01123  -0.0272  0.9724  0.1386  -2.7442   0.0000   0.0000   0.0000   0.1920
  -5.900  -0.5451   0.01927   0.01117  -0.0283  0.9699  0.1444  -2.6886   0.0000   0.0000   0.0000   0.1887
  -5.800  -0.5290   0.01930   0.01115  -0.0295  0.9674  0.1481  -2.6306   0.0000   0.0000   0.0000   0.1848
  -5.700  -0.5124   0.01936   0.01116  -0.0307  0.9650  0.1502  -2.5707   0.0000   0.0000   0.0000   0.1805
  -5.600  -0.4977   0.01885   0.01072  -0.0317  0.9631  0.1621  -2.5247   0.0000   0.0000   0.0000   0.1768
  -5.500  -0.4817   0.01865   0.01060  -0.0330  0.9610  0.1708  -2.4692   0.0000   0.0000   0.0000   0.1721
  -5.400  -0.4651   0.01854   0.01055  -0.0343  0.9590  0.1782  -2.4111   0.0000   0.0000   0.0000   0.1666
  -5.300  -0.4479   0.01848   0.01051  -0.0357  0.9571  0.1850  -2.3520   0.0000   0.0000   0.0000   0.1605
  -5.200  -0.4302   0.01846   0.01047  -0.0372  0.9553  0.1910  -2.2923   0.0000   0.0000   0.0000   0.1537
  -5.100  -0.4121   0.01848   0.01046  -0.0388  0.9535  0.1961  -2.2320   0.0000   0.0000   0.0000   0.1460
  -5.000  -0.3937   0.01859   0.01053  -0.0404  0.9518  0.1998  -2.1707   0.0000   0.0000   0.0000   0.1373
  -4.900  -0.3776   0.01842   0.01046  -0.0417  0.9498  0.2111  -2.1179   0.0000   0.0000   0.0000   0.1295
  -4.800  -0.3718   0.01810   0.01022  -0.0407  0.9464  0.2178  -2.0841   0.0000   0.0000   0.0000   0.1305
  -4.700  -0.3643   0.01787   0.01006  -0.0401  0.9425  0.2242  -2.0467   0.0000   0.0000   0.0000   0.1300
  -4.600  -0.3548   0.01770   0.00995  -0.0399  0.9386  0.2310  -2.0052   0.0000   0.0000   0.0000   0.1276
  -4.500  -0.3436   0.01758   0.00985  -0.0400  0.9348  0.2383  -1.9604   0.0000   0.0000   0.0000   0.1236
  -4.400  -0.3312   0.01751   0.00977  -0.0403  0.9311  0.2451  -1.9134   0.0000   0.0000   0.0000   0.1182
  -4.300  -0.3178   0.01749   0.00971  -0.0409  0.9277  0.2501  -1.8642   0.0000   0.0000   0.0000   0.1113
  -4.200  -0.3052   0.01716   0.00957  -0.0413  0.9246  0.2644  -1.8185   0.0000   0.0000   0.0000   0.1043
  -4.100  -0.2916   0.01698   0.00955  -0.0420  0.9216  0.2753  -1.7690   0.0000   0.0000   0.0000   0.0956
  -4.000  -0.2767   0.01689   0.00953  -0.0429  0.9189  0.2857  -1.7173   0.0000   0.0000   0.0000   0.0847
  -3.900  -0.2605   0.01685   0.00949  -0.0439  0.9162  0.2943  -1.6633   0.0000   0.0000   0.0000   0.0708
  -3.800  -0.2432   0.01685   0.00948  -0.0452  0.9138  0.2999  -1.6074   0.0000   0.0000   0.0000   0.0536
  -3.700  -0.2261   0.01640   0.00913  -0.0464  0.9117  0.3273  -1.5576   0.0000   0.0000   0.0000   0.0338
  -3.600  -0.2091   0.01612   0.00902  -0.0476  0.9096  0.3493  -1.5051   0.0000   0.0000   0.0000   0.0108
  -3.500  -0.1913   0.01591   0.00895  -0.0489  0.9076  0.3664  -1.4508   0.0000   0.0000   0.0000  -0.0177
  -3.400  -0.1735   0.01577   0.00886  -0.0501  0.9055  0.3804  -1.3970   0.0000   0.0000   0.0000  -0.0518
  -3.300  -0.1559   0.01569   0.00877  -0.0513  0.9033  0.3906  -1.3441   0.0000   0.0000   0.0000  -0.0931
  -3.200  -0.1390   0.01569   0.00873  -0.0524  0.9007  0.3970  -1.2932   0.0000   0.0000   0.0000  -0.1419
  -3.100  -0.1304   0.01569   0.00870  -0.0519  0.8980  0.4001  -1.2575   0.0000   0.0000   0.0000  -0.1634
  -3.000  -0.1239   0.01543   0.00854  -0.0510  0.8951  0.4201  -1.2281   0.0000   0.0000   0.0000  -0.1771
  -2.900  -0.1184   0.01526   0.00848  -0.0499  0.8914  0.4376  -1.1993   0.0000   0.0000   0.0000  -0.1873
  -2.800  -0.1123   0.01513   0.00846  -0.0489  0.8870  0.4520  -1.1693   0.0000   0.0000   0.0000  -0.2012
  -2.700  -0.1051   0.01503   0.00845  -0.0481  0.8824  0.4653  -1.1372   0.0000   0.0000   0.0000  -0.2243
  -2.600  -0.0965   0.01495   0.00842  -0.0475  0.8777  0.4781  -1.1032   0.0000   0.0000   0.0000  -0.2600
  -2.500  -0.0868   0.01487   0.00838  -0.0472  0.8730  0.4894  -1.0675   0.0000   0.0000   0.0000  -0.3122
  -2.400  -0.0762   0.01482   0.00831  -0.0470  0.8684  0.4981  -1.0304   0.0000   0.0000   0.0000  -0.3878
  -2.300  -0.0652   0.01465   0.00824  -0.0469  0.8640  0.5200  -0.9933   0.0000   0.0000   0.0000  -0.4933
  -2.200  -0.0545   0.01446   0.00821  -0.0467  0.8596  0.5439  -0.9565   0.0000   0.0000   0.0000  -0.6330
  -2.100  -0.0430   0.01432   0.00819  -0.0466  0.8553  0.5654  -0.9186   0.0000   0.0000   0.0000  -0.8644
  -2.000  -0.0308   0.01421   0.00814  -0.0466  0.8511  0.5841  -0.8799   0.0000   0.0000   0.0000  -1.3029
  -1.900  -0.0182   0.01414   0.00806  -0.0467  0.8469  0.5971  -0.8444   0.0000   0.0000   0.0000  -2.3787
  -1.800  -0.0055   0.01397   0.00798  -0.0468  0.8429  0.6199  -0.8141   0.0000   0.0000   0.0000  -8.4383
  -1.700   0.0065   0.01380   0.00795  -0.0466  0.8390  0.6441  -0.7844   0.0000   0.0000   0.0000   7.5439
  -1.600   0.0188   0.01367   0.00791  -0.0465  0.8350  0.6643  -0.7546   0.0000   0.0000   0.0000   2.7707
  -1.500   0.0318   0.01357   0.00785  -0.0466  0.8309  0.6812  -0.7243   0.0000   0.0000   0.0000   1.7418
  -1.400   0.0452   0.01349   0.00777  -0.0468  0.8266  0.6936  -0.6946   0.0000   0.0000   0.0000   1.3033
  -1.300   0.0590   0.01343   0.00769  -0.0471  0.8219  0.7049  -0.6747   0.0000   0.0000   0.0000   1.0617
  -1.200   0.0733   0.01335   0.00770  -0.0474  0.8167  0.7266  -0.6558   0.0000   0.0000   0.0000   0.9064
  -1.100   0.0871   0.01340   0.00782  -0.0477  0.8097  0.7442  -0.6373   0.0000   0.0000   0.0000   0.8047
  -1.000   0.0983   0.01370   0.00817  -0.0476  0.7997  0.7598  -0.6210   0.0000   0.0000   0.0000   0.7404
  -0.900   0.1074   0.01364   0.00815  -0.0469  0.7978  0.7745  -0.6063   0.0000   0.0000   0.0000   0.6915
  -0.800   0.1159   0.01358   0.00811  -0.0461  0.7955  0.7874  -0.5922   0.0000   0.0000   0.0000   0.6515
  -0.700   0.1238   0.01354   0.00807  -0.0452  0.7925  0.7973  -0.5828   0.0000   0.0000   0.0000   0.6181
  -0.600   0.1345   0.01346   0.00802  -0.0448  0.7891  0.8129  -0.5910   0.0000   0.0000   0.0000   0.5854
  -0.500   0.1471   0.01341   0.00801  -0.0447  0.7854  0.8299  -0.6004   0.0000   0.0000   0.0000   0.5553
  -0.400   0.1602   0.01338   0.00801  -0.0446  0.7813  0.8444  -0.6099   0.0000   0.0000   0.0000   0.5297
  -0.300   0.1730   0.01336   0.00801  -0.0446  0.7768  0.8576  -0.6193   0.0000   0.0000   0.0000   0.5084
  -0.200   0.1851   0.01334   0.00799  -0.0445  0.7720  0.8698  -0.6282   0.0000   0.0000   0.0000   0.4905
  -0.100   0.1956   0.01333   0.00797  -0.0440  0.7672  0.8815  -0.6363   0.0000   0.0000   0.0000   0.4751
   0.000   0.2042   0.01331   0.00794  -0.0433  0.7621  0.8921  -0.6461   0.0000   0.0000   0.0000   0.4615
   0.100   0.2122   0.01328   0.00790  -0.0423  0.7570  0.9005  -0.6560   0.0000   0.0000   0.0000   0.4489
   0.200   0.2334   0.01326   0.00787  -0.0440  0.7522  0.9077  -0.6742   0.0000   0.0000   0.0000   0.4375
   0.300   0.2547   0.01325   0.00784  -0.0457  0.7472  0.9141  -0.6926   0.0000   0.0000   0.0000   0.4281
   0.400   0.2749   0.01324   0.00780  -0.0472  0.7419  0.9202  -0.7104   0.0000   0.0000   0.0000   0.4201
   0.500   0.2935   0.01323   0.00776  -0.0484  0.7360  0.9261  -0.7272   0.0000   0.0000   0.0000   0.4130
   0.600   0.3116   0.01324   0.00770  -0.0495  0.7295  0.9321  -0.7437   0.0000   0.0000   0.0000   0.4070
   0.700   0.3286   0.01328   0.00767  -0.0505  0.7217  0.9382  -0.7595   0.0000   0.0000   0.0000   0.4016
   0.800   0.3437   0.01343   0.00777  -0.0513  0.7117  0.9444  -0.7737   0.0000   0.0000   0.0000   0.3968
   0.900   0.3559   0.01377   0.00808  -0.0516  0.6997  0.9505  -0.7856   0.0000   0.0000   0.0000   0.3926
   1.000   0.3782   0.01368   0.00798  -0.0539  0.6977  0.9539  -0.8049   0.0000   0.0000   0.0000   0.3899
   1.100   0.3999   0.01360   0.00788  -0.0560  0.6950  0.9575  -0.8240   0.0000   0.0000   0.0000   0.3874
   1.200   0.4208   0.01353   0.00778  -0.0580  0.6915  0.9616  -0.8428   0.0000   0.0000   0.0000   0.3850
   1.300   0.4414   0.01346   0.00769  -0.0599  0.6870  0.9662  -0.8613   0.0000   0.0000   0.0000   0.3827
   1.400   0.4618   0.01340   0.00761  -0.0618  0.6818  0.9715  -0.8798   0.0000   0.0000   0.0000   0.3806
   1.500   0.4817   0.01335   0.00753  -0.0636  0.6760  0.9772  -0.8981   0.0000   0.0000   0.0000   0.3787
   1.600   0.5012   0.01330   0.00746  -0.0653  0.6699  0.9830  -0.9162   0.0000   0.0000   0.0000   0.3768
   1.700   0.5201   0.01327   0.00739  -0.0669  0.6637  0.9885  -0.9339   0.0000   0.0000   0.0000   0.3750
   1.800   0.5386   0.01325   0.00733  -0.0684  0.6572  0.9933  -0.9538   0.0000   0.0000   0.0000   0.3733
   1.900   0.5569   0.01323   0.00725  -0.0698  0.6504  0.9972  -0.9782   0.0000   0.0000   0.0000   0.3716
   2.000   0.5743   0.01322   0.00717  -0.0711  0.6434  1.0000  -1.0020   0.0000   0.0000   0.0000   0.3699
   2.100   0.5830   0.01322   0.00710  -0.0707  0.6367  1.0000  -1.0180   0.0000   0.0000   0.0000   0.3673
   2.200   0.5919   0.01325   0.00705  -0.0704  0.6294  1.0000  -1.0342   0.0000   0.0000   0.0000   0.3649
   2.300   0.6012   0.01332   0.00706  -0.0702  0.6209  1.0000  -1.0506   0.0000   0.0000   0.0000   0.3626
   2.400   0.6110   0.01347   0.00717  -0.0702  0.6108  1.0000  -1.0671   0.0000   0.0000   0.0000   0.3606
   2.500   0.6205   0.01376   0.00745  -0.0702  0.5998  1.0000  -1.0829   0.0000   0.0000   0.0000   0.3588
   2.600   0.6285   0.01375   0.00744  -0.0698  0.5983  1.0000  -1.0986   0.0000   0.0000   0.0000   0.3565
   2.700   0.6365   0.01374   0.00743  -0.0693  0.5964  1.0000  -1.1148   0.0000   0.0000   0.0000   0.3543
   2.800   0.6445   0.01374   0.00744  -0.0688  0.5940  1.0000  -1.1465   0.0000   0.0000   0.0000   0.3520
   2.900   0.6524   0.01376   0.00745  -0.0683  0.5912  1.0000  -1.1784   0.0000   0.0000   0.0000   0.3499
   3.000   0.6604   0.01378   0.00748  -0.0678  0.5879  1.0000  -1.2104   0.0000   0.0000   0.0000   0.3477
   3.100   0.6683   0.01381   0.00751  -0.0673  0.5841  1.0000  -1.2428   0.0000   0.0000   0.0000   0.3456
   3.200   0.6764   0.01384   0.00754  -0.0668  0.5800  1.0000  -1.2754   0.0000   0.0000   0.0000   0.3436
   3.300   0.6844   0.01388   0.00757  -0.0663  0.5755  1.0000  -1.3084   0.0000   0.0000   0.0000   0.3415
   3.400   0.6926   0.01392   0.00760  -0.0658  0.5707  1.0000  -1.3418   0.0000   0.0000   0.0000   0.3395
   3.500   0.7007   0.01395   0.00762  -0.0652  0.5655  1.0000  -1.3754   0.0000   0.0000   0.0000   0.3375
   3.600   0.7090   0.01399   0.00762  -0.0647  0.5599  1.0000  -1.4097   0.0000   0.0000   0.0000   0.3356
   3.700   0.7174   0.01402   0.00761  -0.0642  0.5539  1.0000  -1.4445   0.0000   0.0000   0.0000   0.3337
   3.800   0.7259   0.01405   0.00758  -0.0636  0.5475  1.0000  -1.4799   0.0000   0.0000   0.0000   0.3317
   3.900   0.7344   0.01409   0.00754  -0.0631  0.5402  1.0000  -1.5155   0.0000   0.0000   0.0000   0.3299
   4.000   0.7427   0.01416   0.00751  -0.0625  0.5314  1.0000  -1.5511   0.0000   0.0000   0.0000   0.3280
   4.100   0.7515   0.01430   0.00755  -0.0620  0.5198  1.0000  -1.5873   0.0000   0.0000   0.0000   0.3263
   4.200   0.7611   0.01464   0.00783  -0.0619  0.5048  1.0000  -1.6240   0.0000   0.0000   0.0000   0.3250
   4.300   0.7692   0.01473   0.00792  -0.0614  0.4987  1.0000  -1.6596   0.0000   0.0000   0.0000   0.3233
   4.400   0.7768   0.01463   0.00782  -0.0606  0.4965  1.0000  -1.6954   0.0000   0.0000   0.0000   0.3215
   4.500   0.7842   0.01457   0.00774  -0.0599  0.4935  1.0000  -1.7311   0.0000   0.0000   0.0000   0.3197
   4.600   0.7917   0.01453   0.00771  -0.0591  0.4897  1.0000  -1.7667   0.0000   0.0000   0.0000   0.3179
   4.700   0.7992   0.01451   0.00769  -0.0584  0.4850  1.0000  -1.8027   0.0000   0.0000   0.0000   0.3162
   4.800   0.8068   0.01451   0.00768  -0.0577  0.4795  1.0000  -1.8389   0.0000   0.0000   0.0000   0.3145
   4.900   0.8145   0.01453   0.00768  -0.0571  0.4733  1.0000  -1.8756   0.0000   0.0000   0.0000   0.3129
   5.000   0.8225   0.01456   0.00769  -0.0564  0.4665  1.0000  -1.9127   0.0000   0.0000   0.0000   0.3113
   5.100   0.8305   0.01461   0.00769  -0.0558  0.4595  1.0000  -1.9502   0.0000   0.0000   0.0000   0.3098
   5.200   0.8384   0.01468   0.00770  -0.0552  0.4522  1.0000  -1.9878   0.0000   0.0000   0.0000   0.3083
   5.300   0.8462   0.01476   0.00770  -0.0545  0.4446  1.0000  -2.0253   0.0000   0.0000   0.0000   0.3068
   5.400   0.8538   0.01486   0.00772  -0.0538  0.4368  1.0000  -2.0624   0.0000   0.0000   0.0000   0.3053
   5.500   0.8611   0.01499   0.00778  -0.0531  0.4286  1.0000  -2.0990   0.0000   0.0000   0.0000   0.3038
   5.600   0.8687   0.01515   0.00787  -0.0524  0.4198  1.0000  -2.1360   0.0000   0.0000   0.0000   0.3024
   5.700   0.8773   0.01535   0.00802  -0.0520  0.4100  1.0000  -2.1746   0.0000   0.0000   0.0000   0.3012
   5.800   0.8868   0.01561   0.00825  -0.0518  0.3998  1.0000  -2.2150   0.0000   0.0000   0.0000   0.3002
   5.900   0.8948   0.01563   0.00830  -0.0512  0.3984  1.0000  -2.2539   0.0000   0.0000   0.0000   0.2989
   6.000   0.9027   0.01566   0.00836  -0.0506  0.3966  1.0000  -2.2929   0.0000   0.0000   0.0000   0.2976
   6.100   0.9107   0.01570   0.00842  -0.0500  0.3941  1.0000  -2.3321   0.0000   0.0000   0.0000   0.2964
   6.200   0.9186   0.01574   0.00849  -0.0494  0.3908  1.0000  -2.3715   0.0000   0.0000   0.0000   0.2951
   6.300   0.9267   0.01580   0.00857  -0.0489  0.3867  1.0000  -2.4112   0.0000   0.0000   0.0000   0.2940
   6.400   0.9347   0.01587   0.00865  -0.0483  0.3819  1.0000  -2.4510   0.0000   0.0000   0.0000   0.2928
   6.500   0.9427   0.01595   0.00874  -0.0477  0.3762  1.0000  -2.4909   0.0000   0.0000   0.0000   0.2916
   6.600   0.9507   0.01605   0.00882  -0.0472  0.3699  1.0000  -2.5308   0.0000   0.0000   0.0000   0.2905
   6.700   0.9586   0.01616   0.00890  -0.0466  0.3629  1.0000  -2.5707   0.0000   0.0000   0.0000   0.2893
   6.800   0.9662   0.01628   0.00897  -0.0460  0.3553  1.0000  -2.6103   0.0000   0.0000   0.0000   0.2882
   6.900   0.9736   0.01641   0.00905  -0.0453  0.3471  1.0000  -2.6496   0.0000   0.0000   0.0000   0.2870
   7.000   0.9805   0.01657   0.00912  -0.0445  0.3382  1.0000  -2.6879   0.0000   0.0000   0.0000   0.2857
   7.100   0.9867   0.01676   0.00921  -0.0437  0.3282  1.0000  -2.7247   0.0000   0.0000   0.0000   0.2845
   7.200   0.9927   0.01696   0.00934  -0.0428  0.3164  1.0000  -2.7607   0.0000   0.0000   0.0000   0.2832
   7.300   0.9997   0.01721   0.00954  -0.0421  0.3033  1.0000  -2.7985   0.0000   0.0000   0.0000   0.2820
   7.400   1.0077   0.01734   0.00968  -0.0416  0.2973  1.0000  -2.8394   0.0000   0.0000   0.0000   0.2811
   7.500   1.0156   0.01744   0.00980  -0.0410  0.2926  1.0000  -2.8804   0.0000   0.0000   0.0000   0.2801
   7.600   1.0232   0.01757   0.00993  -0.0405  0.2865  1.0000  -2.9208   0.0000   0.0000   0.0000   0.2791
   7.700   1.0302   0.01773   0.01005  -0.0398  0.2792  1.0000  -2.9600   0.0000   0.0000   0.0000   0.2780
   7.800   1.0362   0.01793   0.01018  -0.0390  0.2712  1.0000  -2.9972   0.0000   0.0000   0.0000   0.2768
   7.900   1.0409   0.01818   0.01032  -0.0380  0.2631  1.0000  -3.0318   0.0000   0.0000   0.0000   0.2755
   8.000   1.0447   0.01848   0.01048  -0.0368  0.2546  1.0000  -3.0639   0.0000   0.0000   0.0000   0.2741
   8.100   1.0506   0.01872   0.01067  -0.0360  0.2474  1.0000  -3.1003   0.0000   0.0000   0.0000   0.2730
   8.200   1.0579   0.01891   0.01086  -0.0354  0.2408  1.0000  -3.1397   0.0000   0.0000   0.0000   0.2721
   8.300   1.0642   0.01914   0.01105  -0.0347  0.2331  1.0000  -3.1768   0.0000   0.0000   0.0000   0.2711
   8.400   1.0679   0.01953   0.01186  -0.0334  0.2228  1.0000  -3.2376   0.0000   0.0000   0.0000   0.2696
   8.500   1.0707   0.01990   0.01215  -0.0322  0.2133  1.0000  -3.2741   0.0000   0.0000   0.0000   0.2682
   8.600   1.0729   0.02029   0.01247  -0.0308  0.2020  1.0000  -3.3040   0.0000   0.0000   0.0000   0.2667
   8.700   1.0800   0.02050   0.01272  -0.0302  0.1942  1.0000  -3.3438   0.0000   0.0000   0.0000   0.2659
   8.800   1.0850   0.02077   0.01299  -0.0293  0.1822  1.0000  -3.3768   0.0000   0.0000   0.0000   0.2648
   8.900   1.0849   0.02123   0.01334  -0.0277  0.1673  1.0000  -3.3969   0.0000   0.0000   0.0000   0.2631
   9.000   1.0815   0.02184   0.01381  -0.0256  0.1496  1.0000  -3.4063   0.0000   0.0000   0.0000   0.2611
   9.100   1.0810   0.02243   0.01427  -0.0240  0.1301  1.0000  -3.4156   0.0000   0.0000   0.0000   0.2594
   9.200   1.0681   0.02376   0.01530  -0.0207  0.0971  1.0000  -3.3707   0.0000   0.0000   0.0000   0.2564
   9.300   1.0663   0.02449   0.01595  -0.0190  0.0871  1.0000  -3.3703   0.0000   0.0000   0.0000   0.2547
   9.400   1.0620   0.02534   0.01667  -0.0172  0.0811  1.0000  -3.3697   0.0000   0.0000   0.0000   0.2529
   9.500   1.0543   0.02646   0.01772  -0.0149  0.0748  1.0000  -3.3457   0.0000   0.0000   0.0000   0.2506
   9.600   1.0594   0.02682   0.01811  -0.0142  0.0731  1.0000  -3.3747   0.0000   0.0000   0.0000   0.2498
   9.700   1.0635   0.02724   0.01855  -0.0135  0.0711  1.0000  -3.4017   0.0000   0.0000   0.0000   0.2489
   9.800   1.0668   0.02771   0.01904  -0.0127  0.0691  1.0000  -3.4276   0.0000   0.0000   0.0000   0.2479
   9.900   1.0698   0.02820   0.01954  -0.0119  0.0672  1.0000  -3.4542   0.0000   0.0000   0.0000   0.2470
  10.000   1.0729   0.02869   0.02004  -0.0112  0.0654  1.0000  -3.4821   0.0000   0.0000   0.0000   0.2461
  10.100   1.0757   0.02922   0.02056  -0.0105  0.0636  1.0000  -3.5098   0.0000   0.0000   0.0000   0.2452
  10.200   1.0782   0.02978   0.02110  -0.0097  0.0619  1.0000  -3.5369   0.0000   0.0000   0.0000   0.2443
  10.300   1.0804   0.03037   0.02166  -0.0090  0.0603  1.0000  -3.5628   0.0000   0.0000   0.0000   0.2435
  10.400   1.0824   0.03100   0.02228  -0.0083  0.0586  1.0000  -3.5868   0.0000   0.0000   0.0000   0.2426
  10.500   1.0840   0.03167   0.02294  -0.0075  0.0570  1.0000  -3.6076   0.0000   0.0000   0.0000   0.2417
  10.600   1.0851   0.03239   0.02367  -0.0067  0.0555  1.0000  -3.6252   0.0000   0.0000   0.0000   0.2408
  10.700   1.0860   0.03316   0.02445  -0.0059  0.0541  1.0000  -3.6399   0.0000   0.0000   0.0000   0.2399
  10.800   1.0866   0.03397   0.02528  -0.0051  0.0529  1.0000  -3.6523   0.0000   0.0000   0.0000   0.2389
  10.900   1.0871   0.03480   0.02615  -0.0042  0.0518  1.0000  -3.6628   0.0000   0.0000   0.0000   0.2379
  11.000   1.0874   0.03566   0.02706  -0.0033  0.0509  1.0000  -3.6717   0.0000   0.0000   0.0000   0.2369
  11.100   1.0881   0.03657   0.02802  -0.0025  0.0501  1.0000  -3.6797   0.0000   0.0000   0.0000   0.2360
  11.200   1.0912   0.03719   0.02864  -0.0020  0.0499  1.0000  -3.7054   0.0000   0.0000   0.0000   0.2354
  11.300   1.0948   0.03778   0.02927  -0.0016  0.0497  1.0000  -3.7329   0.0000   0.0000   0.0000   0.2348
  11.400   1.0985   0.03838   0.02990  -0.0011  0.0496  1.0000  -3.7602   0.0000   0.0000   0.0000   0.2342
  11.500   1.1022   0.03898   0.03053  -0.0007  0.0495  1.0000  -3.7878   0.0000   0.0000   0.0000   0.2336
  11.600   1.1061   0.03959   0.03117  -0.0003  0.0493  1.0000  -3.8155   0.0000   0.0000   0.0000   0.2331
  11.700   1.1100   0.04020   0.03182   0.0001  0.0492  1.0000  -3.8431   0.0000   0.0000   0.0000   0.2325
  11.800   1.1139   0.04082   0.03248   0.0005  0.0490  1.0000  -3.8707   0.0000   0.0000   0.0000   0.2320
  11.900   1.1178   0.04145   0.03314   0.0009  0.0488  1.0000  -3.8982   0.0000   0.0000   0.0000   0.2315
  12.000   1.1215   0.04210   0.03383   0.0013  0.0487  1.0000  -3.9249   0.0000   0.0000   0.0000   0.2310
  12.100   1.1251   0.04277   0.03454   0.0017  0.0485  1.0000  -3.9514   0.0000   0.0000   0.0000   0.2305
  12.200   1.1286   0.04345   0.03526   0.0020  0.0484  1.0000  -3.9774   0.0000   0.0000   0.0000   0.2300
  12.300   1.1320   0.04415   0.03599   0.0024  0.0482  1.0000  -4.0031   0.0000   0.0000   0.0000   0.2295
  12.400   1.1353   0.04486   0.03675   0.0027  0.0481  1.0000  -4.0282   0.0000   0.0000   0.0000   0.2290
  12.500   1.1384   0.04559   0.03752   0.0031  0.0479  1.0000  -4.0529   0.0000   0.0000   0.0000   0.2285
  12.600   1.1413   0.04634   0.03831   0.0034  0.0477  1.0000  -4.0770   0.0000   0.0000   0.0000   0.2280
  12.700   1.1441   0.04711   0.03913   0.0037  0.0476  1.0000  -4.1005   0.0000   0.0000   0.0000   0.2276
  12.800   1.1466   0.04792   0.03998   0.0040  0.0474  1.0000  -4.1230   0.0000   0.0000   0.0000   0.2271
  12.900   1.1482   0.04881   0.04092   0.0043  0.0473  1.0000  -4.1427   0.0000   0.0000   0.0000   0.2267
  13.000   1.1493   0.04975   0.04191   0.0046  0.0471  1.0000  -4.1608   0.0000   0.0000   0.0000   0.2263
  13.100   1.1505   0.05070   0.04290   0.0048  0.0470  1.0000  -4.1789   0.0000   0.0000   0.0000   0.2259
  13.200   1.1525   0.05218   0.04466   0.0058  0.0485  1.0000  -4.1279   0.0000   0.0000   0.0000   0.2250
  13.300   1.1525   0.05334   0.04589   0.0061  0.0486  1.0000  -4.1320   0.0000   0.0000   0.0000   0.2245
  13.400   1.1526   0.05446   0.04708   0.0063  0.0486  1.0000  -4.1400   0.0000   0.0000   0.0000   0.2241
  13.500   1.1527   0.05558   0.04826   0.0065  0.0486  1.0000  -4.1497   0.0000   0.0000   0.0000   0.2237
  13.600   1.1527   0.05670   0.04944   0.0067  0.0486  1.0000  -4.1600   0.0000   0.0000   0.0000   0.2234
  13.700   1.1526   0.05782   0.05063   0.0069  0.0485  1.0000  -4.1705   0.0000   0.0000   0.0000   0.2230
  13.800   1.1523   0.05897   0.05184   0.0070  0.0485  1.0000  -4.1806   0.0000   0.0000   0.0000   0.2227
  13.900   1.1516   0.06014   0.05307   0.0071  0.0484  1.0000  -4.1899   0.0000   0.0000   0.0000   0.2224
  14.000   1.1505   0.06133   0.05433   0.0072  0.0484  1.0000  -4.1978   0.0000   0.0000   0.0000   0.2221
  14.100   1.1490   0.06257   0.05563   0.0073  0.0483  1.0000  -4.2046   0.0000   0.0000   0.0000   0.2218
  14.200   1.1472   0.06387   0.05700   0.0073  0.0482  1.0000  -4.2099   0.0000   0.0000   0.0000   0.2216
  14.300   1.1449   0.06525   0.05845   0.0073  0.0482  1.0000  -4.2135   0.0000   0.0000   0.0000   0.2214
  14.400   1.1406   0.06687   0.06015   0.0071  0.0481  1.0000  -4.2101   0.0000   0.0000   0.0000   0.2213
  14.500   1.1357   0.06864   0.06198   0.0067  0.0481  1.0000  -4.2038   0.0000   0.0000   0.0000   0.2213
  14.600   1.1318   0.07034   0.06376   0.0064  0.0481  1.0000  -4.2000   0.0000   0.0000   0.0000   0.2214
  14.700   1.1282   0.07202   0.06551   0.0061  0.0480  1.0000  -4.1972   0.0000   0.0000   0.0000   0.2214
  14.800   1.1246   0.07373   0.06728   0.0057  0.0480  1.0000  -4.1939   0.0000   0.0000   0.0000   0.2215
  14.900   1.1209   0.07549   0.06911   0.0053  0.0479  1.0000  -4.1894   0.0000   0.0000   0.0000   0.2216
  15.000   1.1168   0.07734   0.07103   0.0049  0.0479  1.0000  -4.1828   0.0000   0.0000   0.0000   0.2218
  15.100   1.1120   0.07930   0.07306   0.0043  0.0478  1.0000  -4.1732   0.0000   0.0000   0.0000   0.2220
  15.200   1.1064   0.08140   0.07525   0.0036  0.0478  1.0000  -4.1596   0.0000   0.0000   0.0000   0.2224
  15.300   1.0973   0.08408   0.07801   0.0025  0.0478  1.0000  -4.1311   0.0000   0.0000   0.0000   0.2231
  15.400   1.0876   0.08691   0.08093   0.0013  0.0478  1.0000  -4.0984   0.0000   0.0000   0.0000   0.2239
  15.500   1.0802   0.08947   0.08357   0.0003  0.0478  1.0000  -4.0737   0.0000   0.0000   0.0000   0.2247
  15.600   1.0732   0.09199   0.08617  -0.0008  0.0478  1.0000  -4.0493   0.0000   0.0000   0.0000   0.2254
  15.700   1.0657   0.09461   0.08887  -0.0019  0.0478  1.0000  -4.0216   0.0000   0.0000   0.0000   0.2262
  15.800   1.0571   0.09744   0.09177  -0.0032  0.0479  1.0000  -3.9876   0.0000   0.0000   0.0000   0.2272
  15.900   1.0467   0.10061   0.09503  -0.0047  0.0479  1.0000  -3.9436   0.0000   0.0000   0.0000   0.2285
  16.000   1.0288   0.10529   0.09983  -0.0073  0.0481  1.0000  -3.8605   0.0000   0.0000   0.0000   0.2309
  16.100   1.0124   0.10989   0.10453  -0.0099  0.0482  1.0000  -3.7791   0.0000   0.0000   0.0000   0.2333
  16.200   0.9989   0.11395   0.10868  -0.0120  0.0483  1.0000  -3.7085   0.0000   0.0000   0.0000   0.2354
  16.300   0.9836   0.11845   0.11328  -0.0145  0.0484  1.0000  -3.6236   0.0000   0.0000   0.0000   0.2380
  16.400   0.9627   0.12437   0.11930  -0.0179  0.0485  1.0000  -3.5004   0.0000   0.0000   0.0000   0.2417
  16.500   0.9363   0.13202   0.12705  -0.0226  0.0483  1.0000  -3.3439   0.0000   0.0000   0.0000   0.2473
  16.700   0.8697   0.15241   0.14747  -0.0345  0.0474  1.0000  -2.8518   0.0000   0.0000   0.0000   0.2634
  16.800   0.8450   0.16153   0.15661  -0.0387  0.0480  1.0000  -2.5959   0.0000   0.0000   0.0000   0.2699
  16.900   0.8370   0.16598   0.16105  -0.0406  0.0482  1.0000  -2.4963   0.0000   0.0000   0.0000   0.2727
  17.000   0.8322   0.16952   0.16460  -0.0422  0.0483  1.0000  -2.4273   0.0000   0.0000   0.0000   0.2748
  17.100   0.8290   0.17263   0.16770  -0.0436  0.0483  1.0000  -2.3733   0.0000   0.0000   0.0000   0.2766
  17.200   0.8268   0.17547   0.17054  -0.0448  0.0483  1.0000  -2.3287   0.0000   0.0000   0.0000   0.2782
  17.300   0.8254   0.17813   0.17319  -0.0460  0.0483  1.0000  -2.2907   0.0000   0.0000   0.0000   0.2797
  17.400   0.8244   0.18064   0.17569  -0.0471  0.0483  1.0000  -2.2575   0.0000   0.0000   0.0000   0.2810
  17.500   0.8239   0.18304   0.17809  -0.0481  0.0482  1.0000  -2.2281   0.0000   0.0000   0.0000   0.2822
  17.600   0.8237   0.18536   0.18040  -0.0492  0.0481  1.0000  -2.2017   0.0000   0.0000   0.0000   0.2834
  17.700   0.8237   0.18761   0.18265  -0.0502  0.0480  1.0000  -2.1776   0.0000   0.0000   0.0000   0.2845
  17.800   0.8240   0.18980   0.18484  -0.0512  0.0479  1.0000  -2.1553   0.0000   0.0000   0.0000   0.2856
  17.900   0.8244   0.19196   0.18699  -0.0521  0.0478  1.0000  -2.1344   0.0000   0.0000   0.0000   0.2866
  18.000   0.8249   0.19409   0.18912  -0.0531  0.0476  1.0000  -2.1145   0.0000   0.0000   0.0000   0.2876
  18.100   0.8256   0.19620   0.19122  -0.0541  0.0474  1.0000  -2.0954   0.0000   0.0000   0.0000   0.2886
  18.200   0.8263   0.19830   0.19332  -0.0550  0.0471  1.0000  -2.0768   0.0000   0.0000   0.0000   0.2896
  18.300   0.8270   0.20040   0.19541  -0.0560  0.0469  1.0000  -2.0585   0.0000   0.0000   0.0000   0.2906
  18.400   0.8278   0.20249   0.19750  -0.0569  0.0466  1.0000  -2.0403   0.0000   0.0000   0.0000   0.2916
  18.500   0.8286   0.20459   0.19960  -0.0579  0.0462  1.0000  -2.0222   0.0000   0.0000   0.0000   0.2925
  18.600   0.8294   0.20670   0.20170  -0.0589  0.0458  1.0000  -2.0041   0.0000   0.0000   0.0000   0.2935
  18.700   0.8302   0.20882   0.20381  -0.0598  0.0454  1.0000  -1.9860   0.0000   0.0000   0.0000   0.2945
  18.800   0.8310   0.21094   0.20593  -0.0608  0.0449  1.0000  -1.9680   0.0000   0.0000   0.0000   0.2955
  18.900   0.8318   0.21306   0.20804  -0.0618  0.0444  1.0000  -1.9505   0.0000   0.0000   0.0000   0.2965
  19.000   0.8325   0.21517   0.21015  -0.0628  0.0438  1.0000  -1.9336   0.0000   0.0000   0.0000   0.2975
  19.100   0.8333   0.21727   0.21225  -0.0637  0.0431  1.0000  -1.9176   0.0000   0.0000   0.0000   0.2984
  19.200   0.8339   0.21942   0.21439  -0.0647  0.0424  1.0000  -1.9005   0.0000   0.0000   0.0000   0.2994
  19.300   0.8346   0.22152   0.21649  -0.0657  0.0417  1.0000  -1.8857   0.0000   0.0000   0.0000   0.3004
  19.400   0.8354   0.22356   0.21852  -0.0667  0.0408  1.0000  -1.8735   0.0000   0.0000   0.0000   0.3013
  19.500   0.8364   0.22552   0.22048  -0.0676  0.0399  1.0000  -1.8653   0.0000   0.0000   0.0000   0.3022
  19.600   0.8377   0.22739   0.22234  -0.0684  0.0389  1.0000  -1.8611   0.0000   0.0000   0.0000   0.3029
  19.700   0.8391   0.22917   0.22412  -0.0692  0.0380  1.0000  -1.8610   0.0000   0.0000   0.0000   0.3035
  19.800   0.8408   0.23086   0.22580  -0.0699  0.0370  1.0000  -1.8651   0.0000   0.0000   0.0000   0.3040
  19.900   0.8428   0.23245   0.22739  -0.0706  0.0360  1.0000  -1.8736   0.0000   0.0000   0.0000   0.3045
  20.000   0.8449   0.23393   0.22887  -0.0712  0.0350  1.0000  -1.8867   0.0000   0.0000   0.0000   0.3048
  20.100   0.8473   0.23531   0.23024  -0.0718  0.0341  1.0000  -1.9044   0.0000   0.0000   0.0000   0.3050
  20.200   0.8500   0.23656   0.23148  -0.0723  0.0332  1.0000  -1.9268   0.0000   0.0000   0.0000   0.3051
  20.500   0.8511   0.24389   0.23896  -0.0750  0.0346  1.0000  -1.8261   0.0000   0.0000   0.0000   0.3079
  20.600   0.8524   0.24585   0.24093  -0.0757  0.0343  1.0000  -1.8198   0.0000   0.0000   0.0000   0.3084
  20.700   0.8541   0.24765   0.24273  -0.0764  0.0338  1.0000  -1.8227   0.0000   0.0000   0.0000   0.3088
  20.800   0.8558   0.24942   0.24450  -0.0770  0.0332  1.0000  -1.8292   0.0000   0.0000   0.0000   0.3092
  20.900   0.8575   0.25119   0.24628  -0.0776  0.0327  1.0000  -1.8366   0.0000   0.0000   0.0000   0.3095
  21.000   0.8591   0.25305   0.24814  -0.0782  0.0322  1.0000  -1.8422   0.0000   0.0000   0.0000   0.3099
  21.100   0.8604   0.25512   0.25021  -0.0789  0.0319  1.0000  -1.8416   0.0000   0.0000   0.0000   0.3103
  21.200   0.8606   0.25778   0.25287  -0.0797  0.0319  1.0000  -1.8224   0.0000   0.0000   0.0000   0.3111
  21.300   0.8560   0.26322   0.25831  -0.0812  0.0335  1.0000  -1.7173   0.0000   0.0000   0.0000   0.3135
  21.600   0.8544   0.27935   0.27447  -0.0798  0.0492  1.0000  -1.5851   0.0000   0.0000   0.0000   0.3121
  21.700   0.8554   0.28173   0.27685  -0.0804  0.0492  1.0000  -1.5779   0.0000   0.0000   0.0000   0.3126
  21.800   0.8564   0.28406   0.27919  -0.0810  0.0492  1.0000  -1.5708   0.0000   0.0000   0.0000   0.3131
  21.900   0.8575   0.28635   0.28148  -0.0816  0.0492  1.0000  -1.5638   0.0000   0.0000   0.0000   0.3135
  22.000   0.8584   0.28860   0.28373  -0.0822  0.0492  1.0000  -1.5569   0.0000   0.0000   0.0000   0.3140
  22.100   0.8594   0.29082   0.28595  -0.0829  0.0491  1.0000  -1.5502   0.0000   0.0000   0.0000   0.3145
  22.200   0.8603   0.29300   0.28814  -0.0835  0.0491  1.0000  -1.5435   0.0000   0.0000   0.0000   0.3150
  22.300   0.8612   0.29514   0.29028  -0.0842  0.0490  1.0000  -1.5369   0.0000   0.0000   0.0000   0.3155
  22.400   0.8621   0.29723   0.29238  -0.0848  0.0490  1.0000  -1.5304   0.0000   0.0000   0.0000   0.3160
  22.500   0.8629   0.29928   0.29442  -0.0855  0.0489  1.0000  -1.5237   0.0000   0.0000   0.0000   0.3165
  22.600   0.8636   0.30124   0.29639  -0.0861  0.0488  1.0000  -1.5166   0.0000   0.0000   0.0000   0.3171
  22.700   0.8639   0.30314   0.29829  -0.0869  0.0487  1.0000  -1.5067   0.0000   0.0000   0.0000   0.3177
  22.800   0.8636   0.30492   0.30007  -0.0877  0.0485  1.0000  -1.4932   0.0000   0.0000   0.0000   0.3186
  22.900   0.8633   0.30659   0.30174  -0.0887  0.0483  1.0000  -1.4783   0.0000   0.0000   0.0000   0.3196
  23.000   0.8628   0.30813   0.30329  -0.0897  0.0479  1.0000  -1.4607   0.0000   0.0000   0.0000   0.3207
  23.100   0.8624   0.30956   0.30472  -0.0911  0.0472  1.0000  -1.4381   0.0000   0.0000   0.0000   0.3221
  23.200   0.8623   0.31123   0.30639  -0.0924  0.0459  1.0000  -1.4141   0.0000   0.0000   0.0000   0.3236
  23.300   0.8626   0.31323   0.30839  -0.0934  0.0447  1.0000  -1.3992   0.0000   0.0000   0.0000   0.3245
  23.400   0.8630   0.31528   0.31045  -0.0941  0.0438  1.0000  -1.3896   0.0000   0.0000   0.0000   0.3252
  23.500   0.8633   0.31734   0.31251  -0.0947  0.0429  1.0000  -1.3824   0.0000   0.0000   0.0000   0.3257
  23.600   0.8636   0.31937   0.31455  -0.0952  0.0422  1.0000  -1.3763   0.0000   0.0000   0.0000   0.3261
  23.700   0.8638   0.32139   0.31657  -0.0957  0.0416  1.0000  -1.3710   0.0000   0.0000   0.0000   0.3265
  23.800   0.8639   0.32339   0.31858  -0.0962  0.0410  1.0000  -1.3661   0.0000   0.0000   0.0000   0.3269
  23.900   0.8640   0.32537   0.32057  -0.0966  0.0404  1.0000  -1.3614   0.0000   0.0000   0.0000   0.3273
  24.000   0.8640   0.32733   0.32253  -0.0970  0.0399  1.0000  -1.3568   0.0000   0.0000   0.0000   0.3276
  24.100   0.8638   0.32927   0.32447  -0.0974  0.0394  1.0000  -1.3523   0.0000   0.0000   0.0000   0.3279
  24.200   0.8636   0.33118   0.32638  -0.0978  0.0390  1.0000  -1.3478   0.0000   0.0000   0.0000   0.3283
  24.300   0.8632   0.33306   0.32827  -0.0981  0.0385  1.0000  -1.3432   0.0000   0.0000   0.0000   0.3286
  24.400   0.8627   0.33490   0.33012  -0.0984  0.0381  1.0000  -1.3384   0.0000   0.0000   0.0000   0.3289
  24.500   0.8620   0.33671   0.33194  -0.0987  0.0378  1.0000  -1.3335   0.0000   0.0000   0.0000   0.3291
  24.600   0.8611   0.33848   0.33371  -0.0989  0.0374  1.0000  -1.3283   0.0000   0.0000   0.0000   0.3294
  24.700   0.8600   0.34019   0.33543  -0.0991  0.0371  1.0000  -1.3228   0.0000   0.0000   0.0000   0.3297
  24.800   0.8587   0.34185   0.33710  -0.0993  0.0367  1.0000  -1.3168   0.0000   0.0000   0.0000   0.3299
  24.900   0.8570   0.34343   0.33868  -0.0994  0.0364  1.0000  -1.3104   0.0000   0.0000   0.0000   0.3302
  25.000   0.8550   0.34491   0.34018  -0.0994  0.0361  1.0000  -1.3032   0.0000   0.0000   0.0000   0.3304
  25.100   0.8525   0.34628   0.34156  -0.0994  0.0359  1.0000  -1.2952   0.0000   0.0000   0.0000   0.3306
  25.200   0.8494   0.34748   0.34277  -0.0992  0.0356  1.0000  -1.2859   0.0000   0.0000   0.0000   0.3308
  25.300   0.8069   0.33891   0.33430  -0.0926  0.0357  1.0000  -1.1962   0.0000   0.0000   0.0000   0.3301
  25.400   0.7962   0.33739   0.33280  -0.0912  0.0355  1.0000  -1.1717   0.0000   0.0000   0.0000   0.3301
  25.500   0.7890   0.33665   0.33208  -0.0903  0.0353  1.0000  -1.1541   0.0000   0.0000   0.0000   0.3302
  25.600   0.7832   0.33623   0.33168  -0.0897  0.0351  1.0000  -1.1396   0.0000   0.0000   0.0000   0.3304
  25.700   0.7782   0.33600   0.33147  -0.0892  0.0349  1.0000  -1.1268   0.0000   0.0000   0.0000   0.3305
  25.800   0.7739   0.33589   0.33137  -0.0888  0.0346  1.0000  -1.1154   0.0000   0.0000   0.0000   0.3307
  25.900   0.7701   0.33587   0.33136  -0.0885  0.0344  1.0000  -1.1049   0.0000   0.0000   0.0000   0.3309
  26.000   0.7666   0.33591   0.33142  -0.0882  0.0342  1.0000  -1.0952   0.0000   0.0000   0.0000   0.3311
  26.100   0.7634   0.33599   0.33152  -0.0880  0.0341  1.0000  -1.0861   0.0000   0.0000   0.0000   0.3313
  26.200   0.7605   0.33612   0.33165  -0.0878  0.0339  1.0000  -1.0775   0.0000   0.0000   0.0000   0.3315
  26.300   0.7577   0.33628   0.33183  -0.0877  0.0337  1.0000  -1.0693   0.0000   0.0000   0.0000   0.3317
  26.400   0.7552   0.33648   0.33204  -0.0876  0.0335  1.0000  -1.0616   0.0000   0.0000   0.0000   0.3320
  26.500   0.7528   0.33670   0.33227  -0.0875  0.0333  1.0000  -1.0542   0.0000   0.0000   0.0000   0.3322
  26.600   0.7506   0.33695   0.33253  -0.0874  0.0332  1.0000  -1.0472   0.0000   0.0000   0.0000   0.3324
  26.700   0.7485   0.33722   0.33281  -0.0873  0.0330  1.0000  -1.0404   0.0000   0.0000   0.0000   0.3326
  26.800   0.7469   0.33740   0.33300  -0.0873  0.0325  1.0000  -1.0404   0.0000   0.0000   0.0000   0.3328
  26.900   0.7456   0.33755   0.33317  -0.0873  0.0319  1.0000  -1.0433   0.0000   0.0000   0.0000   0.3328
  27.000   0.7444   0.33770   0.33332  -0.0872  0.0314  1.0000  -1.0473   0.0000   0.0000   0.0000   0.3329
  27.100   0.7433   0.33785   0.33348  -0.0872  0.0309  1.0000  -1.0523   0.0000   0.0000   0.0000   0.3329
  27.200   0.7424   0.33799   0.33362  -0.0872  0.0304  1.0000  -1.0585   0.0000   0.0000   0.0000   0.3329
  27.300   0.7416   0.33812   0.33377  -0.0871  0.0299  1.0000  -1.0659   0.0000   0.0000   0.0000   0.3329
  27.400   0.7409   0.33825   0.33391  -0.0870  0.0295  1.0000  -1.0745   0.0000   0.0000   0.0000   0.3328
  27.500   0.7403   0.33839   0.33405  -0.0870  0.0291  1.0000  -1.0843   0.0000   0.0000   0.0000   0.3326
  27.600   0.7398   0.33853   0.33420  -0.0869  0.0287  1.0000  -1.0954   0.0000   0.0000   0.0000   0.3325
  27.700   0.7395   0.33869   0.33437  -0.0868  0.0283  1.0000  -1.1078   0.0000   0.0000   0.0000   0.3322
  27.800   0.7393   0.33890   0.33458  -0.0867  0.0280  1.0000  -1.1215   0.0000   0.0000   0.0000   0.3320
  27.900   0.7393   0.33917   0.33486  -0.0865  0.0276  1.0000  -1.1367   0.0000   0.0000   0.0000   0.3316
  28.000   0.7395   0.33956   0.33526  -0.0863  0.0273  1.0000  -1.1534   0.0000   0.0000   0.0000   0.3312
  28.100   0.7400   0.34016   0.33587  -0.0861  0.0270  1.0000  -1.1715   0.0000   0.0000   0.0000   0.3306
  28.200   0.7409   0.34119   0.33690  -0.0858  0.0266  1.0000  -1.1912   0.0000   0.0000   0.0000   0.3300
  28.300   0.7415   0.34374   0.33947  -0.0853  0.0260  1.0000  -1.2026   0.0000   0.0000   0.0000   0.3291
  28.400   0.7270   0.35061   0.34631  -0.0847  0.0250  1.0000  -1.0476   0.0000   0.0000   0.0000   0.3316
  28.500   0.7256   0.35078   0.34649  -0.0849  0.0249  1.0000  -1.0392   0.0000   0.0000   0.0000   0.3321
  28.600   0.7242   0.35096   0.34668  -0.0851  0.0249  1.0000  -1.0310   0.0000   0.0000   0.0000   0.3325
  28.700   0.7229   0.35115   0.34688  -0.0853  0.0249  1.0000  -1.0232   0.0000   0.0000   0.0000   0.3330
  28.800   0.7216   0.35131   0.34705  -0.0855  0.0249  1.0000  -1.0153   0.0000   0.0000   0.0000   0.3334
  28.900   0.7204   0.35147   0.34722  -0.0858  0.0248  1.0000  -1.0077   0.0000   0.0000   0.0000   0.3339
  29.000   0.7192   0.35163   0.34739  -0.0860  0.0248  1.0000  -1.0004   0.0000   0.0000   0.0000   0.3343
  29.100   0.7181   0.35180   0.34757  -0.0863  0.0248  1.0000  -0.9934   0.0000   0.0000   0.0000   0.3348
  29.200   0.7171   0.35198   0.34776  -0.0865  0.0247  1.0000  -0.9866   0.0000   0.0000   0.0000   0.3352
  29.300   0.7161   0.35216   0.34795  -0.0868  0.0247  1.0000  -0.9802   0.0000   0.0000   0.0000   0.3357
  29.400   0.7152   0.35234   0.34814  -0.0871  0.0247  1.0000  -0.9740   0.0000   0.0000   0.0000   0.3361
  29.500   0.7142   0.35248   0.34829  -0.0874  0.0246  1.0000  -0.9676   0.0000   0.0000   0.0000   0.3366
  29.600   0.7134   0.35262   0.34843  -0.0877  0.0246  1.0000  -0.9614   0.0000   0.0000   0.0000   0.3371
  29.700   0.7125   0.35275   0.34858  -0.0880  0.0245  1.0000  -0.9556   0.0000   0.0000   0.0000   0.3375
  29.800   0.7118   0.35289   0.34872  -0.0883  0.0245  1.0000  -0.9500   0.0000   0.0000   0.0000   0.3380
  29.900   0.7111   0.35301   0.34886  -0.0886  0.0244  1.0000  -0.9447   0.0000   0.0000   0.0000   0.3385
  30.000   0.7104   0.35310   0.34895  -0.0890  0.0243  1.0000  -0.9390   0.0000   0.0000   0.0000   0.3390


