xflr5 v6.61

 Calculated polar for: NACA 0015

 1 1 Reynolds number fixed          Mach number fixed         

 xtrf =   1.000 (top)        1.000 (bottom)
 Mach =   0.000     Re =     0.563 e 6     Ncrit =   9.000

  alpha     CL        CD       CDp       Cm    Top Xtr Bot Xtr   Cpmin    Chinge    XCp    
 ------- -------- --------- --------- -------- ------- ------- -------- --------- ---------
 -10.000  -1.0121   0.02012   0.01387  -0.0114  1.0000  0.0271  -4.0756   0.0000   0.0000   0.0000   0.2257
  -9.900  -1.0087   0.01982   0.01353  -0.0102  1.0000  0.0273  -4.0460   0.0000   0.0000   0.0000   0.2270
  -9.800  -1.0053   0.01952   0.01321  -0.0090  1.0000  0.0274  -4.0164   0.0000   0.0000   0.0000   0.2284
  -9.700  -1.0018   0.01924   0.01289  -0.0077  1.0000  0.0275  -3.9865   0.0000   0.0000   0.0000   0.2297
  -9.600  -0.9983   0.01897   0.01259  -0.0064  1.0000  0.0277  -3.9562   0.0000   0.0000   0.0000   0.2311
  -9.500  -0.9946   0.01871   0.01230  -0.0052  1.0000  0.0278  -3.9257   0.0000   0.0000   0.0000   0.2325
  -9.400  -0.9909   0.01846   0.01202  -0.0039  1.0000  0.0280  -3.8949   0.0000   0.0000   0.0000   0.2339
  -9.300  -0.9872   0.01821   0.01175  -0.0027  1.0000  0.0282  -3.8640   0.0000   0.0000   0.0000   0.2353
  -9.200  -0.9834   0.01798   0.01149  -0.0014  1.0000  0.0283  -3.8329   0.0000   0.0000   0.0000   0.2367
  -9.100  -0.9795   0.01775   0.01124  -0.0001  1.0000  0.0285  -3.8016   0.0000   0.0000   0.0000   0.2381
  -9.000  -0.9756   0.01753   0.01099   0.0011  1.0000  0.0287  -3.7700   0.0000   0.0000   0.0000   0.2395
  -8.900  -0.9714   0.01732   0.01075   0.0023  1.0000  0.0289  -3.7379   0.0000   0.0000   0.0000   0.2409
  -8.800  -0.9671   0.01711   0.01051   0.0035  1.0000  0.0291  -3.7055   0.0000   0.0000   0.0000   0.2422
  -8.700  -0.9628   0.01691   0.01028   0.0047  1.0000  0.0294  -3.6728   0.0000   0.0000   0.0000   0.2436
  -8.600  -0.9583   0.01671   0.01006   0.0058  1.0000  0.0296  -3.6398   0.0000   0.0000   0.0000   0.2450
  -8.500  -0.9538   0.01653   0.00985   0.0070  1.0000  0.0299  -3.6068   0.0000   0.0000   0.0000   0.2463
  -8.400  -0.9494   0.01635   0.00965   0.0082  1.0000  0.0302  -3.5740   0.0000   0.0000   0.0000   0.2477
  -8.300  -0.9454   0.01618   0.00946   0.0094  1.0000  0.0305  -3.5418   0.0000   0.0000   0.0000   0.2492
  -8.200  -0.9415   0.01603   0.00928   0.0106  1.0000  0.0309  -3.5098   0.0000   0.0000   0.0000   0.2507
  -8.100  -0.9339   0.01584   0.00906   0.0112  0.9997  0.0314  -3.4694   0.0000   0.0000   0.0000   0.2515
  -8.000  -0.9226   0.01562   0.00881   0.0110  0.9992  0.0321  -3.4194   0.0000   0.0000   0.0000   0.2515
  -7.900  -0.9111   0.01540   0.00857   0.0107  0.9985  0.0334  -3.3659   0.0000   0.0000   0.0000   0.2515
  -7.800  -0.8995   0.01521   0.00815   0.0104  0.9978  0.0370  -3.2842   0.0000   0.0000   0.0000   0.2514
  -7.700  -0.8877   0.01502   0.00794   0.0102  0.9971  0.0371  -3.2374   0.0000   0.0000   0.0000   0.2514
  -7.600  -0.8758   0.01485   0.00774   0.0099  0.9962  0.0372  -3.1908   0.0000   0.0000   0.0000   0.2513
  -7.500  -0.8637   0.01467   0.00754   0.0096  0.9952  0.0374  -3.1441   0.0000   0.0000   0.0000   0.2512
  -7.400  -0.8513   0.01450   0.00734   0.0092  0.9942  0.0377  -3.0972   0.0000   0.0000   0.0000   0.2511
  -7.300  -0.8386   0.01433   0.00714   0.0088  0.9929  0.0381  -3.0503   0.0000   0.0000   0.0000   0.2508
  -7.200  -0.8257   0.01416   0.00695   0.0083  0.9916  0.0386  -3.0038   0.0000   0.0000   0.0000   0.2505
  -7.100  -0.8125   0.01399   0.00676   0.0078  0.9900  0.0393  -2.9580   0.0000   0.0000   0.0000   0.2501
  -7.000  -0.7994   0.01380   0.00657   0.0073  0.9884  0.0405  -2.9140   0.0000   0.0000   0.0000   0.2497
  -6.900  -0.7865   0.01358   0.00636   0.0068  0.9866  0.0426  -2.8732   0.0000   0.0000   0.0000   0.2494
  -6.800  -0.7743   0.01328   0.00612   0.0065  0.9847  0.0477  -2.8398   0.0000   0.0000   0.0000   0.2492
  -6.700  -0.7640   0.01279   0.00582   0.0063  0.9825  0.0690  -2.8053   0.0000   0.0000   0.0000   0.2491
  -6.600  -0.7530   0.01244   0.00563   0.0060  0.9805  0.0837  -2.7608   0.0000   0.0000   0.0000   0.2490
  -6.500  -0.7418   0.01214   0.00545   0.0057  0.9787  0.0947  -2.7136   0.0000   0.0000   0.0000   0.2487
  -6.400  -0.7290   0.01199   0.00534   0.0052  0.9770  0.0999  -2.6625   0.0000   0.0000   0.0000   0.2483
  -6.300  -0.7159   0.01187   0.00523   0.0047  0.9754  0.1102  -2.6110   0.0000   0.0000   0.0000   0.2477
  -6.200  -0.7031   0.01170   0.00513   0.0041  0.9738  0.1206  -2.5599   0.0000   0.0000   0.0000   0.2472
  -6.100  -0.6903   0.01152   0.00503   0.0036  0.9721  0.1292  -2.5089   0.0000   0.0000   0.0000   0.2466
  -6.000  -0.6772   0.01136   0.00493   0.0030  0.9705  0.1365  -2.4572   0.0000   0.0000   0.0000   0.2459
  -5.900  -0.6637   0.01124   0.00484   0.0024  0.9690  0.1421  -2.4050   0.0000   0.0000   0.0000   0.2451
  -5.800  -0.6499   0.01113   0.00476   0.0017  0.9676  0.1465  -2.3523   0.0000   0.0000   0.0000   0.2442
  -5.700  -0.6359   0.01104   0.00468   0.0010  0.9662  0.1497  -2.2993   0.0000   0.0000   0.0000   0.2432
  -5.600  -0.6217   0.01093   0.00459   0.0003  0.9648  0.1581  -2.2468   0.0000   0.0000   0.0000   0.2421
  -5.500  -0.6078   0.01079   0.00450  -0.0005  0.9635  0.1686  -2.1951   0.0000   0.0000   0.0000   0.2410
  -5.400  -0.5939   0.01063   0.00442  -0.0012  0.9621  0.1778  -2.1436   0.0000   0.0000   0.0000   0.2398
  -5.300  -0.5796   0.01049   0.00434  -0.0020  0.9607  0.1860  -2.0916   0.0000   0.0000   0.0000   0.2384
  -5.200  -0.5648   0.01038   0.00426  -0.0029  0.9592  0.1924  -2.0389   0.0000   0.0000   0.0000   0.2368
  -5.100  -0.5494   0.01029   0.00418  -0.0039  0.9574  0.1972  -1.9855   0.0000   0.0000   0.0000   0.2349
  -5.000  -0.5338   0.01020   0.00411  -0.0049  0.9553  0.2015  -1.9319   0.0000   0.0000   0.0000   0.2328
  -4.900  -0.5185   0.01008   0.00403  -0.0059  0.9526  0.2131  -1.8798   0.0000   0.0000   0.0000   0.2307
  -4.800  -0.5056   0.00993   0.00396  -0.0064  0.9495  0.2233  -1.8324   0.0000   0.0000   0.0000   0.2294
  -4.700  -0.4964   0.00977   0.00386  -0.0060  0.9474  0.2311  -1.7925   0.0000   0.0000   0.0000   0.2300
  -4.600  -0.4867   0.00964   0.00378  -0.0057  0.9449  0.2379  -1.7519   0.0000   0.0000   0.0000   0.2305
  -4.500  -0.4765   0.00953   0.00370  -0.0056  0.9422  0.2435  -1.7104   0.0000   0.0000   0.0000   0.2306
  -4.400  -0.4657   0.00944   0.00363  -0.0055  0.9394  0.2477  -1.6683   0.0000   0.0000   0.0000   0.2306
  -4.300  -0.4547   0.00936   0.00356  -0.0055  0.9364  0.2527  -1.6261   0.0000   0.0000   0.0000   0.2304
  -4.200  -0.4444   0.00920   0.00347  -0.0054  0.9331  0.2631  -1.5856   0.0000   0.0000   0.0000   0.2304
  -4.100  -0.4342   0.00902   0.00338  -0.0052  0.9296  0.2726  -1.5454   0.0000   0.0000   0.0000   0.2305
  -4.000  -0.4230   0.00888   0.00330  -0.0053  0.9262  0.2811  -1.5037   0.0000   0.0000   0.0000   0.2301
  -3.900  -0.4111   0.00876   0.00324  -0.0055  0.9228  0.2884  -1.4610   0.0000   0.0000   0.0000   0.2293
  -3.800  -0.3988   0.00867   0.00317  -0.0057  0.9194  0.2939  -1.4178   0.0000   0.0000   0.0000   0.2283
  -3.700  -0.3862   0.00859   0.00310  -0.0060  0.9159  0.2979  -1.3746   0.0000   0.0000   0.0000   0.2271
  -3.600  -0.3736   0.00853   0.00304  -0.0063  0.9120  0.3026  -1.3316   0.0000   0.0000   0.0000   0.2258
  -3.500  -0.3612   0.00845   0.00297  -0.0066  0.9076  0.3142  -1.2896   0.0000   0.0000   0.0000   0.2246
  -3.300  -0.3387   0.00828   0.00288  -0.0067  0.8991  0.3395  -1.2106   0.0000   0.0000   0.0000   0.2231
  -3.200  -0.3293   0.00818   0.00284  -0.0064  0.8973  0.3499  -1.1748   0.0000   0.0000   0.0000   0.2236
  -3.100  -0.3200   0.00808   0.00280  -0.0060  0.8950  0.3597  -1.1393   0.0000   0.0000   0.0000   0.2242
  -3.000  -0.3105   0.00799   0.00277  -0.0057  0.8919  0.3688  -1.1037   0.0000   0.0000   0.0000   0.2248
  -2.900  -0.3008   0.00792   0.00273  -0.0054  0.8880  0.3766  -1.0679   0.0000   0.0000   0.0000   0.2252
  -2.800  -0.2907   0.00786   0.00270  -0.0051  0.8831  0.3829  -1.0319   0.0000   0.0000   0.0000   0.2254
  -2.700  -0.2803   0.00781   0.00266  -0.0050  0.8772  0.3879  -0.9956   0.0000   0.0000   0.0000   0.2255
  -2.600  -0.2696   0.00776   0.00262  -0.0048  0.8705  0.3917  -0.9592   0.0000   0.0000   0.0000   0.2253
  -2.500  -0.2587   0.00772   0.00257  -0.0047  0.8633  0.3951  -0.9227   0.0000   0.0000   0.0000   0.2249
  -2.400  -0.2476   0.00768   0.00253  -0.0047  0.8561  0.3982  -0.8972   0.0000   0.0000   0.0000   0.2243
  -2.300  -0.2366   0.00764   0.00248  -0.0046  0.8485  0.4043  -0.8759   0.0000   0.0000   0.0000   0.2237
  -2.200  -0.2262   0.00758   0.00243  -0.0044  0.8400  0.4207  -0.8561   0.0000   0.0000   0.0000   0.2236
  -2.100  -0.2162   0.00750   0.00239  -0.0042  0.8301  0.4370  -0.8396   0.0000   0.0000   0.0000   0.2239
  -2.000  -0.2063   0.00741   0.00236  -0.0039  0.8187  0.4504  -0.8231   0.0000   0.0000   0.0000   0.2241
  -1.900  -0.1956   0.00734   0.00233  -0.0039  0.8068  0.4626  -0.8061   0.0000   0.0000   0.0000   0.2235
  -1.800  -0.1849   0.00728   0.00232  -0.0038  0.7994  0.4733  -0.7890   0.0000   0.0000   0.0000   0.2227
  -1.700  -0.1747   0.00723   0.00231  -0.0036  0.7975  0.4817  -0.7724   0.0000   0.0000   0.0000   0.2226
  -1.600  -0.1642   0.00719   0.00229  -0.0035  0.7947  0.4879  -0.7557   0.0000   0.0000   0.0000   0.2222
  -1.500  -0.1535   0.00716   0.00228  -0.0033  0.7909  0.4925  -0.7389   0.0000   0.0000   0.0000   0.2215
  -1.400  -0.1427   0.00714   0.00226  -0.0033  0.7860  0.4958  -0.7220   0.0000   0.0000   0.0000   0.2205
  -1.300  -0.1317   0.00713   0.00224  -0.0032  0.7798  0.4983  -0.7051   0.0000   0.0000   0.0000   0.2192
  -1.200  -0.1208   0.00712   0.00221  -0.0031  0.7730  0.5021  -0.6883   0.0000   0.0000   0.0000   0.2176
  -1.100  -0.1104   0.00708   0.00219  -0.0029  0.7655  0.5173  -0.6721   0.0000   0.0000   0.0000   0.2168
  -1.000  -0.1007   0.00701   0.00217  -0.0026  0.7572  0.5357  -0.6564   0.0000   0.0000   0.0000   0.2176
  -0.900  -0.0913   0.00694   0.00215  -0.0022  0.7480  0.5520  -0.6410   0.0000   0.0000   0.0000   0.2194
  -0.800  -0.0818   0.00690   0.00212  -0.0018  0.7366  0.5663  -0.6255   0.0000   0.0000   0.0000   0.2212
  -0.700  -0.0718   0.00689   0.00210  -0.0015  0.7212  0.5782  -0.6118   0.0000   0.0000   0.0000   0.2221
  -0.600  -0.0609   0.00689   0.00210  -0.0015  0.7042  0.5871  -0.5976   0.0000   0.0000   0.0000   0.2195
  -0.500  -0.0501   0.00688   0.00210  -0.0014  0.6982  0.5932  -0.5836   0.0000   0.0000   0.0000   0.2159
  -0.400  -0.0393   0.00687   0.00210  -0.0013  0.6942  0.5974  -0.5696   0.0000   0.0000   0.0000   0.2111
  -0.300  -0.0286   0.00688   0.00209  -0.0012  0.6875  0.6005  -0.5556   0.0000   0.0000   0.0000   0.2025
  -0.200  -0.0183   0.00685   0.00207  -0.0009  0.6779  0.6170  -0.5441   0.0000   0.0000   0.0000   0.1908
  -0.100  -0.0089   0.00682   0.00207  -0.0005  0.6659  0.6356  -0.5341   0.0000   0.0000   0.0000   0.1827
   0.000  -0.0000   0.00680   0.00208   0.0000  0.6515  0.6515  -0.5242   0.0000   0.0000   0.0000   0.4575
   0.100   0.0089   0.00682   0.00207   0.0005  0.6356  0.6659  -0.5341   0.0000   0.0000   0.0000   0.1827
   0.200   0.0183   0.00685   0.00207   0.0009  0.6170  0.6779  -0.5441   0.0000   0.0000   0.0000   0.1908
   0.300   0.0286   0.00688   0.00209   0.0012  0.6005  0.6875  -0.5556   0.0000   0.0000   0.0000   0.2025
   0.400   0.0393   0.00687   0.00210   0.0013  0.5974  0.6942  -0.5696   0.0000   0.0000   0.0000   0.2111
   0.500   0.0501   0.00688   0.00210   0.0014  0.5932  0.6982  -0.5836   0.0000   0.0000   0.0000   0.2159
   0.600   0.0609   0.00689   0.00210   0.0015  0.5871  0.7042  -0.5976   0.0000   0.0000   0.0000   0.2195
   0.700   0.0718   0.00689   0.00210   0.0015  0.5782  0.7212  -0.6118   0.0000   0.0000   0.0000   0.2221
   0.800   0.0818   0.00690   0.00212   0.0018  0.5663  0.7366  -0.6255   0.0000   0.0000   0.0000   0.2212
   0.900   0.0913   0.00694   0.00215   0.0022  0.5520  0.7480  -0.6410   0.0000   0.0000   0.0000   0.2194
   1.000   0.1007   0.00701   0.00217   0.0026  0.5357  0.7572  -0.6564   0.0000   0.0000   0.0000   0.2176
   1.100   0.1104   0.00708   0.00219   0.0029  0.5173  0.7655  -0.6721   0.0000   0.0000   0.0000   0.2168
   1.200   0.1208   0.00712   0.00221   0.0031  0.5021  0.7730  -0.6883   0.0000   0.0000   0.0000   0.2176
   1.300   0.1317   0.00713   0.00224   0.0032  0.4983  0.7798  -0.7051   0.0000   0.0000   0.0000   0.2192
   1.400   0.1427   0.00714   0.00226   0.0033  0.4958  0.7860  -0.7220   0.0000   0.0000   0.0000   0.2205
   1.500   0.1535   0.00716   0.00228   0.0033  0.4925  0.7909  -0.7389   0.0000   0.0000   0.0000   0.2215
   1.600   0.1642   0.00719   0.00229   0.0035  0.4879  0.7947  -0.7557   0.0000   0.0000   0.0000   0.2222
   1.700   0.1747   0.00723   0.00231   0.0036  0.4817  0.7975  -0.7724   0.0000   0.0000   0.0000   0.2226
   1.800   0.1849   0.00728   0.00232   0.0038  0.4733  0.7994  -0.7890   0.0000   0.0000   0.0000   0.2227
   1.900   0.1956   0.00734   0.00233   0.0039  0.4626  0.8068  -0.8061   0.0000   0.0000   0.0000   0.2235
   2.000   0.2063   0.00741   0.00236   0.0039  0.4504  0.8187  -0.8231   0.0000   0.0000   0.0000   0.2241
   2.100   0.2163   0.00749   0.00239   0.0042  0.4369  0.8301  -0.8396   0.0000   0.0000   0.0000   0.2239
   2.200   0.2262   0.00758   0.00243   0.0044  0.4207  0.8400  -0.8561   0.0000   0.0000   0.0000   0.2236
   2.300   0.2366   0.00764   0.00248   0.0046  0.4043  0.8485  -0.8759   0.0000   0.0000   0.0000   0.2237
   2.400   0.2476   0.00768   0.00253   0.0047  0.3982  0.8561  -0.8972   0.0000   0.0000   0.0000   0.2243
   2.500   0.2587   0.00772   0.00257   0.0047  0.3951  0.8633  -0.9227   0.0000   0.0000   0.0000   0.2249
   2.600   0.2697   0.00776   0.00262   0.0048  0.3917  0.8705  -0.9592   0.0000   0.0000   0.0000   0.2253
   2.700   0.2803   0.00781   0.00266   0.0049  0.3879  0.8772  -0.9956   0.0000   0.0000   0.0000   0.2255
   2.800   0.2907   0.00786   0.00270   0.0051  0.3829  0.8831  -1.0319   0.0000   0.0000   0.0000   0.2254
   2.900   0.3008   0.00792   0.00273   0.0054  0.3766  0.8880  -1.0680   0.0000   0.0000   0.0000   0.2252
   3.000   0.3106   0.00799   0.00276   0.0057  0.3688  0.8919  -1.1037   0.0000   0.0000   0.0000   0.2248
   3.100   0.3200   0.00808   0.00280   0.0060  0.3597  0.8950  -1.1393   0.0000   0.0000   0.0000   0.2242
   3.200   0.3294   0.00818   0.00284   0.0064  0.3499  0.8973  -1.1748   0.0000   0.0000   0.0000   0.2236
   3.300   0.3387   0.00828   0.00288   0.0067  0.3395  0.8991  -1.2106   0.0000   0.0000   0.0000   0.2231
   3.500   0.3612   0.00845   0.00297   0.0066  0.3142  0.9076  -1.2897   0.0000   0.0000   0.0000   0.2246
   3.600   0.3736   0.00852   0.00304   0.0063  0.3026  0.9121  -1.3317   0.0000   0.0000   0.0000   0.2259
   3.700   0.3862   0.00859   0.00310   0.0060  0.2979  0.9159  -1.3746   0.0000   0.0000   0.0000   0.2272
   3.800   0.3988   0.00867   0.00317   0.0057  0.2939  0.9194  -1.4179   0.0000   0.0000   0.0000   0.2284
   3.900   0.4111   0.00876   0.00324   0.0055  0.2884  0.9229  -1.4610   0.0000   0.0000   0.0000   0.2294
   4.000   0.4230   0.00888   0.00330   0.0053  0.2811  0.9262  -1.5037   0.0000   0.0000   0.0000   0.2301
   4.100   0.4342   0.00902   0.00337   0.0052  0.2726  0.9296  -1.5455   0.0000   0.0000   0.0000   0.2305
   4.200   0.4444   0.00920   0.00347   0.0053  0.2630  0.9331  -1.5856   0.0000   0.0000   0.0000   0.2305
   4.300   0.4548   0.00935   0.00356   0.0055  0.2527  0.9364  -1.6262   0.0000   0.0000   0.0000   0.2304
   4.400   0.4657   0.00944   0.00363   0.0055  0.2477  0.9394  -1.6683   0.0000   0.0000   0.0000   0.2306
   4.500   0.4765   0.00953   0.00370   0.0056  0.2435  0.9422  -1.7104   0.0000   0.0000   0.0000   0.2306
   4.600   0.4868   0.00964   0.00378   0.0057  0.2379  0.9449  -1.7519   0.0000   0.0000   0.0000   0.2305
   4.700   0.4964   0.00977   0.00386   0.0060  0.2311  0.9475  -1.7926   0.0000   0.0000   0.0000   0.2300
   4.800   0.5056   0.00993   0.00396   0.0064  0.2233  0.9496  -1.8324   0.0000   0.0000   0.0000   0.2294
   4.900   0.5186   0.01008   0.00403   0.0059  0.2131  0.9526  -1.8799   0.0000   0.0000   0.0000   0.2307
   5.000   0.5339   0.01020   0.00411   0.0049  0.2015  0.9553  -1.9321   0.0000   0.0000   0.0000   0.2328
   5.100   0.5495   0.01028   0.00418   0.0039  0.1972  0.9574  -1.9857   0.0000   0.0000   0.0000   0.2349
   5.200   0.5649   0.01038   0.00426   0.0029  0.1924  0.9592  -2.0390   0.0000   0.0000   0.0000   0.2368
   5.300   0.5797   0.01049   0.00433   0.0020  0.1859  0.9607  -2.0918   0.0000   0.0000   0.0000   0.2385
   5.400   0.5940   0.01063   0.00441   0.0012  0.1778  0.9621  -2.1438   0.0000   0.0000   0.0000   0.2398
   5.500   0.6079   0.01079   0.00450   0.0004  0.1685  0.9635  -2.1953   0.0000   0.0000   0.0000   0.2410
   5.600   0.6219   0.01093   0.00459  -0.0003  0.1581  0.9649  -2.2471   0.0000   0.0000   0.0000   0.2422
   5.700   0.6360   0.01104   0.00467  -0.0010  0.1497  0.9662  -2.2996   0.0000   0.0000   0.0000   0.2433
   5.800   0.6500   0.01113   0.00475  -0.0017  0.1465  0.9676  -2.3525   0.0000   0.0000   0.0000   0.2443
   5.900   0.6638   0.01123   0.00484  -0.0024  0.1421  0.9691  -2.4052   0.0000   0.0000   0.0000   0.2452
   6.000   0.6773   0.01136   0.00493  -0.0031  0.1365  0.9706  -2.4575   0.0000   0.0000   0.0000   0.2460
   6.100   0.6905   0.01151   0.00503  -0.0036  0.1292  0.9722  -2.5091   0.0000   0.0000   0.0000   0.2466
   6.200   0.7032   0.01170   0.00513  -0.0042  0.1206  0.9738  -2.5602   0.0000   0.0000   0.0000   0.2472
   6.300   0.7161   0.01186   0.00523  -0.0047  0.1102  0.9755  -2.6113   0.0000   0.0000   0.0000   0.2478
   6.400   0.7291   0.01199   0.00533  -0.0052  0.0998  0.9771  -2.6628   0.0000   0.0000   0.0000   0.2483
   6.500   0.7419   0.01213   0.00544  -0.0057  0.0947  0.9788  -2.7139   0.0000   0.0000   0.0000   0.2488
   6.600   0.7532   0.01244   0.00562  -0.0060  0.0836  0.9806  -2.7611   0.0000   0.0000   0.0000   0.2490
   6.700   0.7642   0.01279   0.00581  -0.0063  0.0689  0.9826  -2.8056   0.0000   0.0000   0.0000   0.2492
   6.800   0.7745   0.01327   0.00611  -0.0065  0.0477  0.9848  -2.8400   0.0000   0.0000   0.0000   0.2492
   6.900   0.7867   0.01358   0.00636  -0.0069  0.0425  0.9867  -2.8735   0.0000   0.0000   0.0000   0.2494
   7.000   0.7996   0.01380   0.00656  -0.0073  0.0405  0.9885  -2.9144   0.0000   0.0000   0.0000   0.2498
   7.100   0.8128   0.01398   0.00675  -0.0079  0.0393  0.9902  -2.9584   0.0000   0.0000   0.0000   0.2502
   7.200   0.8259   0.01415   0.00694  -0.0084  0.0386  0.9917  -3.0042   0.0000   0.0000   0.0000   0.2505
   7.300   0.8389   0.01433   0.00714  -0.0088  0.0381  0.9930  -3.0508   0.0000   0.0000   0.0000   0.2509
   7.400   0.8516   0.01450   0.00733  -0.0093  0.0377  0.9943  -3.0977   0.0000   0.0000   0.0000   0.2511
   7.500   0.8640   0.01467   0.00753  -0.0096  0.0374  0.9953  -3.1446   0.0000   0.0000   0.0000   0.2513
   7.600   0.8761   0.01484   0.00773  -0.0100  0.0372  0.9963  -3.1913   0.0000   0.0000   0.0000   0.2514
   7.700   0.8880   0.01502   0.00794  -0.0102  0.0371  0.9971  -3.2380   0.0000   0.0000   0.0000   0.2515
   7.800   0.8998   0.01520   0.00815  -0.0105  0.0370  0.9979  -3.2848   0.0000   0.0000   0.0000   0.2515
   7.900   0.9114   0.01540   0.00856  -0.0108  0.0334  0.9986  -3.3667   0.0000   0.0000   0.0000   0.2516
   8.000   0.9229   0.01561   0.00881  -0.0110  0.0321  0.9992  -3.4201   0.0000   0.0000   0.0000   0.2516
   8.100   0.9343   0.01583   0.00906  -0.0112  0.0314  0.9998  -3.4701   0.0000   0.0000   0.0000   0.2515
   8.200   0.9409   0.01601   0.00926  -0.0105  0.0309  1.0000  -3.5086   0.0000   0.0000   0.0000   0.2506
   8.300   0.9449   0.01617   0.00944  -0.0093  0.0305  1.0000  -3.5406   0.0000   0.0000   0.0000   0.2491
   8.400   0.9490   0.01634   0.00963  -0.0081  0.0302  1.0000  -3.5731   0.0000   0.0000   0.0000   0.2476
   8.500   0.9534   0.01651   0.00984  -0.0069  0.0299  1.0000  -3.6060   0.0000   0.0000   0.0000   0.2463
   8.600   0.9580   0.01670   0.01005  -0.0058  0.0296  1.0000  -3.6391   0.0000   0.0000   0.0000   0.2449
   8.700   0.9625   0.01690   0.01027  -0.0046  0.0294  1.0000  -3.6722   0.0000   0.0000   0.0000   0.2436
   8.800   0.9669   0.01710   0.01050  -0.0034  0.0291  1.0000  -3.7050   0.0000   0.0000   0.0000   0.2422
   8.900   0.9712   0.01731   0.01073  -0.0023  0.0289  1.0000  -3.7374   0.0000   0.0000   0.0000   0.2408
   9.000   0.9754   0.01752   0.01097  -0.0010  0.0287  1.0000  -3.7695   0.0000   0.0000   0.0000   0.2394
   9.100   0.9794   0.01774   0.01122   0.0002  0.0285  1.0000  -3.8012   0.0000   0.0000   0.0000   0.2380
   9.200   0.9833   0.01797   0.01148   0.0014  0.0283  1.0000  -3.8326   0.0000   0.0000   0.0000   0.2366
   9.300   0.9871   0.01820   0.01174   0.0027  0.0282  1.0000  -3.8639   0.0000   0.0000   0.0000   0.2352
   9.400   0.9909   0.01845   0.01201   0.0039  0.0280  1.0000  -3.8949   0.0000   0.0000   0.0000   0.2339
   9.500   0.9947   0.01870   0.01229   0.0052  0.0278  1.0000  -3.9258   0.0000   0.0000   0.0000   0.2325
   9.600   0.9984   0.01896   0.01258   0.0064  0.0277  1.0000  -3.9565   0.0000   0.0000   0.0000   0.2311
   9.700   1.0020   0.01923   0.01288   0.0077  0.0275  1.0000  -3.9870   0.0000   0.0000   0.0000   0.2298
   9.800   1.0055   0.01951   0.01320   0.0089  0.0274  1.0000  -4.0170   0.0000   0.0000   0.0000   0.2284
   9.900   1.0090   0.01981   0.01352   0.0102  0.0273  1.0000  -4.0468   0.0000   0.0000   0.0000   0.2271
  10.000   1.0126   0.02012   0.01386   0.0114  0.0271  1.0000  -4.0767   0.0000   0.0000   0.0000   0.2258
  10.100   1.0163   0.02044   0.01422   0.0125  0.0270  1.0000  -4.1066   0.0000   0.0000   0.0000   0.2246
  10.200   1.0201   0.02079   0.01460   0.0136  0.0269  1.0000  -4.1367   0.0000   0.0000   0.0000   0.2234
  10.300   1.0236   0.02114   0.01499   0.0148  0.0267  1.0000  -4.1657   0.0000   0.0000   0.0000   0.2221
  10.400   1.0265   0.02151   0.01539   0.0160  0.0266  1.0000  -4.1933   0.0000   0.0000   0.0000   0.2208
  10.500   1.0294   0.02189   0.01580   0.0172  0.0265  1.0000  -4.2206   0.0000   0.0000   0.0000   0.2196
  10.600   1.0324   0.02229   0.01624   0.0184  0.0264  1.0000  -4.2479   0.0000   0.0000   0.0000   0.2183
  10.700   1.0357   0.02272   0.01671   0.0194  0.0263  1.0000  -4.2753   0.0000   0.0000   0.0000   0.2172
  10.800   1.0390   0.02317   0.01721   0.0205  0.0262  1.0000  -4.3026   0.0000   0.0000   0.0000   0.2161
  10.900   1.0423   0.02365   0.01773   0.0214  0.0261  1.0000  -4.3295   0.0000   0.0000   0.0000   0.2151
  11.000   1.0456   0.02416   0.01828   0.0224  0.0259  1.0000  -4.3557   0.0000   0.0000   0.0000   0.2141
  11.100   1.0485   0.02470   0.01887   0.0233  0.0258  1.0000  -4.3806   0.0000   0.0000   0.0000   0.2131
  11.200   1.0510   0.02526   0.01948   0.0243  0.0257  1.0000  -4.4042   0.0000   0.0000   0.0000   0.2121
  11.300   1.0532   0.02585   0.02011   0.0253  0.0256  1.0000  -4.4262   0.0000   0.0000   0.0000   0.2110
  11.400   1.0551   0.02646   0.02078   0.0263  0.0255  1.0000  -4.4474   0.0000   0.0000   0.0000   0.2100
  11.500   1.0570   0.02711   0.02149   0.0272  0.0254  1.0000  -4.4676   0.0000   0.0000   0.0000   0.2090
  11.600   1.0587   0.02780   0.02223   0.0281  0.0253  1.0000  -4.4867   0.0000   0.0000   0.0000   0.2080
  11.700   1.0599   0.02854   0.02303   0.0290  0.0252  1.0000  -4.5038   0.0000   0.0000   0.0000   0.2070
  11.800   1.0871   0.02656   0.02088   0.0275  0.0274  1.0000  -4.6502   0.0000   0.0000   0.0000   0.2090
  11.900   1.0902   0.02705   0.02141   0.0282  0.0274  1.0000  -4.6789   0.0000   0.0000   0.0000   0.2082
  12.000   1.0927   0.02760   0.02200   0.0289  0.0273  1.0000  -4.7055   0.0000   0.0000   0.0000   0.2074
  12.100   1.0953   0.02818   0.02262   0.0296  0.0273  1.0000  -4.7318   0.0000   0.0000   0.0000   0.2066
  12.200   1.0981   0.02878   0.02326   0.0303  0.0272  1.0000  -4.7580   0.0000   0.0000   0.0000   0.2059
  12.300   1.1007   0.02941   0.02394   0.0309  0.0271  1.0000  -4.7836   0.0000   0.0000   0.0000   0.2053
  12.400   1.1033   0.03006   0.02464   0.0315  0.0271  1.0000  -4.8084   0.0000   0.0000   0.0000   0.2046
  12.500   1.1057   0.03075   0.02538   0.0321  0.0270  1.0000  -4.8321   0.0000   0.0000   0.0000   0.2039
  12.600   1.1077   0.03148   0.02615   0.0327  0.0269  1.0000  -4.8546   0.0000   0.0000   0.0000   0.2033
  12.700   1.1095   0.03224   0.02697   0.0333  0.0268  1.0000  -4.8756   0.0000   0.0000   0.0000   0.2026
  12.800   1.1108   0.03304   0.02783   0.0339  0.0267  1.0000  -4.8950   0.0000   0.0000   0.0000   0.2020
  12.900   1.1117   0.03389   0.02873   0.0344  0.0266  1.0000  -4.9125   0.0000   0.0000   0.0000   0.2013
  13.000   1.1113   0.03483   0.02973   0.0349  0.0265  1.0000  -4.9259   0.0000   0.0000   0.0000   0.2006
  13.100   1.1096   0.03586   0.03083   0.0354  0.0264  1.0000  -4.9352   0.0000   0.0000   0.0000   0.2000
  13.200   1.1081   0.03689   0.03191   0.0358  0.0263  1.0000  -4.9443   0.0000   0.0000   0.0000   0.1993
  13.300   1.1066   0.03793   0.03301   0.0363  0.0262  1.0000  -4.9529   0.0000   0.0000   0.0000   0.1986
  13.400   1.1051   0.03901   0.03417   0.0367  0.0262  1.0000  -4.9606   0.0000   0.0000   0.0000   0.1980
  13.500   1.1032   0.04017   0.03539   0.0370  0.0261  1.0000  -4.9666   0.0000   0.0000   0.0000   0.1974
  13.600   1.1010   0.04140   0.03669   0.0373  0.0260  1.0000  -4.9706   0.0000   0.0000   0.0000   0.1969
  13.700   1.0981   0.04272   0.03808   0.0375  0.0259  1.0000  -4.9719   0.0000   0.0000   0.0000   0.1964
  13.800   1.0930   0.04429   0.03972   0.0373  0.0259  1.0000  -4.9661   0.0000   0.0000   0.0000   0.1961
  13.900   1.0885   0.04587   0.04137   0.0372  0.0258  1.0000  -4.9610   0.0000   0.0000   0.0000   0.1958
  14.000   1.0843   0.04744   0.04301   0.0371  0.0258  1.0000  -4.9561   0.0000   0.0000   0.0000   0.1956
  14.100   1.0800   0.04907   0.04471   0.0369  0.0257  1.0000  -4.9498   0.0000   0.0000   0.0000   0.1953
  14.200   1.0753   0.05077   0.04648   0.0367  0.0256  1.0000  -4.9413   0.0000   0.0000   0.0000   0.1951
  14.300   1.0699   0.05257   0.04835   0.0363  0.0256  1.0000  -4.9302   0.0000   0.0000   0.0000   0.1951
  14.400   1.0620   0.05476   0.05062   0.0354  0.0256  1.0000  -4.9108   0.0000   0.0000   0.0000   0.1954
  14.500   1.0553   0.05684   0.05276   0.0347  0.0255  1.0000  -4.8938   0.0000   0.0000   0.0000   0.1956
  14.600   1.0490   0.05887   0.05486   0.0340  0.0255  1.0000  -4.8772   0.0000   0.0000   0.0000   0.1957
  14.700   1.0426   0.06094   0.05700   0.0333  0.0255  1.0000  -4.8592   0.0000   0.0000   0.0000   0.1959
  14.800   1.0356   0.06310   0.05923   0.0325  0.0255  1.0000  -4.8389   0.0000   0.0000   0.0000   0.1962
  14.900   1.0271   0.06560   0.06180   0.0312  0.0255  1.0000  -4.8124   0.0000   0.0000   0.0000   0.1969
  15.000   1.0178   0.06830   0.06456   0.0297  0.0255  1.0000  -4.7824   0.0000   0.0000   0.0000   0.1978
  15.100   1.0100   0.07065   0.06697   0.0287  0.0255  1.0000  -4.7568   0.0000   0.0000   0.0000   0.1984
  15.200   1.0024   0.07300   0.06938   0.0276  0.0255  1.0000  -4.7308   0.0000   0.0000   0.0000   0.1989
  15.300   0.9947   0.07546   0.07190   0.0265  0.0254  1.0000  -4.7029   0.0000   0.0000   0.0000   0.1996
  15.400   0.9866   0.07810   0.07460   0.0252  0.0254  1.0000  -4.6721   0.0000   0.0000   0.0000   0.2004
  15.500   0.9759   0.08151   0.07808   0.0230  0.0255  1.0000  -4.6297   0.0000   0.0000   0.0000   0.2021
  15.600   0.9667   0.08464   0.08126   0.0211  0.0255  1.0000  -4.5911   0.0000   0.0000   0.0000   0.2035
  15.700   0.9589   0.08749   0.08417   0.0196  0.0255  1.0000  -4.5564   0.0000   0.0000   0.0000   0.2046
  15.800   0.9513   0.09034   0.08707   0.0182  0.0255  1.0000  -4.5210   0.0000   0.0000   0.0000   0.2057
  15.900   0.9435   0.09326   0.09005   0.0167  0.0255  1.0000  -4.4832   0.0000   0.0000   0.0000   0.2069
  16.000   0.9352   0.09634   0.09318   0.0150  0.0255  1.0000  -4.4415   0.0000   0.0000   0.0000   0.2083
  16.100   0.9255   0.09999   0.09689   0.0128  0.0256  1.0000  -4.3896   0.0000   0.0000   0.0000   0.2103
  16.200   0.9150   0.10395   0.10090   0.0104  0.0257  1.0000  -4.3306   0.0000   0.0000   0.0000   0.2126
  16.300   0.9052   0.10767   0.10468   0.0083  0.0257  1.0000  -4.2729   0.0000   0.0000   0.0000   0.2146
  16.400   0.8931   0.11209   0.10914   0.0056  0.0258  1.0000  -4.1986   0.0000   0.0000   0.0000   0.2173
  16.500   0.8819   0.11631   0.11341   0.0032  0.0259  1.0000  -4.1250   0.0000   0.0000   0.0000   0.2198
  16.600   0.8706   0.12051   0.11766   0.0008  0.0260  1.0000  -4.0470   0.0000   0.0000   0.0000   0.2223
  16.700   0.8545   0.12601   0.12321  -0.0023  0.0262  1.0000  -3.9309   0.0000   0.0000   0.0000   0.2258
  16.800   0.8422   0.13056   0.12779  -0.0047  0.0263  1.0000  -3.8336   0.0000   0.0000   0.0000   0.2286
  16.900   0.8288   0.13542   0.13269  -0.0072  0.0265  1.0000  -3.7204   0.0000   0.0000   0.0000   0.2317
  17.000   0.8101   0.14175   0.13906  -0.0104  0.0267  1.0000  -3.5515   0.0000   0.0000   0.0000   0.2358
  17.100   0.7987   0.14618   0.14350  -0.0125  0.0267  1.0000  -3.4369   0.0000   0.0000   0.0000   0.2386
  17.200   0.7867   0.15086   0.14820  -0.0147  0.0268  1.0000  -3.3063   0.0000   0.0000   0.0000   0.2416
  17.300   0.7466   0.16233   0.15959  -0.0205  0.0244  1.0000  -2.9470   0.0000   0.0000   0.0000   0.2509
  17.400   0.7523   0.16268   0.15993  -0.0208  0.0243  1.0000  -3.0010   0.0000   0.0000   0.0000   0.2509
  19.000   0.7649   0.18939   0.18669  -0.0345  0.0235  1.0000  -2.7468   0.0000   0.0000   0.0000   0.2659
  19.100   0.7697   0.18995   0.18725  -0.0349  0.0234  1.0000  -2.7926   0.0000   0.0000   0.0000   0.2659
  19.200   0.7746   0.19050   0.18780  -0.0354  0.0232  1.0000  -2.8398   0.0000   0.0000   0.0000   0.2660
  19.300   0.7795   0.19105   0.18834  -0.0358  0.0230  1.0000  -2.8879   0.0000   0.0000   0.0000   0.2660
  19.400   0.7843   0.19160   0.18889  -0.0362  0.0228  1.0000  -2.9364   0.0000   0.0000   0.0000   0.2660
  19.500   0.7891   0.19216   0.18945  -0.0367  0.0225  1.0000  -2.9849   0.0000   0.0000   0.0000   0.2661
  19.600   0.7939   0.19274   0.19002  -0.0371  0.0223  1.0000  -3.0332   0.0000   0.0000   0.0000   0.2661
  19.700   0.7986   0.19333   0.19062  -0.0376  0.0220  1.0000  -3.0812   0.0000   0.0000   0.0000   0.2662
  19.800   0.8032   0.19394   0.19122  -0.0380  0.0217  1.0000  -3.1288   0.0000   0.0000   0.0000   0.2662
  19.900   0.8078   0.19458   0.19185  -0.0385  0.0215  1.0000  -3.1758   0.0000   0.0000   0.0000   0.2663
  20.000   0.8122   0.19523   0.19251  -0.0390  0.0211  1.0000  -3.2221   0.0000   0.0000   0.0000   0.2663
  20.100   0.8167   0.19591   0.19318  -0.0395  0.0208  1.0000  -3.2734   0.0000   0.0000   0.0000   0.2664
  20.200   0.8209   0.19663   0.19389  -0.0400  0.0205  1.0000  -3.3262   0.0000   0.0000   0.0000   0.2665
  20.300   0.8252   0.19735   0.19462  -0.0405  0.0201  1.0000  -3.3788   0.0000   0.0000   0.0000   0.2666
  20.400   0.8293   0.19811   0.19537  -0.0410  0.0197  1.0000  -3.4306   0.0000   0.0000   0.0000   0.2668
  20.500   0.8335   0.19883   0.19609  -0.0415  0.0193  1.0000  -3.4839   0.0000   0.0000   0.0000   0.2669
  20.600   0.8379   0.19952   0.19678  -0.0420  0.0190  1.0000  -3.5391   0.0000   0.0000   0.0000   0.2670
  20.700   0.8423   0.20016   0.19741  -0.0425  0.0186  1.0000  -3.5967   0.0000   0.0000   0.0000   0.2670
  20.800   0.8469   0.20075   0.19800  -0.0429  0.0183  1.0000  -3.6568   0.0000   0.0000   0.0000   0.2670
  20.900   0.8517   0.20128   0.19853  -0.0434  0.0179  1.0000  -3.7196   0.0000   0.0000   0.0000   0.2670
  21.000   0.8566   0.20177   0.19901  -0.0438  0.0177  1.0000  -3.7851   0.0000   0.0000   0.0000   0.2669
  21.100   0.8617   0.20220   0.19944  -0.0442  0.0174  1.0000  -3.8534   0.0000   0.0000   0.0000   0.2668
  21.200   0.8669   0.20258   0.19982  -0.0446  0.0172  1.0000  -3.9245   0.0000   0.0000   0.0000   0.2666
  21.300   0.8724   0.20290   0.20013  -0.0450  0.0169  1.0000  -3.9990   0.0000   0.0000   0.0000   0.2664
  21.400   0.8783   0.20309   0.20031  -0.0453  0.0167  1.0000  -4.0796   0.0000   0.0000   0.0000   0.2661
  21.500   0.8844   0.20319   0.20041  -0.0456  0.0166  1.0000  -4.1645   0.0000   0.0000   0.0000   0.2658
  21.600   0.8908   0.20323   0.20044  -0.0459  0.0164  1.0000  -4.2528   0.0000   0.0000   0.0000   0.2653
  21.700   0.8975   0.20321   0.20041  -0.0461  0.0162  1.0000  -4.3446   0.0000   0.0000   0.0000   0.2649
  21.800   0.9043   0.20313   0.20032  -0.0463  0.0161  1.0000  -4.4400   0.0000   0.0000   0.0000   0.2643
  21.900   0.9114   0.20298   0.20016  -0.0465  0.0160  1.0000  -4.5387   0.0000   0.0000   0.0000   0.2638
  22.000   0.9188   0.20278   0.19995  -0.0466  0.0158  1.0000  -4.6406   0.0000   0.0000   0.0000   0.2632
  22.100   0.9264   0.20250   0.19964  -0.0467  0.0156  1.0000  -4.7470   0.0000   0.0000   0.0000   0.2625
  22.200   0.9342   0.20215   0.19927  -0.0467  0.0155  1.0000  -4.8566   0.0000   0.0000   0.0000   0.2617
  22.300   0.9422   0.20177   0.19886  -0.0468  0.0152  1.0000  -4.9683   0.0000   0.0000   0.0000   0.2610
  22.400   0.9501   0.20142   0.19848  -0.0468  0.0150  1.0000  -5.0786   0.0000   0.0000   0.0000   0.2603
  22.500   0.9571   0.20132   0.19834  -0.0470  0.0146  1.0000  -5.1775   0.0000   0.0000   0.0000   0.2597
  22.600   0.9609   0.20213   0.19911  -0.0476  0.0140  1.0000  -5.2324   0.0000   0.0000   0.0000   0.2598


