xflr5 v6.61

 Calculated polar for: NACA65-012

 1 1 Reynolds number fixed          Mach number fixed         

 xtrf =   1.000 (top)        1.000 (bottom)
 Mach =   0.000     Re =     0.100 e 6     Ncrit =   9.000

  alpha     CL        CD       CDp       Cm    Top Xtr Bot Xtr   Cpmin    Chinge    XCp    
 ------- -------- --------- --------- -------- ------- ------- -------- --------- ---------
 -10.000  -0.6446   0.09875   0.09403  -0.0038  1.0000  0.1685  -1.9254   0.0000   0.0000   0.0000   0.2356
  -9.900  -0.6659   0.09543   0.09080  -0.0083  1.0000  0.1728  -2.0255   0.0000   0.0000   0.0000   0.2293
  -9.800  -0.6920   0.09110   0.08654  -0.0138  1.0000  0.1734  -2.1482   0.0000   0.0000   0.0000   0.2220
  -9.700  -0.6518   0.09306   0.08841  -0.0064  1.0000  0.1785  -1.9502   0.0000   0.0000   0.0000   0.2321
  -9.600  -0.6589   0.09091   0.08628  -0.0081  1.0000  0.1828  -1.9783   0.0000   0.0000   0.0000   0.2297
  -8.000  -0.7939   0.04914   0.04214  -0.0187  1.0000  0.1015  -3.0096   0.0000   0.0000   0.0000   0.2197
  -7.800  -0.7794   0.04239   0.03457  -0.0164  1.0000  0.0749  -3.2200   0.0000   0.0000   0.0000   0.2221
  -7.700  -0.7703   0.04073   0.03295  -0.0164  1.0000  0.0738  -3.1770   0.0000   0.0000   0.0000   0.2220
  -7.600  -0.7632   0.03929   0.03142  -0.0159  1.0000  0.0724  -3.1540   0.0000   0.0000   0.0000   0.2225
  -7.500  -0.7572   0.03785   0.02979  -0.0151  1.0000  0.0707  -3.1504   0.0000   0.0000   0.0000   0.2234
  -7.400  -0.7538   0.03650   0.02794  -0.0134  1.0000  0.0681  -3.2000   0.0000   0.0000   0.0000   0.2255
  -7.300  -0.7486   0.03583   0.02696  -0.0122  1.0000  0.0672  -3.1928   0.0000   0.0000   0.0000   0.2271
  -7.200  -0.7409   0.03471   0.02577  -0.0117  1.0000  0.0669  -3.1610   0.0000   0.0000   0.0000   0.2277
  -7.100  -0.7336   0.03371   0.02469  -0.0111  1.0000  0.0668  -3.1397   0.0000   0.0000   0.0000   0.2285
  -7.000  -0.7266   0.03280   0.02368  -0.0103  1.0000  0.0667  -3.1185   0.0000   0.0000   0.0000   0.2294
  -6.900  -0.7199   0.03197   0.02274  -0.0095  1.0000  0.0667  -3.0969   0.0000   0.0000   0.0000   0.2304
  -6.800  -0.7137   0.03125   0.02190  -0.0086  1.0000  0.0669  -3.0757   0.0000   0.0000   0.0000   0.2316
  -6.700  -0.7086   0.03066   0.02117  -0.0076  1.0000  0.0675  -3.0544   0.0000   0.0000   0.0000   0.2331
  -6.600  -0.7000   0.02965   0.02027  -0.0075  1.0000  0.0689  -2.9946   0.0000   0.0000   0.0000   0.2332
  -6.500  -0.6935   0.02909   0.01973  -0.0068  1.0000  0.0703  -2.9459   0.0000   0.0000   0.0000   0.2341
  -6.400  -0.6873   0.02856   0.01915  -0.0060  1.0000  0.0715  -2.9081   0.0000   0.0000   0.0000   0.2353
  -6.300  -0.6809   0.02801   0.01852  -0.0052  1.0000  0.0723  -2.8751   0.0000   0.0000   0.0000   0.2365
  -6.200  -0.6739   0.02743   0.01787  -0.0044  1.0000  0.0729  -2.8436   0.0000   0.0000   0.0000   0.2376
  -6.100  -0.6664   0.02684   0.01721  -0.0037  1.0000  0.0734  -2.8114   0.0000   0.0000   0.0000   0.2387
  -6.000  -0.6590   0.02629   0.01659  -0.0029  1.0000  0.0739  -2.7779   0.0000   0.0000   0.0000   0.2398
  -5.900  -0.6517   0.02578   0.01602  -0.0022  1.0000  0.0744  -2.7435   0.0000   0.0000   0.0000   0.2410
  -5.800  -0.6446   0.02534   0.01549  -0.0014  1.0000  0.0751  -2.7089   0.0000   0.0000   0.0000   0.2422
  -5.700  -0.6365   0.02470   0.01489  -0.0009  1.0000  0.0759  -2.6656   0.0000   0.0000   0.0000   0.2431
  -5.600  -0.6292   0.02414   0.01440  -0.0003  1.0000  0.0770  -2.6186   0.0000   0.0000   0.0000   0.2440
  -5.500  -0.6225   0.02369   0.01398   0.0004  1.0000  0.0782  -2.5738   0.0000   0.0000   0.0000   0.2452
  -5.400  -0.6161   0.02328   0.01359   0.0011  1.0000  0.0796  -2.5310   0.0000   0.0000   0.0000   0.2465
  -5.300  -0.6100   0.02293   0.01323   0.0020  1.0000  0.0813  -2.4891   0.0000   0.0000   0.0000   0.2479
  -5.200  -0.6041   0.02267   0.01290   0.0028  1.0000  0.0835  -2.4491   0.0000   0.0000   0.0000   0.2495
  -5.100  -0.5990   0.02217   0.01250   0.0036  1.0000  0.0859  -2.4020   0.0000   0.0000   0.0000   0.2509
  -5.000  -0.5939   0.02183   0.01221   0.0044  1.0000  0.0885  -2.3572   0.0000   0.0000   0.0000   0.2524
  -4.900  -0.5884   0.02155   0.01189   0.0053  1.0000  0.0913  -2.3169   0.0000   0.0000   0.0000   0.2541
  -4.800  -0.5837   0.02115   0.01155   0.0062  1.0000  0.0936  -2.2781   0.0000   0.0000   0.0000   0.2558
  -4.700  -0.5792   0.02078   0.01124   0.0072  1.0000  0.0962  -2.2479   0.0000   0.0000   0.0000   0.2575
  -4.600  -0.5741   0.02047   0.01093   0.0080  1.0000  0.0993  -2.2200   0.0000   0.0000   0.0000   0.2593
  -4.500  -0.5693   0.02012   0.01059   0.0089  1.0000  0.1028  -2.1930   0.0000   0.0000   0.0000   0.2610
  -4.400  -0.5644   0.01977   0.01028   0.0098  1.0000  0.1073  -2.1636   0.0000   0.0000   0.0000   0.2627
  -4.300  -0.5593   0.01940   0.00995   0.0106  1.0000  0.1132  -2.1363   0.0000   0.0000   0.0000   0.2644
  -4.200  -0.5541   0.01900   0.00962   0.0113  1.0000  0.1227  -2.1087   0.0000   0.0000   0.0000   0.2660
  -4.100  -0.5492   0.01848   0.00924   0.0121  1.0000  0.1396  -2.0846   0.0000   0.0000   0.0000   0.2676
  -4.000  -0.5476   0.01720   0.00863   0.0129  1.0000  0.2148  -2.0789   0.0000   0.0000   0.0000   0.2693
  -3.900  -0.5561   0.01520   0.00865   0.0160  1.0000  0.5637  -2.0897   0.0000   0.0000   0.0000   0.2746
  -3.800  -0.5548   0.01549   0.00920   0.0189  1.0000  0.6517  -2.0682   0.0000   0.0000   0.0000   0.2800
  -3.700  -0.5476   0.01589   0.00963   0.0204  0.9987  0.6883  -2.0206   0.0000   0.0000   0.0000   0.2833
  -3.600  -0.5360   0.01641   0.01015   0.0212  0.9961  0.7144  -1.9548   0.0000   0.0000   0.0000   0.2856
  -3.500  -0.5242   0.01689   0.01060   0.0218  0.9934  0.7329  -1.8864   0.0000   0.0000   0.0000   0.2878
  -3.400  -0.5123   0.01736   0.01102   0.0225  0.9908  0.7474  -1.8168   0.0000   0.0000   0.0000   0.2901
  -3.300  -0.5012   0.01786   0.01151   0.0234  0.9881  0.7615  -1.7487   0.0000   0.0000   0.0000   0.2930
  -3.200  -0.4912   0.01847   0.01211   0.0248  0.9854  0.7767  -1.6826   0.0000   0.0000   0.0000   0.2969
  -3.100  -0.4827   0.01928   0.01294   0.0271  0.9828  0.7950  -1.6187   0.0000   0.0000   0.0000   0.3026
  -3.000  -0.4748   0.02029   0.01398   0.0302  0.9805  0.8132  -1.5618   0.0000   0.0000   0.0000   0.3101
  -2.900  -0.4632   0.02137   0.01505   0.0329  0.9791  0.8310  -1.4966   0.0000   0.0000   0.0000   0.3175
  -2.800  -0.4481   0.02218   0.01583   0.0343  0.9778  0.8445  -1.4257   0.0000   0.0000   0.0000   0.3230
  -2.700  -0.4328   0.02240   0.01598   0.0339  0.9759  0.8515  -1.3605   0.0000   0.0000   0.0000   0.3248
  -2.600  -0.4140   0.02254   0.01603   0.0325  0.9745  0.8551  -1.2881   0.0000   0.0000   0.0000   0.3251
  -2.500  -0.4041   0.02245   0.01588   0.0322  0.9713  0.8601  -1.2401   0.0000   0.0000   0.0000   0.3264
  -2.400  -0.3835   0.02257   0.01590   0.0305  0.9701  0.8624  -1.1648   0.0000   0.0000   0.0000   0.3262
  -2.300  -0.3674   0.02261   0.01587   0.0295  0.9679  0.8655  -1.1019   0.0000   0.0000   0.0000   0.3268
  -2.200  -0.3559   0.02252   0.01572   0.0288  0.9650  0.8700  -1.0515   0.0000   0.0000   0.0000   0.3277
  -2.100  -0.3351   0.02260   0.01574   0.0269  0.9637  0.8719  -0.9787   0.0000   0.0000   0.0000   0.3271
  -2.000  -0.3192   0.02262   0.01571   0.0259  0.9614  0.8745  -0.9186   0.0000   0.0000   0.0000   0.3277
  -1.900  -0.3046   0.02257   0.01561   0.0247  0.9591  0.8778  -0.8627   0.0000   0.0000   0.0000   0.3280
  -1.800  -0.2915   0.02253   0.01552   0.0240  0.9566  0.8807  -0.8116   0.0000   0.0000   0.0000   0.3291
  -1.700  -0.2734   0.02255   0.01550   0.0224  0.9548  0.8825  -0.7568   0.0000   0.0000   0.0000   0.3289
  -1.600  -0.2551   0.02256   0.01546   0.0208  0.9531  0.8847  -0.7025   0.0000   0.0000   0.0000   0.3282
  -1.500  -0.2495   0.02244   0.01531   0.0212  0.9495  0.8890  -0.6737   0.0000   0.0000   0.0000   0.3319
  -1.400  -0.2295   0.02247   0.01527   0.0193  0.9479  0.8903  -0.6174   0.0000   0.0000   0.0000   0.3309
  -1.300  -0.2086   0.02249   0.01526   0.0171  0.9465  0.8919  -0.5602   0.0000   0.0000   0.0000   0.3291
  -1.200  -0.1905   0.02249   0.01522   0.0155  0.9448  0.8939  -0.5093   0.0000   0.0000   0.0000   0.3281
  -1.100  -0.1869   0.02239   0.01510   0.0163  0.9409  0.8981  -0.4854   0.0000   0.0000   0.0000   0.3344
  -1.000  -0.1650   0.02241   0.01509   0.0140  0.9397  0.8993  -0.4288   0.0000   0.0000   0.0000   0.3318
  -0.900  -0.1427   0.02243   0.01508   0.0116  0.9386  0.9005  -0.3777   0.0000   0.0000   0.0000   0.3279
  -0.800  -0.1315   0.02242   0.01505   0.0112  0.9357  0.9031  -0.3717   0.0000   0.0000   0.0000   0.3319
  -0.700  -0.1219   0.02236   0.01498   0.0110  0.9329  0.9065  -0.3669   0.0000   0.0000   0.0000   0.3371
  -0.600  -0.0996   0.02238   0.01497   0.0085  0.9318  0.9078  -0.3561   0.0000   0.0000   0.0000   0.3326
  -0.500  -0.0801   0.02239   0.01496   0.0066  0.9301  0.9092  -0.3468   0.0000   0.0000   0.0000   0.3293
  -0.400  -0.0668   0.02239   0.01495   0.0058  0.9274  0.9115  -0.3409   0.0000   0.0000   0.0000   0.3339
  -0.300  -0.0532   0.02237   0.01492   0.0049  0.9252  0.9143  -0.3353   0.0000   0.0000   0.0000   0.3393
  -0.100  -0.0143   0.02237   0.01492   0.0010  0.9222  0.9174  -0.3186   0.0000   0.0000   0.0000   0.3165
   0.000   0.0000   0.02238   0.01493  -0.0000  0.9196  0.9196  -0.3127   0.0000   0.0000   0.0000   0.4198
   0.100   0.0143   0.02237   0.01492  -0.0010  0.9174  0.9222  -0.3186   0.0000   0.0000   0.0000   0.3164
   0.300   0.0532   0.02237   0.01492  -0.0049  0.9143  0.9252  -0.3353   0.0000   0.0000   0.0000   0.3393
   0.400   0.0668   0.02239   0.01495  -0.0058  0.9115  0.9274  -0.3409   0.0000   0.0000   0.0000   0.3339
   0.500   0.0801   0.02239   0.01496  -0.0066  0.9092  0.9301  -0.3468   0.0000   0.0000   0.0000   0.3293
   0.600   0.0996   0.02238   0.01496  -0.0085  0.9078  0.9318  -0.3561   0.0000   0.0000   0.0000   0.3326
   0.700   0.1220   0.02236   0.01498  -0.0110  0.9065  0.9329  -0.3669   0.0000   0.0000   0.0000   0.3371
   0.800   0.1315   0.02241   0.01505  -0.0112  0.9031  0.9357  -0.3717   0.0000   0.0000   0.0000   0.3319
   0.900   0.1427   0.02243   0.01508  -0.0116  0.9005  0.9386  -0.3777   0.0000   0.0000   0.0000   0.3279
   1.000   0.1650   0.02241   0.01509  -0.0140  0.8993  0.9397  -0.4288   0.0000   0.0000   0.0000   0.3318
   1.100   0.1869   0.02239   0.01510  -0.0163  0.8981  0.9409  -0.4854   0.0000   0.0000   0.0000   0.3344
   1.200   0.1905   0.02249   0.01522  -0.0155  0.8939  0.9448  -0.5093   0.0000   0.0000   0.0000   0.3281
   1.300   0.2086   0.02249   0.01525  -0.0171  0.8919  0.9465  -0.5603   0.0000   0.0000   0.0000   0.3291
   1.400   0.2295   0.02246   0.01527  -0.0193  0.8904  0.9479  -0.6174   0.0000   0.0000   0.0000   0.3309
   1.500   0.2495   0.02244   0.01531  -0.0212  0.8890  0.9495  -0.6737   0.0000   0.0000   0.0000   0.3319
   1.600   0.2551   0.02256   0.01546  -0.0208  0.8848  0.9531  -0.7026   0.0000   0.0000   0.0000   0.3282
   1.700   0.2734   0.02255   0.01550  -0.0224  0.8825  0.9548  -0.7569   0.0000   0.0000   0.0000   0.3289
   1.800   0.2915   0.02253   0.01552  -0.0240  0.8807  0.9566  -0.8116   0.0000   0.0000   0.0000   0.3291
   1.900   0.3047   0.02257   0.01561  -0.0248  0.8778  0.9591  -0.8629   0.0000   0.0000   0.0000   0.3281
   2.000   0.3192   0.02261   0.01570  -0.0259  0.8745  0.9614  -0.9186   0.0000   0.0000   0.0000   0.3277
   2.100   0.3351   0.02260   0.01574  -0.0269  0.8719  0.9637  -0.9786   0.0000   0.0000   0.0000   0.3271
   2.200   0.3559   0.02252   0.01572  -0.0288  0.8700  0.9650  -1.0515   0.0000   0.0000   0.0000   0.3277
   2.300   0.3674   0.02260   0.01587  -0.0295  0.8655  0.9679  -1.1020   0.0000   0.0000   0.0000   0.3268
   2.400   0.3835   0.02257   0.01590  -0.0305  0.8624  0.9701  -1.1648   0.0000   0.0000   0.0000   0.3263
   2.500   0.4041   0.02244   0.01587  -0.0322  0.8601  0.9713  -1.2401   0.0000   0.0000   0.0000   0.3264
   2.600   0.4139   0.02254   0.01603  -0.0325  0.8551  0.9745  -1.2881   0.0000   0.0000   0.0000   0.3251
   2.700   0.4328   0.02240   0.01598  -0.0339  0.8515  0.9759  -1.3606   0.0000   0.0000   0.0000   0.3248
   2.800   0.4481   0.02218   0.01583  -0.0343  0.8445  0.9779  -1.4258   0.0000   0.0000   0.0000   0.3230
   2.900   0.4631   0.02137   0.01505  -0.0329  0.8310  0.9791  -1.4965   0.0000   0.0000   0.0000   0.3175
   3.000   0.4748   0.02029   0.01397  -0.0302  0.8131  0.9805  -1.5618   0.0000   0.0000   0.0000   0.3101
   3.100   0.4827   0.01928   0.01294  -0.0271  0.7950  0.9828  -1.6186   0.0000   0.0000   0.0000   0.3026
   3.200   0.4912   0.01846   0.01211  -0.0248  0.7768  0.9854  -1.6826   0.0000   0.0000   0.0000   0.2969
   3.300   0.5012   0.01786   0.01151  -0.0234  0.7615  0.9881  -1.7487   0.0000   0.0000   0.0000   0.2930
   3.400   0.5123   0.01736   0.01102  -0.0225  0.7474  0.9908  -1.8168   0.0000   0.0000   0.0000   0.2901
   3.500   0.5241   0.01688   0.01060  -0.0218  0.7329  0.9935  -1.8864   0.0000   0.0000   0.0000   0.2878
   3.600   0.5360   0.01641   0.01014  -0.0212  0.7144  0.9961  -1.9548   0.0000   0.0000   0.0000   0.2856
   3.700   0.5476   0.01589   0.00962  -0.0204  0.6883  0.9988  -2.0205   0.0000   0.0000   0.0000   0.2833
   3.800   0.5548   0.01549   0.00920  -0.0189  0.6519  1.0000  -2.0680   0.0000   0.0000   0.0000   0.2800
   3.900   0.5561   0.01520   0.00866  -0.0160  0.5643  1.0000  -2.0897   0.0000   0.0000   0.0000   0.2746
   4.000   0.5475   0.01719   0.00862  -0.0129  0.2157  1.0000  -2.0789   0.0000   0.0000   0.0000   0.2693
   4.100   0.5492   0.01847   0.00923  -0.0121  0.1397  1.0000  -2.0845   0.0000   0.0000   0.0000   0.2676
   4.200   0.5540   0.01900   0.00961  -0.0113  0.1227  1.0000  -2.1086   0.0000   0.0000   0.0000   0.2660
   4.300   0.5592   0.01940   0.00994  -0.0106  0.1133  1.0000  -2.1362   0.0000   0.0000   0.0000   0.2644
   4.400   0.5643   0.01976   0.01028  -0.0098  0.1074  1.0000  -2.1635   0.0000   0.0000   0.0000   0.2627
   4.500   0.5692   0.02012   0.01059  -0.0089  0.1028  1.0000  -2.1928   0.0000   0.0000   0.0000   0.2610
   4.600   0.5741   0.02046   0.01092  -0.0080  0.0993  1.0000  -2.2199   0.0000   0.0000   0.0000   0.2592
   4.700   0.5791   0.02078   0.01124  -0.0071  0.0962  1.0000  -2.2478   0.0000   0.0000   0.0000   0.2575
   4.800   0.5837   0.02115   0.01154  -0.0062  0.0936  1.0000  -2.2779   0.0000   0.0000   0.0000   0.2558
   4.900   0.5884   0.02154   0.01189  -0.0053  0.0913  1.0000  -2.3167   0.0000   0.0000   0.0000   0.2541
   5.000   0.5938   0.02183   0.01220  -0.0044  0.0885  1.0000  -2.3571   0.0000   0.0000   0.0000   0.2524
   5.100   0.5989   0.02216   0.01250  -0.0036  0.0859  1.0000  -2.4018   0.0000   0.0000   0.0000   0.2509
   5.200   0.6040   0.02267   0.01289  -0.0028  0.0835  1.0000  -2.4490   0.0000   0.0000   0.0000   0.2495
   5.300   0.6099   0.02293   0.01323  -0.0019  0.0814  1.0000  -2.4889   0.0000   0.0000   0.0000   0.2479
   5.400   0.6160   0.02328   0.01359  -0.0011  0.0796  1.0000  -2.5308   0.0000   0.0000   0.0000   0.2465
   5.500   0.6224   0.02369   0.01398  -0.0004  0.0782  1.0000  -2.5736   0.0000   0.0000   0.0000   0.2452
   5.600   0.6291   0.02413   0.01439   0.0003  0.0770  1.0000  -2.6184   0.0000   0.0000   0.0000   0.2440
   5.700   0.6365   0.02469   0.01489   0.0009  0.0759  1.0000  -2.6654   0.0000   0.0000   0.0000   0.2431
   5.800   0.6445   0.02533   0.01548   0.0014  0.0751  1.0000  -2.7088   0.0000   0.0000   0.0000   0.2422
   5.900   0.6516   0.02578   0.01601   0.0022  0.0744  1.0000  -2.7434   0.0000   0.0000   0.0000   0.2410
   6.000   0.6589   0.02628   0.01659   0.0030  0.0739  1.0000  -2.7777   0.0000   0.0000   0.0000   0.2398
   6.100   0.6664   0.02683   0.01721   0.0037  0.0734  1.0000  -2.8112   0.0000   0.0000   0.0000   0.2387
   6.200   0.6738   0.02742   0.01786   0.0044  0.0729  1.0000  -2.8434   0.0000   0.0000   0.0000   0.2376
   6.300   0.6808   0.02800   0.01852   0.0052  0.0723  1.0000  -2.8750   0.0000   0.0000   0.0000   0.2364
   6.400   0.6873   0.02856   0.01915   0.0060  0.0715  1.0000  -2.9079   0.0000   0.0000   0.0000   0.2352
   6.500   0.6934   0.02909   0.01973   0.0068  0.0703  1.0000  -2.9457   0.0000   0.0000   0.0000   0.2341
   6.600   0.6999   0.02965   0.02027   0.0075  0.0689  1.0000  -2.9944   0.0000   0.0000   0.0000   0.2332
   6.700   0.7085   0.03065   0.02116   0.0076  0.0675  1.0000  -3.0543   0.0000   0.0000   0.0000   0.2331
   6.800   0.7137   0.03125   0.02190   0.0086  0.0669  1.0000  -3.0756   0.0000   0.0000   0.0000   0.2316
   6.900   0.7198   0.03196   0.02274   0.0095  0.0667  1.0000  -3.0969   0.0000   0.0000   0.0000   0.2304
   7.000   0.7266   0.03280   0.02368   0.0103  0.0667  1.0000  -3.1185   0.0000   0.0000   0.0000   0.2294
   7.100   0.7335   0.03371   0.02469   0.0111  0.0668  1.0000  -3.1396   0.0000   0.0000   0.0000   0.2285
   7.200   0.7408   0.03471   0.02577   0.0117  0.0669  1.0000  -3.1609   0.0000   0.0000   0.0000   0.2277
   7.300   0.7486   0.03583   0.02696   0.0122  0.0671  1.0000  -3.1928   0.0000   0.0000   0.0000   0.2271
   7.400   0.7538   0.03650   0.02794   0.0134  0.0681  1.0000  -3.2001   0.0000   0.0000   0.0000   0.2255
   7.500   0.7572   0.03785   0.02979   0.0151  0.0707  1.0000  -3.1504   0.0000   0.0000   0.0000   0.2234
   7.600   0.7632   0.03929   0.03142   0.0159  0.0724  1.0000  -3.1540   0.0000   0.0000   0.0000   0.2225
   7.700   0.7703   0.04073   0.03295   0.0164  0.0738  1.0000  -3.1771   0.0000   0.0000   0.0000   0.2220
   7.800   0.7794   0.04239   0.03457   0.0164  0.0749  1.0000  -3.2200   0.0000   0.0000   0.0000   0.2221
  16.000   0.7153   0.19759   0.19248  -0.0379  0.0670  1.0000  -1.8708   0.0000   0.0000   0.0000   0.2882
  16.100   0.7121   0.19841   0.19328  -0.0402  0.0665  1.0000  -1.8098   0.0000   0.0000   0.0000   0.2914
  16.200   0.7117   0.19956   0.19442  -0.0419  0.0654  1.0000  -1.7732   0.0000   0.0000   0.0000   0.2936
  16.300   0.7137   0.20093   0.19578  -0.0430  0.0642  1.0000  -1.7632   0.0000   0.0000   0.0000   0.2949
  16.400   0.7165   0.20234   0.19719  -0.0438  0.0632  1.0000  -1.7652   0.0000   0.0000   0.0000   0.2957
  16.500   0.7198   0.20375   0.19860  -0.0444  0.0622  1.0000  -1.7748   0.0000   0.0000   0.0000   0.2961
  16.600   0.7238   0.20520   0.20006  -0.0449  0.0614  1.0000  -1.7938   0.0000   0.0000   0.0000   0.2963
  16.700   0.7290   0.20684   0.20171  -0.0449  0.0607  1.0000  -1.8286   0.0000   0.0000   0.0000   0.2958
  16.800   0.7396   0.20971   0.20463  -0.0437  0.0600  1.0000  -1.9171   0.0000   0.0000   0.0000   0.2932
  16.900   0.7442   0.21200   0.20690  -0.0441  0.0597  1.0000  -1.9306   0.0000   0.0000   0.0000   0.2933
  17.000   0.7416   0.21249   0.20738  -0.0462  0.0595  1.0000  -1.8724   0.0000   0.0000   0.0000   0.2962
  17.100   0.7402   0.21324   0.20811  -0.0483  0.0591  1.0000  -1.8192   0.0000   0.0000   0.0000   0.2989
  17.200   0.7405   0.21428   0.20914  -0.0500  0.0585  1.0000  -1.7810   0.0000   0.0000   0.0000   0.3011
  17.300   0.7425   0.21558   0.21042  -0.0513  0.0576  1.0000  -1.7630   0.0000   0.0000   0.0000   0.3024
  17.400   0.7452   0.21696   0.21181  -0.0523  0.0568  1.0000  -1.7566   0.0000   0.0000   0.0000   0.3034
  17.500   0.7482   0.21835   0.21320  -0.0532  0.0559  1.0000  -1.7568   0.0000   0.0000   0.0000   0.3041
  17.600   0.7516   0.21974   0.21459  -0.0539  0.0552  1.0000  -1.7623   0.0000   0.0000   0.0000   0.3047
  17.700   0.7552   0.22115   0.21600  -0.0545  0.0545  1.0000  -1.7736   0.0000   0.0000   0.0000   0.3050
  17.800   0.7593   0.22263   0.21749  -0.0550  0.0538  1.0000  -1.7928   0.0000   0.0000   0.0000   0.3051
  17.900   0.7643   0.22434   0.21921  -0.0551  0.0533  1.0000  -1.8259   0.0000   0.0000   0.0000   0.3047
  18.000   0.7726   0.22719   0.22209  -0.0543  0.0527  1.0000  -1.8976   0.0000   0.0000   0.0000   0.3027
  18.100   0.7778   0.22967   0.22456  -0.0545  0.0525  1.0000  -1.9173   0.0000   0.0000   0.0000   0.3025
  18.200   0.7768   0.23004   0.22491  -0.0566  0.0523  1.0000  -1.8642   0.0000   0.0000   0.0000   0.3050
  18.300   0.7766   0.23068   0.22554  -0.0585  0.0521  1.0000  -1.8153   0.0000   0.0000   0.0000   0.3074
  18.400   0.7777   0.23157   0.22642  -0.0603  0.0517  1.0000  -1.7760   0.0000   0.0000   0.0000   0.3093
  18.500   0.7798   0.23277   0.22761  -0.0616  0.0510  1.0000  -1.7520   0.0000   0.0000   0.0000   0.3107
  18.600   0.7826   0.23407   0.22891  -0.0627  0.0503  1.0000  -1.7400   0.0000   0.0000   0.0000   0.3117
  18.700   0.7857   0.23544   0.23028  -0.0637  0.0497  1.0000  -1.7394   0.0000   0.0000   0.0000   0.3125
  18.800   0.7890   0.23680   0.23164  -0.0646  0.0490  1.0000  -1.7447   0.0000   0.0000   0.0000   0.3131
  18.900   0.7923   0.23816   0.23300  -0.0654  0.0484  1.0000  -1.7536   0.0000   0.0000   0.0000   0.3137
  19.000   0.7959   0.23952   0.23437  -0.0662  0.0478  1.0000  -1.7662   0.0000   0.0000   0.0000   0.3141
  19.100   0.7996   0.24091   0.23576  -0.0669  0.0472  1.0000  -1.7836   0.0000   0.0000   0.0000   0.3144
  19.200   0.8036   0.24241   0.23727  -0.0674  0.0468  1.0000  -1.8079   0.0000   0.0000   0.0000   0.3145
  19.300   0.8083   0.24418   0.23905  -0.0676  0.0463  1.0000  -1.8444   0.0000   0.0000   0.0000   0.3141
  19.400   0.8151   0.24702   0.24192  -0.0670  0.0459  1.0000  -1.9112   0.0000   0.0000   0.0000   0.3127
  19.500   0.8205   0.24973   0.24463  -0.0672  0.0457  1.0000  -1.9432   0.0000   0.0000   0.0000   0.3122
  19.600   0.8206   0.24998   0.24486  -0.0691  0.0456  1.0000  -1.8990   0.0000   0.0000   0.0000   0.3143
  19.700   0.8215   0.25045   0.24532  -0.0710  0.0454  1.0000  -1.8584   0.0000   0.0000   0.0000   0.3163
  19.800   0.8230   0.25121   0.24608  -0.0727  0.0451  1.0000  -1.8235   0.0000   0.0000   0.0000   0.3180
  19.900   0.8254   0.25223   0.24708  -0.0742  0.0446  1.0000  -1.7994   0.0000   0.0000   0.0000   0.3194
  20.000   0.8283   0.25345   0.24831  -0.0754  0.0440  1.0000  -1.7879   0.0000   0.0000   0.0000   0.3204
  20.100   0.8314   0.25473   0.24958  -0.0764  0.0433  1.0000  -1.7848   0.0000   0.0000   0.0000   0.3211
  20.200   0.8348   0.25604   0.25090  -0.0774  0.0426  1.0000  -1.7870   0.0000   0.0000   0.0000   0.3217
  20.300   0.8382   0.25735   0.25221  -0.0782  0.0419  1.0000  -1.7936   0.0000   0.0000   0.0000   0.3222
  20.400   0.8417   0.25868   0.25354  -0.0790  0.0413  1.0000  -1.8052   0.0000   0.0000   0.0000   0.3226
  20.500   0.8454   0.26003   0.25490  -0.0797  0.0407  1.0000  -1.8234   0.0000   0.0000   0.0000   0.3228
  20.600   0.8494   0.26152   0.25640  -0.0802  0.0402  1.0000  -1.8516   0.0000   0.0000   0.0000   0.3228
  20.700   0.8543   0.26353   0.25843  -0.0802  0.0397  1.0000  -1.8995   0.0000   0.0000   0.0000   0.3221
  20.800   0.8624   0.26794   0.26284  -0.0790  0.0393  1.0000  -1.9926   0.0000   0.0000   0.0000   0.3198
  20.900   0.8629   0.26793   0.26282  -0.0810  0.0392  1.0000  -1.9436   0.0000   0.0000   0.0000   0.3219
  21.000   0.8641   0.26826   0.26314  -0.0829  0.0391  1.0000  -1.9004   0.0000   0.0000   0.0000   0.3237
  21.100   0.8662   0.26892   0.26379  -0.0846  0.0389  1.0000  -1.8653   0.0000   0.0000   0.0000   0.3252
  21.200   0.8687   0.26984   0.26471  -0.0860  0.0386  1.0000  -1.8386   0.0000   0.0000   0.0000   0.3264
  21.300   0.8717   0.27099   0.26586  -0.0873  0.0382  1.0000  -1.8209   0.0000   0.0000   0.0000   0.3274
  21.400   0.8749   0.27223   0.26710  -0.0885  0.0378  1.0000  -1.8110   0.0000   0.0000   0.0000   0.3282
  21.500   0.8782   0.27350   0.26837  -0.0895  0.0373  1.0000  -1.8060   0.0000   0.0000   0.0000   0.3288
  21.600   0.8815   0.27481   0.26968  -0.0905  0.0369  1.0000  -1.8041   0.0000   0.0000   0.0000   0.3294
  21.700   0.8849   0.27611   0.27099  -0.0915  0.0364  1.0000  -1.8044   0.0000   0.0000   0.0000   0.3299
  21.800   0.8883   0.27740   0.27229  -0.0924  0.0360  1.0000  -1.8066   0.0000   0.0000   0.0000   0.3304
  21.900   0.8917   0.27870   0.27359  -0.0933  0.0356  1.0000  -1.8107   0.0000   0.0000   0.0000   0.3308
  22.000   0.8952   0.27999   0.27489  -0.0942  0.0352  1.0000  -1.8168   0.0000   0.0000   0.0000   0.3312
  22.100   0.8987   0.28129   0.27619  -0.0951  0.0348  1.0000  -1.8253   0.0000   0.0000   0.0000   0.3316
  22.200   0.9022   0.28264   0.27755  -0.0959  0.0345  1.0000  -1.8369   0.0000   0.0000   0.0000   0.3318
  22.300   0.9058   0.28404   0.27895  -0.0966  0.0342  1.0000  -1.8528   0.0000   0.0000   0.0000   0.3320
  22.400   0.9095   0.28559   0.28051  -0.0971  0.0339  1.0000  -1.8751   0.0000   0.0000   0.0000   0.3320
  22.500   0.9136   0.28754   0.28247  -0.0975  0.0336  1.0000  -1.9083   0.0000   0.0000   0.0000   0.3317
  22.600   0.9190   0.29068   0.28563  -0.0972  0.0334  1.0000  -1.9640   0.0000   0.0000   0.0000   0.3307
  22.700   0.9228   0.29280   0.28774  -0.0979  0.0333  1.0000  -1.9723   0.0000   0.0000   0.0000   0.3308
  22.800   0.9246   0.29303   0.28796  -0.0996  0.0332  1.0000  -1.9354   0.0000   0.0000   0.0000   0.3322
  22.900   0.9269   0.29349   0.28842  -0.1012  0.0331  1.0000  -1.9010   0.0000   0.0000   0.0000   0.3335
  23.000   0.9294   0.29413   0.28906  -0.1028  0.0330  1.0000  -1.8749   0.0000   0.0000   0.0000   0.3347
  23.100   0.9323   0.29499   0.28991  -0.1042  0.0329  1.0000  -1.8565   0.0000   0.0000   0.0000   0.3357
  23.200   0.9354   0.29598   0.29090  -0.1055  0.0326  1.0000  -1.8432   0.0000   0.0000   0.0000   0.3365
  23.300   0.9386   0.29713   0.29205  -0.1067  0.0323  1.0000  -1.8354   0.0000   0.0000   0.0000   0.3372
  23.400   0.9419   0.29831   0.29323  -0.1079  0.0320  1.0000  -1.8321   0.0000   0.0000   0.0000   0.3378
  23.500   0.9452   0.29956   0.29449  -0.1089  0.0317  1.0000  -1.8320   0.0000   0.0000   0.0000   0.3384
  23.600   0.9485   0.30082   0.29576  -0.1100  0.0313  1.0000  -1.8339   0.0000   0.0000   0.0000   0.3389
  23.700   0.9518   0.30207   0.29702  -0.1110  0.0310  1.0000  -1.8373   0.0000   0.0000   0.0000   0.3393
  23.800   0.9552   0.30333   0.29828  -0.1120  0.0306  1.0000  -1.8419   0.0000   0.0000   0.0000   0.3398
  23.900   0.9585   0.30458   0.29953  -0.1130  0.0303  1.0000  -1.8475   0.0000   0.0000   0.0000   0.3402
  24.000   0.9618   0.30582   0.30078  -0.1139  0.0300  1.0000  -1.8542   0.0000   0.0000   0.0000   0.3406
  24.100   0.9651   0.30706   0.30202  -0.1149  0.0297  1.0000  -1.8619   0.0000   0.0000   0.0000   0.3410
  24.200   0.9685   0.30830   0.30326  -0.1158  0.0294  1.0000  -1.8709   0.0000   0.0000   0.0000   0.3413
  24.300   0.9718   0.30954   0.30451  -0.1168  0.0291  1.0000  -1.8815   0.0000   0.0000   0.0000   0.3416
  24.400   0.9751   0.31082   0.30580  -0.1176  0.0288  1.0000  -1.8943   0.0000   0.0000   0.0000   0.3419
  24.500   0.9784   0.31213   0.30711  -0.1185  0.0286  1.0000  -1.9104   0.0000   0.0000   0.0000   0.3421
  24.600   0.9818   0.31353   0.30852  -0.1192  0.0283  1.0000  -1.9313   0.0000   0.0000   0.0000   0.3423
  24.700   0.9853   0.31517   0.31018  -0.1198  0.0281  1.0000  -1.9599   0.0000   0.0000   0.0000   0.3422
  24.800   0.9891   0.31747   0.31248  -0.1200  0.0279  1.0000  -2.0021   0.0000   0.0000   0.0000   0.3418
  25.100   0.9985   0.32163   0.31663  -0.1231  0.0276  1.0000  -1.9978   0.0000   0.0000   0.0000   0.3431
  25.200   1.0011   0.32198   0.31698  -0.1248  0.0275  1.0000  -1.9664   0.0000   0.0000   0.0000   0.3442
  25.300   1.0041   0.32264   0.31764  -0.1263  0.0274  1.0000  -1.9402   0.0000   0.0000   0.0000   0.3451
  25.400   1.0072   0.32353   0.31854  -0.1277  0.0271  1.0000  -1.9207   0.0000   0.0000   0.0000   0.3459
  25.500   1.0105   0.32459   0.31960  -0.1289  0.0269  1.0000  -1.9083   0.0000   0.0000   0.0000   0.3465
  25.600   1.0137   0.32574   0.32076  -0.1300  0.0266  1.0000  -1.9013   0.0000   0.0000   0.0000   0.3470
  25.700   1.0169   0.32689   0.32191  -0.1311  0.0263  1.0000  -1.8978   0.0000   0.0000   0.0000   0.3474
  25.800   1.0202   0.32811   0.32313  -0.1322  0.0260  1.0000  -1.8963   0.0000   0.0000   0.0000   0.3478
  25.900   1.0234   0.32931   0.32434  -0.1332  0.0257  1.0000  -1.8960   0.0000   0.0000   0.0000   0.3482
  26.000   1.0265   0.33050   0.32554  -0.1343  0.0254  1.0000  -1.8966   0.0000   0.0000   0.0000   0.3486
  26.100   1.0297   0.33169   0.32673  -0.1353  0.0252  1.0000  -1.8980   0.0000   0.0000   0.0000   0.3490
  26.200   1.0329   0.33288   0.32792  -0.1363  0.0249  1.0000  -1.9002   0.0000   0.0000   0.0000   0.3493
  26.300   1.0360   0.33405   0.32910  -0.1373  0.0247  1.0000  -1.9031   0.0000   0.0000   0.0000   0.3497
  26.400   1.0392   0.33523   0.33028  -0.1383  0.0244  1.0000  -1.9069   0.0000   0.0000   0.0000   0.3500
  26.500   1.0423   0.33639   0.33145  -0.1393  0.0242  1.0000  -1.9115   0.0000   0.0000   0.0000   0.3503
  26.600   1.0454   0.33755   0.33262  -0.1403  0.0240  1.0000  -1.9172   0.0000   0.0000   0.0000   0.3506
  26.700   1.0485   0.33872   0.33379  -0.1413  0.0238  1.0000  -1.9241   0.0000   0.0000   0.0000   0.3509
  26.800   1.0516   0.33989   0.33497  -0.1423  0.0236  1.0000  -1.9325   0.0000   0.0000   0.0000   0.3512
  26.900   1.0546   0.34114   0.33623  -0.1432  0.0234  1.0000  -1.9429   0.0000   0.0000   0.0000   0.3514
  27.000   1.0577   0.34240   0.33750  -0.1441  0.0232  1.0000  -1.9559   0.0000   0.0000   0.0000   0.3516
  27.100   1.0607   0.34376   0.33886  -0.1449  0.0230  1.0000  -1.9725   0.0000   0.0000   0.0000   0.3518
  27.200   1.0637   0.34532   0.34044  -0.1456  0.0229  1.0000  -1.9942   0.0000   0.0000   0.0000   0.3518
  27.300   1.0669   0.34731   0.34244  -0.1461  0.0227  1.0000  -2.0237   0.0000   0.0000   0.0000   0.3517
  27.400   1.0705   0.35030   0.34545  -0.1463  0.0226  1.0000  -2.0657   0.0000   0.0000   0.0000   0.3512
  28.600   1.1057   0.36079   0.35595  -0.1614  0.0215  1.0000  -1.9221   0.0000   0.0000   0.0000   0.3575
  28.700   1.1086   0.36189   0.35706  -0.1625  0.0213  1.0000  -1.9245   0.0000   0.0000   0.0000   0.3578
  28.800   1.1116   0.36300   0.35818  -0.1636  0.0211  1.0000  -1.9279   0.0000   0.0000   0.0000   0.3581
  28.900   1.1145   0.36411   0.35929  -0.1647  0.0208  1.0000  -1.9321   0.0000   0.0000   0.0000   0.3585
  29.000   1.1174   0.36521   0.36041  -0.1658  0.0206  1.0000  -1.9369   0.0000   0.0000   0.0000   0.3588
  29.100   1.1203   0.36631   0.36151  -0.1669  0.0204  1.0000  -1.9424   0.0000   0.0000   0.0000   0.3591
  29.200   1.1231   0.36739   0.36260  -0.1679  0.0202  1.0000  -1.9485   0.0000   0.0000   0.0000   0.3594
  29.300   1.1260   0.36846   0.36368  -0.1690  0.0199  1.0000  -1.9553   0.0000   0.0000   0.0000   0.3597
  29.400   1.1288   0.36952   0.36474  -0.1701  0.0197  1.0000  -1.9627   0.0000   0.0000   0.0000   0.3600
  29.500   1.1316   0.37056   0.36579  -0.1711  0.0195  1.0000  -1.9709   0.0000   0.0000   0.0000   0.3602
  29.600   1.1344   0.37159   0.36682  -0.1722  0.0193  1.0000  -1.9799   0.0000   0.0000   0.0000   0.3605
  29.700   1.1371   0.37260   0.36784  -0.1732  0.0191  1.0000  -1.9898   0.0000   0.0000   0.0000   0.3608
  29.800   1.1398   0.37361   0.36886  -0.1742  0.0189  1.0000  -2.0008   0.0000   0.0000   0.0000   0.3610
  29.900   1.1425   0.37462   0.36988  -0.1753  0.0187  1.0000  -2.0128   0.0000   0.0000   0.0000   0.3613
  30.000   1.1452   0.37575   0.37101  -0.1762  0.0185  1.0000  -2.0262   0.0000   0.0000   0.0000   0.3615


