xflr5 v6.61

 Calculated polar for: NACA 23012  12%

 1 1 Reynolds number fixed          Mach number fixed         

 xtrf =   1.000 (top)        1.000 (bottom)
 Mach =   0.000     Re =     0.130 e 6     Ncrit =   9.000

  alpha     CL        CD       CDp       Cm    Top Xtr Bot Xtr   Cpmin    Chinge    XCp    
 ------- -------- --------- --------- -------- ------- ------- -------- --------- ---------
 -10.000  -0.5196   0.10270   0.09814  -0.0090  1.0000  0.0925  -1.6457   0.0000   0.0000   0.0000   0.2242
  -9.900  -0.5217   0.10095   0.09641  -0.0106  1.0000  0.0938  -1.6672   0.0000   0.0000   0.0000   0.2212
  -9.800  -0.5255   0.09912   0.09460  -0.0130  1.0000  0.0951  -1.7028   0.0000   0.0000   0.0000   0.2171
  -9.700  -0.5327   0.09704   0.09254  -0.0165  1.0000  0.0964  -1.7642   0.0000   0.0000   0.0000   0.2110
  -9.600  -0.5417   0.09465   0.09017  -0.0210  1.0000  0.0974  -1.8382   0.0000   0.0000   0.0000   0.2035
  -9.500  -0.5509   0.09266   0.08816  -0.0242  1.0000  0.0980  -1.8951   0.0000   0.0000   0.0000   0.1985
  -9.400  -0.5595   0.09124   0.08671  -0.0259  1.0000  0.0983  -1.9336   0.0000   0.0000   0.0000   0.1964
  -9.300  -0.5678   0.09008   0.08552  -0.0266  1.0000  0.0985  -1.9627   0.0000   0.0000   0.0000   0.1961
  -9.200  -0.5755   0.08906   0.08448  -0.0267  1.0000  0.0987  -1.9853   0.0000   0.0000   0.0000   0.1967
  -9.100  -0.5815   0.08801   0.08339  -0.0268  1.0000  0.0988  -2.0022   0.0000   0.0000   0.0000   0.1971
  -9.000  -0.5861   0.08691   0.08225  -0.0270  1.0000  0.0989  -2.0141   0.0000   0.0000   0.0000   0.1974
  -8.900  -0.5899   0.08579   0.08109  -0.0270  1.0000  0.0991  -2.0221   0.0000   0.0000   0.0000   0.1978
  -8.800  -0.5929   0.08464   0.07989  -0.0269  1.0000  0.0992  -2.0267   0.0000   0.0000   0.0000   0.1982
  -8.700  -0.5951   0.08347   0.07867  -0.0268  1.0000  0.0992  -2.0282   0.0000   0.0000   0.0000   0.1987
  -8.600  -0.5968   0.08227   0.07742  -0.0266  1.0000  0.0993  -2.0273   0.0000   0.0000   0.0000   0.1992
  -8.500  -0.6233   0.07323   0.06838  -0.0282  1.0000  0.1015  -2.1782   0.0000   0.0000   0.0000   0.1987
  -8.400  -0.6249   0.07002   0.06520  -0.0283  1.0000  0.1028  -2.1747   0.0000   0.0000   0.0000   0.1987
  -8.300  -0.6168   0.06806   0.06331  -0.0283  1.0000  0.1039  -2.1201   0.0000   0.0000   0.0000   0.1982
  -8.200  -0.6099   0.06658   0.06188  -0.0280  1.0000  0.1048  -2.0696   0.0000   0.0000   0.0000   0.1981
  -8.100  -0.6049   0.06531   0.06063  -0.0277  1.0000  0.1057  -2.0270   0.0000   0.0000   0.0000   0.1984
  -8.000  -0.6008   0.06412   0.05946  -0.0273  1.0000  0.1067  -1.9892   0.0000   0.0000   0.0000   0.1988
  -7.900  -0.5975   0.06297   0.05832  -0.0269  1.0000  0.1077  -1.9552   0.0000   0.0000   0.0000   0.1993
  -7.800  -0.5947   0.06185   0.05719  -0.0264  1.0000  0.1087  -1.9247   0.0000   0.0000   0.0000   0.1999
  -7.700  -0.5924   0.06074   0.05608  -0.0260  1.0000  0.1098  -1.8969   0.0000   0.0000   0.0000   0.2006
  -7.600  -0.5904   0.05965   0.05497  -0.0255  1.0000  0.1110  -1.8842   0.0000   0.0000   0.0000   0.2013
  -7.500  -0.5886   0.05858   0.05387  -0.0249  1.0000  0.1123  -1.8742   0.0000   0.0000   0.0000   0.2022
  -7.400  -0.5870   0.05752   0.05278  -0.0244  1.0000  0.1138  -1.8656   0.0000   0.0000   0.0000   0.2031
  -7.300  -0.5856   0.05648   0.05171  -0.0237  1.0000  0.1154  -1.8582   0.0000   0.0000   0.0000   0.2041
  -7.200  -0.5840   0.05550   0.05068  -0.0231  1.0000  0.1171  -1.8518   0.0000   0.0000   0.0000   0.2052
  -7.100  -0.5824   0.05458   0.04971  -0.0223  1.0000  0.1190  -1.8459   0.0000   0.0000   0.0000   0.2064
  -7.000  -0.5802   0.05382   0.04888  -0.0216  1.0000  0.1213  -1.8398   0.0000   0.0000   0.0000   0.2076
  -6.900  -0.5769   0.05344   0.04842  -0.0207  1.0000  0.1239  -1.8313   0.0000   0.0000   0.0000   0.2090
  -6.800  -0.5649   0.05867   0.05341  -0.0186  1.0000  0.1298  -1.7751   0.0000   0.0000   0.0000   0.2119
  -6.700  -0.5847   0.05263   0.04723  -0.0179  1.0000  0.1329  -1.8521   0.0000   0.0000   0.0000   0.2144
  -6.600  -0.5865   0.04949   0.04410  -0.0174  1.0000  0.1352  -1.8547   0.0000   0.0000   0.0000   0.2153
  -6.500  -0.5815   0.04789   0.04257  -0.0170  1.0000  0.1370  -1.8322   0.0000   0.0000   0.0000   0.2159
  -6.400  -0.5757   0.04672   0.04146  -0.0164  1.0000  0.1387  -1.8066   0.0000   0.0000   0.0000   0.2167
  -6.300  -0.5707   0.04575   0.04052  -0.0157  1.0000  0.1404  -1.7835   0.0000   0.0000   0.0000   0.2177
  -6.200  -0.5661   0.04488   0.03966  -0.0149  1.0000  0.1422  -1.7623   0.0000   0.0000   0.0000   0.2189
  -5.700  -0.5370   0.03598   0.02898  -0.0076  1.0000  0.0701  -2.1280   0.0000   0.0000   0.0000   0.2310
  -5.600  -0.5335   0.03409   0.02699  -0.0066  1.0000  0.0684  -2.1431   0.0000   0.0000   0.0000   0.2327
  -5.500  -0.5286   0.03275   0.02553  -0.0057  1.0000  0.0670  -2.1489   0.0000   0.0000   0.0000   0.2343
  -5.400  -0.5231   0.03159   0.02425  -0.0048  1.0000  0.0658  -2.1526   0.0000   0.0000   0.0000   0.2360
  -5.300  -0.5171   0.03053   0.02308  -0.0039  1.0000  0.0647  -2.1557   0.0000   0.0000   0.0000   0.2377
  -5.200  -0.5106   0.02957   0.02200  -0.0030  1.0000  0.0639  -2.1587   0.0000   0.0000   0.0000   0.2393
  -5.100  -0.5038   0.02860   0.02071  -0.0021  1.0000  0.0632  -2.1745   0.0000   0.0000   0.0000   0.2410
  -5.000  -0.4966   0.02771   0.01970  -0.0013  1.0000  0.0625  -2.1752   0.0000   0.0000   0.0000   0.2426
  -4.900  -0.4891   0.02687   0.01875  -0.0005  1.0000  0.0620  -2.1743   0.0000   0.0000   0.0000   0.2442
  -4.800  -0.4814   0.02609   0.01787   0.0002  1.0000  0.0618  -2.1716   0.0000   0.0000   0.0000   0.2457
  -4.700  -0.4734   0.02536   0.01704   0.0009  1.0000  0.0617  -2.1671   0.0000   0.0000   0.0000   0.2472
  -4.600  -0.4653   0.02468   0.01628   0.0016  1.0000  0.0619  -2.1608   0.0000   0.0000   0.0000   0.2487
  -4.500  -0.4570   0.02406   0.01558   0.0022  1.0000  0.0624  -2.1533   0.0000   0.0000   0.0000   0.2502
  -4.400  -0.4487   0.02347   0.01493   0.0028  1.0000  0.0631  -2.1452   0.0000   0.0000   0.0000   0.2516
  -4.300  -0.4402   0.02293   0.01434   0.0034  1.0000  0.0643  -2.1372   0.0000   0.0000   0.0000   0.2531
  -4.200  -0.4318   0.02245   0.01380   0.0040  1.0000  0.0659  -2.1295   0.0000   0.0000   0.0000   0.2547
  -4.100  -0.4234   0.02207   0.01337   0.0046  1.0000  0.0682  -2.1214   0.0000   0.0000   0.0000   0.2563
  -4.000  -0.4153   0.02188   0.01313   0.0052  1.0000  0.0705  -2.1075   0.0000   0.0000   0.0000   0.2581
  -3.900  -0.4076   0.02197   0.01317   0.0059  1.0000  0.0723  -2.0817   0.0000   0.0000   0.0000   0.2600
  -3.800  -0.3977   0.02035   0.01154   0.0061  1.0000  0.0767  -2.0943   0.0000   0.0000   0.0000   0.2608
  -3.700  -0.3894   0.01982   0.01105   0.0065  1.0000  0.0795  -2.0645   0.0000   0.0000   0.0000   0.2621
  -3.600  -0.3813   0.01953   0.01079   0.0069  1.0000  0.0819  -2.0279   0.0000   0.0000   0.0000   0.2635
  -3.500  -0.3732   0.01929   0.01058   0.0073  1.0000  0.0840  -1.9904   0.0000   0.0000   0.0000   0.2650
  -3.400  -0.3652   0.01910   0.01041   0.0076  1.0000  0.0864  -1.9515   0.0000   0.0000   0.0000   0.2666
  -3.300  -0.3574   0.01902   0.01034   0.0080  1.0000  0.0899  -1.9076   0.0000   0.0000   0.0000   0.2681
  -3.200  -0.3496   0.01897   0.01030   0.0084  1.0000  0.0934  -1.8638   0.0000   0.0000   0.0000   0.2697
  -3.100  -0.3409   0.01893   0.01026   0.0086  0.9998  0.0964  -1.8195   0.0000   0.0000   0.0000   0.2710
  -3.000  -0.3206   0.01887   0.01017   0.0067  0.9967  0.0990  -1.7527   0.0000   0.0000   0.0000   0.2667
  -2.900  -0.3030   0.01814   0.00946   0.0055  0.9939  0.1020  -1.7119   0.0000   0.0000   0.0000   0.2637
  -2.800  -0.2852   0.01747   0.00883   0.0041  0.9910  0.1072  -1.6679   0.0000   0.0000   0.0000   0.2599
  -2.700  -0.2666   0.01705   0.00845   0.0025  0.9878  0.1137  -1.6134   0.0000   0.0000   0.0000   0.2548
  -2.600  -0.2487   0.01673   0.00813   0.0011  0.9833  0.1212  -1.5591   0.0000   0.0000   0.0000   0.2498
  -2.500  -0.2290   0.01650   0.00786  -0.0006  0.9794  0.1293  -1.5002   0.0000   0.0000   0.0000   0.2426
  -2.400  -0.2095   0.01598   0.00745  -0.0023  0.9765  0.1504  -1.4490   0.0000   0.0000   0.0000   0.2341
  -2.200  -0.1918   0.01347   0.00722  -0.0020  0.9682  0.5989  -1.3815   0.0000   0.0000   0.0000   0.2349
  -2.100  -0.1790   0.01316   0.00741  -0.0014  0.9637  0.7084  -1.3278   0.0000   0.0000   0.0000   0.2373
  -2.000  -0.1620   0.01310   0.00761  -0.0015  0.9599  0.7748  -1.2614   0.0000   0.0000   0.0000   0.2358
  -1.900  -0.1415   0.01316   0.00779  -0.0022  0.9567  0.8210  -1.1863   0.0000   0.0000   0.0000   0.2289
  -1.800  -0.1289   0.01321   0.00788  -0.0016  0.9491  0.8475  -1.1301   0.0000   0.0000   0.0000   0.2317
  -1.700  -0.1110   0.01328   0.00795  -0.0022  0.9433  0.8723  -1.0622   0.0000   0.0000   0.0000   0.2246
  -1.600  -0.0843   0.01342   0.00809  -0.0041  0.9400  0.8907  -0.9739   0.0000   0.0000   0.0000   0.1942
  -1.500  -0.0619   0.01348   0.00811  -0.0055  0.9362  0.9063  -0.8970   0.0000   0.0000   0.0000   0.1517
  -1.400  -0.0321   0.01358   0.00818  -0.0083  0.9340  0.9155  -0.8213   0.0000   0.0000   0.0000  -0.0247
  -1.300  -0.0139   0.01371   0.00821  -0.0089  0.9279  0.9290  -0.7892   0.0000   0.0000   0.0000  -0.4219
  -1.200   0.0134   0.01384   0.00829  -0.0113  0.9237  0.9380  -0.7301   0.0000   0.0000   0.0000   1.1221
  -1.100   0.0510   0.01401   0.00842  -0.0157  0.9221  0.9477  -0.6562   0.0000   0.0000   0.0000   0.5628
  -1.000   0.0760   0.01406   0.00843  -0.0179  0.9171  0.9575  -0.6029   0.0000   0.0000   0.0000   0.4879
  -0.900   0.1081   0.01400   0.00833  -0.0216  0.9127  0.9616  -0.6071   0.0000   0.0000   0.0000   0.4511
  -0.800   0.1341   0.01388   0.00817  -0.0243  0.9071  0.9654  -0.6301   0.0000   0.0000   0.0000   0.4314
  -0.700   0.1535   0.01379   0.00805  -0.0258  0.8982  0.9703  -0.6487   0.0000   0.0000   0.0000   0.4178
  -0.600   0.1701   0.01371   0.00793  -0.0267  0.8874  0.9759  -0.6654   0.0000   0.0000   0.0000   0.4064
  -0.500   0.1929   0.01354   0.00771  -0.0287  0.8775  0.9788  -0.6867   0.0000   0.0000   0.0000   0.3980
  -0.400   0.2131   0.01340   0.00752  -0.0303  0.8663  0.9825  -0.7061   0.0000   0.0000   0.0000   0.3911
  -0.300   0.2303   0.01329   0.00737  -0.0313  0.8521  0.9873  -0.7235   0.0000   0.0000   0.0000   0.3849
  -0.200   0.2484   0.01314   0.00715  -0.0324  0.8391  0.9907  -0.7439   0.0000   0.0000   0.0000   0.3792
  -0.100   0.2665   0.01301   0.00697  -0.0337  0.8244  0.9942  -0.7655   0.0000   0.0000   0.0000   0.3750
   0.000   0.2839   0.01289   0.00679  -0.0348  0.8086  0.9978  -0.7867   0.0000   0.0000   0.0000   0.3710
   0.200   0.3059   0.01273   0.00649  -0.0347  0.7801  1.0000  -0.8189   0.0000   0.0000   0.0000   0.3617
   0.300   0.3136   0.01268   0.00637  -0.0341  0.7655  1.0000  -0.8323   0.0000   0.0000   0.0000   0.3566
   0.400   0.3215   0.01264   0.00622  -0.0333  0.7523  1.0000  -0.8460   0.0000   0.0000   0.0000   0.3516
   0.500   0.3297   0.01261   0.00616  -0.0329  0.7383  1.0000  -0.8597   0.0000   0.0000   0.0000   0.3475
   0.600   0.3378   0.01258   0.00607  -0.0323  0.7236  1.0000  -0.8735   0.0000   0.0000   0.0000   0.3433
   0.700   0.3460   0.01258   0.00595  -0.0317  0.7095  1.0000  -0.8875   0.0000   0.0000   0.0000   0.3391
   0.800   0.3545   0.01258   0.00589  -0.0312  0.6959  1.0000  -0.9016   0.0000   0.0000   0.0000   0.3355
   0.900   0.3630   0.01257   0.00583  -0.0308  0.6809  1.0000  -0.9157   0.0000   0.0000   0.0000   0.3321
   1.000   0.3714   0.01260   0.00575  -0.0302  0.6660  1.0000  -0.9300   0.0000   0.0000   0.0000   0.3285
   1.100   0.3801   0.01264   0.00568  -0.0297  0.6520  1.0000  -0.9444   0.0000   0.0000   0.0000   0.3252
   1.200   0.3888   0.01264   0.00566  -0.0293  0.6372  1.0000  -0.9587   0.0000   0.0000   0.0000   0.3224
   1.300   0.3974   0.01268   0.00561  -0.0288  0.6217  1.0000  -0.9732   0.0000   0.0000   0.0000   0.3194
   1.400   0.4060   0.01277   0.00555  -0.0283  0.6065  1.0000  -0.9877   0.0000   0.0000   0.0000   0.3164
   1.500   0.4149   0.01280   0.00555  -0.0280  0.5924  1.0000  -1.0022   0.0000   0.0000   0.0000   0.3140
   1.600   0.4237   0.01285   0.00553  -0.0275  0.5768  1.0000  -1.0166   0.0000   0.0000   0.0000   0.3115
   1.700   0.4322   0.01295   0.00549  -0.0270  0.5613  1.0000  -1.0311   0.0000   0.0000   0.0000   0.3089
   1.800   0.4410   0.01304   0.00550  -0.0266  0.5470  1.0000  -1.0456   0.0000   0.0000   0.0000   0.3067
   1.900   0.4498   0.01309   0.00560  -0.0262  0.5320  1.0000  -1.0600   0.0000   0.0000   0.0000   0.3045
   2.000   0.4582   0.01320   0.00558  -0.0257  0.5168  1.0000  -1.0743   0.0000   0.0000   0.0000   0.3023
   2.100   0.4666   0.01339   0.00558  -0.0252  0.5009  1.0000  -1.0885   0.0000   0.0000   0.0000   0.3001
   2.200   0.4754   0.01343   0.00563  -0.0248  0.4886  1.0000  -1.1028   0.0000   0.0000   0.0000   0.2982
   2.300   0.4840   0.01352   0.00566  -0.0244  0.4747  1.0000  -1.1170   0.0000   0.0000   0.0000   0.2963
   2.400   0.4922   0.01367   0.00566  -0.0239  0.4612  1.0000  -1.1312   0.0000   0.0000   0.0000   0.2943
   2.500   0.5007   0.01389   0.00573  -0.0234  0.4473  1.0000  -1.1451   0.0000   0.0000   0.0000   0.2925
   2.600   0.5096   0.01394   0.00579  -0.0230  0.4376  1.0000  -1.1594   0.0000   0.0000   0.0000   0.2908
   2.700   0.5182   0.01403   0.00585  -0.0226  0.4270  1.0000  -1.1769   0.0000   0.0000   0.0000   0.2892
   2.800   0.5267   0.01417   0.00589  -0.0221  0.4168  1.0000  -1.1951   0.0000   0.0000   0.0000   0.2875
   2.900   0.5350   0.01436   0.00596  -0.0217  0.4067  1.0000  -1.2130   0.0000   0.0000   0.0000   0.2859
   3.000   0.5439   0.01464   0.00611  -0.0213  0.3962  1.0000  -1.2309   0.0000   0.0000   0.0000   0.2845
   3.100   0.5529   0.01470   0.00620  -0.0209  0.3907  1.0000  -1.2493   0.0000   0.0000   0.0000   0.2831
   3.200   0.5618   0.01480   0.00630  -0.0206  0.3843  1.0000  -1.2678   0.0000   0.0000   0.0000   0.2817
   3.300   0.5707   0.01490   0.00639  -0.0202  0.3779  1.0000  -1.2864   0.0000   0.0000   0.0000   0.2804
   3.400   0.5795   0.01503   0.00648  -0.0198  0.3716  1.0000  -1.3049   0.0000   0.0000   0.0000   0.2791
   3.500   0.5881   0.01519   0.00658  -0.0193  0.3654  1.0000  -1.3235   0.0000   0.0000   0.0000   0.2777
   3.600   0.5968   0.01539   0.00669  -0.0189  0.3591  1.0000  -1.3419   0.0000   0.0000   0.0000   0.2765
   3.700   0.6056   0.01569   0.00690  -0.0185  0.3518  1.0000  -1.3599   0.0000   0.0000   0.0000   0.2753
   3.800   0.6149   0.01599   0.00716  -0.0183  0.3458  1.0000  -1.3779   0.0000   0.0000   0.0000   0.2743
   3.900   0.6239   0.01608   0.00728  -0.0179  0.3428  1.0000  -1.3967   0.0000   0.0000   0.0000   0.2732
   4.000   0.6329   0.01618   0.00741  -0.0175  0.3393  1.0000  -1.4155   0.0000   0.0000   0.0000   0.2721
   4.100   0.6419   0.01631   0.00755  -0.0171  0.3354  1.0000  -1.4343   0.0000   0.0000   0.0000   0.2710
   4.200   0.6509   0.01644   0.00769  -0.0167  0.3313  1.0000  -1.4531   0.0000   0.0000   0.0000   0.2700
   4.300   0.6598   0.01659   0.00784  -0.0163  0.3273  1.0000  -1.4720   0.0000   0.0000   0.0000   0.2690
   4.400   0.6688   0.01674   0.00798  -0.0160  0.3234  1.0000  -1.4909   0.0000   0.0000   0.0000   0.2679
   4.500   0.6776   0.01689   0.00811  -0.0156  0.3195  1.0000  -1.5152   0.0000   0.0000   0.0000   0.2669
   4.600   0.6864   0.01707   0.00825  -0.0151  0.3154  1.0000  -1.5395   0.0000   0.0000   0.0000   0.2660
   4.700   0.6951   0.01728   0.00841  -0.0147  0.3111  1.0000  -1.5638   0.0000   0.0000   0.0000   0.2650
   4.800   0.7039   0.01759   0.00866  -0.0144  0.3061  1.0000  -1.5878   0.0000   0.0000   0.0000   0.2641
   4.900   0.7130   0.01817   0.00920  -0.0141  0.2996  1.0000  -1.6105   0.0000   0.0000   0.0000   0.2635
   5.000   0.7220   0.01839   0.00944  -0.0138  0.2967  1.0000  -1.6346   0.0000   0.0000   0.0000   0.2626
   5.100   0.7309   0.01847   0.00955  -0.0134  0.2946  1.0000  -1.6596   0.0000   0.0000   0.0000   0.2617
   5.200   0.7398   0.01857   0.00969  -0.0130  0.2922  1.0000  -1.6845   0.0000   0.0000   0.0000   0.2609
   5.300   0.7487   0.01871   0.00986  -0.0126  0.2895  1.0000  -1.7094   0.0000   0.0000   0.0000   0.2600
   5.400   0.7576   0.01887   0.01005  -0.0122  0.2868  1.0000  -1.7342   0.0000   0.0000   0.0000   0.2593
   5.500   0.7666   0.01905   0.01025  -0.0118  0.2840  1.0000  -1.7590   0.0000   0.0000   0.0000   0.2585
   5.600   0.7756   0.01923   0.01045  -0.0114  0.2811  1.0000  -1.7840   0.0000   0.0000   0.0000   0.2577
   5.700   0.7845   0.01941   0.01064  -0.0111  0.2782  1.0000  -1.8090   0.0000   0.0000   0.0000   0.2570
   5.800   0.7934   0.01959   0.01084  -0.0107  0.2753  1.0000  -1.8342   0.0000   0.0000   0.0000   0.2562
   5.900   0.8023   0.01978   0.01124  -0.0103  0.2723  1.0000  -1.8547   0.0000   0.0000   0.0000   0.2555
   6.000   0.8111   0.01998   0.01144  -0.0099  0.2694  1.0000  -1.8891   0.0000   0.0000   0.0000   0.2547
   6.100   0.8199   0.02020   0.01165  -0.0095  0.2665  1.0000  -1.9251   0.0000   0.0000   0.0000   0.2540
   6.200   0.8287   0.02047   0.01191  -0.0091  0.2634  1.0000  -1.9601   0.0000   0.0000   0.0000   0.2533
   6.300   0.8375   0.02086   0.01227  -0.0088  0.2600  1.0000  -1.9940   0.0000   0.0000   0.0000   0.2527
   6.400   0.8462   0.02150   0.01290  -0.0085  0.2559  1.0000  -2.0258   0.0000   0.0000   0.0000   0.2522
   6.500   0.8535   0.02259   0.01406  -0.0082  0.2513  1.0000  -2.0513   0.0000   0.0000   0.0000   0.2516
   6.600   0.8625   0.02270   0.01421  -0.0078  0.2501  1.0000  -2.0861   0.0000   0.0000   0.0000   0.2510
   6.700   0.8714   0.02281   0.01437  -0.0074  0.2485  1.0000  -2.1209   0.0000   0.0000   0.0000   0.2503
   6.800   0.8802   0.02293   0.01453  -0.0070  0.2465  1.0000  -2.1556   0.0000   0.0000   0.0000   0.2497
   6.900   0.8889   0.02307   0.01472  -0.0066  0.2442  1.0000  -2.1903   0.0000   0.0000   0.0000   0.2490
   7.000   0.8975   0.02322   0.01491  -0.0062  0.2415  1.0000  -2.2248   0.0000   0.0000   0.0000   0.2484
   7.100   0.9062   0.02338   0.01511  -0.0058  0.2386  1.0000  -2.2596   0.0000   0.0000   0.0000   0.2477
   7.200   0.9149   0.02355   0.01531  -0.0054  0.2357  1.0000  -2.3020   0.0000   0.0000   0.0000   0.2471
   7.300   0.9236   0.02372   0.01550  -0.0050  0.2328  1.0000  -2.3495   0.0000   0.0000   0.0000   0.2466
   7.400   0.9324   0.02391   0.01571  -0.0046  0.2300  1.0000  -2.3973   0.0000   0.0000   0.0000   0.2460
   7.500   0.9412   0.02412   0.01593  -0.0043  0.2275  1.0000  -2.4454   0.0000   0.0000   0.0000   0.2454
   7.600   0.9500   0.02434   0.01616  -0.0039  0.2250  1.0000  -2.4939   0.0000   0.0000   0.0000   0.2449
   7.700   0.9589   0.02457   0.01639  -0.0036  0.2226  1.0000  -2.5429   0.0000   0.0000   0.0000   0.2444
   7.800   0.9676   0.02483   0.01665  -0.0033  0.2201  1.0000  -2.5921   0.0000   0.0000   0.0000   0.2439
   7.900   0.9762   0.02516   0.01698  -0.0029  0.2175  1.0000  -2.6406   0.0000   0.0000   0.0000   0.2434
   8.000   0.9846   0.02571   0.01751  -0.0026  0.2144  1.0000  -2.6873   0.0000   0.0000   0.0000   0.2429
   8.100   0.9910   0.02687   0.01873  -0.0023  0.2103  1.0000  -2.7240   0.0000   0.0000   0.0000   0.2424
   8.200   0.9960   0.02816   0.02012  -0.0017  0.2070  1.0000  -2.7548   0.0000   0.0000   0.0000   0.2418
   8.300   1.0048   0.02823   0.02026  -0.0013  0.2059  1.0000  -2.8048   0.0000   0.0000   0.0000   0.2413
   8.400   1.0133   0.02835   0.02044  -0.0009  0.2044  1.0000  -2.8543   0.0000   0.0000   0.0000   0.2407
   8.500   1.0218   0.02847   0.02062  -0.0005  0.2025  1.0000  -2.9039   0.0000   0.0000   0.0000   0.2402
   8.600   1.0302   0.02859   0.02080  -0.0001  0.2001  1.0000  -2.9538   0.0000   0.0000   0.0000   0.2397
   8.700   1.0384   0.02872   0.02098   0.0003  0.1974  1.0000  -3.0038   0.0000   0.0000   0.0000   0.2391
   8.800   1.0465   0.02885   0.02115   0.0007  0.1943  1.0000  -3.0541   0.0000   0.0000   0.0000   0.2386
   8.900   1.0547   0.02894   0.02128   0.0012  0.1911  1.0000  -3.1058   0.0000   0.0000   0.0000   0.2380
   9.000   1.0632   0.02901   0.02136   0.0015  0.1879  1.0000  -3.1592   0.0000   0.0000   0.0000   0.2375
   9.100   1.0719   0.02906   0.02141   0.0019  0.1848  1.0000  -3.2139   0.0000   0.0000   0.0000   0.2370
   9.200   1.0806   0.02912   0.02146   0.0023  0.1820  1.0000  -3.2692   0.0000   0.0000   0.0000   0.2366
   9.300   1.0892   0.02926   0.02158   0.0026  0.1793  1.0000  -3.3238   0.0000   0.0000   0.0000   0.2361
   9.400   1.0976   0.02946   0.02177   0.0030  0.1768  1.0000  -3.3790   0.0000   0.0000   0.0000   0.2357
   9.500   1.1055   0.02983   0.02211   0.0033  0.1739  1.0000  -3.4499   0.0000   0.0000   0.0000   0.2352
   9.600   1.1119   0.03076   0.02323   0.0037  0.1703  1.0000  -3.4955   0.0000   0.0000   0.0000   0.2348
   9.700   1.1117   0.03302   0.02564   0.0045  0.1660  1.0000  -3.5078   0.0000   0.0000   0.0000   0.2340
   9.800   1.1199   0.03301   0.02570   0.0049  0.1650  1.0000  -3.5779   0.0000   0.0000   0.0000   0.2334
   9.900   1.1276   0.03307   0.02583   0.0054  0.1636  1.0000  -3.6472   0.0000   0.0000   0.0000   0.2329
  10.000   1.1350   0.03320   0.02603   0.0059  0.1618  1.0000  -3.7153   0.0000   0.0000   0.0000   0.2323
  10.100   1.1421   0.03335   0.02626   0.0064  0.1596  1.0000  -3.7832   0.0000   0.0000   0.0000   0.2318
  10.200   1.1488   0.03353   0.02651   0.0070  0.1570  1.0000  -3.8495   0.0000   0.0000   0.0000   0.2311
  10.300   1.1555   0.03368   0.02672   0.0076  0.1541  1.0000  -3.9176   0.0000   0.0000   0.0000   0.2305
  10.400   1.1627   0.03374   0.02682   0.0081  0.1509  1.0000  -3.9898   0.0000   0.0000   0.0000   0.2300
  10.500   1.1705   0.03368   0.02677   0.0086  0.1476  1.0000  -4.0675   0.0000   0.0000   0.0000   0.2294
  10.600   1.1789   0.03351   0.02657   0.0090  0.1444  1.0000  -4.1508   0.0000   0.0000   0.0000   0.2290
  10.700   1.1875   0.03327   0.02628   0.0094  0.1412  1.0000  -4.2373   0.0000   0.0000   0.0000   0.2285
  10.800   1.1953   0.03310   0.02607   0.0098  0.1381  1.0000  -4.3213   0.0000   0.0000   0.0000   0.2280
  10.900   1.2022   0.03328   0.02617   0.0103  0.1346  1.0000  -4.3974   0.0000   0.0000   0.0000   0.2274
  11.000   1.2050   0.03465   0.02754   0.0109  0.1298  1.0000  -4.4411   0.0000   0.0000   0.0000   0.2268
  11.100   1.2049   0.03614   0.02915   0.0118  0.1270  1.0000  -4.4681   0.0000   0.0000   0.0000   0.2259
  11.200   1.2110   0.03616   0.02924   0.0124  0.1258  1.0000  -4.5387   0.0000   0.0000   0.0000   0.2253
  11.300   1.2163   0.03628   0.02944   0.0131  0.1242  1.0000  -4.6049   0.0000   0.0000   0.0000   0.2246
  11.400   1.2205   0.03651   0.02975   0.0139  0.1223  1.0000  -4.6654   0.0000   0.0000   0.0000   0.2239
  11.500   1.2245   0.03679   0.03011   0.0147  0.1201  1.0000  -4.7240   0.0000   0.0000   0.0000   0.2231
  11.600   1.2282   0.03708   0.03046   0.0155  0.1175  1.0000  -4.7821   0.0000   0.0000   0.0000   0.2223
  11.700   1.2321   0.03735   0.03078   0.0162  0.1148  1.0000  -4.8413   0.0000   0.0000   0.0000   0.2215
  11.800   1.2361   0.03756   0.03102   0.0170  0.1121  1.0000  -4.9026   0.0000   0.0000   0.0000   0.2208
  11.900   1.2403   0.03770   0.03117   0.0178  0.1093  1.0000  -4.9665   0.0000   0.0000   0.0000   0.2200
  12.000   1.2438   0.03779   0.03126   0.0187  0.1068  1.0000  -5.0285   0.0000   0.0000   0.0000   0.2191
  12.100   1.2465   0.03790   0.03135   0.0197  0.1044  1.0000  -5.0880   0.0000   0.0000   0.0000   0.2182
  12.200   1.2484   0.03814   0.03155   0.0206  0.1018  1.0000  -5.1430   0.0000   0.0000   0.0000   0.2172
  12.300   1.2486   0.03874   0.03211   0.0216  0.0989  1.0000  -5.1851   0.0000   0.0000   0.0000   0.2163
  12.400   1.2443   0.04037   0.03376   0.0227  0.0953  1.0000  -5.1896   0.0000   0.0000   0.0000   0.2151
  12.600   1.2304   0.04350   0.03711   0.0250  0.0919  1.0000  -5.1761   0.0000   0.0000   0.0000   0.2128
  12.700   1.2315   0.04379   0.03746   0.0256  0.0909  1.0000  -5.2240   0.0000   0.0000   0.0000   0.2121
  12.800   1.2313   0.04426   0.03799   0.0262  0.0898  1.0000  -5.2644   0.0000   0.0000   0.0000   0.2114
  12.900   1.2297   0.04490   0.03871   0.0268  0.0884  1.0000  -5.2960   0.0000   0.0000   0.0000   0.2107
  13.000   1.2277   0.04562   0.03950   0.0273  0.0869  1.0000  -5.3245   0.0000   0.0000   0.0000   0.2101
  13.100   1.2257   0.04641   0.04035   0.0276  0.0852  1.0000  -5.3523   0.0000   0.0000   0.0000   0.2095
  13.200   1.2240   0.04721   0.04120   0.0279  0.0834  1.0000  -5.3819   0.0000   0.0000   0.0000   0.2091
  13.300   1.2230   0.04797   0.04201   0.0280  0.0814  1.0000  -5.4154   0.0000   0.0000   0.0000   0.2087
  13.400   1.2231   0.04863   0.04268   0.0281  0.0792  1.0000  -5.4569   0.0000   0.0000   0.0000   0.2084
  13.500   1.2238   0.04924   0.04329   0.0281  0.0770  1.0000  -5.5027   0.0000   0.0000   0.0000   0.2082
  13.600   1.2244   0.04987   0.04391   0.0280  0.0749  1.0000  -5.5495   0.0000   0.0000   0.0000   0.2081
  13.700   1.2235   0.05073   0.04476   0.0278  0.0731  1.0000  -5.5863   0.0000   0.0000   0.0000   0.2080
  13.800   1.2213   0.05181   0.04583   0.0275  0.0714  1.0000  -5.6132   0.0000   0.0000   0.0000   0.2079
  13.900   1.2175   0.05317   0.04717   0.0273  0.0696  1.0000  -5.6273   0.0000   0.0000   0.0000   0.2078
  14.000   1.2113   0.05492   0.04893   0.0269  0.0680  1.0000  -5.6227   0.0000   0.0000   0.0000   0.2078
  14.100   1.2032   0.05702   0.05107   0.0265  0.0664  1.0000  -5.6006   0.0000   0.0000   0.0000   0.2078
  14.200   1.1926   0.05947   0.05360   0.0259  0.0652  1.0000  -5.5602   0.0000   0.0000   0.0000   0.2078
  14.300   1.1803   0.06220   0.05642   0.0251  0.0644  1.0000  -5.5083   0.0000   0.0000   0.0000   0.2081
  14.400   1.1674   0.06513   0.05946   0.0239  0.0640  1.0000  -5.4516   0.0000   0.0000   0.0000   0.2087
  14.500   1.1542   0.06823   0.06267   0.0224  0.0638  1.0000  -5.3917   0.0000   0.0000   0.0000   0.2095
  14.600   1.1409   0.07149   0.06603   0.0207  0.0637  1.0000  -5.3288   0.0000   0.0000   0.0000   0.2105
  14.700   1.1274   0.07490   0.06953   0.0188  0.0637  1.0000  -5.2627   0.0000   0.0000   0.0000   0.2118
  14.800   1.1137   0.07846   0.07319   0.0167  0.0638  1.0000  -5.1931   0.0000   0.0000   0.0000   0.2132
  14.900   1.0997   0.08220   0.07702   0.0145  0.0641  1.0000  -5.1182   0.0000   0.0000   0.0000   0.2149
  15.000   1.0850   0.08621   0.08111   0.0119  0.0645  1.0000  -5.0354   0.0000   0.0000   0.0000   0.2169
  15.100   1.0686   0.09068   0.08568   0.0090  0.0653  1.0000  -4.9356   0.0000   0.0000   0.0000   0.2193
  15.200   0.7863   0.15816   0.15300  -0.0291  0.0797  1.0000  -2.3341   0.0000   0.0000   0.0000   0.2684
  15.300   0.7836   0.16083   0.15567  -0.0304  0.0792  1.0000  -2.2915   0.0000   0.0000   0.0000   0.2701
  15.400   0.7808   0.16357   0.15841  -0.0316  0.0790  1.0000  -2.2469   0.0000   0.0000   0.0000   0.2718
  15.500   0.7782   0.16632   0.16117  -0.0329  0.0793  1.0000  -2.2033   0.0000   0.0000   0.0000   0.2736
  15.600   0.7760   0.16907   0.16392  -0.0341  0.0798  1.0000  -2.1619   0.0000   0.0000   0.0000   0.2752
  15.700   0.7742   0.17176   0.16661  -0.0353  0.0808  1.0000  -2.1251   0.0000   0.0000   0.0000   0.2767
  15.800   0.7732   0.17437   0.16922  -0.0363  0.0820  1.0000  -2.0948   0.0000   0.0000   0.0000   0.2781
  15.900   0.7729   0.17687   0.17173  -0.0371  0.0834  1.0000  -2.0730   0.0000   0.0000   0.0000   0.2791
  16.000   0.7738   0.17928   0.17415  -0.0377  0.0850  1.0000  -2.0620   0.0000   0.0000   0.0000   0.2797
  16.100   0.7762   0.18172   0.17660  -0.0379  0.0869  1.0000  -2.0663   0.0000   0.0000   0.0000   0.2798
  16.900   0.8022   0.18818   0.18327  -0.0414  0.0681  1.0000  -2.2763   0.0000   0.0000   0.0000   0.2809
  17.000   0.7988   0.19141   0.18650  -0.0430  0.0687  1.0000  -2.2158   0.0000   0.0000   0.0000   0.2832
  17.100   0.7991   0.19358   0.18867  -0.0439  0.0687  1.0000  -2.2005   0.0000   0.0000   0.0000   0.2841
  17.200   0.8006   0.19545   0.19055  -0.0446  0.0685  1.0000  -2.1977   0.0000   0.0000   0.0000   0.2848
  17.300   0.8016   0.19744   0.19254  -0.0453  0.0683  1.0000  -2.1900   0.0000   0.0000   0.0000   0.2855
  17.400   0.8023   0.19956   0.19467  -0.0461  0.0683  1.0000  -2.1760   0.0000   0.0000   0.0000   0.2863
  17.500   0.8025   0.20185   0.19697  -0.0470  0.0683  1.0000  -2.1540   0.0000   0.0000   0.0000   0.2874
  17.600   0.8020   0.20435   0.19947  -0.0481  0.0685  1.0000  -2.1220   0.0000   0.0000   0.0000   0.2887
  17.700   0.8006   0.20715   0.20227  -0.0493  0.0689  1.0000  -2.0756   0.0000   0.0000   0.0000   0.2903
  17.800   0.7975   0.21053   0.20565  -0.0509  0.0700  1.0000  -2.0034   0.0000   0.0000   0.0000   0.2926
  17.900   0.8096   0.20767   0.20276  -0.0488  0.0585  1.0000  -2.2159   0.0000   0.0000   0.0000   0.2883
  18.000   0.8087   0.21020   0.20529  -0.0501  0.0575  1.0000  -2.1669   0.0000   0.0000   0.0000   0.2899
  18.100   0.8071   0.21292   0.20801  -0.0515  0.0566  1.0000  -2.1070   0.0000   0.0000   0.0000   0.2918
  18.200   0.8059   0.21566   0.21075  -0.0528  0.0556  1.0000  -2.0482   0.0000   0.0000   0.0000   0.2934
  18.300   0.8052   0.21837   0.21346  -0.0539  0.0548  1.0000  -1.9927   0.0000   0.0000   0.0000   0.2948
  18.400   0.8048   0.22107   0.21616  -0.0549  0.0546  1.0000  -1.9421   0.0000   0.0000   0.0000   0.2959
  18.500   0.8048   0.22375   0.21885  -0.0557  0.0549  1.0000  -1.8961   0.0000   0.0000   0.0000   0.2969
  18.600   0.8052   0.22643   0.22153  -0.0563  0.0558  1.0000  -1.8565   0.0000   0.0000   0.0000   0.2976
  18.700   0.8064   0.22913   0.22423  -0.0566  0.0574  1.0000  -1.8299   0.0000   0.0000   0.0000   0.2977
  18.800   0.8114   0.23879   0.23392  -0.0538  0.0622  1.0000  -1.8193   0.0000   0.0000   0.0000   0.2939
  18.900   0.8124   0.24143   0.23657  -0.0545  0.0622  1.0000  -1.7965   0.0000   0.0000   0.0000   0.2945
  19.000   0.8135   0.24398   0.23912  -0.0551  0.0622  1.0000  -1.7757   0.0000   0.0000   0.0000   0.2952
  19.100   0.8145   0.24646   0.24160  -0.0558  0.0622  1.0000  -1.7565   0.0000   0.0000   0.0000   0.2958
  19.200   0.8156   0.24888   0.24402  -0.0565  0.0622  1.0000  -1.7386   0.0000   0.0000   0.0000   0.2965
  19.300   0.8166   0.25125   0.24640  -0.0572  0.0621  1.0000  -1.7219   0.0000   0.0000   0.0000   0.2971
  19.400   0.8177   0.25359   0.24874  -0.0578  0.0621  1.0000  -1.7062   0.0000   0.0000   0.0000   0.2977
  19.500   0.8187   0.25589   0.25105  -0.0585  0.0621  1.0000  -1.6913   0.0000   0.0000   0.0000   0.2983
  19.600   0.8198   0.25816   0.25332  -0.0591  0.0621  1.0000  -1.6771   0.0000   0.0000   0.0000   0.2989
  19.700   0.8208   0.26040   0.25557  -0.0598  0.0621  1.0000  -1.6637   0.0000   0.0000   0.0000   0.2995
  19.800   0.8217   0.26261   0.25778  -0.0605  0.0620  1.0000  -1.6507   0.0000   0.0000   0.0000   0.3001
  19.900   0.8227   0.26478   0.25996  -0.0611  0.0620  1.0000  -1.6383   0.0000   0.0000   0.0000   0.3007
  20.000   0.8236   0.26693   0.26211  -0.0617  0.0620  1.0000  -1.6263   0.0000   0.0000   0.0000   0.3013
  20.100   0.8245   0.26905   0.26424  -0.0624  0.0620  1.0000  -1.6147   0.0000   0.0000   0.0000   0.3019
  20.200   0.8254   0.27114   0.26633  -0.0630  0.0619  1.0000  -1.6035   0.0000   0.0000   0.0000   0.3024
  20.300   0.8262   0.27320   0.26840  -0.0636  0.0619  1.0000  -1.5927   0.0000   0.0000   0.0000   0.3030
  20.400   0.8270   0.27523   0.27043  -0.0643  0.0619  1.0000  -1.5821   0.0000   0.0000   0.0000   0.3036
  20.500   0.8277   0.27721   0.27242  -0.0649  0.0618  1.0000  -1.5716   0.0000   0.0000   0.0000   0.3041
  20.600   0.8283   0.27916   0.27437  -0.0655  0.0618  1.0000  -1.5613   0.0000   0.0000   0.0000   0.3047
  20.700   0.8289   0.28106   0.27628  -0.0661  0.0617  1.0000  -1.5512   0.0000   0.0000   0.0000   0.3053
  20.800   0.8294   0.28292   0.27815  -0.0667  0.0617  1.0000  -1.5413   0.0000   0.0000   0.0000   0.3058
  20.900   0.8299   0.28474   0.27997  -0.0673  0.0616  1.0000  -1.5314   0.0000   0.0000   0.0000   0.3064
  21.000   0.8303   0.28649   0.28173  -0.0679  0.0615  1.0000  -1.5216   0.0000   0.0000   0.0000   0.3070
  21.100   0.8305   0.28817   0.28341  -0.0686  0.0614  1.0000  -1.5115   0.0000   0.0000   0.0000   0.3075
  21.200   0.8306   0.28978   0.28502  -0.0692  0.0613  1.0000  -1.5014   0.0000   0.0000   0.0000   0.3081
  21.300   0.8306   0.29129   0.28654  -0.0698  0.0612  1.0000  -1.4905   0.0000   0.0000   0.0000   0.3088
  21.400   0.8295   0.29257   0.28783  -0.0705  0.0611  1.0000  -1.4748   0.0000   0.0000   0.0000   0.3096
  21.500   0.8282   0.29374   0.28900  -0.0712  0.0609  1.0000  -1.4582   0.0000   0.0000   0.0000   0.3105
  21.600   0.8267   0.29475   0.29002  -0.0720  0.0606  1.0000  -1.4403   0.0000   0.0000   0.0000   0.3115
  21.700   0.8250   0.29559   0.29086  -0.0729  0.0602  1.0000  -1.4203   0.0000   0.0000   0.0000   0.3126
  21.800   0.8232   0.29625   0.29152  -0.0739  0.0596  1.0000  -1.3970   0.0000   0.0000   0.0000   0.3139
  21.900   0.8216   0.29700   0.29228  -0.0750  0.0586  1.0000  -1.3711   0.0000   0.0000   0.0000   0.3154
  22.000   0.8207   0.29821   0.29349  -0.0760  0.0573  1.0000  -1.3499   0.0000   0.0000   0.0000   0.3165
  22.100   0.8201   0.29970   0.29499  -0.0767  0.0561  1.0000  -1.3352   0.0000   0.0000   0.0000   0.3173
  22.200   0.8196   0.30127   0.29657  -0.0772  0.0551  1.0000  -1.3240   0.0000   0.0000   0.0000   0.3179
  22.300   0.8190   0.30283   0.29814  -0.0777  0.0542  1.0000  -1.3148   0.0000   0.0000   0.0000   0.3184
  22.400   0.8183   0.30435   0.29967  -0.0780  0.0533  1.0000  -1.3067   0.0000   0.0000   0.0000   0.3189
  22.500   0.8175   0.30583   0.30116  -0.0784  0.0525  1.0000  -1.2993   0.0000   0.0000   0.0000   0.3192
  22.600   0.8165   0.30725   0.30259  -0.0786  0.0518  1.0000  -1.2924   0.0000   0.0000   0.0000   0.3196
  22.700   0.8154   0.30861   0.30396  -0.0788  0.0511  1.0000  -1.2857   0.0000   0.0000   0.0000   0.3199
  22.800   0.8140   0.30989   0.30525  -0.0790  0.0505  1.0000  -1.2790   0.0000   0.0000   0.0000   0.3201
  22.900   0.8125   0.31107   0.30645  -0.0791  0.0499  1.0000  -1.2724   0.0000   0.0000   0.0000   0.3204
  23.000   0.8106   0.31216   0.30754  -0.0792  0.0493  1.0000  -1.2655   0.0000   0.0000   0.0000   0.3206
  23.100   0.8080   0.31300   0.30840  -0.0791  0.0488  1.0000  -1.2574   0.0000   0.0000   0.0000   0.3208
  23.200   0.7995   0.31217   0.30760  -0.0781  0.0483  1.0000  -1.2375   0.0000   0.0000   0.0000   0.3207
  23.300   0.7884   0.31038   0.30584  -0.0767  0.0480  1.0000  -1.2126   0.0000   0.0000   0.0000   0.3204
  23.400   0.7810   0.30943   0.30491  -0.0759  0.0476  1.0000  -1.1954   0.0000   0.0000   0.0000   0.3204
  23.500   0.7754   0.30891   0.30441  -0.0753  0.0472  1.0000  -1.1821   0.0000   0.0000   0.0000   0.3204
  23.600   0.7708   0.30861   0.30413  -0.0749  0.0467  1.0000  -1.1713   0.0000   0.0000   0.0000   0.3204
  23.700   0.7669   0.30846   0.30399  -0.0746  0.0463  1.0000  -1.1621   0.0000   0.0000   0.0000   0.3205
  23.800   0.7636   0.30840   0.30395  -0.0743  0.0459  1.0000  -1.1541   0.0000   0.0000   0.0000   0.3205
  23.900   0.7605   0.30840   0.30397  -0.0741  0.0455  1.0000  -1.1472   0.0000   0.0000   0.0000   0.3206
  24.000   0.7578   0.30846   0.30405  -0.0739  0.0451  1.0000  -1.1413   0.0000   0.0000   0.0000   0.3207
  24.100   0.7554   0.30855   0.30415  -0.0738  0.0447  1.0000  -1.1361   0.0000   0.0000   0.0000   0.3208
  24.200   0.7531   0.30867   0.30428  -0.0737  0.0444  1.0000  -1.1317   0.0000   0.0000   0.0000   0.3209
  24.300   0.7511   0.30882   0.30445  -0.0736  0.0440  1.0000  -1.1280   0.0000   0.0000   0.0000   0.3210
  24.400   0.7492   0.30899   0.30464  -0.0735  0.0437  1.0000  -1.1250   0.0000   0.0000   0.0000   0.3211
  24.500   0.7475   0.30919   0.30484  -0.0735  0.0433  1.0000  -1.1226   0.0000   0.0000   0.0000   0.3212
  24.600   0.7460   0.30940   0.30507  -0.0735  0.0430  1.0000  -1.1210   0.0000   0.0000   0.0000   0.3212
  24.700   0.7445   0.30963   0.30531  -0.0734  0.0427  1.0000  -1.1200   0.0000   0.0000   0.0000   0.3213
  24.800   0.7432   0.30988   0.30558  -0.0734  0.0424  1.0000  -1.1196   0.0000   0.0000   0.0000   0.3213
  24.900   0.7421   0.31014   0.30585  -0.0734  0.0421  1.0000  -1.1199   0.0000   0.0000   0.0000   0.3214
  25.000   0.7410   0.31043   0.30615  -0.0733  0.0418  1.0000  -1.1209   0.0000   0.0000   0.0000   0.3214
  25.100   0.7401   0.31073   0.30647  -0.0733  0.0415  1.0000  -1.1227   0.0000   0.0000   0.0000   0.3214
  25.200   0.7393   0.31106   0.30682  -0.0733  0.0412  1.0000  -1.1251   0.0000   0.0000   0.0000   0.3213
  25.300   0.7386   0.31143   0.30720  -0.0733  0.0410  1.0000  -1.1391   0.0000   0.0000   0.0000   0.3213
  25.400   0.7379   0.31185   0.30771  -0.0733  0.0407  1.0000  -1.1466   0.0000   0.0000   0.0000   0.3213
  25.500   0.7374   0.31232   0.30820  -0.0732  0.0405  1.0000  -1.1585   0.0000   0.0000   0.0000   0.3212
  25.600   0.7371   0.31286   0.30874  -0.0732  0.0402  1.0000  -1.1736   0.0000   0.0000   0.0000   0.3210
  25.700   0.7370   0.31349   0.30939  -0.0731  0.0400  1.0000  -1.1903   0.0000   0.0000   0.0000   0.3209
  25.800   0.7371   0.31427   0.31019  -0.0731  0.0397  1.0000  -1.2085   0.0000   0.0000   0.0000   0.3206
  25.900   0.7376   0.31527   0.31120  -0.0730  0.0395  1.0000  -1.2282   0.0000   0.0000   0.0000   0.3203
  26.000   0.7385   0.31663   0.31258  -0.0729  0.0392  1.0000  -1.2498   0.0000   0.0000   0.0000   0.3200
  26.100   0.7402   0.31872   0.31468  -0.0728  0.0389  1.0000  -1.2739   0.0000   0.0000   0.0000   0.3195
  26.300   0.7385   0.33000   0.32593  -0.0730  0.0377  1.0000  -1.2377   0.0000   0.0000   0.0000   0.3201
  26.400   0.7367   0.33008   0.32603  -0.0732  0.0377  1.0000  -1.2366   0.0000   0.0000   0.0000   0.3206
  26.500   0.7349   0.33003   0.32599  -0.0734  0.0376  1.0000  -1.2346   0.0000   0.0000   0.0000   0.3210
  26.600   0.7329   0.32986   0.32583  -0.0736  0.0376  1.0000  -1.2317   0.0000   0.0000   0.0000   0.3216
  26.700   0.7308   0.32959   0.32556  -0.0739  0.0376  1.0000  -1.2281   0.0000   0.0000   0.0000   0.3221
  26.800   0.7288   0.32924   0.32522  -0.0741  0.0375  1.0000  -1.2240   0.0000   0.0000   0.0000   0.3227
  26.900   0.7268   0.32887   0.32487  -0.0744  0.0374  1.0000  -1.2197   0.0000   0.0000   0.0000   0.3232
  27.000   0.7248   0.32852   0.32453  -0.0747  0.0374  1.0000  -1.2147   0.0000   0.0000   0.0000   0.3238
  27.100   0.7231   0.32837   0.32440  -0.0749  0.0373  1.0000  -1.2101   0.0000   0.0000   0.0000   0.3244
  27.200   0.7218   0.32843   0.32446  -0.0752  0.0373  1.0000  -1.2058   0.0000   0.0000   0.0000   0.3249
  27.300   0.7204   0.32842   0.32447  -0.0755  0.0372  1.0000  -1.2002   0.0000   0.0000   0.0000   0.3254
  27.400   0.7185   0.32819   0.32424  -0.0758  0.0371  1.0000  -1.1905   0.0000   0.0000   0.0000   0.3260
  27.500   0.7164   0.32783   0.32390  -0.0762  0.0371  1.0000  -1.1780   0.0000   0.0000   0.0000   0.3267
  27.600   0.7144   0.32739   0.32346  -0.0765  0.0369  1.0000  -1.1627   0.0000   0.0000   0.0000   0.3275
  27.700   0.7122   0.32686   0.32294  -0.0770  0.0368  1.0000  -1.1445   0.0000   0.0000   0.0000   0.3283
  27.800   0.7102   0.32626   0.32234  -0.0775  0.0366  1.0000  -1.1231   0.0000   0.0000   0.0000   0.3293
  27.900   0.7084   0.32561   0.32170  -0.0781  0.0362  1.0000  -1.0969   0.0000   0.0000   0.0000   0.3304
  28.000   0.7073   0.32520   0.32130  -0.0791  0.0354  1.0000  -1.0638   0.0000   0.0000   0.0000   0.3319
  28.100   0.7077   0.32576   0.32186  -0.0803  0.0334  1.0000  -1.0293   0.0000   0.0000   0.0000   0.3333
  28.200   0.7077   0.32654   0.32265  -0.0808  0.0314  1.0000  -1.0121   0.0000   0.0000   0.0000   0.3340
  28.300   0.7075   0.32717   0.32329  -0.0812  0.0299  1.0000  -1.0022   0.0000   0.0000   0.0000   0.3345
  28.400   0.7072   0.32773   0.32386  -0.0815  0.0286  1.0000  -0.9956   0.0000   0.0000   0.0000   0.3348
  28.500   0.7070   0.32826   0.32440  -0.0818  0.0275  1.0000  -0.9910   0.0000   0.0000   0.0000   0.3352
  28.600   0.7068   0.32875   0.32490  -0.0821  0.0266  1.0000  -0.9881   0.0000   0.0000   0.0000   0.3354
  28.700   0.7066   0.32922   0.32538  -0.0824  0.0258  1.0000  -0.9866   0.0000   0.0000   0.0000   0.3357
  28.800   0.7064   0.32967   0.32584  -0.0826  0.0251  1.0000  -0.9865   0.0000   0.0000   0.0000   0.3359
  28.900   0.7063   0.33011   0.32629  -0.0829  0.0245  1.0000  -0.9875   0.0000   0.0000   0.0000   0.3362
  29.000   0.7062   0.33052   0.32671  -0.0831  0.0239  1.0000  -0.9896   0.0000   0.0000   0.0000   0.3364
  29.100   0.7062   0.33092   0.32712  -0.0834  0.0234  1.0000  -0.9930   0.0000   0.0000   0.0000   0.3366
  29.200   0.7062   0.33131   0.32752  -0.0836  0.0230  1.0000  -0.9974   0.0000   0.0000   0.0000   0.3367
  29.300   0.7062   0.33168   0.32791  -0.0839  0.0226  1.0000  -1.0029   0.0000   0.0000   0.0000   0.3368
  29.400   0.7062   0.33205   0.32828  -0.0841  0.0222  1.0000  -1.0096   0.0000   0.0000   0.0000   0.3370
  29.500   0.7063   0.33241   0.32865  -0.0843  0.0218  1.0000  -1.0174   0.0000   0.0000   0.0000   0.3370
  29.600   0.7064   0.33277   0.32903  -0.0844  0.0215  1.0000  -1.0263   0.0000   0.0000   0.0000   0.3371
  29.700   0.7065   0.33315   0.32942  -0.0846  0.0212  1.0000  -1.0364   0.0000   0.0000   0.0000   0.3371
  29.800   0.7067   0.33356   0.32984  -0.0847  0.0210  1.0000  -1.0478   0.0000   0.0000   0.0000   0.3370
  29.900   0.7070   0.33404   0.33033  -0.0848  0.0207  1.0000  -1.0603   0.0000   0.0000   0.0000   0.3369
  30.000   0.7074   0.33465   0.33095  -0.0848  0.0204  1.0000  -1.0739   0.0000   0.0000   0.0000   0.3367


