xflr5 v6.61

 Calculated polar for: NACA 65-206

 1 1 Reynolds number fixed          Mach number fixed         

 xtrf =   1.000 (top)        1.000 (bottom)
 Mach =   0.000     Re =     0.160 e 6     Ncrit =   9.000

  alpha     CL        CD       CDp       Cm    Top Xtr Bot Xtr   Cpmin    Chinge    XCp    
 ------- -------- --------- --------- -------- ------- ------- -------- --------- ---------
 -10.000  -0.4623   0.11534   0.11066  -0.0227  1.0000  0.0262  -1.5614   0.0000   0.0000   0.0000   0.1984
  -9.900  -0.4643   0.11235   0.10768  -0.0230  1.0000  0.0266  -1.6037   0.0000   0.0000   0.0000   0.1979
  -9.800  -0.4655   0.10984   0.10518  -0.0231  1.0000  0.0272  -1.6200   0.0000   0.0000   0.0000   0.1978
  -9.700  -0.4625   0.10709   0.10243  -0.0216  1.0000  0.0285  -1.5491   0.0000   0.0000   0.0000   0.2007
  -9.600  -0.4588   0.10535   0.10070  -0.0205  1.0000  0.0297  -1.4771   0.0000   0.0000   0.0000   0.2028
  -9.500  -0.4566   0.10397   0.09933  -0.0201  1.0000  0.0306  -1.4406   0.0000   0.0000   0.0000   0.2034
  -9.400  -0.4555   0.10267   0.09804  -0.0202  1.0000  0.0310  -1.4299   0.0000   0.0000   0.0000   0.2032
  -9.300  -0.4545   0.10138   0.09677  -0.0203  1.0000  0.0314  -1.4233   0.0000   0.0000   0.0000   0.2029
  -9.200  -0.4537   0.10011   0.09551  -0.0205  1.0000  0.0318  -1.4184   0.0000   0.0000   0.0000   0.2025
  -9.100  -0.4530   0.09885   0.09426  -0.0207  1.0000  0.0322  -1.4149   0.0000   0.0000   0.0000   0.2021
  -9.000  -0.4524   0.09760   0.09302  -0.0209  1.0000  0.0326  -1.4127   0.0000   0.0000   0.0000   0.2016
  -8.900  -0.4520   0.09635   0.09179  -0.0211  1.0000  0.0330  -1.4115   0.0000   0.0000   0.0000   0.2011
  -8.800  -0.4516   0.09509   0.09055  -0.0214  1.0000  0.0334  -1.4114   0.0000   0.0000   0.0000   0.2005
  -8.700  -0.4512   0.09384   0.08931  -0.0216  1.0000  0.0338  -1.4123   0.0000   0.0000   0.0000   0.1999
  -8.600  -0.4511   0.09259   0.08807  -0.0219  1.0000  0.0341  -1.4141   0.0000   0.0000   0.0000   0.1993
  -8.500  -0.4510   0.09134   0.08684  -0.0222  1.0000  0.0345  -1.4168   0.0000   0.0000   0.0000   0.1987
  -8.400  -0.4510   0.09010   0.08561  -0.0225  1.0000  0.0349  -1.4203   0.0000   0.0000   0.0000   0.1981
  -8.300  -0.4512   0.08886   0.08438  -0.0229  1.0000  0.0353  -1.4247   0.0000   0.0000   0.0000   0.1975
  -8.200  -0.4516   0.08762   0.08316  -0.0232  1.0000  0.0356  -1.4299   0.0000   0.0000   0.0000   0.1968
  -8.100  -0.4521   0.08639   0.08195  -0.0235  1.0000  0.0360  -1.4360   0.0000   0.0000   0.0000   0.1962
  -8.000  -0.4528   0.08516   0.08074  -0.0239  1.0000  0.0363  -1.4430   0.0000   0.0000   0.0000   0.1956
  -7.900  -0.4537   0.08394   0.07953  -0.0242  1.0000  0.0366  -1.4509   0.0000   0.0000   0.0000   0.1950
  -7.800  -0.4549   0.08272   0.07833  -0.0246  1.0000  0.0369  -1.4598   0.0000   0.0000   0.0000   0.1944
  -7.700  -0.4564   0.08149   0.07712  -0.0249  1.0000  0.0372  -1.4697   0.0000   0.0000   0.0000   0.1938
  -7.600  -0.4583   0.08028   0.07593  -0.0253  1.0000  0.0374  -1.4806   0.0000   0.0000   0.0000   0.1934
  -7.500  -0.4607   0.07908   0.07475  -0.0256  1.0000  0.0377  -1.4929   0.0000   0.0000   0.0000   0.1930
  -7.400  -0.4636   0.07791   0.07360  -0.0259  1.0000  0.0378  -1.5068   0.0000   0.0000   0.0000   0.1927
  -7.300  -0.4675   0.07678   0.07249  -0.0262  1.0000  0.0379  -1.5226   0.0000   0.0000   0.0000   0.1927
  -7.200  -0.4722   0.07568   0.07141  -0.0265  1.0000  0.0379  -1.5406   0.0000   0.0000   0.0000   0.1928
  -7.100  -0.4762   0.07449   0.07023  -0.0269  1.0000  0.0380  -1.5586   0.0000   0.0000   0.0000   0.1924
  -7.000  -0.4781   0.07313   0.06887  -0.0276  1.0000  0.0382  -1.5736   0.0000   0.0000   0.0000   0.1913
  -6.900  -0.4796   0.07178   0.06751  -0.0281  1.0000  0.0384  -1.5873   0.0000   0.0000   0.0000   0.1903
  -6.800  -0.4806   0.07041   0.06614  -0.0287  1.0000  0.0387  -1.6001   0.0000   0.0000   0.0000   0.1894
  -6.700  -0.4813   0.06904   0.06476  -0.0291  1.0000  0.0391  -1.6120   0.0000   0.0000   0.0000   0.1885
  -6.600  -0.4815   0.06764   0.06335  -0.0296  1.0000  0.0394  -1.6229   0.0000   0.0000   0.0000   0.1876
  -6.500  -0.4813   0.06624   0.06193  -0.0300  1.0000  0.0399  -1.6330   0.0000   0.0000   0.0000   0.1867
  -6.400  -0.4807   0.06483   0.06049  -0.0305  1.0000  0.0403  -1.6423   0.0000   0.0000   0.0000   0.1858
  -6.300  -0.4796   0.06340   0.05904  -0.0308  1.0000  0.0409  -1.6508   0.0000   0.0000   0.0000   0.1849
  -6.200  -0.4780   0.06197   0.05758  -0.0312  1.0000  0.0415  -1.6587   0.0000   0.0000   0.0000   0.1840
  -6.100  -0.4759   0.06054   0.05611  -0.0315  1.0000  0.0422  -1.6660   0.0000   0.0000   0.0000   0.1830
  -6.000  -0.4733   0.05912   0.05465  -0.0318  1.0000  0.0429  -1.6729   0.0000   0.0000   0.0000   0.1821
  -5.900  -0.4702   0.05772   0.05319  -0.0321  1.0000  0.0438  -1.6797   0.0000   0.0000   0.0000   0.1811
  -5.800  -0.4662   0.05637   0.05177  -0.0323  1.0000  0.0448  -1.6871   0.0000   0.0000   0.0000   0.1800
  -5.700  -0.4613   0.05515   0.05047  -0.0325  1.0000  0.0459  -1.6938   0.0000   0.0000   0.0000   0.1789
  -5.600  -0.4544   0.05429   0.04950  -0.0327  1.0000  0.0474  -1.7025   0.0000   0.0000   0.0000   0.1774
  -5.500  -0.4437   0.05490   0.04992  -0.0325  1.0000  0.0495  -1.6975   0.0000   0.0000   0.0000   0.1761
  -5.400  -0.4364   0.05491   0.04978  -0.0321  1.0000  0.0501  -1.6837   0.0000   0.0000   0.0000   0.1757
  -5.300  -0.4307   0.05419   0.04894  -0.0318  1.0000  0.0504  -1.6745   0.0000   0.0000   0.0000   0.1756
  -5.200  -0.4252   0.05322   0.04787  -0.0314  1.0000  0.0505  -1.6661   0.0000   0.0000   0.0000   0.1755
  -5.100  -0.4224   0.05087   0.04545  -0.0314  1.0000  0.0509  -1.6922   0.0000   0.0000   0.0000   0.1750
  -5.000  -0.4252   0.04581   0.04031  -0.0321  1.0000  0.0525  -1.7630   0.0000   0.0000   0.0000   0.1738
  -4.900  -0.4230   0.04317   0.03770  -0.0321  1.0000  0.0540  -1.7415   0.0000   0.0000   0.0000   0.1736
  -4.800  -0.4192   0.04145   0.03604  -0.0316  1.0000  0.0555  -1.6889   0.0000   0.0000   0.0000   0.1739
  -4.700  -0.4146   0.04012   0.03472  -0.0312  1.0000  0.0573  -1.6396   0.0000   0.0000   0.0000   0.1742
  -4.600  -0.4093   0.03894   0.03353  -0.0307  1.0000  0.0593  -1.5962   0.0000   0.0000   0.0000   0.1743
  -4.500  -0.4033   0.03784   0.03238  -0.0303  1.0000  0.0616  -1.5589   0.0000   0.0000   0.0000   0.1744
  -4.400  -0.3966   0.03678   0.03125  -0.0299  1.0000  0.0644  -1.5284   0.0000   0.0000   0.0000   0.1742
  -4.300  -0.3890   0.03587   0.03023  -0.0294  1.0000  0.0679  -1.5040   0.0000   0.0000   0.0000   0.1739
  -4.200  -0.3732   0.03921   0.03321  -0.0279  1.0000  0.0754  -1.4440   0.0000   0.0000   0.0000   0.1748
  -4.100  -0.3721   0.03441   0.02827  -0.0286  1.0000  0.0782  -1.4902   0.0000   0.0000   0.0000   0.1725
  -4.000  -0.3676   0.03232   0.02630  -0.0283  1.0000  0.0808  -1.4453   0.0000   0.0000   0.0000   0.1725
  -3.900  -0.3617   0.03123   0.02527  -0.0277  1.0000  0.0837  -1.3914   0.0000   0.0000   0.0000   0.1729
  -3.800  -0.3548   0.03055   0.02460  -0.0271  1.0000  0.0875  -1.3413   0.0000   0.0000   0.0000   0.1733
  -3.700  -0.3466   0.03031   0.02433  -0.0262  1.0000  0.0924  -1.2926   0.0000   0.0000   0.0000   0.1740
  -3.200  -0.2950   0.02264   0.01535  -0.0223  1.0000  0.0449  -1.5085   0.0000   0.0000   0.0000   0.1740
  -3.100  -0.2857   0.02093   0.01342  -0.0214  1.0000  0.0387  -1.5623   0.0000   0.0000   0.0000   0.1745
  -3.000  -0.2755   0.01953   0.01172  -0.0202  1.0000  0.0336  -1.6431   0.0000   0.0000   0.0000   0.1759
  -2.900  -0.2662   0.01849   0.01046  -0.0191  1.0000  0.0314  -1.6889   0.0000   0.0000   0.0000   0.1774
  -2.800  -0.2577   0.01760   0.00944  -0.0182  1.0000  0.0315  -1.7046   0.0000   0.0000   0.0000   0.1787
  -2.700  -0.2498   0.01683   0.00861  -0.0174  1.0000  0.0336  -1.6934   0.0000   0.0000   0.0000   0.1798
  -2.600  -0.2422   0.01638   0.00815  -0.0166  1.0000  0.0371  -1.6380   0.0000   0.0000   0.0000   0.1806
  -2.500  -0.2348   0.01605   0.00781  -0.0160  1.0000  0.0400  -1.5592   0.0000   0.0000   0.0000   0.1813
  -2.400  -0.2277   0.01607   0.00785  -0.0155  1.0000  0.0457  -1.4353   0.0000   0.0000   0.0000   0.1814
  -2.300  -0.2203   0.01651   0.00829  -0.0150  1.0000  0.0500  -1.2945   0.0000   0.0000   0.0000   0.1815
  -2.200  -0.2131   0.01615   0.00790  -0.0143  1.0000  0.0502  -1.2553   0.0000   0.0000   0.0000   0.1824
  -2.100  -0.2059   0.01571   0.00744  -0.0136  1.0000  0.0501  -1.2454   0.0000   0.0000   0.0000   0.1835
  -2.000  -0.1990   0.01533   0.00704  -0.0129  1.0000  0.0500  -1.2350   0.0000   0.0000   0.0000   0.1848
  -1.900  -0.1921   0.01499   0.00669  -0.0122  1.0000  0.0500  -1.2241   0.0000   0.0000   0.0000   0.1861
  -1.800  -0.1852   0.01469   0.00638  -0.0115  1.0000  0.0501  -1.2128   0.0000   0.0000   0.0000   0.1874
  -1.700  -0.1784   0.01442   0.00611  -0.0108  1.0000  0.0502  -1.2012   0.0000   0.0000   0.0000   0.1887
  -1.600  -0.1716   0.01419   0.00587  -0.0102  1.0000  0.0504  -1.1891   0.0000   0.0000   0.0000   0.1901
  -1.500  -0.1648   0.01399   0.00569  -0.0096  1.0000  0.0506  -1.1768   0.0000   0.0000   0.0000   0.1914
  -1.400  -0.1566   0.01363   0.00529  -0.0093  0.9997  0.0517  -1.1756   0.0000   0.0000   0.0000   0.1904
  -1.300  -0.1432   0.01326   0.00484  -0.0099  0.9985  0.0541  -1.1749   0.0000   0.0000   0.0000   0.1804
  -1.200  -0.1295   0.01299   0.00451  -0.0106  0.9970  0.0587  -1.1738   0.0000   0.0000   0.0000   0.1680
  -1.100  -0.1158   0.01277   0.00430  -0.0113  0.9954  0.0681  -1.1690   0.0000   0.0000   0.0000   0.1524
  -1.000  -0.1078   0.01087   0.00418  -0.0119  0.9940  0.4973  -1.1987   0.0000   0.0000   0.0000   0.1393
  -0.800  -0.0764   0.01042   0.00520  -0.0106  0.9924  1.0000  -1.1434   0.0000   0.0000   0.0000   0.1104
  -0.700  -0.0636   0.01043   0.00513  -0.0114  0.9899  1.0000  -1.0904   0.0000   0.0000   0.0000   0.0708
  -0.600  -0.0506   0.01045   0.00509  -0.0121  0.9872  1.0000  -1.0349   0.0000   0.0000   0.0000   0.0099
  -0.500  -0.0375   0.01049   0.00507  -0.0130  0.9844  1.0000  -0.9782   0.0000   0.0000   0.0000  -0.0954
  -0.400  -0.0242   0.01053   0.00506  -0.0138  0.9815  1.0000  -0.9206   0.0000   0.0000   0.0000  -0.3205
  -0.300  -0.0106   0.01059   0.00507  -0.0147  0.9786  1.0000  -0.8625   0.0000   0.0000   0.0000  -1.1356
  -0.200   0.0035   0.01065   0.00509  -0.0157  0.9757  1.0000  -0.8034   0.0000   0.0000   0.0000   4.7004
  -0.100   0.0183   0.01071   0.00513  -0.0168  0.9728  1.0000  -0.7434   0.0000   0.0000   0.0000   1.1694
   0.000   0.0336   0.01078   0.00516  -0.0181  0.9699  1.0000  -0.6827   0.0000   0.0000   0.0000   0.7860
   0.100   0.0495   0.01085   0.00521  -0.0194  0.9671  1.0000  -0.6216   0.0000   0.0000   0.0000   0.6407
   0.200   0.0659   0.01093   0.00526  -0.0208  0.9645  1.0000  -0.5605   0.0000   0.0000   0.0000   0.5651
   0.300   0.0825   0.01101   0.00533  -0.0223  0.9621  1.0000  -0.4998   0.0000   0.0000   0.0000   0.5193
   0.400   0.0993   0.01109   0.00540  -0.0238  0.9599  1.0000  -0.4399   0.0000   0.0000   0.0000   0.4888
   0.500   0.1160   0.01119   0.00549  -0.0252  0.9580  1.0000  -0.3815   0.0000   0.0000   0.0000   0.4671
   0.600   0.1328   0.01129   0.00559  -0.0268  0.9562  1.0000  -0.4079   0.0000   0.0000   0.0000   0.4510
   0.700   0.1500   0.01140   0.00570  -0.0283  0.9545  1.0000  -0.4693   0.0000   0.0000   0.0000   0.4385
   0.800   0.1674   0.01154   0.00583  -0.0300  0.9529  1.0000  -0.5343   0.0000   0.0000   0.0000   0.4286
   0.900   0.1850   0.01170   0.00600  -0.0317  0.9512  1.0000  -0.6022   0.0000   0.0000   0.0000   0.4206
   1.000   0.1971   0.01178   0.00608  -0.0322  0.9487  1.0000  -0.6577   0.0000   0.0000   0.0000   0.4126
   1.100   0.2011   0.01167   0.00597  -0.0309  0.9443  1.0000  -0.6937   0.0000   0.0000   0.0000   0.4033
   1.200   0.2091   0.01163   0.00593  -0.0305  0.9399  1.0000  -0.7403   0.0000   0.0000   0.0000   0.3954
   1.300   0.2197   0.01163   0.00593  -0.0307  0.9358  1.0000  -0.7944   0.0000   0.0000   0.0000   0.3889
   1.400   0.2317   0.01163   0.00595  -0.0311  0.9320  1.0000  -0.8531   0.0000   0.0000   0.0000   0.3834
   1.500   0.2446   0.01165   0.00598  -0.0317  0.9286  1.0000  -0.9152   0.0000   0.0000   0.0000   0.3788
   1.600   0.2583   0.01168   0.00604  -0.0324  0.9255  1.0000  -0.9800   0.0000   0.0000   0.0000   0.3749
   1.700   0.2730   0.01171   0.00609  -0.0334  0.9226  1.0000  -1.0490   0.0000   0.0000   0.0000   0.3715
   1.800   0.2890   0.01171   0.00613  -0.0346  0.9198  1.0000  -1.1224   0.0000   0.0000   0.0000   0.3688
   1.900   0.3065   0.01170   0.00616  -0.0360  0.9171  1.0000  -1.2014   0.0000   0.0000   0.0000   0.3666
   2.000   0.3256   0.01166   0.00618  -0.0377  0.9146  1.0000  -1.2856   0.0000   0.0000   0.0000   0.3649
   2.100   0.3951   0.01013   0.00479  -0.0464  0.8962  1.0000  -1.5266   0.0000   0.0000   0.0000   0.3667
   2.200   0.4042   0.00968   0.00436  -0.0449  0.8763  1.0000  -1.5835   0.0000   0.0000   0.0000   0.3602
   2.300   0.4154   0.00895   0.00353  -0.0424  0.8257  1.0000  -1.6442   0.0000   0.0000   0.0000   0.3512
   2.400   0.4203   0.00877   0.00302  -0.0393  0.7510  1.0000  -1.6743   0.0000   0.0000   0.0000   0.3427
   2.500   0.4176   0.00946   0.00265  -0.0353  0.5220  1.0000  -1.6641   0.0000   0.0000   0.0000   0.3335
   2.600   0.4097   0.01201   0.00310  -0.0329  0.0908  1.0000  -1.6411   0.0000   0.0000   0.0000   0.3293
   2.700   0.4176   0.01265   0.00354  -0.0323  0.0588  1.0000  -1.6069   0.0000   0.0000   0.0000   0.3264
   2.800   0.4265   0.01311   0.00407  -0.0319  0.0513  1.0000  -1.5877   0.0000   0.0000   0.0000   0.3236
   2.900   0.4354   0.01352   0.00455  -0.0315  0.0490  1.0000  -1.5877   0.0000   0.0000   0.0000   0.3211
   3.000   0.4448   0.01382   0.00490  -0.0312  0.0482  1.0000  -1.6059   0.0000   0.0000   0.0000   0.3189
   3.100   0.4540   0.01417   0.00528  -0.0308  0.0475  1.0000  -1.6236   0.0000   0.0000   0.0000   0.3167
   3.200   0.4631   0.01455   0.00569  -0.0305  0.0470  1.0000  -1.6411   0.0000   0.0000   0.0000   0.3145
   3.300   0.4723   0.01497   0.00614  -0.0301  0.0467  1.0000  -1.6585   0.0000   0.0000   0.0000   0.3124
   3.400   0.4817   0.01542   0.00661  -0.0298  0.0464  1.0000  -1.6758   0.0000   0.0000   0.0000   0.3104
   3.500   0.4912   0.01592   0.00712  -0.0294  0.0463  1.0000  -1.6931   0.0000   0.0000   0.0000   0.3085
   3.600   0.5009   0.01646   0.00769  -0.0291  0.0463  1.0000  -1.7103   0.0000   0.0000   0.0000   0.3066
   3.700   0.5109   0.01705   0.00829  -0.0288  0.0463  1.0000  -1.7273   0.0000   0.0000   0.0000   0.3048
   3.800   0.5211   0.01769   0.00896  -0.0285  0.0465  1.0000  -1.7442   0.0000   0.0000   0.0000   0.3032
   3.900   0.5316   0.01838   0.00970  -0.0283  0.0467  1.0000  -1.7611   0.0000   0.0000   0.0000   0.3015
   4.000   0.5421   0.01896   0.01031  -0.0280  0.0461  1.0000  -1.8117   0.0000   0.0000   0.0000   0.3000
   4.100   0.5523   0.01891   0.01026  -0.0280  0.0410  1.0000  -1.9800   0.0000   0.0000   0.0000   0.2989
   4.200   0.5621   0.01914   0.01045  -0.0279  0.0362  1.0000  -2.1373   0.0000   0.0000   0.0000   0.2979
   4.300   0.5722   0.01969   0.01101  -0.0277  0.0333  1.0000  -2.2528   0.0000   0.0000   0.0000   0.2966
   4.400   0.5818   0.02054   0.01185  -0.0275  0.0297  1.0000  -2.3395   0.0000   0.0000   0.0000   0.2953
   4.500   0.5921   0.02223   0.01366  -0.0269  0.0276  1.0000  -2.3311   0.0000   0.0000   0.0000   0.2935
   4.600   0.6029   0.02372   0.01532  -0.0262  0.0275  1.0000  -2.3129   0.0000   0.0000   0.0000   0.2915
   4.700   0.6148   0.02478   0.01662  -0.0254  0.0294  1.0000  -2.2891   0.0000   0.0000   0.0000   0.2893
   4.800   0.6279   0.02714   0.01951  -0.0238  0.0368  1.0000  -2.1142   0.0000   0.0000   0.0000   0.2859
   4.900   0.6368   0.02985   0.02248  -0.0228  0.0442  1.0000  -2.0281   0.0000   0.0000   0.0000   0.2838
   5.100   0.6628   0.03483   0.02849  -0.0196  0.0869  1.0000  -1.7305   0.0000   0.0000   0.0000   0.2776
   5.200   0.6717   0.03572   0.02939  -0.0191  0.0830  1.0000  -1.7875   0.0000   0.0000   0.0000   0.2764
   5.300   0.6800   0.03705   0.03066  -0.0188  0.0800  1.0000  -1.8527   0.0000   0.0000   0.0000   0.2756
   5.400   0.6866   0.03938   0.03289  -0.0187  0.0773  1.0000  -1.9072   0.0000   0.0000   0.0000   0.2751
   6.200   0.7323   0.04951   0.04388  -0.0141  0.0541  1.0000  -2.1696   0.0000   0.0000   0.0000   0.2669
   6.300   0.7369   0.05173   0.04605  -0.0140  0.0526  1.0000  -2.2255   0.0000   0.0000   0.0000   0.2665
   6.400   0.7375   0.05473   0.04908  -0.0139  0.0513  1.0000  -2.2338   0.0000   0.0000   0.0000   0.2663
   6.500   0.7330   0.05944   0.05387  -0.0140  0.0501  1.0000  -2.1733   0.0000   0.0000   0.0000   0.2665
   6.600   0.7282   0.06358   0.05809  -0.0139  0.0494  1.0000  -2.0986   0.0000   0.0000   0.0000   0.2665
   6.700   0.7306   0.06488   0.05950  -0.0133  0.0493  1.0000  -2.1041   0.0000   0.0000   0.0000   0.2656
   6.800   0.7328   0.06610   0.06082  -0.0127  0.0492  1.0000  -2.1087   0.0000   0.0000   0.0000   0.2647
   6.900   0.7347   0.06719   0.06202  -0.0120  0.0491  1.0000  -2.1128   0.0000   0.0000   0.0000   0.2637
   7.000   0.7362   0.06809   0.06302  -0.0114  0.0489  1.0000  -2.1167   0.0000   0.0000   0.0000   0.2627
   7.100   0.7375   0.06863   0.06367  -0.0106  0.0485  1.0000  -2.1218   0.0000   0.0000   0.0000   0.2616
   7.200   0.7395   0.06847   0.06364  -0.0097  0.0477  1.0000  -2.1302   0.0000   0.0000   0.0000   0.2603
   7.300   0.7416   0.06859   0.06388  -0.0089  0.0466  1.0000  -2.1296   0.0000   0.0000   0.0000   0.2592
   7.400   0.7406   0.06948   0.06485  -0.0083  0.0459  1.0000  -2.1157   0.0000   0.0000   0.0000   0.2584
   7.500   0.7390   0.07058   0.06602  -0.0078  0.0453  1.0000  -2.1008   0.0000   0.0000   0.0000   0.2577
   7.600   0.7368   0.07177   0.06727  -0.0074  0.0448  1.0000  -2.0853   0.0000   0.0000   0.0000   0.2572
   7.700   0.7336   0.07301   0.06855  -0.0070  0.0445  1.0000  -2.0692   0.0000   0.0000   0.0000   0.2566
   7.800   0.7298   0.07425   0.06983  -0.0066  0.0442  1.0000  -2.0524   0.0000   0.0000   0.0000   0.2561
   7.900   0.7253   0.07546   0.07107  -0.0062  0.0440  1.0000  -2.0347   0.0000   0.0000   0.0000   0.2555
   8.000   0.7192   0.07651   0.07214  -0.0054  0.0439  1.0000  -2.0167   0.0000   0.0000   0.0000   0.2545
   8.100   0.7126   0.07756   0.07320  -0.0046  0.0439  1.0000  -1.9980   0.0000   0.0000   0.0000   0.2534
   8.200   0.7060   0.07867   0.07433  -0.0041  0.0439  1.0000  -1.9783   0.0000   0.0000   0.0000   0.2527
   8.300   0.6997   0.07989   0.07556  -0.0039  0.0440  1.0000  -1.9573   0.0000   0.0000   0.0000   0.2525
   8.400   0.6936   0.08121   0.07689  -0.0041  0.0440  1.0000  -1.9350   0.0000   0.0000   0.0000   0.2526
   8.500   0.6879   0.08263   0.07831  -0.0045  0.0441  1.0000  -1.9114   0.0000   0.0000   0.0000   0.2532
   8.600   0.6826   0.08416   0.07985  -0.0052  0.0441  1.0000  -1.8865   0.0000   0.0000   0.0000   0.2542
   8.700   0.6778   0.08584   0.08153  -0.0062  0.0442  1.0000  -1.8597   0.0000   0.0000   0.0000   0.2557
   8.800   0.6736   0.08761   0.08329  -0.0073  0.0443  1.0000  -1.8326   0.0000   0.0000   0.0000   0.2574
   8.900   0.6701   0.08936   0.08503  -0.0084  0.0442  1.0000  -1.8070   0.0000   0.0000   0.0000   0.2591
   9.000   0.6671   0.09108   0.08674  -0.0095  0.0441  1.0000  -1.7827   0.0000   0.0000   0.0000   0.2606
   9.100   0.6645   0.09277   0.08842  -0.0105  0.0439  1.0000  -1.7599   0.0000   0.0000   0.0000   0.2621
   9.200   0.6623   0.09444   0.09008  -0.0114  0.0437  1.0000  -1.7384   0.0000   0.0000   0.0000   0.2635
   9.300   0.6604   0.09610   0.09172  -0.0123  0.0434  1.0000  -1.7182   0.0000   0.0000   0.0000   0.2649
   9.400   0.6588   0.09775   0.09336  -0.0132  0.0431  1.0000  -1.6991   0.0000   0.0000   0.0000   0.2662
   9.500   0.6575   0.09940   0.09500  -0.0141  0.0428  1.0000  -1.6811   0.0000   0.0000   0.0000   0.2675
   9.600   0.6563   0.10105   0.09664  -0.0149  0.0424  1.0000  -1.6643   0.0000   0.0000   0.0000   0.2687
   9.700   0.6554   0.10270   0.09828  -0.0157  0.0420  1.0000  -1.6484   0.0000   0.0000   0.0000   0.2700
   9.800   0.6547   0.10435   0.09991  -0.0165  0.0416  1.0000  -1.6336   0.0000   0.0000   0.0000   0.2712
   9.900   0.6542   0.10600   0.10155  -0.0173  0.0412  1.0000  -1.6198   0.0000   0.0000   0.0000   0.2723
  10.000   0.6538   0.10765   0.10319  -0.0181  0.0408  1.0000  -1.6069   0.0000   0.0000   0.0000   0.2735
  10.100   0.6536   0.10930   0.10483  -0.0189  0.0403  1.0000  -1.5948   0.0000   0.0000   0.0000   0.2746
  10.200   0.6535   0.11094   0.10647  -0.0196  0.0399  1.0000  -1.5836   0.0000   0.0000   0.0000   0.2757
  10.300   0.6535   0.11259   0.10810  -0.0204  0.0394  1.0000  -1.5730   0.0000   0.0000   0.0000   0.2768
  10.400   0.6536   0.11423   0.10974  -0.0212  0.0390  1.0000  -1.5631   0.0000   0.0000   0.0000   0.2779
  10.500   0.6539   0.11588   0.11138  -0.0219  0.0385  1.0000  -1.5540   0.0000   0.0000   0.0000   0.2790
  10.600   0.6543   0.11753   0.11303  -0.0227  0.0380  1.0000  -1.5456   0.0000   0.0000   0.0000   0.2800
  10.700   0.6548   0.11919   0.11467  -0.0234  0.0376  1.0000  -1.5381   0.0000   0.0000   0.0000   0.2811
  10.800   0.6555   0.12084   0.11632  -0.0241  0.0371  1.0000  -1.5313   0.0000   0.0000   0.0000   0.2821
  10.900   0.6562   0.12250   0.11797  -0.0249  0.0366  1.0000  -1.5252   0.0000   0.0000   0.0000   0.2831
  11.000   0.6571   0.12416   0.11962  -0.0256  0.0361  1.0000  -1.5199   0.0000   0.0000   0.0000   0.2841
  11.100   0.6581   0.12582   0.12127  -0.0263  0.0357  1.0000  -1.5153   0.0000   0.0000   0.0000   0.2850
  11.200   0.6592   0.12748   0.12293  -0.0270  0.0352  1.0000  -1.5115   0.0000   0.0000   0.0000   0.2860
  11.300   0.6603   0.12913   0.12457  -0.0277  0.0347  1.0000  -1.5084   0.0000   0.0000   0.0000   0.2869
  11.400   0.6615   0.13079   0.12622  -0.0284  0.0342  1.0000  -1.5061   0.0000   0.0000   0.0000   0.2878
  11.500   0.6629   0.13244   0.12787  -0.0291  0.0338  1.0000  -1.5046   0.0000   0.0000   0.0000   0.2887
  11.600   0.6643   0.13409   0.12952  -0.0298  0.0333  1.0000  -1.5040   0.0000   0.0000   0.0000   0.2896
  11.700   0.6659   0.13575   0.13117  -0.0305  0.0328  1.0000  -1.5044   0.0000   0.0000   0.0000   0.2905
  11.800   0.6675   0.13740   0.13282  -0.0312  0.0324  1.0000  -1.5059   0.0000   0.0000   0.0000   0.2913
  11.900   0.6693   0.13906   0.13447  -0.0319  0.0319  1.0000  -1.5085   0.0000   0.0000   0.0000   0.2921
  12.000   0.6711   0.14072   0.13613  -0.0325  0.0314  1.0000  -1.5124   0.0000   0.0000   0.0000   0.2929
  12.100   0.6731   0.14239   0.13779  -0.0332  0.0310  1.0000  -1.5179   0.0000   0.0000   0.0000   0.2936
  12.200   0.6753   0.14407   0.13947  -0.0338  0.0305  1.0000  -1.5252   0.0000   0.0000   0.0000   0.2943
  12.300   0.6776   0.14576   0.14116  -0.0344  0.0301  1.0000  -1.5345   0.0000   0.0000   0.0000   0.2950
  12.400   0.6801   0.14748   0.14287  -0.0350  0.0296  1.0000  -1.5465   0.0000   0.0000   0.0000   0.2956
  12.500   0.6828   0.14924   0.14462  -0.0355  0.0291  1.0000  -1.5620   0.0000   0.0000   0.0000   0.2961
  12.600   0.6860   0.15105   0.14644  -0.0360  0.0286  1.0000  -1.5822   0.0000   0.0000   0.0000   0.2964
  12.700   0.6896   0.15296   0.14834  -0.0364  0.0281  1.0000  -1.6084   0.0000   0.0000   0.0000   0.2966
  12.800   0.6938   0.15503   0.15041  -0.0367  0.0275  1.0000  -1.6424   0.0000   0.0000   0.0000   0.2967
  12.900   0.6987   0.15739   0.15278  -0.0369  0.0269  1.0000  -1.6843   0.0000   0.0000   0.0000   0.2965
  13.000   0.7032   0.16013   0.15552  -0.0371  0.0263  1.0000  -1.7193   0.0000   0.0000   0.0000   0.2964
  13.100   0.7057   0.16300   0.15839  -0.0377  0.0258  1.0000  -1.7217   0.0000   0.0000   0.0000   0.2971
  13.200   0.7064   0.16683   0.16222  -0.0387  0.0252  1.0000  -1.6889   0.0000   0.0000   0.0000   0.2984
  13.300   0.7050   0.17235   0.16774  -0.0403  0.0246  1.0000  -1.5911   0.0000   0.0000   0.0000   0.3006
  13.400   0.7060   0.17476   0.17009  -0.0413  0.0244  1.0000  -1.5597   0.0000   0.0000   0.0000   0.3019
  13.500   0.7078   0.17627   0.17160  -0.0421  0.0244  1.0000  -1.5520   0.0000   0.0000   0.0000   0.3029
  13.600   0.7096   0.17775   0.17308  -0.0430  0.0244  1.0000  -1.5448   0.0000   0.0000   0.0000   0.3038
  13.700   0.7114   0.17920   0.17452  -0.0438  0.0243  1.0000  -1.5379   0.0000   0.0000   0.0000   0.3047
  13.800   0.7133   0.18061   0.17593  -0.0446  0.0243  1.0000  -1.5314   0.0000   0.0000   0.0000   0.3056
  13.900   0.7152   0.18199   0.17730  -0.0454  0.0242  1.0000  -1.5253   0.0000   0.0000   0.0000   0.3065
  14.000   0.7171   0.18331   0.17862  -0.0462  0.0242  1.0000  -1.5196   0.0000   0.0000   0.0000   0.3074
  14.100   0.7191   0.18457   0.17988  -0.0470  0.0241  1.0000  -1.5145   0.0000   0.0000   0.0000   0.3082
  14.200   0.7210   0.18574   0.18105  -0.0478  0.0240  1.0000  -1.5099   0.0000   0.0000   0.0000   0.3091
  14.300   0.7231   0.18683   0.18214  -0.0486  0.0239  1.0000  -1.5059   0.0000   0.0000   0.0000   0.3099
  14.400   0.7251   0.18779   0.18310  -0.0494  0.0237  1.0000  -1.5026   0.0000   0.0000   0.0000   0.3107
  14.500   0.7273   0.18863   0.18393  -0.0502  0.0235  1.0000  -1.4999   0.0000   0.0000   0.0000   0.3115
  14.600   0.7288   0.18932   0.18463  -0.0511  0.0233  1.0000  -1.4904   0.0000   0.0000   0.0000   0.3125
  14.700   0.7294   0.18989   0.18519  -0.0520  0.0230  1.0000  -1.4765   0.0000   0.0000   0.0000   0.3136
  14.800   0.7303   0.19046   0.18576  -0.0529  0.0227  1.0000  -1.4624   0.0000   0.0000   0.0000   0.3147
  14.900   0.7315   0.19113   0.18642  -0.0538  0.0224  1.0000  -1.4488   0.0000   0.0000   0.0000   0.3157
  15.000   0.7331   0.19194   0.18723  -0.0547  0.0220  1.0000  -1.4362   0.0000   0.0000   0.0000   0.3166
  15.100   0.7350   0.19292   0.18821  -0.0556  0.0215  1.0000  -1.4253   0.0000   0.0000   0.0000   0.3175
  15.200   0.7373   0.19406   0.18936  -0.0564  0.0210  1.0000  -1.4165   0.0000   0.0000   0.0000   0.3182
  15.300   0.7396   0.19532   0.19062  -0.0571  0.0206  1.0000  -1.4098   0.0000   0.0000   0.0000   0.3190
  15.400   0.7421   0.19667   0.19198  -0.0579  0.0201  1.0000  -1.4051   0.0000   0.0000   0.0000   0.3196
  15.500   0.7446   0.19808   0.19341  -0.0587  0.0196  1.0000  -1.4020   0.0000   0.0000   0.0000   0.3203
  18.900   0.8406   0.26065   0.25598  -0.0813  0.0235  1.0000  -1.3772   0.0000   0.0000   0.0000   0.3349
  19.000   0.8406   0.25856   0.25388  -0.0821  0.0232  1.0000  -1.3637   0.0000   0.0000   0.0000   0.3356
  19.100   0.8411   0.25653   0.25184  -0.0829  0.0226  1.0000  -1.3487   0.0000   0.0000   0.0000   0.3364
  19.200   0.8427   0.25522   0.25052  -0.0837  0.0217  1.0000  -1.3349   0.0000   0.0000   0.0000   0.3370
  19.300   0.8452   0.25514   0.25044  -0.0844  0.0206  1.0000  -1.3283   0.0000   0.0000   0.0000   0.3374
  19.400   0.8481   0.25581   0.25111  -0.0851  0.0196  1.0000  -1.3292   0.0000   0.0000   0.0000   0.3377
  19.500   0.8509   0.25668   0.25199  -0.0857  0.0185  1.0000  -1.3357   0.0000   0.0000   0.0000   0.3380
  19.600   0.8537   0.25768   0.25299  -0.0863  0.0173  1.0000  -1.3479   0.0000   0.0000   0.0000   0.3383
  19.700   0.8566   0.25876   0.25407  -0.0870  0.0163  1.0000  -1.3653   0.0000   0.0000   0.0000   0.3386
  19.800   0.8594   0.25989   0.25520  -0.0876  0.0154  1.0000  -1.3894   0.0000   0.0000   0.0000   0.3388


