xflr5 v6.61

 Calculated polar for: NACA65-015

 1 1 Reynolds number fixed          Mach number fixed         

 xtrf =   1.000 (top)        1.000 (bottom)
 Mach =   0.000     Re =     0.100 e 6     Ncrit =   9.000

  alpha     CL        CD       CDp       Cm    Top Xtr Bot Xtr   Cpmin    Chinge    XCp    
 ------- -------- --------- --------- -------- ------- ------- -------- --------- ---------
 -10.000  -0.9022   0.05174   0.04485  -0.0275  1.0000  0.0758  -3.5832   0.0000   0.0000   0.0000   0.2083
  -9.900  -0.9253   0.05049   0.04278  -0.0234  1.0000  0.0720  -3.7551   0.0000   0.0000   0.0000   0.2136
  -9.800  -0.9157   0.04879   0.04107  -0.0235  1.0000  0.0716  -3.7159   0.0000   0.0000   0.0000   0.2133
  -9.700  -0.9080   0.04727   0.03951  -0.0234  1.0000  0.0712  -3.6834   0.0000   0.0000   0.0000   0.2132
  -9.600  -0.9019   0.04591   0.03808  -0.0230  1.0000  0.0707  -3.6578   0.0000   0.0000   0.0000   0.2136
  -9.500  -0.8966   0.04465   0.03672  -0.0225  1.0000  0.0703  -3.6357   0.0000   0.0000   0.0000   0.2141
  -9.400  -0.8917   0.04347   0.03542  -0.0219  1.0000  0.0700  -3.6151   0.0000   0.0000   0.0000   0.2147
  -9.300  -0.8871   0.04237   0.03420  -0.0211  1.0000  0.0697  -3.5949   0.0000   0.0000   0.0000   0.2155
  -9.200  -0.8827   0.04135   0.03306  -0.0203  1.0000  0.0695  -3.5737   0.0000   0.0000   0.0000   0.2164
  -9.100  -0.8787   0.04042   0.03202  -0.0194  1.0000  0.0693  -3.5514   0.0000   0.0000   0.0000   0.2174
  -9.000  -0.8754   0.03958   0.03108  -0.0183  1.0000  0.0692  -3.5296   0.0000   0.0000   0.0000   0.2187
  -8.900  -0.8730   0.03884   0.03024  -0.0170  1.0000  0.0692  -3.5082   0.0000   0.0000   0.0000   0.2202
  -8.800  -0.8708   0.03815   0.02946  -0.0157  1.0000  0.0692  -3.4864   0.0000   0.0000   0.0000   0.2218
  -8.700  -0.8687   0.03749   0.02871  -0.0144  1.0000  0.0692  -3.4637   0.0000   0.0000   0.0000   0.2234
  -8.600  -0.8664   0.03688   0.02800  -0.0130  1.0000  0.0693  -3.4435   0.0000   0.0000   0.0000   0.2249
  -8.500  -0.8640   0.03628   0.02732  -0.0117  1.0000  0.0695  -3.4270   0.0000   0.0000   0.0000   0.2265
  -8.400  -0.8610   0.03569   0.02663  -0.0105  1.0000  0.0697  -3.4090   0.0000   0.0000   0.0000   0.2280
  -8.300  -0.8577   0.03512   0.02597  -0.0093  1.0000  0.0699  -3.3893   0.0000   0.0000   0.0000   0.2294
  -8.200  -0.8546   0.03461   0.02536  -0.0081  1.0000  0.0703  -3.3687   0.0000   0.0000   0.0000   0.2309
  -8.100  -0.8521   0.03417   0.02482  -0.0068  1.0000  0.0709  -3.3486   0.0000   0.0000   0.0000   0.2325
  -8.000  -0.8503   0.03381   0.02434  -0.0054  1.0000  0.0715  -3.3299   0.0000   0.0000   0.0000   0.2342
  -7.900  -0.8482   0.03344   0.02386  -0.0041  1.0000  0.0721  -3.3097   0.0000   0.0000   0.0000   0.2359
  -7.800  -0.8379   0.03255   0.02308  -0.0042  1.0000  0.0734  -3.2535   0.0000   0.0000   0.0000   0.2357
  -7.700  -0.8314   0.03206   0.02262  -0.0037  1.0000  0.0745  -3.2092   0.0000   0.0000   0.0000   0.2364
  -7.600  -0.8253   0.03161   0.02218  -0.0030  1.0000  0.0755  -3.1698   0.0000   0.0000   0.0000   0.2373
  -7.500  -0.8191   0.03117   0.02171  -0.0023  1.0000  0.0764  -3.1338   0.0000   0.0000   0.0000   0.2382
  -7.400  -0.8125   0.03071   0.02121  -0.0016  1.0000  0.0772  -3.0992   0.0000   0.0000   0.0000   0.2391
  -7.300  -0.8055   0.03026   0.02072  -0.0010  1.0000  0.0779  -3.0649   0.0000   0.0000   0.0000   0.2399
  -7.200  -0.7986   0.02983   0.02024  -0.0003  1.0000  0.0787  -3.0307   0.0000   0.0000   0.0000   0.2409
  -7.100  -0.7920   0.02945   0.01980   0.0004  1.0000  0.0794  -2.9972   0.0000   0.0000   0.0000   0.2418
  -7.000  -0.7860   0.02912   0.01938   0.0012  1.0000  0.0802  -2.9649   0.0000   0.0000   0.0000   0.2430
  -6.900  -0.7765   0.02851   0.01889   0.0014  1.0000  0.0814  -2.9172   0.0000   0.0000   0.0000   0.2433
  -6.800  -0.7666   0.02802   0.01845   0.0014  0.9995  0.0828  -2.8662   0.0000   0.0000   0.0000   0.2434
  -6.700  -0.7508   0.02749   0.01797   0.0004  0.9978  0.0849  -2.8026   0.0000   0.0000   0.0000   0.2421
  -6.600  -0.7354   0.02702   0.01748  -0.0006  0.9960  0.0873  -2.7433   0.0000   0.0000   0.0000   0.2409
  -6.500  -0.7210   0.02650   0.01699  -0.0014  0.9941  0.0900  -2.6850   0.0000   0.0000   0.0000   0.2398
  -6.400  -0.7079   0.02598   0.01659  -0.0022  0.9919  0.0936  -2.6226   0.0000   0.0000   0.0000   0.2386
  -6.300  -0.6941   0.02559   0.01616  -0.0031  0.9897  0.0982  -2.5657   0.0000   0.0000   0.0000   0.2374
  -6.200  -0.6823   0.02502   0.01573  -0.0038  0.9873  0.1027  -2.5199   0.0000   0.0000   0.0000   0.2363
  -6.100  -0.6706   0.02457   0.01528  -0.0043  0.9846  0.1082  -2.4821   0.0000   0.0000   0.0000   0.2355
  -6.000  -0.6601   0.02404   0.01483  -0.0048  0.9818  0.1144  -2.4445   0.0000   0.0000   0.0000   0.2348
  -5.900  -0.6494   0.02345   0.01434  -0.0053  0.9792  0.1232  -2.4102   0.0000   0.0000   0.0000   0.2340
  -5.800  -0.6416   0.02283   0.01382  -0.0053  0.9759  0.1367  -2.3848   0.0000   0.0000   0.0000   0.2340
  -5.700  -0.6372   0.02189   0.01319  -0.0049  0.9726  0.1659  -2.3702   0.0000   0.0000   0.0000   0.2345
  -5.600  -0.6417   0.02020   0.01235  -0.0038  0.9688  0.2702  -2.3757   0.0000   0.0000   0.0000   0.2365
  -5.500  -0.6512   0.01880   0.01230  -0.0009  0.9647  0.4653  -2.3807   0.0000   0.0000   0.0000   0.2412
  -5.400  -0.6469   0.01924   0.01313   0.0013  0.9611  0.5784  -2.3512   0.0000   0.0000   0.0000   0.2449
  -5.300  -0.6342   0.01989   0.01378   0.0019  0.9587  0.6149  -2.2926   0.0000   0.0000   0.0000   0.2459
  -5.200  -0.6248   0.02031   0.01413   0.0026  0.9556  0.6341  -2.2398   0.0000   0.0000   0.0000   0.2472
  -5.100  -0.6106   0.02099   0.01478   0.0029  0.9534  0.6495  -2.1709   0.0000   0.0000   0.0000   0.2479
  -5.000  -0.5943   0.02166   0.01542   0.0028  0.9517  0.6632  -2.0960   0.0000   0.0000   0.0000   0.2479
  -4.900  -0.5823   0.02236   0.01610   0.0037  0.9489  0.6723  -2.0316   0.0000   0.0000   0.0000   0.2495
  -4.800  -0.5654   0.02316   0.01688   0.0038  0.9471  0.6819  -1.9538   0.0000   0.0000   0.0000   0.2500
  -4.700  -0.5481   0.02391   0.01758   0.0037  0.9457  0.6924  -1.8753   0.0000   0.0000   0.0000   0.2500
  -4.500  -0.4854   0.02888   0.02254   0.0052  0.9468  0.7220  -1.6343   0.0000   0.0000   0.0000   0.2538
  -4.400  -0.4488   0.03080   0.02440   0.0044  0.9480  0.7331  -1.5150   0.0000   0.0000   0.0000   0.2526
  -4.300  -0.4196   0.03156   0.02508   0.0026  0.9482  0.7384  -1.4213   0.0000   0.0000   0.0000   0.2489
  -4.200  -0.4055   0.03156   0.02500   0.0019  0.9463  0.7443  -1.3674   0.0000   0.0000   0.0000   0.2473
  -4.100  -0.3745   0.03206   0.02542  -0.0005  0.9467  0.7468  -1.2732   0.0000   0.0000   0.0000   0.2409
  -4.000  -0.3514   0.03221   0.02547  -0.0024  0.9460  0.7505  -1.1999   0.0000   0.0000   0.0000   0.2354
  -3.900  -0.3553   0.03188   0.02511  -0.0008  0.9412  0.7565  -1.1893   0.0000   0.0000   0.0000   0.2403
  -3.800  -0.3263   0.03213   0.02529  -0.0033  0.9412  0.7583  -1.1035   0.0000   0.0000   0.0000   0.2320
  -3.700  -0.3016   0.03223   0.02532  -0.0055  0.9405  0.7608  -1.0294   0.0000   0.0000   0.0000   0.2238
  -3.600  -0.2855   0.03211   0.02515  -0.0067  0.9389  0.7646  -0.9758   0.0000   0.0000   0.0000   0.2183
  -3.500  -0.2883   0.03189   0.02490  -0.0051  0.9341  0.7692  -0.9623   0.0000   0.0000   0.0000   0.2245
  -3.400  -0.2620   0.03194   0.02490  -0.0075  0.9336  0.7709  -0.8873   0.0000   0.0000   0.0000   0.2130
  -3.300  -0.2380   0.03192   0.02481  -0.0098  0.9328  0.7729  -0.8187   0.0000   0.0000   0.0000   0.2001
  -3.200  -0.2205   0.03179   0.02464  -0.0112  0.9314  0.7758  -0.7655   0.0000   0.0000   0.0000   0.1899
  -3.100  -0.2358   0.03155   0.02440  -0.0076  0.9253  0.7810  -0.7772   0.0000   0.0000   0.0000   0.2094
  -3.000  -0.2101   0.03155   0.02432  -0.0101  0.9248  0.7824  -0.7142   0.0000   0.0000   0.0000   0.1930
  -2.900  -0.1860   0.03149   0.02422  -0.0125  0.9242  0.7842  -0.6556   0.0000   0.0000   0.0000   0.1734
  -2.800  -0.1663   0.03138   0.02407  -0.0143  0.9231  0.7864  -0.6055   0.0000   0.0000   0.0000   0.1541
  -2.700  -0.1940   0.03117   0.02387  -0.0086  0.9161  0.7924  -0.6377   0.0000   0.0000   0.0000   0.1969
  -2.600  -0.1684   0.03113   0.02378  -0.0111  0.9155  0.7935  -0.5776   0.0000   0.0000   0.0000   0.1744
  -2.500  -0.1431   0.03105   0.02367  -0.0137  0.9149  0.7949  -0.5193   0.0000   0.0000   0.0000   0.1438
  -2.400  -0.1334   0.03107   0.02366  -0.0137  0.9118  0.7970  -0.4872   0.0000   0.0000   0.0000   0.1369
  -2.300  -0.1234   0.03098   0.02356  -0.0138  0.9093  0.7995  -0.4635   0.0000   0.0000   0.0000   0.1270
  -2.200  -0.1436   0.03082   0.02339  -0.0093  0.9039  0.8045  -0.4735   0.0000   0.0000   0.0000   0.1763
  -2.100  -0.1242   0.03080   0.02335  -0.0108  0.9025  0.8058  -0.4598   0.0000   0.0000   0.0000   0.1529
  -2.000  -0.1047   0.03075   0.02326  -0.0125  0.9012  0.8072  -0.4471   0.0000   0.0000   0.0000   0.1198
  -1.900  -0.0877   0.03066   0.02315  -0.0138  0.8998  0.8089  -0.4363   0.0000   0.0000   0.0000   0.0803
  -1.800  -0.0747   0.03054   0.02301  -0.0145  0.8982  0.8110  -0.4283   0.0000   0.0000   0.0000   0.0428
  -1.700  -0.1054   0.03049   0.02297  -0.0081  0.8916  0.8162  -0.4442   0.0000   0.0000   0.0000   0.1639
  -1.600  -0.0846   0.03044   0.02289  -0.0099  0.8905  0.8172  -0.4320   0.0000   0.0000   0.0000   0.1218
  -1.500  -0.0644   0.03036   0.02279  -0.0117  0.8895  0.8184  -0.4205   0.0000   0.0000   0.0000   0.0551
  -1.400  -0.0476   0.03028   0.02270  -0.0129  0.8881  0.8199  -0.4113   0.0000   0.0000   0.0000  -0.0381
  -1.300  -0.0567   0.03034   0.02276  -0.0100  0.8836  0.8229  -0.4154   0.0000   0.0000   0.0000   0.0611
  -1.200  -0.0697   0.03016   0.02257  -0.0065  0.8802  0.8272  -0.4226   0.0000   0.0000   0.0000   0.1464
  -1.100  -0.0488   0.03012   0.02251  -0.0084  0.8794  0.8281  -0.4114   0.0000   0.0000   0.0000   0.0653
  -1.000  -0.0423   0.03019   0.02258  -0.0079  0.8765  0.8298  -0.4074   0.0000   0.0000   0.0000   0.0499
  -0.900  -0.0356   0.03020   0.02259  -0.0075  0.8739  0.8317  -0.4035   0.0000   0.0000   0.0000   0.0245
  -0.800  -0.0282   0.03013   0.02251  -0.0072  0.8717  0.8338  -0.3998   0.0000   0.0000   0.0000  -0.0229
  -0.600  -0.0349   0.03004   0.02241  -0.0032  0.8656  0.8395  -0.4038   0.0000   0.0000   0.0000   0.1477
  -0.500  -0.0230   0.03007   0.02244  -0.0037  0.8637  0.8410  -0.3978   0.0000   0.0000   0.0000   0.0783
  -0.400  -0.0109   0.03006   0.02242  -0.0041  0.8621  0.8427  -0.3920   0.0000   0.0000   0.0000  -0.1488
  -0.300  -0.0008   0.03000   0.02236  -0.0043  0.8605  0.8448  -0.3927   0.0000   0.0000   0.0000  -5.6857
  -0.200  -0.0243   0.02995   0.02230   0.0010  0.8560  0.8493  -0.4009   0.0000   0.0000   0.0000   0.2839
  -0.100  -0.0138   0.03000   0.02235   0.0007  0.8538  0.8507  -0.3961   0.0000   0.0000   0.0000   0.2992
   0.000   0.0000   0.03001   0.02237  -0.0000  0.8521  0.8521  -0.3898   0.0000   0.0000   0.0000   0.4972
   0.100   0.0138   0.03000   0.02235  -0.0007  0.8507  0.8538  -0.3961   0.0000   0.0000   0.0000   0.2993
   0.200   0.0243   0.02995   0.02230  -0.0010  0.8493  0.8560  -0.4009   0.0000   0.0000   0.0000   0.2838
   0.300   0.0008   0.03000   0.02236   0.0043  0.8448  0.8605  -0.3927   0.0000   0.0000   0.0000  -5.6217
   0.400   0.0109   0.03006   0.02242   0.0041  0.8427  0.8621  -0.3920   0.0000   0.0000   0.0000  -0.1485
   0.500   0.0230   0.03007   0.02244   0.0037  0.8410  0.8637  -0.3978   0.0000   0.0000   0.0000   0.0783
   0.600   0.0349   0.03004   0.02241   0.0032  0.8395  0.8656  -0.4038   0.0000   0.0000   0.0000   0.1477
   0.800   0.0282   0.03013   0.02251   0.0072  0.8339  0.8717  -0.3998   0.0000   0.0000   0.0000  -0.0224
   0.900   0.0356   0.03020   0.02258   0.0075  0.8317  0.8739  -0.4035   0.0000   0.0000   0.0000   0.0246
   1.000   0.0423   0.03019   0.02258   0.0079  0.8298  0.8765  -0.4074   0.0000   0.0000   0.0000   0.0498
   1.100   0.0488   0.03011   0.02251   0.0084  0.8281  0.8794  -0.4114   0.0000   0.0000   0.0000   0.0653
   1.200   0.0697   0.03016   0.02257   0.0065  0.8272  0.8802  -0.4226   0.0000   0.0000   0.0000   0.1465
   1.300   0.0567   0.03034   0.02276   0.0100  0.8229  0.8836  -0.4154   0.0000   0.0000   0.0000   0.0615
   1.400   0.0476   0.03028   0.02269   0.0130  0.8199  0.8881  -0.4113   0.0000   0.0000   0.0000  -0.0383
   1.500   0.0644   0.03035   0.02279   0.0117  0.8184  0.8895  -0.4205   0.0000   0.0000   0.0000   0.0552
   1.600   0.0846   0.03043   0.02289   0.0099  0.8172  0.8905  -0.4320   0.0000   0.0000   0.0000   0.1219
   1.700   0.1054   0.03049   0.02296   0.0081  0.8162  0.8916  -0.4442   0.0000   0.0000   0.0000   0.1639
   1.800   0.0748   0.03054   0.02301   0.0145  0.8110  0.8982  -0.4283   0.0000   0.0000   0.0000   0.0432
   1.900   0.0878   0.03066   0.02315   0.0138  0.8090  0.8998  -0.4364   0.0000   0.0000   0.0000   0.0806
   2.000   0.1048   0.03074   0.02326   0.0125  0.8072  0.9012  -0.4471   0.0000   0.0000   0.0000   0.1199
   2.100   0.1242   0.03080   0.02334   0.0108  0.8058  0.9025  -0.4598   0.0000   0.0000   0.0000   0.1529
   2.200   0.1436   0.03082   0.02339   0.0093  0.8045  0.9040  -0.4735   0.0000   0.0000   0.0000   0.1763
   2.300   0.1236   0.03098   0.02355   0.0138  0.7996  0.9093  -0.4636   0.0000   0.0000   0.0000   0.1273
   2.400   0.1335   0.03106   0.02366   0.0137  0.7970  0.9118  -0.4873   0.0000   0.0000   0.0000   0.1370
   2.500   0.1432   0.03105   0.02366   0.0137  0.7949  0.9149  -0.5194   0.0000   0.0000   0.0000   0.1439
   2.600   0.1684   0.03113   0.02378   0.0111  0.7935  0.9155  -0.5777   0.0000   0.0000   0.0000   0.1745
   2.700   0.1940   0.03117   0.02387   0.0086  0.7924  0.9161  -0.6378   0.0000   0.0000   0.0000   0.1970
   2.800   0.1664   0.03138   0.02407   0.0142  0.7864  0.9232  -0.6057   0.0000   0.0000   0.0000   0.1543
   2.900   0.1861   0.03149   0.02422   0.0125  0.7842  0.9242  -0.6557   0.0000   0.0000   0.0000   0.1735
   3.000   0.2102   0.03154   0.02432   0.0101  0.7824  0.9248  -0.7143   0.0000   0.0000   0.0000   0.1930
   3.100   0.2359   0.03155   0.02439   0.0076  0.7810  0.9253  -0.7773   0.0000   0.0000   0.0000   0.2094
   3.200   0.2207   0.03179   0.02463   0.0112  0.7759  0.9314  -0.7659   0.0000   0.0000   0.0000   0.1901
   3.300   0.2381   0.03191   0.02481   0.0098  0.7729  0.9328  -0.8189   0.0000   0.0000   0.0000   0.2002
   3.400   0.2621   0.03194   0.02489   0.0075  0.7709  0.9336  -0.8874   0.0000   0.0000   0.0000   0.2131
   3.500   0.2883   0.03188   0.02489   0.0050  0.7692  0.9341  -0.9624   0.0000   0.0000   0.0000   0.2245
   3.700   0.3017   0.03222   0.02531   0.0054  0.7608  0.9405  -1.0297   0.0000   0.0000   0.0000   0.2238
   3.800   0.3263   0.03212   0.02528   0.0033  0.7583  0.9412  -1.1036   0.0000   0.0000   0.0000   0.2320
   3.900   0.3554   0.03187   0.02511   0.0008  0.7565  0.9412  -1.1894   0.0000   0.0000   0.0000   0.2403
   4.000   0.3515   0.03220   0.02547   0.0024  0.7505  0.9460  -1.2003   0.0000   0.0000   0.0000   0.2355
   4.100   0.3746   0.03205   0.02541   0.0005  0.7468  0.9467  -1.2734   0.0000   0.0000   0.0000   0.2410
   4.200   0.4056   0.03155   0.02500  -0.0019  0.7443  0.9463  -1.3676   0.0000   0.0000   0.0000   0.2473
   4.300   0.4198   0.03155   0.02507  -0.0027  0.7385  0.9482  -1.4217   0.0000   0.0000   0.0000   0.2489
   4.400   0.4489   0.03080   0.02439  -0.0044  0.7331  0.9481  -1.5152   0.0000   0.0000   0.0000   0.2526
   4.500   0.4855   0.02886   0.02253  -0.0053  0.7220  0.9468  -1.6347   0.0000   0.0000   0.0000   0.2539
   4.600   0.5379   0.02461   0.01825  -0.0049  0.7035  0.9430  -1.8161   0.0000   0.0000   0.0000   0.2524
   4.700   0.5481   0.02390   0.01757  -0.0037  0.6924  0.9457  -1.8753   0.0000   0.0000   0.0000   0.2501
   4.800   0.5654   0.02316   0.01687  -0.0038  0.6819  0.9472  -1.9537   0.0000   0.0000   0.0000   0.2500
   4.900   0.5822   0.02235   0.01610  -0.0037  0.6724  0.9489  -2.0315   0.0000   0.0000   0.0000   0.2495
   5.000   0.5941   0.02167   0.01542  -0.0028  0.6632  0.9517  -2.0954   0.0000   0.0000   0.0000   0.2479
   5.100   0.6105   0.02098   0.01478  -0.0029  0.6495  0.9534  -2.1709   0.0000   0.0000   0.0000   0.2479
   5.200   0.6248   0.02031   0.01413  -0.0026  0.6341  0.9556  -2.2397   0.0000   0.0000   0.0000   0.2472
   5.300   0.6342   0.01989   0.01377  -0.0019  0.6149  0.9587  -2.2926   0.0000   0.0000   0.0000   0.2459
   5.400   0.6468   0.01924   0.01313  -0.0013  0.5786  0.9612  -2.3512   0.0000   0.0000   0.0000   0.2449
   5.500   0.6512   0.01879   0.01230   0.0009  0.4653  0.9647  -2.3807   0.0000   0.0000   0.0000   0.2412
   5.600   0.6417   0.02019   0.01234   0.0038  0.2704  0.9688  -2.3757   0.0000   0.0000   0.0000   0.2365
   5.700   0.6373   0.02188   0.01318   0.0049  0.1658  0.9726  -2.3702   0.0000   0.0000   0.0000   0.2345
   5.800   0.6416   0.02283   0.01382   0.0053  0.1367  0.9760  -2.3848   0.0000   0.0000   0.0000   0.2340
   5.900   0.6495   0.02345   0.01433   0.0052  0.1231  0.9793  -2.4103   0.0000   0.0000   0.0000   0.2340
   6.000   0.6602   0.02403   0.01483   0.0047  0.1144  0.9819  -2.4446   0.0000   0.0000   0.0000   0.2348
   6.100   0.6707   0.02457   0.01528   0.0043  0.1081  0.9846  -2.4822   0.0000   0.0000   0.0000   0.2356
   6.200   0.6824   0.02502   0.01572   0.0038  0.1027  0.9874  -2.5200   0.0000   0.0000   0.0000   0.2364
   6.300   0.6941   0.02559   0.01616   0.0031  0.0982  0.9897  -2.5659   0.0000   0.0000   0.0000   0.2374
   6.400   0.7080   0.02598   0.01658   0.0022  0.0936  0.9920  -2.6228   0.0000   0.0000   0.0000   0.2386
   6.500   0.7211   0.02649   0.01698   0.0014  0.0900  0.9942  -2.6853   0.0000   0.0000   0.0000   0.2398
   6.600   0.7355   0.02702   0.01747   0.0006  0.0873  0.9961  -2.7435   0.0000   0.0000   0.0000   0.2409
   6.700   0.7509   0.02749   0.01796  -0.0004  0.0849  0.9978  -2.8029   0.0000   0.0000   0.0000   0.2421
   6.800   0.7667   0.02802   0.01845  -0.0014  0.0828  0.9995  -2.8664   0.0000   0.0000   0.0000   0.2434
   6.900   0.7764   0.02850   0.01888  -0.0014  0.0814  1.0000  -2.9168   0.0000   0.0000   0.0000   0.2432
   7.000   0.7859   0.02911   0.01938  -0.0012  0.0802  1.0000  -2.9647   0.0000   0.0000   0.0000   0.2429
   7.100   0.7919   0.02944   0.01979  -0.0004  0.0794  1.0000  -2.9970   0.0000   0.0000   0.0000   0.2418
   7.200   0.7985   0.02983   0.02023   0.0003  0.0787  1.0000  -3.0304   0.0000   0.0000   0.0000   0.2408
   7.300   0.8054   0.03025   0.02071   0.0010  0.0779  1.0000  -3.0646   0.0000   0.0000   0.0000   0.2399
   7.400   0.8123   0.03070   0.02121   0.0017  0.0772  1.0000  -3.0989   0.0000   0.0000   0.0000   0.2391
   7.500   0.8190   0.03116   0.02170   0.0023  0.0764  1.0000  -3.1335   0.0000   0.0000   0.0000   0.2382
   7.600   0.8252   0.03161   0.02217   0.0030  0.0755  1.0000  -3.1695   0.0000   0.0000   0.0000   0.2373
   7.700   0.8313   0.03205   0.02262   0.0037  0.0745  1.0000  -3.2088   0.0000   0.0000   0.0000   0.2364
   7.800   0.8377   0.03254   0.02307   0.0043  0.0735  1.0000  -3.2531   0.0000   0.0000   0.0000   0.2357
   7.900   0.8480   0.03342   0.02384   0.0041  0.0721  1.0000  -3.3090   0.0000   0.0000   0.0000   0.2358
   8.000   0.8502   0.03380   0.02433   0.0054  0.0715  1.0000  -3.3297   0.0000   0.0000   0.0000   0.2342
   8.100   0.8520   0.03416   0.02482   0.0068  0.0709  1.0000  -3.3484   0.0000   0.0000   0.0000   0.2325
   8.200   0.8544   0.03460   0.02536   0.0082  0.0703  1.0000  -3.3685   0.0000   0.0000   0.0000   0.2308
   8.300   0.8576   0.03511   0.02596   0.0094  0.0699  1.0000  -3.3891   0.0000   0.0000   0.0000   0.2294
   8.400   0.8609   0.03568   0.02662   0.0105  0.0697  1.0000  -3.4088   0.0000   0.0000   0.0000   0.2280
   8.500   0.8638   0.03627   0.02731   0.0118  0.0695  1.0000  -3.4268   0.0000   0.0000   0.0000   0.2265
   8.600   0.8663   0.03687   0.02800   0.0131  0.0693  1.0000  -3.4433   0.0000   0.0000   0.0000   0.2249
   8.700   0.8686   0.03749   0.02871   0.0144  0.0692  1.0000  -3.4635   0.0000   0.0000   0.0000   0.2233
   8.800   0.8707   0.03814   0.02945   0.0157  0.0692  1.0000  -3.4862   0.0000   0.0000   0.0000   0.2217
   8.900   0.8729   0.03883   0.03023   0.0171  0.0692  1.0000  -3.5081   0.0000   0.0000   0.0000   0.2202
   9.000   0.8754   0.03958   0.03108   0.0183  0.0692  1.0000  -3.5295   0.0000   0.0000   0.0000   0.2187
   9.100   0.8787   0.04042   0.03202   0.0194  0.0693  1.0000  -3.5514   0.0000   0.0000   0.0000   0.2174
   9.200   0.8828   0.04135   0.03306   0.0203  0.0695  1.0000  -3.5737   0.0000   0.0000   0.0000   0.2164
   9.300   0.8872   0.04237   0.03420   0.0211  0.0697  1.0000  -3.5950   0.0000   0.0000   0.0000   0.2155
   9.400   0.8917   0.04347   0.03542   0.0219  0.0700  1.0000  -3.6152   0.0000   0.0000   0.0000   0.2147
   9.500   0.8966   0.04465   0.03672   0.0225  0.0703  1.0000  -3.6358   0.0000   0.0000   0.0000   0.2141
   9.600   0.9019   0.04591   0.03808   0.0230  0.0707  1.0000  -3.6580   0.0000   0.0000   0.0000   0.2136
   9.700   0.9081   0.04727   0.03952   0.0234  0.0712  1.0000  -3.6835   0.0000   0.0000   0.0000   0.2133
   9.800   0.9158   0.04879   0.04108   0.0235  0.0716  1.0000  -3.7161   0.0000   0.0000   0.0000   0.2133
   9.900   0.9254   0.05050   0.04278   0.0233  0.0720  1.0000  -3.7554   0.0000   0.0000   0.0000   0.2137
  10.000   0.9023   0.05175   0.04486   0.0275  0.0758  1.0000  -3.5831   0.0000   0.0000   0.0000   0.2083
  10.100   0.9019   0.05340   0.04667   0.0283  0.0770  1.0000  -3.5696   0.0000   0.0000   0.0000   0.2072
  10.200   0.9027   0.05495   0.04834   0.0290  0.0778  1.0000  -3.5686   0.0000   0.0000   0.0000   0.2064
  10.300   0.9039   0.05649   0.04997   0.0296  0.0784  1.0000  -3.5726   0.0000   0.0000   0.0000   0.2057
  10.400   0.9053   0.05803   0.05160   0.0301  0.0789  1.0000  -3.5795   0.0000   0.0000   0.0000   0.2052
  10.500   0.9072   0.05960   0.05324   0.0305  0.0793  1.0000  -3.5893   0.0000   0.0000   0.0000   0.2047
  10.600   0.9104   0.06128   0.05496   0.0307  0.0796  1.0000  -3.6045   0.0000   0.0000   0.0000   0.2044
  10.700   0.9185   0.06326   0.05693   0.0305  0.0801  1.0000  -3.6370   0.0000   0.0000   0.0000   0.2049
  11.100   0.7324   0.06187   0.05697   0.0437  0.1082  1.0000  -2.8443   0.0000   0.0000   0.0000   0.1789
  11.200   0.7068   0.06393   0.05913   0.0440  0.1085  1.0000  -2.7685   0.0000   0.0000   0.0000   0.1761
  11.300   0.6839   0.06635   0.06162   0.0437  0.1087  1.0000  -2.6982   0.0000   0.0000   0.0000   0.1741
  11.400   0.6628   0.06902   0.06435   0.0432  0.1088  1.0000  -2.6310   0.0000   0.0000   0.0000   0.1728
  11.500   0.6425   0.07192   0.06728   0.0423  0.1089  1.0000  -2.5635   0.0000   0.0000   0.0000   0.1719
  11.600   0.6204   0.07524   0.07065   0.0410  0.1089  1.0000  -2.4840   0.0000   0.0000   0.0000   0.1715
  11.700   0.5938   0.07935   0.07479   0.0389  0.1091  1.0000  -2.3782   0.0000   0.0000   0.0000   0.1718
  11.800   0.4493   0.10864   0.10410   0.0187  0.1839  1.0000  -1.4149   0.0000   0.0000   0.0000   0.1965
  11.900   0.4584   0.11000   0.10547   0.0190  0.1831  1.0000  -1.4381   0.0000   0.0000   0.0000   0.1967
  12.000   0.4731   0.11143   0.10692   0.0198  0.1824  1.0000  -1.4905   0.0000   0.0000   0.0000   0.1964
  12.100   0.4299   0.11369   0.10910   0.0162  0.1760  1.0000  -1.3342   0.0000   0.0000   0.0000   0.2002
  12.200   0.4323   0.11493   0.11035   0.0160  0.1742  1.0000  -1.3369   0.0000   0.0000   0.0000   0.2008
  12.300   0.4385   0.11613   0.11156   0.0161  0.1727  1.0000  -1.3575   0.0000   0.0000   0.0000   0.2010
  12.400   0.4502   0.11741   0.11285   0.0166  0.1716  1.0000  -1.4024   0.0000   0.0000   0.0000   0.2009
  12.500   0.4696   0.11900   0.11447   0.0177  0.1707  1.0000  -1.4762   0.0000   0.0000   0.0000   0.2001
  12.600   0.4235   0.12010   0.11551   0.0143  0.1664  1.0000  -1.2945   0.0000   0.0000   0.0000   0.2040
  12.700   0.4220   0.12103   0.11644   0.0140  0.1640  1.0000  -1.2891   0.0000   0.0000   0.0000   0.2046
  12.800   0.4263   0.12209   0.11751   0.0140  0.1621  1.0000  -1.3061   0.0000   0.0000   0.0000   0.2049
  12.900   0.4373   0.12343   0.11885   0.0143  0.1606  1.0000  -1.3491   0.0000   0.0000   0.0000   0.2049
  13.000   0.4605   0.12558   0.12103   0.0153  0.1595  1.0000  -1.4374   0.0000   0.0000   0.0000   0.2044
  13.100   0.4274   0.12576   0.12117   0.0131  0.1578  1.0000  -1.3034   0.0000   0.0000   0.0000   0.2071
  13.200   0.4160   0.12634   0.12175   0.0120  0.1545  1.0000  -1.2557   0.0000   0.0000   0.0000   0.2088
  13.300   0.4174   0.12733   0.12274   0.0117  0.1522  1.0000  -1.2598   0.0000   0.0000   0.0000   0.2096
  13.400   0.4241   0.12849   0.12390   0.0118  0.1505  1.0000  -1.2859   0.0000   0.0000   0.0000   0.2098
  13.500   0.4385   0.13011   0.12554   0.0124  0.1491  1.0000  -1.3435   0.0000   0.0000   0.0000   0.2093
  13.600   0.4505   0.13221   0.12767   0.0127  0.1482  1.0000  -1.3870   0.0000   0.0000   0.0000   0.2092
  13.700   0.4197   0.13193   0.12733   0.0101  0.1460  1.0000  -1.2526   0.0000   0.0000   0.0000   0.2136
  13.800   0.4152   0.13268   0.12808   0.0093  0.1433  1.0000  -1.2301   0.0000   0.0000   0.0000   0.2152
  13.900   0.4177   0.13370   0.12910   0.0090  0.1412  1.0000  -1.2371   0.0000   0.0000   0.0000   0.2160
  14.000   0.4252   0.13496   0.13038   0.0090  0.1395  1.0000  -1.2660   0.0000   0.0000   0.0000   0.2162
  14.100   0.4431   0.13699   0.13245   0.0100  0.1381  1.0000  -1.3396   0.0000   0.0000   0.0000   0.2149
  14.200   0.4408   0.13838   0.13382   0.0092  0.1372  1.0000  -1.3210   0.0000   0.0000   0.0000   0.2165
  14.300   0.4218   0.13831   0.13373   0.0071  0.1355  1.0000  -1.2308   0.0000   0.0000   0.0000   0.2204
  14.400   0.4181   0.13905   0.13447   0.0063  0.1329  1.0000  -1.2083   0.0000   0.0000   0.0000   0.2223
  14.500   0.4208   0.14005   0.13547   0.0059  0.1307  1.0000  -1.2155   0.0000   0.0000   0.0000   0.2232
  14.600   0.4331   0.14154   0.13697   0.0065  0.1284  1.0000  -1.2685   0.0000   0.0000   0.0000   0.2223
  14.700   0.4453   0.14378   0.13922   0.0069  0.1269  1.0000  -1.3164   0.0000   0.0000   0.0000   0.2217
  14.800   0.4304   0.14383   0.13925   0.0050  0.1260  1.0000  -1.2391   0.0000   0.0000   0.0000   0.2255
  14.900   0.4233   0.14433   0.13975   0.0038  0.1236  1.0000  -1.1978   0.0000   0.0000   0.0000   0.2282
  15.000   0.4247   0.14524   0.14067   0.0033  0.1211  1.0000  -1.1982   0.0000   0.0000   0.0000   0.2293
  15.100   0.4335   0.14649   0.14192   0.0036  0.1187  1.0000  -1.2374   0.0000   0.0000   0.0000   0.2288
  15.200   0.4589   0.14981   0.14526   0.0052  0.1171  1.0000  -1.3489   0.0000   0.0000   0.0000   0.2256
  15.300   0.4421   0.14958   0.14501   0.0030  0.1165  1.0000  -1.2584   0.0000   0.0000   0.0000   0.2301
  15.400   0.4311   0.14971   0.14514   0.0013  0.1149  1.0000  -1.1944   0.0000   0.0000   0.0000   0.2338
  15.500   0.4297   0.15057   0.14599   0.0005  0.1128  1.0000  -1.1775   0.0000   0.0000   0.0000   0.2357
  15.600   0.4318   0.15158   0.14701   0.0000  0.1111  1.0000  -1.1790   0.0000   0.0000   0.0000   0.2368
  15.700   0.4363   0.15272   0.14815  -0.0002  0.1096  1.0000  -1.1940   0.0000   0.0000   0.0000   0.2371
  15.800   0.4454   0.15432   0.14976   0.0001  0.1083  1.0000  -1.2319   0.0000   0.0000   0.0000   0.2365
  15.900   0.4645   0.15765   0.15311   0.0011  0.1074  1.0000  -1.3117   0.0000   0.0000   0.0000   0.2342
  16.000   0.4506   0.15728   0.15272  -0.0008  0.1069  1.0000  -1.2321   0.0000   0.0000   0.0000   0.2384
  16.100   0.4408   0.15736   0.15279  -0.0025  0.1057  1.0000  -1.1688   0.0000   0.0000   0.0000   0.2424
  16.200   0.4390   0.15817   0.15360  -0.0035  0.1038  1.0000  -1.1465   0.0000   0.0000   0.0000   0.2445
  16.300   0.4404   0.15917   0.15461  -0.0041  0.1022  1.0000  -1.1425   0.0000   0.0000   0.0000   0.2458
  16.400   0.4436   0.16025   0.15569  -0.0045  0.1008  1.0000  -1.1531   0.0000   0.0000   0.0000   0.2465
  16.500   0.4489   0.16151   0.15696  -0.0046  0.0996  1.0000  -1.1793   0.0000   0.0000   0.0000   0.2465
  16.600   0.4597   0.16354   0.15900  -0.0041  0.0985  1.0000  -1.2358   0.0000   0.0000   0.0000   0.2453
  16.700   0.4688   0.16606   0.16153  -0.0040  0.0979  1.0000  -1.2753   0.0000   0.0000   0.0000   0.2448
  16.800   0.4582   0.16573   0.16118  -0.0058  0.0975  1.0000  -1.2052   0.0000   0.0000   0.0000   0.2489
  16.900   0.4518   0.16603   0.16148  -0.0073  0.0963  1.0000  -1.1549   0.0000   0.0000   0.0000   0.2524
  17.000   0.4510   0.16691   0.16235  -0.0082  0.0947  1.0000  -1.1391   0.0000   0.0000   0.0000   0.2544
  17.100   0.4525   0.16793   0.16338  -0.0089  0.0933  1.0000  -1.1382   0.0000   0.0000   0.0000   0.2557
  17.200   0.4551   0.16900   0.16447  -0.0093  0.0920  1.0000  -1.1461   0.0000   0.0000   0.0000   0.2565
  17.300   0.4592   0.17018   0.16566  -0.0096  0.0908  1.0000  -1.1637   0.0000   0.0000   0.0000   0.2568
  17.400   0.4658   0.17171   0.16720  -0.0096  0.0899  1.0000  -1.1977   0.0000   0.0000   0.0000   0.2564
  17.500   0.4836   0.17548   0.17099  -0.0085  0.0890  1.0000  -1.2921   0.0000   0.0000   0.0000   0.2533
  17.600   0.4757   0.17532   0.17080  -0.0100  0.0888  1.0000  -1.2339   0.0000   0.0000   0.0000   0.2568
  17.700   0.4685   0.17530   0.17078  -0.0117  0.0882  1.0000  -1.1755   0.0000   0.0000   0.0000   0.2606
  17.800   0.4655   0.17590   0.17138  -0.0129  0.0870  1.0000  -1.1405   0.0000   0.0000   0.0000   0.2634
  17.900   0.4658   0.17686   0.17234  -0.0137  0.0856  1.0000  -1.1290   0.0000   0.0000   0.0000   0.2651
  18.000   0.4676   0.17790   0.17339  -0.0143  0.0843  1.0000  -1.1285   0.0000   0.0000   0.0000   0.2662
  18.100   0.4704   0.17899   0.17448  -0.0148  0.0830  1.0000  -1.1371   0.0000   0.0000   0.0000   0.2669
  18.200   0.4750   0.18023   0.17573  -0.0150  0.0818  1.0000  -1.1597   0.0000   0.0000   0.0000   0.2669
  18.300   0.4872   0.18279   0.17831  -0.0142  0.0806  1.0000  -1.2329   0.0000   0.0000   0.0000   0.2644
  18.400   0.4884   0.18420   0.17971  -0.0149  0.0801  1.0000  -1.2244   0.0000   0.0000   0.0000   0.2657
  18.500   0.4820   0.18419   0.17969  -0.0166  0.0796  1.0000  -1.1658   0.0000   0.0000   0.0000   0.2695
  18.600   0.4793   0.18477   0.18027  -0.0178  0.0784  1.0000  -1.1282   0.0000   0.0000   0.0000   0.2723
  18.700   0.4799   0.18574   0.18124  -0.0186  0.0770  1.0000  -1.1168   0.0000   0.0000   0.0000   0.2739
  18.800   0.4819   0.18680   0.18231  -0.0192  0.0756  1.0000  -1.1169   0.0000   0.0000   0.0000   0.2749
  18.900   0.4847   0.18791   0.18343  -0.0197  0.0745  1.0000  -1.1242   0.0000   0.0000   0.0000   0.2755
  19.000   0.4883   0.18911   0.18464  -0.0201  0.0736  1.0000  -1.1382   0.0000   0.0000   0.0000   0.2758
  19.100   0.4934   0.19059   0.18612  -0.0202  0.0728  1.0000  -1.1637   0.0000   0.0000   0.0000   0.2755
  19.200   0.5033   0.19324   0.18880  -0.0197  0.0722  1.0000  -1.2199   0.0000   0.0000   0.0000   0.2737
  19.300   0.5046   0.19462   0.19017  -0.0204  0.0719  1.0000  -1.2108   0.0000   0.0000   0.0000   0.2749
  19.400   0.5000   0.19473   0.19028  -0.0219  0.0716  1.0000  -1.1601   0.0000   0.0000   0.0000   0.2781
  19.500   0.4974   0.19523   0.19077  -0.0232  0.0710  1.0000  -1.1191   0.0000   0.0000   0.0000   0.2810
  20.200   0.7783   0.24602   0.24082  -0.0616  0.0589  1.0000  -1.7659   0.0000   0.0000   0.0000   0.3032
  20.300   0.7823   0.24737   0.24217  -0.0623  0.0583  1.0000  -1.7824   0.0000   0.0000   0.0000   0.3034
  20.400   0.7867   0.24880   0.24361  -0.0627  0.0577  1.0000  -1.8057   0.0000   0.0000   0.0000   0.3034
  20.500   0.7919   0.25050   0.24532  -0.0629  0.0573  1.0000  -1.8403   0.0000   0.0000   0.0000   0.3030
  20.600   0.7995   0.25318   0.24802  -0.0624  0.0568  1.0000  -1.9015   0.0000   0.0000   0.0000   0.3015
  20.700   0.8055   0.25600   0.25083  -0.0625  0.0565  1.0000  -1.9326   0.0000   0.0000   0.0000   0.3010
  20.800   0.8033   0.25572   0.25053  -0.0650  0.0563  1.0000  -1.8677   0.0000   0.0000   0.0000   0.3040
  20.900   0.8028   0.25606   0.25086  -0.0673  0.0559  1.0000  -1.8119   0.0000   0.0000   0.0000   0.3066
  21.000   0.8044   0.25697   0.25176  -0.0690  0.0551  1.0000  -1.7809   0.0000   0.0000   0.0000   0.3084
  21.100   0.8072   0.25819   0.25298  -0.0702  0.0541  1.0000  -1.7715   0.0000   0.0000   0.0000   0.3094
  21.200   0.8104   0.25944   0.25424  -0.0712  0.0532  1.0000  -1.7718   0.0000   0.0000   0.0000   0.3101
  21.300   0.8139   0.26068   0.25547  -0.0721  0.0523  1.0000  -1.7781   0.0000   0.0000   0.0000   0.3106
  21.400   0.8176   0.26196   0.25676  -0.0728  0.0516  1.0000  -1.7898   0.0000   0.0000   0.0000   0.3110
  21.500   0.8216   0.26326   0.25807  -0.0735  0.0510  1.0000  -1.8075   0.0000   0.0000   0.0000   0.3111
  21.600   0.8259   0.26470   0.25951  -0.0739  0.0504  1.0000  -1.8329   0.0000   0.0000   0.0000   0.3110
  21.700   0.8309   0.26648   0.26131  -0.0741  0.0500  1.0000  -1.8688   0.0000   0.0000   0.0000   0.3105
  21.800   0.8375   0.26919   0.26405  -0.0738  0.0497  1.0000  -1.9226   0.0000   0.0000   0.0000   0.3093
  21.900   0.8435   0.27212   0.26697  -0.0738  0.0494  1.0000  -1.9558   0.0000   0.0000   0.0000   0.3087
  22.000   0.8430   0.27200   0.26684  -0.0760  0.0493  1.0000  -1.9021   0.0000   0.0000   0.0000   0.3110
  22.100   0.8435   0.27227   0.26710  -0.0781  0.0491  1.0000  -1.8538   0.0000   0.0000   0.0000   0.3132
  22.200   0.8450   0.27297   0.26778  -0.0799  0.0487  1.0000  -1.8154   0.0000   0.0000   0.0000   0.3149
  22.300   0.8474   0.27402   0.26883  -0.0814  0.0482  1.0000  -1.7962   0.0000   0.0000   0.0000   0.3162
  22.400   0.8504   0.27522   0.27004  -0.0826  0.0476  1.0000  -1.7895   0.0000   0.0000   0.0000   0.3170
  22.500   0.8536   0.27645   0.27127  -0.0836  0.0470  1.0000  -1.7891   0.0000   0.0000   0.0000   0.3177
  22.600   0.8569   0.27772   0.27254  -0.0846  0.0464  1.0000  -1.7922   0.0000   0.0000   0.0000   0.3183
  22.700   0.8603   0.27897   0.27379  -0.0856  0.0458  1.0000  -1.7981   0.0000   0.0000   0.0000   0.3189
  22.800   0.8637   0.28022   0.27505  -0.0865  0.0453  1.0000  -1.8063   0.0000   0.0000   0.0000   0.3193
  22.900   0.8673   0.28147   0.27630  -0.0874  0.0448  1.0000  -1.8170   0.0000   0.0000   0.0000   0.3197
  23.000   0.8709   0.28275   0.27759  -0.0882  0.0444  1.0000  -1.8307   0.0000   0.0000   0.0000   0.3200
  23.100   0.8746   0.28406   0.27890  -0.0889  0.0440  1.0000  -1.8482   0.0000   0.0000   0.0000   0.3202
  23.200   0.8785   0.28547   0.28032  -0.0895  0.0436  1.0000  -1.8708   0.0000   0.0000   0.0000   0.3203
  23.300   0.8828   0.28712   0.28198  -0.0899  0.0433  1.0000  -1.9010   0.0000   0.0000   0.0000   0.3200
  23.400   0.8878   0.28938   0.28426  -0.0900  0.0430  1.0000  -1.9439   0.0000   0.0000   0.0000   0.3194
  23.800   0.8987   0.29403   0.28888  -0.0950  0.0424  1.0000  -1.9007   0.0000   0.0000   0.0000   0.3228
  23.900   0.9010   0.29476   0.28961  -0.0966  0.0421  1.0000  -1.8723   0.0000   0.0000   0.0000   0.3241
  24.000   0.9037   0.29577   0.29061  -0.0980  0.0418  1.0000  -1.8534   0.0000   0.0000   0.0000   0.3251
  24.100   0.9068   0.29691   0.29177  -0.0992  0.0413  1.0000  -1.8431   0.0000   0.0000   0.0000   0.3259
  24.200   0.9100   0.29807   0.29293  -0.1004  0.0408  1.0000  -1.8382   0.0000   0.0000   0.0000   0.3265
  24.300   0.9132   0.29930   0.29417  -0.1014  0.0404  1.0000  -1.8367   0.0000   0.0000   0.0000   0.3271
  24.400   0.9165   0.30052   0.29539  -0.1025  0.0399  1.0000  -1.8374   0.0000   0.0000   0.0000   0.3276
  24.500   0.9198   0.30173   0.29660  -0.1035  0.0394  1.0000  -1.8402   0.0000   0.0000   0.0000   0.3281
  24.600   0.9232   0.30292   0.29780  -0.1044  0.0390  1.0000  -1.8452   0.0000   0.0000   0.0000   0.3285
  24.700   0.9265   0.30411   0.29899  -0.1053  0.0385  1.0000  -1.8528   0.0000   0.0000   0.0000   0.3288
  24.800   0.9300   0.30534   0.30023  -0.1062  0.0381  1.0000  -1.8634   0.0000   0.0000   0.0000   0.3291
  24.900   0.9335   0.30658   0.30147  -0.1070  0.0377  1.0000  -1.8781   0.0000   0.0000   0.0000   0.3293
  25.000   0.9371   0.30790   0.30280  -0.1077  0.0373  1.0000  -1.8984   0.0000   0.0000   0.0000   0.3294
  25.100   0.9409   0.30948   0.30439  -0.1082  0.0370  1.0000  -1.9268   0.0000   0.0000   0.0000   0.3292
  25.200   0.9454   0.31169   0.30661  -0.1084  0.0367  1.0000  -1.9683   0.0000   0.0000   0.0000   0.3287
  25.300   0.9515   0.31577   0.31072  -0.1078  0.0365  1.0000  -2.0342   0.0000   0.0000   0.0000   0.3273
  25.400   0.9529   0.31578   0.31070  -0.1097  0.0364  1.0000  -1.9953   0.0000   0.0000   0.0000   0.3287
  25.500   0.9544   0.31568   0.31059  -0.1116  0.0363  1.0000  -1.9554   0.0000   0.0000   0.0000   0.3303
  25.600   0.9565   0.31605   0.31096  -0.1134  0.0361  1.0000  -1.9254   0.0000   0.0000   0.0000   0.3316
  25.700   0.9592   0.31682   0.31172  -0.1149  0.0359  1.0000  -1.9045   0.0000   0.0000   0.0000   0.3326
  25.800   0.9621   0.31779   0.31270  -0.1163  0.0356  1.0000  -1.8908   0.0000   0.0000   0.0000   0.3334
  25.900   0.9652   0.31889   0.31380  -0.1175  0.0352  1.0000  -1.8836   0.0000   0.0000   0.0000   0.3341
  26.000   0.9683   0.32004   0.31496  -0.1186  0.0348  1.0000  -1.8810   0.0000   0.0000   0.0000   0.3346
  26.100   0.9715   0.32118   0.31610  -0.1197  0.0345  1.0000  -1.8813   0.0000   0.0000   0.0000   0.3351
  26.200   0.9746   0.32236   0.31729  -0.1208  0.0341  1.0000  -1.8834   0.0000   0.0000   0.0000   0.3356
  26.300   0.9778   0.32353   0.31847  -0.1219  0.0337  1.0000  -1.8869   0.0000   0.0000   0.0000   0.3360
  26.400   0.9810   0.32470   0.31964  -0.1229  0.0334  1.0000  -1.8916   0.0000   0.0000   0.0000   0.3364
  26.500   0.9842   0.32585   0.32080  -0.1239  0.0330  1.0000  -1.8973   0.0000   0.0000   0.0000   0.3368
  26.600   0.9874   0.32700   0.32195  -0.1249  0.0327  1.0000  -1.9042   0.0000   0.0000   0.0000   0.3371
  26.700   0.9906   0.32814   0.32310  -0.1259  0.0324  1.0000  -1.9124   0.0000   0.0000   0.0000   0.3375
  26.800   0.9938   0.32928   0.32424  -0.1268  0.0321  1.0000  -1.9220   0.0000   0.0000   0.0000   0.3378
  26.900   0.9970   0.33043   0.32540  -0.1277  0.0318  1.0000  -1.9334   0.0000   0.0000   0.0000   0.3380
  27.000   1.0002   0.33167   0.32664  -0.1286  0.0316  1.0000  -1.9470   0.0000   0.0000   0.0000   0.3382
  27.100   1.0034   0.33292   0.32790  -0.1295  0.0313  1.0000  -1.9634   0.0000   0.0000   0.0000   0.3384
  27.200   1.0067   0.33428   0.32927  -0.1302  0.0311  1.0000  -1.9836   0.0000   0.0000   0.0000   0.3385
  27.300   1.0101   0.33589   0.33089  -0.1308  0.0309  1.0000  -2.0093   0.0000   0.0000   0.0000   0.3384
  27.400   1.0138   0.33800   0.33301  -0.1312  0.0308  1.0000  -2.0430   0.0000   0.0000   0.0000   0.3381
  27.500   1.0182   0.34121   0.33624  -0.1313  0.0306  1.0000  -2.0889   0.0000   0.0000   0.0000   0.3374
  28.200   1.0365   0.34576   0.34078  -0.1414  0.0298  1.0000  -1.9478   0.0000   0.0000   0.0000   0.3429
  28.300   1.0394   0.34676   0.34178  -0.1426  0.0295  1.0000  -1.9371   0.0000   0.0000   0.0000   0.3435
  28.400   1.0425   0.34783   0.34286  -0.1438  0.0292  1.0000  -1.9307   0.0000   0.0000   0.0000   0.3439
  28.500   1.0455   0.34885   0.34388  -0.1449  0.0288  1.0000  -1.9271   0.0000   0.0000   0.0000   0.3443
  28.600   1.0484   0.34997   0.34501  -0.1460  0.0285  1.0000  -1.9256   0.0000   0.0000   0.0000   0.3447
  28.700   1.0514   0.35108   0.34612  -0.1471  0.0281  1.0000  -1.9257   0.0000   0.0000   0.0000   0.3451
  28.800   1.0544   0.35217   0.34721  -0.1482  0.0278  1.0000  -1.9270   0.0000   0.0000   0.0000   0.3454
  28.900   1.0573   0.35325   0.34830  -0.1492  0.0275  1.0000  -1.9294   0.0000   0.0000   0.0000   0.3457
  29.000   1.0602   0.35432   0.34938  -0.1503  0.0272  1.0000  -1.9328   0.0000   0.0000   0.0000   0.3460
  29.100   1.0632   0.35538   0.35045  -0.1513  0.0269  1.0000  -1.9392   0.0000   0.0000   0.0000   0.3463
  29.200   1.0661   0.35645   0.35152  -0.1523  0.0267  1.0000  -1.9500   0.0000   0.0000   0.0000   0.3466
  29.300   1.0690   0.35751   0.35259  -0.1533  0.0264  1.0000  -1.9616   0.0000   0.0000   0.0000   0.3468
  29.400   1.0719   0.35855   0.35364  -0.1543  0.0262  1.0000  -1.9745   0.0000   0.0000   0.0000   0.3471
  29.500   1.0747   0.35972   0.35482  -0.1552  0.0260  1.0000  -1.9890   0.0000   0.0000   0.0000   0.3473
  29.600   1.0776   0.36086   0.35597  -0.1562  0.0258  1.0000  -2.0055   0.0000   0.0000   0.0000   0.3475
  29.700   1.0804   0.36208   0.35719  -0.1570  0.0256  1.0000  -2.0248   0.0000   0.0000   0.0000   0.3476
  29.800   1.0833   0.36346   0.35858  -0.1578  0.0255  1.0000  -2.0478   0.0000   0.0000   0.0000   0.3476
  29.900   1.0863   0.36516   0.36029  -0.1584  0.0253  1.0000  -2.0758   0.0000   0.0000   0.0000   0.3475
  30.000   1.0896   0.36750   0.36264  -0.1589  0.0252  1.0000  -2.1110   0.0000   0.0000   0.0000   0.3472


