xflr5 v6.61

 Calculated polar for: NACA6409 9%

 1 1 Reynolds number fixed          Mach number fixed         

 xtrf =   1.000 (top)        1.000 (bottom)
 Mach =   0.000     Re =     0.563 e 6     Ncrit =   9.000

  alpha     CL        CD       CDp       Cm    Top Xtr Bot Xtr   Cpmin    Chinge    XCp    
 ------- -------- --------- --------- -------- ------- ------- -------- --------- ---------
 -10.000  -0.2048   0.11462   0.11235  -0.0560  0.9911  0.0147  -1.3347   0.0000   0.0000   0.0000  -0.0403
  -9.900  -0.1986   0.11291   0.11064  -0.0575  0.9905  0.0147  -1.3392   0.0000   0.0000   0.0000  -0.0573
  -9.800  -0.1924   0.11120   0.10893  -0.0591  0.9900  0.0147  -1.3441   0.0000   0.0000   0.0000  -0.0754
  -9.700  -0.1861   0.10949   0.10722  -0.0607  0.9896  0.0147  -1.3494   0.0000   0.0000   0.0000  -0.0946
  -9.600  -0.1807   0.10785   0.10558  -0.0620  0.9888  0.0147  -1.3554   0.0000   0.0000   0.0000  -0.1123
  -9.200  -0.1609   0.10152   0.09916  -0.0667  0.9839  0.0146  -1.3869   0.0000   0.0000   0.0000  -0.1857
  -9.100  -0.1557   0.09976   0.09740  -0.0681  0.9829  0.0146  -1.4002   0.0000   0.0000   0.0000  -0.2089
  -9.000  -0.1509   0.09784   0.09548  -0.0695  0.9819  0.0145  -1.4218   0.0000   0.0000   0.0000  -0.2328
  -8.900  -0.1511   0.09456   0.09220  -0.0708  0.9811  0.0137  -1.5197   0.0000   0.0000   0.0000  -0.2408
  -8.800  -0.1476   0.09229   0.08993  -0.0723  0.9802  0.0130  -1.5636   0.0000   0.0000   0.0000  -0.2626
  -8.700  -0.1424   0.09037   0.08800  -0.0741  0.9794  0.0125  -1.5906   0.0000   0.0000   0.0000  -0.2934
  -8.600  -0.1367   0.08849   0.08612  -0.0759  0.9786  0.0122  -1.6179   0.0000   0.0000   0.0000  -0.3299
  -8.500  -0.1306   0.08660   0.08424  -0.0779  0.9778  0.0118  -1.6477   0.0000   0.0000   0.0000  -0.3719
  -8.400  -0.1243   0.08469   0.08233  -0.0801  0.9771  0.0115  -1.6808   0.0000   0.0000   0.0000  -0.4202
  -8.300  -0.1178   0.08274   0.08037  -0.0823  0.9765  0.0113  -1.7173   0.0000   0.0000   0.0000  -0.4761
  -8.200  -0.1145   0.08111   0.07875  -0.0835  0.9741  0.0111  -1.7528   0.0000   0.0000   0.0000  -0.5076
  -8.100  -0.1117   0.07950   0.07714  -0.0847  0.9711  0.0110  -1.7899   0.0000   0.0000   0.0000  -0.5364
  -8.000  -0.1071   0.07765   0.07529  -0.0865  0.9688  0.0109  -1.8324   0.0000   0.0000   0.0000  -0.5870
  -7.900  -0.1017   0.07567   0.07331  -0.0887  0.9668  0.0109  -1.8790   0.0000   0.0000   0.0000  -0.6531
  -7.800  -0.0955   0.07352   0.07116  -0.0913  0.9650  0.0110  -1.9306   0.0000   0.0000   0.0000  -0.7399
  -7.700  -0.0886   0.07119   0.06883  -0.0945  0.9632  0.0112  -1.9883   0.0000   0.0000   0.0000  -0.8522
  -7.600  -0.0815   0.06876   0.06639  -0.0978  0.9612  0.0116  -2.0464   0.0000   0.0000   0.0000  -0.9891
  -7.500  -0.0720   0.06631   0.06393  -0.1017  0.9596  0.0124  -2.1000   0.0000   0.0000   0.0000  -1.2058
  -7.400  -0.0603   0.06454   0.06216  -0.1049  0.9584  0.0132  -2.0971   0.0000   0.0000   0.0000  -1.5430
  -7.300  -0.0519   0.06361   0.06123  -0.1064  0.9559  0.0137  -2.0518   0.0000   0.0000   0.0000  -1.8588
  -7.200  -0.0464   0.06305   0.06068  -0.1067  0.9519  0.0140  -1.9979   0.0000   0.0000   0.0000  -2.1146
  -7.100  -0.0370   0.06266   0.06028  -0.1077  0.9492  0.0144  -1.9104   0.0000   0.0000   0.0000  -2.7401
  -7.000  -0.0251   0.06268   0.06030  -0.1086  0.9470  0.0148  -1.7872   0.0000   0.0000   0.0000  -4.1831
  -6.900  -0.0266   0.05678   0.05440  -0.1167  0.9410  0.0169  -2.0384   0.0000   0.0000   0.0000  -4.2430
  -6.800  -0.0158   0.05716   0.05478  -0.1168  0.9397  0.0178  -1.8656   0.0000   0.0000   0.0000  -7.2970
  -6.600   0.0195   0.06212   0.05975  -0.1149  0.9387  0.0289  -1.3133   0.0000   0.0000   0.0000   6.2887
  -6.500   0.0319   0.06079   0.05841  -0.1177  0.9363  0.0292  -1.3027   0.0000   0.0000   0.0000   4.0180
  -6.400   0.0426   0.05944   0.05704  -0.1202  0.9335  0.0294  -1.2996   0.0000   0.0000   0.0000   3.1339
  -6.300   0.0466   0.05842   0.05602  -0.1208  0.9291  0.0295  -1.3031   0.0000   0.0000   0.0000   2.8969
  -6.200   0.0529   0.05723   0.05482  -0.1221  0.9248  0.0295  -1.3066   0.0000   0.0000   0.0000   2.6049
  -6.100   0.0605   0.05592   0.05350  -0.1236  0.9207  0.0296  -1.3109   0.0000   0.0000   0.0000   2.3347
  -6.000   0.0695   0.05449   0.05204  -0.1256  0.9171  0.0296  -1.3156   0.0000   0.0000   0.0000   2.0906
  -5.900   0.0796   0.05297   0.05050  -0.1278  0.9137  0.0297  -1.3211   0.0000   0.0000   0.0000   1.8849
  -5.800   0.0902   0.05141   0.04890  -0.1300  0.9103  0.0297  -1.3275   0.0000   0.0000   0.0000   1.7167
  -5.700   0.1015   0.04981   0.04726  -0.1324  0.9067  0.0298  -1.3347   0.0000   0.0000   0.0000   1.5774
  -5.600   0.1086   0.04846   0.04590  -0.1336  0.9033  0.0298  -1.3435   0.0000   0.0000   0.0000   1.5009
  -5.500   0.1159   0.04709   0.04451  -0.1348  0.8995  0.0298  -1.3531   0.0000   0.0000   0.0000   1.4322
  -5.400   0.1240   0.04566   0.04304  -0.1361  0.8955  0.0298  -1.3633   0.0000   0.0000   0.0000   1.3652
  -5.300   0.1330   0.04414   0.04150  -0.1376  0.8916  0.0298  -1.3745   0.0000   0.0000   0.0000   1.3008
  -5.200   0.1428   0.04255   0.03986  -0.1392  0.8879  0.0299  -1.3869   0.0000   0.0000   0.0000   1.2396
  -5.100   0.1532   0.04090   0.03816  -0.1409  0.8843  0.0299  -1.4007   0.0000   0.0000   0.0000   1.1834
  -5.000   0.1580   0.03449   0.03159  -0.1460  0.8796  0.0280  -1.6321   0.0000   0.0000   0.0000   1.1870
  -4.900   0.1696   0.03030   0.02721  -0.1496  0.8755  0.0266  -1.7788   0.0000   0.0000   0.0000   1.1443
  -4.800   0.1802   0.02592   0.02259  -0.1523  0.8723  0.0254  -1.9547   0.0000   0.0000   0.0000   1.1070
  -4.700   0.1884   0.02180   0.01815  -0.1538  0.8695  0.0243  -2.1433   0.0000   0.0000   0.0000   1.0776
  -4.600   0.1968   0.01933   0.01541  -0.1543  0.8666  0.0237  -2.2417   0.0000   0.0000   0.0000   1.0444
  -4.500   0.2059   0.01778   0.01366  -0.1544  0.8636  0.0235  -2.2799   0.0000   0.0000   0.0000   1.0098
  -4.400   0.2158   0.01697   0.01273  -0.1544  0.8605  0.0238  -2.2626   0.0000   0.0000   0.0000   0.9749
  -4.300   0.2261   0.01644   0.01211  -0.1544  0.8574  0.0243  -2.2230   0.0000   0.0000   0.0000   0.9415
  -4.200   0.2367   0.01601   0.01160  -0.1544  0.8542  0.0249  -2.1761   0.0000   0.0000   0.0000   0.9103
  -4.100   0.2475   0.01560   0.01111  -0.1544  0.8510  0.0255  -2.1291   0.0000   0.0000   0.0000   0.8814
  -4.000   0.2584   0.01516   0.01057  -0.1544  0.8478  0.0260  -2.0861   0.0000   0.0000   0.0000   0.8547
  -3.900   0.2694   0.01466   0.00997  -0.1545  0.8444  0.0264  -2.0496   0.0000   0.0000   0.0000   0.8300
  -3.800   0.2805   0.01409   0.00927  -0.1545  0.8408  0.0267  -2.0211   0.0000   0.0000   0.0000   0.8072
  -3.700   0.2918   0.01345   0.00849  -0.1546  0.8368  0.0268  -2.0005   0.0000   0.0000   0.0000   0.7858
  -3.600   0.3016   0.01278   0.00771  -0.1544  0.8349  0.0267  -1.9883   0.0000   0.0000   0.0000   0.7674
  -3.500   0.3115   0.01208   0.00689  -0.1541  0.8325  0.0266  -1.9814   0.0000   0.0000   0.0000   0.7499
  -3.400   0.3216   0.01141   0.00609  -0.1538  0.8298  0.0264  -1.9770   0.0000   0.0000   0.0000   0.7333
  -3.300   0.3318   0.01083   0.00540  -0.1536  0.8267  0.0263  -1.9678   0.0000   0.0000   0.0000   0.7174
  -3.200   0.3422   0.01033   0.00479  -0.1533  0.8234  0.0264  -1.9544   0.0000   0.0000   0.0000   0.7024
  -3.100   0.3527   0.00991   0.00427  -0.1531  0.8198  0.0268  -1.9385   0.0000   0.0000   0.0000   0.6881
  -2.900   0.3741   0.00915   0.00340  -0.1526  0.8124  0.0421  -1.9652   0.0000   0.0000   0.0000   0.6616
  -2.800   0.3852   0.00915   0.00338  -0.1526  0.8085  0.0443  -1.8940   0.0000   0.0000   0.0000   0.6494
  -2.700   0.3962   0.00912   0.00331  -0.1525  0.8043  0.0458  -1.8256   0.0000   0.0000   0.0000   0.6380
  -2.600   0.4074   0.00907   0.00321  -0.1525  0.7996  0.0468  -1.7587   0.0000   0.0000   0.0000   0.6271
  -2.500   0.4184   0.00899   0.00310  -0.1524  0.7957  0.0476  -1.6934   0.0000   0.0000   0.0000   0.6169
  -2.400   0.4288   0.00888   0.00297  -0.1522  0.7935  0.0483  -1.6313   0.0000   0.0000   0.0000   0.6074
  -2.300   0.4393   0.00874   0.00279  -0.1520  0.7907  0.0488  -1.5709   0.0000   0.0000   0.0000   0.5983
  -2.200   0.4497   0.00847   0.00239  -0.1518  0.7874  0.0494  -1.5102   0.0000   0.0000   0.0000   0.5895
  -2.100   0.4602   0.00832   0.00224  -0.1516  0.7837  0.0577  -1.4571   0.0000   0.0000   0.0000   0.5813
  -2.000   0.4709   0.00825   0.00220  -0.1515  0.7797  0.0644  -1.3949   0.0000   0.0000   0.0000   0.5734
  -1.900   0.4816   0.00822   0.00216  -0.1514  0.7754  0.0689  -1.3312   0.0000   0.0000   0.0000   0.5658
  -1.800   0.4924   0.00820   0.00212  -0.1512  0.7709  0.0721  -1.2676   0.0000   0.0000   0.0000   0.5586
  -1.700   0.5031   0.00821   0.00209  -0.1511  0.7661  0.0740  -1.2042   0.0000   0.0000   0.0000   0.5516
  -1.600   0.5136   0.00818   0.00202  -0.1510  0.7608  0.0789  -1.1446   0.0000   0.0000   0.0000   0.5450
  -1.500   0.5243   0.00814   0.00197  -0.1508  0.7550  0.0875  -1.0853   0.0000   0.0000   0.0000   0.5386
  -1.400   0.5351   0.00811   0.00196  -0.1508  0.7513  0.0936  -1.0248   0.0000   0.0000   0.0000   0.5325
  -1.300   0.5457   0.00808   0.00194  -0.1507  0.7487  0.0985  -0.9654   0.0000   0.0000   0.0000   0.5267
  -1.200   0.5564   0.00806   0.00192  -0.1505  0.7454  0.1019  -0.9064   0.0000   0.0000   0.0000   0.5211
  -1.100   0.5670   0.00805   0.00190  -0.1504  0.7415  0.1053  -0.8484   0.0000   0.0000   0.0000   0.5156
  -1.000   0.5775   0.00799   0.00187  -0.1503  0.7371  0.1176  -0.7967   0.0000   0.0000   0.0000   0.5104
  -0.900   0.5880   0.00796   0.00187  -0.1501  0.7322  0.1273  -0.8037   0.0000   0.0000   0.0000   0.5054
  -0.800   0.5985   0.00797   0.00186  -0.1500  0.7268  0.1341  -0.8111   0.0000   0.0000   0.0000   0.5006
  -0.700   0.6087   0.00797   0.00184  -0.1498  0.7208  0.1425  -0.8191   0.0000   0.0000   0.0000   0.4959
  -0.600   0.6187   0.00796   0.00184  -0.1495  0.7140  0.1570  -0.8270   0.0000   0.0000   0.0000   0.4914
  -0.500   0.6290   0.00798   0.00184  -0.1494  0.7061  0.1674  -0.8350   0.0000   0.0000   0.0000   0.4870
  -0.400   0.6397   0.00797   0.00184  -0.1493  0.7033  0.1740  -0.8432   0.0000   0.0000   0.0000   0.4828
  -0.300   0.6501   0.00792   0.00185  -0.1491  0.6997  0.1918  -0.8513   0.0000   0.0000   0.0000   0.4787
  -0.200   0.6606   0.00789   0.00185  -0.1490  0.6951  0.2041  -0.8594   0.0000   0.0000   0.0000   0.4748
  -0.100   0.6711   0.00790   0.00185  -0.1489  0.6900  0.2118  -0.8676   0.0000   0.0000   0.0000   0.4709
   0.000   0.6814   0.00789   0.00185  -0.1487  0.6845  0.2271  -0.8757   0.0000   0.0000   0.0000   0.4672
   0.100   0.6915   0.00788   0.00185  -0.1485  0.6788  0.2411  -0.8836   0.0000   0.0000   0.0000   0.4636
   0.200   0.7015   0.00791   0.00186  -0.1482  0.6726  0.2518  -0.8915   0.0000   0.0000   0.0000   0.4601
   0.300   0.7112   0.00794   0.00187  -0.1479  0.6654  0.2660  -0.8992   0.0000   0.0000   0.0000   0.4567
   0.400   0.7213   0.00795   0.00189  -0.1477  0.6575  0.2835  -0.9070   0.0000   0.0000   0.0000   0.4534
   0.500   0.7319   0.00794   0.00190  -0.1477  0.6548  0.2980  -0.9153   0.0000   0.0000   0.0000   0.4502
   0.600   0.7424   0.00789   0.00192  -0.1476  0.6518  0.3208  -0.9234   0.0000   0.0000   0.0000   0.4471
   0.700   0.7529   0.00786   0.00194  -0.1474  0.6480  0.3431  -0.9316   0.0000   0.0000   0.0000   0.4441
   0.800   0.7631   0.00781   0.00196  -0.1473  0.6435  0.3778  -0.9396   0.0000   0.0000   0.0000   0.4412
   0.900   0.7725   0.00765   0.00201  -0.1471  0.6386  0.4660  -0.9472   0.0000   0.0000   0.0000   0.4384
   1.100   0.7981   0.00676   0.00214  -0.1479  0.6275  1.0000  -0.9665   0.0000   0.0000   0.0000   0.4331
   1.200   0.8077   0.00684   0.00216  -0.1475  0.6210  1.0000  -0.9742   0.0000   0.0000   0.0000   0.4303
   1.300   0.8172   0.00693   0.00218  -0.1472  0.6134  1.0000  -0.9818   0.0000   0.0000   0.0000   0.4277
   1.400   0.8274   0.00701   0.00222  -0.1470  0.6060  1.0000  -0.9897   0.0000   0.0000   0.0000   0.4252
   1.500   0.8381   0.00703   0.00224  -0.1469  0.6040  1.0000  -0.9983   0.0000   0.0000   0.0000   0.4227
   1.600   0.8487   0.00706   0.00230  -0.1468  0.6014  1.0000  -1.0078   0.0000   0.0000   0.0000   0.4202
   1.700   0.8592   0.00710   0.00232  -0.1467  0.5980  1.0000  -1.0173   0.0000   0.0000   0.0000   0.4179
   1.800   0.8696   0.00715   0.00234  -0.1465  0.5939  1.0000  -1.0268   0.0000   0.0000   0.0000   0.4155
   1.900   0.8798   0.00720   0.00236  -0.1464  0.5893  1.0000  -1.0362   0.0000   0.0000   0.0000   0.4133
   2.000   0.8898   0.00727   0.00238  -0.1461  0.5844  1.0000  -1.0454   0.0000   0.0000   0.0000   0.4110
   2.100   0.8997   0.00734   0.00241  -0.1459  0.5793  1.0000  -1.0546   0.0000   0.0000   0.0000   0.4088
   2.200   0.9093   0.00742   0.00245  -0.1456  0.5739  1.0000  -1.0636   0.0000   0.0000   0.0000   0.4067
   2.300   0.9188   0.00752   0.00249  -0.1453  0.5680  1.0000  -1.0725   0.0000   0.0000   0.0000   0.4046
   2.400   0.9286   0.00761   0.00254  -0.1450  0.5616  1.0000  -1.0815   0.0000   0.0000   0.0000   0.4025
   2.500   0.9388   0.00772   0.00259  -0.1448  0.5552  1.0000  -1.0906   0.0000   0.0000   0.0000   0.4005
   2.600   0.9494   0.00776   0.00263  -0.1448  0.5532  1.0000  -1.1003   0.0000   0.0000   0.0000   0.3986
   2.700   0.9601   0.00779   0.00267  -0.1447  0.5520  1.0000  -1.1100   0.0000   0.0000   0.0000   0.3967
   2.800   0.9707   0.00782   0.00271  -0.1446  0.5505  1.0000  -1.1197   0.0000   0.0000   0.0000   0.3949
   2.900   0.9814   0.00786   0.00274  -0.1445  0.5488  1.0000  -1.1293   0.0000   0.0000   0.0000   0.3931
   3.000   0.9919   0.00790   0.00279  -0.1444  0.5468  1.0000  -1.1390   0.0000   0.0000   0.0000   0.3913
   3.100   1.0024   0.00795   0.00283  -0.1443  0.5445  1.0000  -1.1486   0.0000   0.0000   0.0000   0.3895
   3.200   1.0129   0.00800   0.00287  -0.1442  0.5422  1.0000  -1.1582   0.0000   0.0000   0.0000   0.3878
   3.300   1.0232   0.00805   0.00292  -0.1441  0.5396  1.0000  -1.1681   0.0000   0.0000   0.0000   0.3861
   3.400   1.0335   0.00811   0.00296  -0.1439  0.5368  1.0000  -1.1791   0.0000   0.0000   0.0000   0.3845
   3.500   1.0436   0.00817   0.00301  -0.1437  0.5337  1.0000  -1.1900   0.0000   0.0000   0.0000   0.3828
   3.600   1.0536   0.00825   0.00306  -0.1435  0.5304  1.0000  -1.2008   0.0000   0.0000   0.0000   0.3812
   3.700   1.0634   0.00832   0.00312  -0.1433  0.5268  1.0000  -1.2116   0.0000   0.0000   0.0000   0.3796
   3.800   1.0730   0.00841   0.00318  -0.1430  0.5229  1.0000  -1.2222   0.0000   0.0000   0.0000   0.3780
   3.900   1.0826   0.00850   0.00324  -0.1427  0.5187  1.0000  -1.2327   0.0000   0.0000   0.0000   0.3765
   4.000   1.0923   0.00860   0.00331  -0.1425  0.5143  1.0000  -1.2433   0.0000   0.0000   0.0000   0.3750
   4.100   1.1024   0.00871   0.00339  -0.1423  0.5101  1.0000  -1.2541   0.0000   0.0000   0.0000   0.3735
   4.200   1.1128   0.00881   0.00348  -0.1422  0.5060  1.0000  -1.2651   0.0000   0.0000   0.0000   0.3721
   4.300   1.1234   0.00892   0.00358  -0.1422  0.5020  1.0000  -1.2830   0.0000   0.0000   0.0000   0.3707
   4.400   1.1339   0.00897   0.00364  -0.1421  0.5007  1.0000  -1.3288   0.0000   0.0000   0.0000   0.3694
   4.500   1.1442   0.00900   0.00369  -0.1419  0.4998  1.0000  -1.3747   0.0000   0.0000   0.0000   0.3680
   4.600   1.1543   0.00901   0.00373  -0.1417  0.4983  1.0000  -1.4209   0.0000   0.0000   0.0000   0.3666
   4.700   1.1643   0.00903   0.00376  -0.1415  0.4959  1.0000  -1.4674   0.0000   0.0000   0.0000   0.3652
   4.800   1.1742   0.00905   0.00379  -0.1413  0.4922  1.0000  -1.5141   0.0000   0.0000   0.0000   0.3639
   4.900   1.1838   0.00910   0.00383  -0.1410  0.4869  1.0000  -1.5706   0.0000   0.0000   0.0000   0.3625
   5.000   1.1928   0.00918   0.00387  -0.1406  0.4804  1.0000  -1.6393   0.0000   0.0000   0.0000   0.3612
   5.100   1.2011   0.00930   0.00393  -0.1401  0.4729  1.0000  -1.7065   0.0000   0.0000   0.0000   0.3598
   5.200   1.2089   0.00944   0.00401  -0.1395  0.4643  1.0000  -1.7726   0.0000   0.0000   0.0000   0.3584
   5.300   1.2173   0.00959   0.00411  -0.1390  0.4553  1.0000  -1.8412   0.0000   0.0000   0.0000   0.3571
   5.400   1.2312   0.00953   0.00436  -0.1395  0.4684  1.0000  -1.9553   0.0000   0.0000   0.0000   0.3561
   5.500   1.2387   0.00970   0.00447  -0.1389  0.4574  1.0000  -2.0267   0.0000   0.0000   0.0000   0.3548
   5.600   1.2477   0.00986   0.00458  -0.1385  0.4481  1.0000  -2.1028   0.0000   0.0000   0.0000   0.3535
   5.700   1.2577   0.00986   0.00461  -0.1383  0.4462  1.0000  -2.1835   0.0000   0.0000   0.0000   0.3524
   5.800   1.2678   0.00988   0.00467  -0.1382  0.4438  1.0000  -2.2649   0.0000   0.0000   0.0000   0.3512
   5.900   1.2778   0.00992   0.00473  -0.1380  0.4410  1.0000  -2.3465   0.0000   0.0000   0.0000   0.3501
   6.000   1.2877   0.00998   0.00480  -0.1378  0.4377  1.0000  -2.4282   0.0000   0.0000   0.0000   0.3490
   6.100   1.2974   0.01004   0.00487  -0.1375  0.4339  1.0000  -2.5099   0.0000   0.0000   0.0000   0.3478
   6.200   1.3068   0.01012   0.00495  -0.1372  0.4293  1.0000  -2.5914   0.0000   0.0000   0.0000   0.3467
   6.300   1.3158   0.01022   0.00504  -0.1369  0.4239  1.0000  -2.6720   0.0000   0.0000   0.0000   0.3456
   6.400   1.3243   0.01034   0.00513  -0.1364  0.4178  1.0000  -2.7512   0.0000   0.0000   0.0000   0.3444
   6.500   1.3321   0.01048   0.00524  -0.1358  0.4107  1.0000  -2.8286   0.0000   0.0000   0.0000   0.3432
   6.600   1.3397   0.01064   0.00536  -0.1352  0.4023  1.0000  -2.9056   0.0000   0.0000   0.0000   0.3420
   6.700   1.3482   0.01076   0.00547  -0.1348  0.3954  1.0000  -2.9870   0.0000   0.0000   0.0000   0.3409
   6.800   1.3581   0.01082   0.00556  -0.1346  0.3927  1.0000  -3.0748   0.0000   0.0000   0.0000   0.3399
   6.900   1.3675   0.01089   0.00565  -0.1343  0.3881  1.0000  -3.1619   0.0000   0.0000   0.0000   0.3389
   7.000   1.3763   0.01099   0.00574  -0.1339  0.3804  1.0000  -3.2467   0.0000   0.0000   0.0000   0.3378
   7.100   1.3834   0.01117   0.00586  -0.1332  0.3682  1.0000  -3.3254   0.0000   0.0000   0.0000   0.3367
   7.200   1.3882   0.01144   0.00603  -0.1321  0.3523  1.0000  -3.3946   0.0000   0.0000   0.0000   0.3354
   7.300   1.3949   0.01164   0.00618  -0.1313  0.3392  1.0000  -3.4721   0.0000   0.0000   0.0000   0.3343
   7.400   1.4004   0.01190   0.00635  -0.1304  0.3208  1.0000  -3.5454   0.0000   0.0000   0.0000   0.3331
   7.500   1.4015   0.01238   0.00663  -0.1286  0.2920  1.0000  -3.5994   0.0000   0.0000   0.0000   0.3316
   7.600   1.4029   0.01283   0.00691  -0.1270  0.2647  1.0000  -3.6552   0.0000   0.0000   0.0000   0.3302
   7.700   1.4024   0.01340   0.00728  -0.1250  0.2332  1.0000  -3.7020   0.0000   0.0000   0.0000   0.3287
   7.800   1.4003   0.01407   0.00772  -0.1229  0.1991  1.0000  -3.7418   0.0000   0.0000   0.0000   0.3272
   7.900   1.3995   0.01468   0.00814  -0.1209  0.1714  1.0000  -3.7867   0.0000   0.0000   0.0000   0.3257
   8.000   1.3990   0.01529   0.00859  -0.1191  0.1438  1.0000  -3.8332   0.0000   0.0000   0.0000   0.3243
   8.100   1.3974   0.01596   0.00906  -0.1170  0.1168  1.0000  -3.8740   0.0000   0.0000   0.0000   0.3228
   8.200   1.3964   0.01658   0.00954  -0.1152  0.0970  1.0000  -3.9178   0.0000   0.0000   0.0000   0.3214
   8.300   1.3978   0.01707   0.00993  -0.1137  0.0797  1.0000  -3.9723   0.0000   0.0000   0.0000   0.3201
   8.400   1.3980   0.01764   0.01039  -0.1120  0.0667  1.0000  -4.0210   0.0000   0.0000   0.0000   0.3187
   8.500   1.4012   0.01803   0.01074  -0.1108  0.0565  1.0000  -4.0822   0.0000   0.0000   0.0000   0.3176
   8.600   1.4038   0.01846   0.01111  -0.1095  0.0506  1.0000  -4.1418   0.0000   0.0000   0.0000   0.3164
   8.700   1.4048   0.01899   0.01158  -0.1080  0.0423  1.0000  -4.1886   0.0000   0.0000   0.0000   0.3151
   8.800   1.4078   0.01941   0.01201  -0.1068  0.0366  1.0000  -4.2400   0.0000   0.0000   0.0000   0.3139
   8.900   1.4141   0.01962   0.01224  -0.1061  0.0356  1.0000  -4.3218   0.0000   0.0000   0.0000   0.3129
   9.000   1.4193   0.01988   0.01253  -0.1053  0.0338  1.0000  -4.3970   0.0000   0.0000   0.0000   0.3119
   9.100   1.4233   0.02023   0.01286  -0.1044  0.0315  1.0000  -4.4647   0.0000   0.0000   0.0000   0.3109
   9.200   1.4258   0.02068   0.01327  -0.1032  0.0282  1.0000  -4.5216   0.0000   0.0000   0.0000   0.3098
   9.400   1.4175   0.02250   0.01512  -0.0988  0.0139  1.0000  -4.4099   0.0000   0.0000   0.0000   0.3068
   9.500   1.4199   0.02299   0.01564  -0.0977  0.0133  1.0000  -4.4531   0.0000   0.0000   0.0000   0.3057
   9.600   1.4225   0.02348   0.01617  -0.0966  0.0128  1.0000  -4.4989   0.0000   0.0000   0.0000   0.3047
   9.700   1.4249   0.02399   0.01672  -0.0955  0.0124  1.0000  -4.5456   0.0000   0.0000   0.0000   0.3037
   9.800   1.4272   0.02452   0.01729  -0.0945  0.0121  1.0000  -4.5919   0.0000   0.0000   0.0000   0.3026
   9.900   1.4286   0.02508   0.01789  -0.0933  0.0118  1.0000  -4.6351   0.0000   0.0000   0.0000   0.3016
  10.200   1.4157   0.02817   0.02150  -0.0877  0.0135  1.0000  -4.5280   0.0000   0.0000   0.0000   0.2977
  10.300   1.4134   0.02912   0.02253  -0.0863  0.0136  1.0000  -4.5313   0.0000   0.0000   0.0000   0.2966
  10.400   1.4123   0.03001   0.02349  -0.0850  0.0137  1.0000  -4.5470   0.0000   0.0000   0.0000   0.2956
  10.500   1.4120   0.03087   0.02441  -0.0839  0.0137  1.0000  -4.5695   0.0000   0.0000   0.0000   0.2947
  10.600   1.4121   0.03172   0.02531  -0.0829  0.0137  1.0000  -4.5961   0.0000   0.0000   0.0000   0.2938
  10.700   1.4119   0.03259   0.02624  -0.0819  0.0137  1.0000  -4.6240   0.0000   0.0000   0.0000   0.2929
  10.800   1.4116   0.03349   0.02719  -0.0809  0.0137  1.0000  -4.6527   0.0000   0.0000   0.0000   0.2920
  10.900   1.4118   0.03435   0.02810  -0.0800  0.0136  1.0000  -4.6849   0.0000   0.0000   0.0000   0.2912
  11.000   1.4125   0.03519   0.02899  -0.0791  0.0135  1.0000  -4.7205   0.0000   0.0000   0.0000   0.2904
  11.100   1.4135   0.03601   0.02985  -0.0783  0.0134  1.0000  -4.7588   0.0000   0.0000   0.0000   0.2896
  11.200   1.4148   0.03681   0.03070  -0.0775  0.0133  1.0000  -4.7998   0.0000   0.0000   0.0000   0.2888
  11.300   1.4162   0.03761   0.03154  -0.0768  0.0132  1.0000  -4.8428   0.0000   0.0000   0.0000   0.2881
  11.400   1.4171   0.03844   0.03242  -0.0761  0.0131  1.0000  -4.8849   0.0000   0.0000   0.0000   0.2874
  11.500   1.4179   0.03930   0.03331  -0.0754  0.0130  1.0000  -4.9273   0.0000   0.0000   0.0000   0.2867
  11.600   1.4191   0.04012   0.03418  -0.0747  0.0129  1.0000  -4.9720   0.0000   0.0000   0.0000   0.2860
  11.700   1.4205   0.04093   0.03502  -0.0741  0.0127  1.0000  -5.0186   0.0000   0.0000   0.0000   0.2853
  11.800   1.4219   0.04173   0.03586  -0.0735  0.0126  1.0000  -5.0652   0.0000   0.0000   0.0000   0.2846
  11.900   1.4232   0.04251   0.03669  -0.0728  0.0125  1.0000  -5.1099   0.0000   0.0000   0.0000   0.2839
  12.000   1.4244   0.04332   0.03753  -0.0722  0.0124  1.0000  -5.1526   0.0000   0.0000   0.0000   0.2832
  12.100   1.4256   0.04416   0.03842  -0.0715  0.0123  1.0000  -5.1920   0.0000   0.0000   0.0000   0.2825
  12.200   1.4268   0.04504   0.03936  -0.0708  0.0123  1.0000  -5.2259   0.0000   0.0000   0.0000   0.2818
  12.300   1.4279   0.04598   0.04035  -0.0701  0.0123  1.0000  -5.2570   0.0000   0.0000   0.0000   0.2811
  12.400   1.4290   0.04695   0.04138  -0.0695  0.0123  1.0000  -5.2877   0.0000   0.0000   0.0000   0.2805
  12.500   1.4303   0.04793   0.04242  -0.0688  0.0124  1.0000  -5.3189   0.0000   0.0000   0.0000   0.2798
  12.600   1.4318   0.04891   0.04346  -0.0682  0.0124  1.0000  -5.3509   0.0000   0.0000   0.0000   0.2791
  12.700   1.4335   0.04990   0.04451  -0.0676  0.0124  1.0000  -5.3836   0.0000   0.0000   0.0000   0.2785
  12.800   1.4354   0.05090   0.04557  -0.0671  0.0124  1.0000  -5.4167   0.0000   0.0000   0.0000   0.2778
  12.900   1.4373   0.05191   0.04664  -0.0665  0.0124  1.0000  -5.4501   0.0000   0.0000   0.0000   0.2772
  13.000   1.4391   0.05295   0.04774  -0.0660  0.0124  1.0000  -5.4833   0.0000   0.0000   0.0000   0.2766
  13.100   1.4410   0.05400   0.04886  -0.0655  0.0124  1.0000  -5.5164   0.0000   0.0000   0.0000   0.2760
  13.200   1.4426   0.05508   0.05000  -0.0650  0.0123  1.0000  -5.5490   0.0000   0.0000   0.0000   0.2754
  13.300   1.4441   0.05619   0.05117  -0.0645  0.0123  1.0000  -5.5811   0.0000   0.0000   0.0000   0.2749
  13.400   1.4454   0.05732   0.05237  -0.0641  0.0123  1.0000  -5.6126   0.0000   0.0000   0.0000   0.2743
  13.500   1.4465   0.05848   0.05360  -0.0636  0.0123  1.0000  -5.6433   0.0000   0.0000   0.0000   0.2738
  13.600   1.4473   0.05968   0.05486  -0.0632  0.0123  1.0000  -5.6732   0.0000   0.0000   0.0000   0.2733
  13.700   1.4478   0.06090   0.05615  -0.0629  0.0122  1.0000  -5.7022   0.0000   0.0000   0.0000   0.2729
  13.800   1.4479   0.06216   0.05748  -0.0625  0.0122  1.0000  -5.7300   0.0000   0.0000   0.0000   0.2725
  13.900   1.4471   0.06352   0.05890  -0.0623  0.0122  1.0000  -5.7537   0.0000   0.0000   0.0000   0.2721
  14.000   1.4457   0.06493   0.06038  -0.0620  0.0122  1.0000  -5.7747   0.0000   0.0000   0.0000   0.2718
  14.100   1.4443   0.06635   0.06187  -0.0618  0.0121  1.0000  -5.7960   0.0000   0.0000   0.0000   0.2715
  14.200   1.4430   0.06777   0.06335  -0.0617  0.0121  1.0000  -5.8180   0.0000   0.0000   0.0000   0.2712
  14.300   1.4416   0.06918   0.06483  -0.0615  0.0120  1.0000  -5.8404   0.0000   0.0000   0.0000   0.2710
  14.400   1.4402   0.07061   0.06632  -0.0614  0.0120  1.0000  -5.8625   0.0000   0.0000   0.0000   0.2707
  14.500   1.4385   0.07204   0.06782  -0.0614  0.0120  1.0000  -5.8840   0.0000   0.0000   0.0000   0.2705
  14.600   1.4366   0.07350   0.06934  -0.0614  0.0119  1.0000  -5.9047   0.0000   0.0000   0.0000   0.2704
  14.700   1.4336   0.07510   0.07100  -0.0614  0.0119  1.0000  -5.9191   0.0000   0.0000   0.0000   0.2703
  14.800   1.4300   0.07678   0.07275  -0.0616  0.0118  1.0000  -5.9298   0.0000   0.0000   0.0000   0.2703
  14.900   1.4269   0.07841   0.07444  -0.0618  0.0118  1.0000  -5.9434   0.0000   0.0000   0.0000   0.2703
  15.000   1.4240   0.07999   0.07608  -0.0620  0.0117  1.0000  -5.9590   0.0000   0.0000   0.0000   0.2704
  15.100   1.4212   0.08157   0.07772  -0.0622  0.0117  1.0000  -5.9866   0.0000   0.0000   0.0000   0.2704
  15.200   1.4184   0.08316   0.07938  -0.0625  0.0116  1.0000  -6.0195   0.0000   0.0000   0.0000   0.2705
  15.300   1.4152   0.08480   0.08108  -0.0629  0.0115  1.0000  -6.0486   0.0000   0.0000   0.0000   0.2706
  15.400   1.4101   0.08662   0.08296  -0.0634  0.0115  1.0000  -6.0602   0.0000   0.0000   0.0000   0.2709
  15.500   1.4056   0.08833   0.08473  -0.0639  0.0115  1.0000  -6.0757   0.0000   0.0000   0.0000   0.2713
  15.600   1.4018   0.08996   0.08642  -0.0645  0.0114  1.0000  -6.0981   0.0000   0.0000   0.0000   0.2715
  15.700   1.3983   0.09159   0.08811  -0.0650  0.0114  1.0000  -6.1227   0.0000   0.0000   0.0000   0.2718
  15.800   1.3949   0.09325   0.08982  -0.0656  0.0113  1.0000  -6.1470   0.0000   0.0000   0.0000   0.2722
  15.900   1.3910   0.09500   0.09163  -0.0663  0.0112  1.0000  -6.1674   0.0000   0.0000   0.0000   0.2726
  16.000   1.3851   0.09718   0.09388  -0.0672  0.0112  1.0000  -6.1642   0.0000   0.0000   0.0000   0.2733
  16.100   1.3801   0.09927   0.09602  -0.0682  0.0112  1.0000  -6.1695   0.0000   0.0000   0.0000   0.2739
  16.200   1.3759   0.10123   0.09803  -0.0690  0.0111  1.0000  -6.1836   0.0000   0.0000   0.0000   0.2745
  16.300   1.3721   0.10317   0.10003  -0.0699  0.0111  1.0000  -6.2000   0.0000   0.0000   0.0000   0.2750
  16.400   1.3683   0.10517   0.10209  -0.0709  0.0110  1.0000  -6.2160   0.0000   0.0000   0.0000   0.2757
  16.500   1.3634   0.10742   0.10439  -0.0720  0.0110  1.0000  -6.2187   0.0000   0.0000   0.0000   0.2765
  16.600   1.3558   0.11024   0.10729  -0.0735  0.0110  1.0000  -6.1870   0.0000   0.0000   0.0000   0.2776
  16.700   1.3503   0.11271   0.10981  -0.0747  0.0109  1.0000  -6.1786   0.0000   0.0000   0.0000   0.2786
  16.800   1.3458   0.11506   0.11222  -0.0760  0.0109  1.0000  -6.1806   0.0000   0.0000   0.0000   0.2795
  16.900   1.3413   0.11744   0.11465  -0.0772  0.0109  1.0000  -6.1820   0.0000   0.0000   0.0000   0.2804
  17.000   1.3364   0.11996   0.11722  -0.0785  0.0108  1.0000  -6.1757   0.0000   0.0000   0.0000   0.2814
  17.100   1.3259   0.12377   0.12112  -0.0807  0.0109  1.0000  -6.0930   0.0000   0.0000   0.0000   0.2833
  17.200   1.3175   0.12728   0.12470  -0.0826  0.0109  1.0000  -6.0332   0.0000   0.0000   0.0000   0.2850
  17.300   1.3109   0.13046   0.12794  -0.0844  0.0110  1.0000  -5.9941   0.0000   0.0000   0.0000   0.2865
  17.400   1.3038   0.13382   0.13137  -0.0862  0.0110  1.0000  -5.9450   0.0000   0.0000   0.0000   0.2881
  17.500   1.2900   0.13901   0.13666  -0.0891  0.0112  1.0000  -5.7929   0.0000   0.0000   0.0000   0.2909
  17.600   1.2711   0.14595   0.14372  -0.0929  0.0115  1.0000  -5.5526   0.0000   0.0000   0.0000   0.2950
  17.800   1.1056   0.21518   0.21328  -0.1247  0.0186  1.0000  -2.6975   0.0000   0.0000   0.0000   0.3377
  17.900   1.1073   0.21727   0.21538  -0.1255  0.0183  1.0000  -2.7078   0.0000   0.0000   0.0000   0.3381
  18.000   1.0894   0.22762   0.22571  -0.1282  0.0193  1.0000  -2.3946   0.0000   0.0000   0.0000   0.3427
  18.100   1.0887   0.23077   0.22886  -0.1293  0.0193  1.0000  -2.3638   0.0000   0.0000   0.0000   0.3436
  18.200   1.0880   0.23386   0.23195  -0.1303  0.0193  1.0000  -2.3347   0.0000   0.0000   0.0000   0.3445
  18.300   1.0874   0.23691   0.23500  -0.1313  0.0193  1.0000  -2.3072   0.0000   0.0000   0.0000   0.3454
  18.400   1.0868   0.23992   0.23801  -0.1323  0.0193  1.0000  -2.2811   0.0000   0.0000   0.0000   0.3462
  18.500   1.0863   0.24289   0.24099  -0.1332  0.0193  1.0000  -2.2619   0.0000   0.0000   0.0000   0.3470
  18.600   1.0858   0.24583   0.24393  -0.1342  0.0193  1.0000  -2.2536   0.0000   0.0000   0.0000   0.3478
  18.700   1.0853   0.24874   0.24685  -0.1351  0.0193  1.0000  -2.2462   0.0000   0.0000   0.0000   0.3485
  18.800   1.0848   0.25162   0.24973  -0.1360  0.0192  1.0000  -2.2396   0.0000   0.0000   0.0000   0.3492
  18.900   1.0843   0.25448   0.25259  -0.1368  0.0192  1.0000  -2.2337   0.0000   0.0000   0.0000   0.3499
  19.000   1.0838   0.25730   0.25542  -0.1377  0.0192  1.0000  -2.2283   0.0000   0.0000   0.0000   0.3506
  19.100   1.0832   0.26010   0.25822  -0.1385  0.0192  1.0000  -2.2234   0.0000   0.0000   0.0000   0.3513
  19.200   1.0826   0.26287   0.26099  -0.1393  0.0192  1.0000  -2.2188   0.0000   0.0000   0.0000   0.3520
  19.300   1.0820   0.26562   0.26374  -0.1401  0.0192  1.0000  -2.2145   0.0000   0.0000   0.0000   0.3526
  19.400   1.0813   0.26833   0.26646  -0.1408  0.0191  1.0000  -2.2102   0.0000   0.0000   0.0000   0.3533
  19.500   1.0805   0.27101   0.26914  -0.1416  0.0191  1.0000  -2.2060   0.0000   0.0000   0.0000   0.3539
  19.600   1.0797   0.27365   0.27179  -0.1423  0.0191  1.0000  -2.2016   0.0000   0.0000   0.0000   0.3546
  19.700   1.0788   0.27625   0.27439  -0.1430  0.0190  1.0000  -2.1970   0.0000   0.0000   0.0000   0.3552
  19.800   1.0779   0.27879   0.27693  -0.1437  0.0190  1.0000  -2.1921   0.0000   0.0000   0.0000   0.3558
  19.900   1.0770   0.28124   0.27939  -0.1444  0.0189  1.0000  -2.1870   0.0000   0.0000   0.0000   0.3563
  20.000   1.0762   0.28356   0.28171  -0.1450  0.0188  1.0000  -2.1826   0.0000   0.0000   0.0000   0.3569
  20.300   1.0958   0.28283   0.28100  -0.1468  0.0119  1.0000  -2.5469   0.0000   0.0000   0.0000   0.3552
  20.400   1.0985   0.28310   0.28128  -0.1471  0.0110  1.0000  -2.6623   0.0000   0.0000   0.0000   0.3548
  20.500   1.1022   0.28284   0.28103  -0.1472  0.0103  1.0000  -2.8073   0.0000   0.0000   0.0000   0.3541
  20.600   1.1067   0.28215   0.28035  -0.1473  0.0098  1.0000  -2.9778   0.0000   0.0000   0.0000   0.3532
  20.700   1.1089   0.28245   0.28066  -0.1476  0.0094  1.0000  -3.1000   0.0000   0.0000   0.0000   0.3529
  20.800   1.1107   0.28284   0.28106  -0.1479  0.0089  1.0000  -3.2187   0.0000   0.0000   0.0000   0.3526
  20.900   1.1090   0.28430   0.28253  -0.1484  0.0084  1.0000  -3.2781   0.0000   0.0000   0.0000   0.3530
  21.800   0.9985   0.29085   0.28920  -0.1466  0.0056  1.0000  -2.6208   0.0000   0.0000   0.0000   0.3661
  21.900   0.9911   0.29189   0.29026  -0.1467  0.0053  1.0000  -2.5120   0.0000   0.0000   0.0000   0.3673
  22.000   0.9834   0.29303   0.29140  -0.1468  0.0051  1.0000  -2.3911   0.0000   0.0000   0.0000   0.3686
  22.100   0.9765   0.29415   0.29253  -0.1469  0.0050  1.0000  -2.2830   0.0000   0.0000   0.0000   0.3698
  22.200   0.9705   0.29522   0.29361  -0.1471  0.0049  1.0000  -2.1890   0.0000   0.0000   0.0000   0.3709
  22.300   0.9651   0.29628   0.29467  -0.1473  0.0050  1.0000  -2.1047   0.0000   0.0000   0.0000   0.3719
  22.400   0.9603   0.29731   0.29571  -0.1475  0.0050  1.0000  -2.0297   0.0000   0.0000   0.0000   0.3729
  22.500   0.9559   0.29830   0.29671  -0.1477  0.0051  1.0000  -1.9627   0.0000   0.0000   0.0000   0.3737
  22.600   0.9519   0.29926   0.29768  -0.1479  0.0052  1.0000  -1.9025   0.0000   0.0000   0.0000   0.3745
  22.700   0.9483   0.30020   0.29862  -0.1482  0.0053  1.0000  -1.8484   0.0000   0.0000   0.0000   0.3753
  22.800   0.9448   0.30111   0.29953  -0.1484  0.0055  1.0000  -1.8016   0.0000   0.0000   0.0000   0.3760
  22.900   0.9415   0.30199   0.30042  -0.1486  0.0057  1.0000  -1.7577   0.0000   0.0000   0.0000   0.3767
  23.000   0.9383   0.30285   0.30128  -0.1488  0.0059  1.0000  -1.7153   0.0000   0.0000   0.0000   0.3773
  23.100   0.9348   0.30371   0.30215  -0.1490  0.0061  1.0000  -1.6681   0.0000   0.0000   0.0000   0.3780
  23.200   0.9294   0.30467   0.30311  -0.1490  0.0066  1.0000  -1.5883   0.0000   0.0000   0.0000   0.3790
  23.300   0.9210   0.30587   0.30432  -0.1488  0.0072  1.0000  -1.4515   0.0000   0.0000   0.0000   0.3802
  23.400   0.9189   0.30672   0.30517  -0.1490  0.0072  1.0000  -1.4246   0.0000   0.0000   0.0000   0.3807
  23.500   0.9171   0.30755   0.30601  -0.1492  0.0073  1.0000  -1.4032   0.0000   0.0000   0.0000   0.3811
  23.600   0.9155   0.30838   0.30685  -0.1495  0.0073  1.0000  -1.3845   0.0000   0.0000   0.0000   0.3816
  23.700   0.9140   0.30921   0.30768  -0.1497  0.0073  1.0000  -1.3674   0.0000   0.0000   0.0000   0.3820
  23.800   0.9126   0.31003   0.30851  -0.1500  0.0073  1.0000  -1.3516   0.0000   0.0000   0.0000   0.3823
  23.900   0.9114   0.31086   0.30934  -0.1503  0.0073  1.0000  -1.3366   0.0000   0.0000   0.0000   0.3827
  24.000   0.9101   0.31168   0.31017  -0.1506  0.0073  1.0000  -1.3224   0.0000   0.0000   0.0000   0.3831
  24.100   0.9090   0.31251   0.31100  -0.1508  0.0073  1.0000  -1.3088   0.0000   0.0000   0.0000   0.3834
  24.200   0.9079   0.31333   0.31183  -0.1511  0.0073  1.0000  -1.2957   0.0000   0.0000   0.0000   0.3838
  24.300   0.9068   0.31416   0.31266  -0.1514  0.0073  1.0000  -1.2831   0.0000   0.0000   0.0000   0.3842
  24.400   0.9058   0.31498   0.31349  -0.1517  0.0073  1.0000  -1.2710   0.0000   0.0000   0.0000   0.3845
  24.500   0.9049   0.31581   0.31432  -0.1520  0.0073  1.0000  -1.2592   0.0000   0.0000   0.0000   0.3848
  24.600   0.9039   0.31663   0.31514  -0.1523  0.0073  1.0000  -1.2478   0.0000   0.0000   0.0000   0.3852
  24.700   0.9030   0.31745   0.31597  -0.1526  0.0073  1.0000  -1.2368   0.0000   0.0000   0.0000   0.3855
  24.800   0.9022   0.31828   0.31680  -0.1529  0.0073  1.0000  -1.2260   0.0000   0.0000   0.0000   0.3858
  24.900   0.9014   0.31910   0.31763  -0.1532  0.0073  1.0000  -1.2156   0.0000   0.0000   0.0000   0.3861
  25.000   0.9006   0.31992   0.31846  -0.1535  0.0073  1.0000  -1.2054   0.0000   0.0000   0.0000   0.3865
  25.100   0.8998   0.32075   0.31929  -0.1539  0.0073  1.0000  -1.1955   0.0000   0.0000   0.0000   0.3868
  25.200   0.8991   0.32157   0.32011  -0.1542  0.0073  1.0000  -1.1858   0.0000   0.0000   0.0000   0.3871
  25.300   0.8984   0.32239   0.32094  -0.1545  0.0073  1.0000  -1.1764   0.0000   0.0000   0.0000   0.3874
  25.400   0.8977   0.32322   0.32177  -0.1548  0.0073  1.0000  -1.1672   0.0000   0.0000   0.0000   0.3877
  25.500   0.8971   0.32404   0.32259  -0.1551  0.0073  1.0000  -1.1582   0.0000   0.0000   0.0000   0.3880
  25.600   0.8964   0.32486   0.32342  -0.1554  0.0073  1.0000  -1.1494   0.0000   0.0000   0.0000   0.3882
  25.700   0.8958   0.32568   0.32424  -0.1558  0.0073  1.0000  -1.1409   0.0000   0.0000   0.0000   0.3885
  25.800   0.8952   0.32650   0.32507  -0.1561  0.0073  1.0000  -1.1325   0.0000   0.0000   0.0000   0.3888
  25.900   0.8947   0.32732   0.32589  -0.1564  0.0073  1.0000  -1.1242   0.0000   0.0000   0.0000   0.3891


