xflr5 v6.61

 Calculated polar for: NACA 65(1)-412

 1 1 Reynolds number fixed          Mach number fixed         

 xtrf =   1.000 (top)        1.000 (bottom)
 Mach =   0.000     Re =     0.719 e 6     Ncrit =   9.000

  alpha     CL        CD       CDp       Cm    Top Xtr Bot Xtr   Cpmin    Chinge    XCp    
 ------- -------- --------- --------- -------- ------- ------- -------- --------- ---------
 -10.000  -0.2691   0.02049   0.01889   0.0175  0.7358  0.0163  -1.0150   0.0000   0.0000   0.0000   0.3255
  -9.900  -0.2668   0.01939   0.01779   0.0170  0.7339  0.0163  -1.0200   0.0000   0.0000   0.0000   0.3245
  -9.100  -0.5896   0.01989   0.01507  -0.0838  0.9434  0.0074  -6.7033   0.0000   0.0000   0.0000   0.0985
  -9.000  -0.5852   0.01898   0.01403  -0.0829  0.9405  0.0074  -6.6536   0.0000   0.0000   0.0000   0.0990
  -8.900  -0.5789   0.01838   0.01334  -0.0823  0.9376  0.0074  -6.5653   0.0000   0.0000   0.0000   0.0986
  -8.800  -0.5718   0.01790   0.01280  -0.0818  0.9347  0.0075  -6.4613   0.0000   0.0000   0.0000   0.0978
  -8.700  -0.5639   0.01749   0.01235  -0.0814  0.9318  0.0075  -6.3472   0.0000   0.0000   0.0000   0.0965
  -8.600  -0.5555   0.01714   0.01195  -0.0811  0.9288  0.0076  -6.2271   0.0000   0.0000   0.0000   0.0949
  -8.500  -0.5469   0.01682   0.01159  -0.0809  0.9258  0.0077  -6.1037   0.0000   0.0000   0.0000   0.0932
  -8.400  -0.5381   0.01652   0.01125  -0.0806  0.9227  0.0078  -5.9783   0.0000   0.0000   0.0000   0.0913
  -8.300  -0.5292   0.01624   0.01094  -0.0804  0.9194  0.0079  -5.8518   0.0000   0.0000   0.0000   0.0894
  -8.200  -0.5203   0.01598   0.01064  -0.0801  0.9156  0.0080  -5.7247   0.0000   0.0000   0.0000   0.0873
  -8.100  -0.5111   0.01574   0.01036  -0.0799  0.9113  0.0081  -5.5962   0.0000   0.0000   0.0000   0.0850
  -8.000  -0.5017   0.01552   0.01010  -0.0798  0.9063  0.0083  -5.4655   0.0000   0.0000   0.0000   0.0824
  -7.900  -0.4918   0.01532   0.00987  -0.0797  0.9010  0.0085  -5.3323   0.0000   0.0000   0.0000   0.0793
  -7.800  -0.4828   0.01514   0.00967  -0.0795  0.8996  0.0087  -5.2034   0.0000   0.0000   0.0000   0.0769
  -7.700  -0.4735   0.01498   0.00950  -0.0792  0.8983  0.0089  -5.0719   0.0000   0.0000   0.0000   0.0743
  -7.600  -0.4640   0.01488   0.00939  -0.0790  0.8966  0.0090  -4.9359   0.0000   0.0000   0.0000   0.0713
  -7.500  -0.4540   0.01485   0.00935  -0.0789  0.8947  0.0092  -4.7934   0.0000   0.0000   0.0000   0.0679
  -7.400  -0.4435   0.01490   0.00941  -0.0788  0.8927  0.0093  -4.6404   0.0000   0.0000   0.0000   0.0639
  -7.300  -0.4384   0.01398   0.00842  -0.0780  0.8899  0.0101  -4.5844   0.0000   0.0000   0.0000   0.0637
  -7.200  -0.4238   0.01507   0.00972  -0.0788  0.8879  0.0114  -4.2069   0.0000   0.0000   0.0000   0.0559
  -7.100  -0.4136   0.01511   0.00977  -0.0788  0.8853  0.0116  -4.0678   0.0000   0.0000   0.0000   0.0514
  -7.000  -0.4034   0.01513   0.00979  -0.0787  0.8826  0.0119  -3.9427   0.0000   0.0000   0.0000   0.0468
  -6.900  -0.3932   0.01512   0.00979  -0.0786  0.8798  0.0122  -3.8302   0.0000   0.0000   0.0000   0.0420
  -6.800  -0.3831   0.01511   0.00977  -0.0786  0.8769  0.0125  -3.7225   0.0000   0.0000   0.0000   0.0369
  -6.700  -0.3730   0.01509   0.00973  -0.0785  0.8739  0.0128  -3.6188   0.0000   0.0000   0.0000   0.0316
  -6.600  -0.3630   0.01506   0.00969  -0.0784  0.8708  0.0131  -3.5191   0.0000   0.0000   0.0000   0.0261
  -6.500  -0.3529   0.01503   0.00964  -0.0783  0.8674  0.0133  -3.4225   0.0000   0.0000   0.0000   0.0202
  -6.400  -0.3428   0.01500   0.00959  -0.0782  0.8637  0.0136  -3.3280   0.0000   0.0000   0.0000   0.0139
  -6.300  -0.3324   0.01499   0.00956  -0.0781  0.8594  0.0138  -3.2344   0.0000   0.0000   0.0000   0.0069
  -6.200  -0.3218   0.01500   0.00955  -0.0782  0.8549  0.0140  -3.1408   0.0000   0.0000   0.0000  -0.0009
  -6.100  -0.3110   0.01503   0.00957  -0.0782  0.8508  0.0142  -3.0468   0.0000   0.0000   0.0000  -0.0097
  -6.000  -0.3003   0.01506   0.00959  -0.0783  0.8498  0.0143  -2.9533   0.0000   0.0000   0.0000  -0.0187
  -5.900  -0.2896   0.01512   0.00966  -0.0783  0.8487  0.0144  -2.8589   0.0000   0.0000   0.0000  -0.0285
  -5.800  -0.2787   0.01522   0.00976  -0.0783  0.8474  0.0145  -2.7623   0.0000   0.0000   0.0000  -0.0393
  -5.700  -0.2700   0.01447   0.00896  -0.0781  0.8459  0.0148  -2.7446   0.0000   0.0000   0.0000  -0.0475
  -5.600  -0.2618   0.01359   0.00800  -0.0777  0.8441  0.0151  -2.7462   0.0000   0.0000   0.0000  -0.0552
  -5.500  -0.2528   0.01305   0.00741  -0.0774  0.8422  0.0154  -2.7212   0.0000   0.0000   0.0000  -0.0648
  -5.400  -0.2416   0.01315   0.00750  -0.0775  0.8402  0.0150  -2.6458   0.0000   0.0000   0.0000  -0.0795
  -5.300  -0.2329   0.01255   0.00685  -0.0772  0.8379  0.0154  -2.6270   0.0000   0.0000   0.0000  -0.0902
  -5.200  -0.2238   0.01211   0.00636  -0.0770  0.8354  0.0157  -2.5955   0.0000   0.0000   0.0000  -0.1027
  -5.100  -0.2145   0.01176   0.00598  -0.0768  0.8328  0.0161  -2.5560   0.0000   0.0000   0.0000  -0.1169
  -5.000  -0.2049   0.01147   0.00566  -0.0766  0.8302  0.0164  -2.5105   0.0000   0.0000   0.0000  -0.1331
  -4.900  -0.1950   0.01123   0.00539  -0.0765  0.8275  0.0168  -2.4593   0.0000   0.0000   0.0000  -0.1515
  -4.800  -0.1850   0.01104   0.00518  -0.0764  0.8247  0.0173  -2.4012   0.0000   0.0000   0.0000  -0.1725
  -4.700  -0.1747   0.01092   0.00504  -0.0764  0.8217  0.0179  -2.3320   0.0000   0.0000   0.0000  -0.1970
  -4.600  -0.1594   0.01223   0.00650  -0.0775  0.8188  0.0232  -1.9942   0.0000   0.0000   0.0000  -0.2462
  -4.500  -0.1493   0.01202   0.00625  -0.0774  0.8153  0.0234  -1.9514   0.0000   0.0000   0.0000  -0.2790
  -4.400  -0.1393   0.01172   0.00590  -0.0772  0.8114  0.0234  -1.9221   0.0000   0.0000   0.0000  -0.3154
  -4.300  -0.1292   0.01142   0.00556  -0.0771  0.8072  0.0234  -1.8950   0.0000   0.0000   0.0000  -0.3581
  -4.200  -0.1190   0.01115   0.00524  -0.0770  0.8028  0.0234  -1.8667   0.0000   0.0000   0.0000  -0.4092
  -4.100  -0.1088   0.01088   0.00494  -0.0769  0.8006  0.0234  -1.8375   0.0000   0.0000   0.0000  -0.4702
  -4.000  -0.0985   0.01061   0.00465  -0.0769  0.7998  0.0234  -1.8075   0.0000   0.0000   0.0000  -0.5440
  -3.900  -0.0881   0.01037   0.00438  -0.0768  0.7989  0.0235  -1.7765   0.0000   0.0000   0.0000  -0.6362
  -3.800  -0.0777   0.01014   0.00412  -0.0768  0.7978  0.0237  -1.7445   0.0000   0.0000   0.0000  -0.7547
  -3.700  -0.0671   0.00993   0.00389  -0.0768  0.7965  0.0239  -1.7116   0.0000   0.0000   0.0000  -0.9124
  -3.600  -0.0564   0.00974   0.00367  -0.0768  0.7951  0.0241  -1.6777   0.0000   0.0000   0.0000  -1.1324
  -3.500  -0.0456   0.00957   0.00347  -0.0768  0.7935  0.0244  -1.6427   0.0000   0.0000   0.0000  -1.4599
  -3.400  -0.0347   0.00942   0.00330  -0.0768  0.7919  0.0248  -1.6063   0.0000   0.0000   0.0000  -1.9975
  -3.300  -0.0237   0.00929   0.00314  -0.0769  0.7901  0.0253  -1.5679   0.0000   0.0000   0.0000  -3.0395
  -3.200  -0.0127   0.00918   0.00301  -0.0770  0.7883  0.0259  -1.5267   0.0000   0.0000   0.0000  -5.9125
  -3.100  -0.0016   0.00910   0.00291  -0.0770  0.7862  0.0264  -1.4819   0.0000   0.0000   0.0000  -49.5977
  -3.000   0.0095   0.00903   0.00284  -0.0771  0.7840  0.0268  -1.4339   0.0000   0.0000   0.0000   8.4257
  -2.900   0.0207   0.00898   0.00278  -0.0772  0.7817  0.0272  -1.3835   0.0000   0.0000   0.0000   4.0284
  -2.800   0.0316   0.00869   0.00236  -0.0772  0.7792  0.0323  -1.3926   0.0000   0.0000   0.0000   2.7207
  -2.700   0.0427   0.00857   0.00218  -0.0772  0.7766  0.0381  -1.3650   0.0000   0.0000   0.0000   2.0756
  -2.600   0.0538   0.00849   0.00209  -0.0772  0.7739  0.0429  -1.3206   0.0000   0.0000   0.0000   1.6997
  -2.500   0.0649   0.00841   0.00201  -0.0773  0.7709  0.0479  -1.2726   0.0000   0.0000   0.0000   1.4533
  -2.400   0.0759   0.00831   0.00195  -0.0774  0.7677  0.0641  -1.2242   0.0000   0.0000   0.0000   1.2797
  -2.300   0.0862   0.00790   0.00182  -0.0777  0.7641  0.1395  -1.1765   0.0000   0.0000   0.0000   1.1587
  -2.200   0.0967   0.00746   0.00171  -0.0781  0.7603  0.2417  -1.1275   0.0000   0.0000   0.0000   1.0638
  -2.100   0.1073   0.00697   0.00159  -0.0785  0.7565  0.3580  -1.0778   0.0000   0.0000   0.0000   0.9874
  -2.000   0.1180   0.00644   0.00153  -0.0790  0.7527  0.4958  -1.0275   0.0000   0.0000   0.0000   0.9251
  -1.900   0.1291   0.00627   0.00155  -0.0792  0.7507  0.5521  -0.9752   0.0000   0.0000   0.0000   0.8681
  -1.800   0.1402   0.00617   0.00157  -0.0793  0.7501  0.5830  -0.9230   0.0000   0.0000   0.0000   0.8195
  -1.700   0.1516   0.00615   0.00157  -0.0795  0.7494  0.5968  -0.8707   0.0000   0.0000   0.0000   0.7772
  -1.600   0.1630   0.00611   0.00157  -0.0796  0.7485  0.6109  -0.8191   0.0000   0.0000   0.0000   0.7409
  -1.500   0.1741   0.00607   0.00160  -0.0796  0.7476  0.6272  -0.7684   0.0000   0.0000   0.0000   0.7096
  -1.400   0.1854   0.00606   0.00163  -0.0797  0.7465  0.6410  -0.7180   0.0000   0.0000   0.0000   0.6818
  -1.300   0.1968   0.00608   0.00165  -0.0798  0.7453  0.6488  -0.6678   0.0000   0.0000   0.0000   0.6570
  -1.200   0.2078   0.00604   0.00167  -0.0798  0.7440  0.6649  -0.6193   0.0000   0.0000   0.0000   0.6353
  -1.100   0.2188   0.00603   0.00172  -0.0798  0.7426  0.6766  -0.5714   0.0000   0.0000   0.0000   0.6157
  -1.000   0.2300   0.00604   0.00175  -0.0798  0.7412  0.6840  -0.5237   0.0000   0.0000   0.0000   0.5978
  -0.900   0.2413   0.00605   0.00176  -0.0799  0.7396  0.6882  -0.5267   0.0000   0.0000   0.0000   0.5816
  -0.800   0.2527   0.00606   0.00177  -0.0800  0.7380  0.6911  -0.5320   0.0000   0.0000   0.0000   0.5669
  -0.700   0.2642   0.00608   0.00177  -0.0801  0.7364  0.6931  -0.5372   0.0000   0.0000   0.0000   0.5535
  -0.600   0.2756   0.00609   0.00177  -0.0802  0.7346  0.6947  -0.5425   0.0000   0.0000   0.0000   0.5412
  -0.500   0.2871   0.00610   0.00177  -0.0803  0.7328  0.6961  -0.5478   0.0000   0.0000   0.0000   0.5298
  -0.400   0.2985   0.00613   0.00178  -0.0804  0.7309  0.6976  -0.5530   0.0000   0.0000   0.0000   0.5194
  -0.300   0.3098   0.00616   0.00180  -0.0805  0.7288  0.6990  -0.5582   0.0000   0.0000   0.0000   0.5096
  -0.200   0.3210   0.00613   0.00179  -0.0806  0.7267  0.7064  -0.5634   0.0000   0.0000   0.0000   0.5007
  -0.100   0.3319   0.00612   0.00179  -0.0806  0.7243  0.7137  -0.5685   0.0000   0.0000   0.0000   0.4923
   0.000   0.3428   0.00613   0.00182  -0.0806  0.7218  0.7196  -0.5740   0.0000   0.0000   0.0000   0.4844
   0.100   0.3537   0.00615   0.00184  -0.0805  0.7190  0.7243  -0.5798   0.0000   0.0000   0.0000   0.4770
   0.200   0.3647   0.00617   0.00187  -0.0805  0.7158  0.7281  -0.5855   0.0000   0.0000   0.0000   0.4700
   0.300   0.3759   0.00621   0.00189  -0.0806  0.7124  0.7310  -0.5913   0.0000   0.0000   0.0000   0.4635
   0.400   0.3872   0.00625   0.00192  -0.0807  0.7088  0.7332  -0.5971   0.0000   0.0000   0.0000   0.4574
   0.500   0.3987   0.00629   0.00196  -0.0809  0.7054  0.7351  -0.6028   0.0000   0.0000   0.0000   0.4517
   0.600   0.4102   0.00634   0.00202  -0.0810  0.7021  0.7370  -0.6086   0.0000   0.0000   0.0000   0.4464
   0.700   0.4216   0.00636   0.00203  -0.0812  0.7006  0.7387  -0.6145   0.0000   0.0000   0.0000   0.4412
   0.800   0.4329   0.00635   0.00203  -0.0813  0.6998  0.7404  -0.6206   0.0000   0.0000   0.0000   0.4363
   0.900   0.4443   0.00634   0.00202  -0.0814  0.6986  0.7419  -0.6266   0.0000   0.0000   0.0000   0.4317
   1.000   0.4555   0.00632   0.00200  -0.0814  0.6967  0.7433  -0.6327   0.0000   0.0000   0.0000   0.4272
   1.100   0.4667   0.00630   0.00198  -0.0815  0.6939  0.7446  -0.6388   0.0000   0.0000   0.0000   0.4229
   1.200   0.4778   0.00628   0.00195  -0.0815  0.6898  0.7457  -0.6450   0.0000   0.0000   0.0000   0.4188
   1.300   0.4888   0.00627   0.00193  -0.0815  0.6841  0.7468  -0.6512   0.0000   0.0000   0.0000   0.4148
   1.400   0.4996   0.00629   0.00190  -0.0814  0.6766  0.7477  -0.6573   0.0000   0.0000   0.0000   0.4110
   1.500   0.5099   0.00633   0.00187  -0.0813  0.6671  0.7484  -0.6631   0.0000   0.0000   0.0000   0.4074
   1.600   0.5202   0.00641   0.00186  -0.0811  0.6551  0.7497  -0.7111   0.0000   0.0000   0.0000   0.4039
   1.700   0.5313   0.00639   0.00185  -0.0812  0.6493  0.7536  -0.7673   0.0000   0.0000   0.0000   0.4007
   1.800   0.5424   0.00636   0.00184  -0.0813  0.6460  0.7576  -0.8247   0.0000   0.0000   0.0000   0.3976
   1.900   0.5534   0.00635   0.00184  -0.0813  0.6417  0.7613  -0.8827   0.0000   0.0000   0.0000   0.3946
   2.000   0.5644   0.00635   0.00186  -0.0813  0.6377  0.7647  -0.9415   0.0000   0.0000   0.0000   0.3917
   2.100   0.5753   0.00636   0.00188  -0.0814  0.6342  0.7677  -1.0010   0.0000   0.0000   0.0000   0.3889
   2.200   0.5862   0.00637   0.00190  -0.0814  0.6302  0.7705  -1.0612   0.0000   0.0000   0.0000   0.3862
   2.300   0.5970   0.00640   0.00192  -0.0813  0.6254  0.7731  -1.1218   0.0000   0.0000   0.0000   0.3836
   2.400   0.6074   0.00644   0.00194  -0.0812  0.6189  0.7757  -1.1824   0.0000   0.0000   0.0000   0.3810
   2.500   0.6174   0.00650   0.00196  -0.0811  0.6096  0.7784  -1.2426   0.0000   0.0000   0.0000   0.3785
   2.600   0.6277   0.00656   0.00199  -0.0809  0.5998  0.7810  -1.3041   0.0000   0.0000   0.0000   0.3761
   2.700   0.6386   0.00658   0.00202  -0.0810  0.5939  0.7836  -1.3683   0.0000   0.0000   0.0000   0.3738
   2.800   0.6489   0.00663   0.00204  -0.0809  0.5817  0.7860  -1.4318   0.0000   0.0000   0.0000   0.3715
   2.900   0.6581   0.00675   0.00207  -0.0805  0.5632  0.7884  -1.4923   0.0000   0.0000   0.0000   0.3692
   3.000   0.6676   0.00686   0.00211  -0.0803  0.5478  0.7905  -1.5543   0.0000   0.0000   0.0000   0.3670
   3.100   0.6779   0.00693   0.00215  -0.0802  0.5353  0.7924  -1.6195   0.0000   0.0000   0.0000   0.3649
   3.200   0.6857   0.00714   0.00222  -0.0796  0.5052  0.7942  -1.6777   0.0000   0.0000   0.0000   0.3627
   3.300   0.6944   0.00732   0.00229  -0.0793  0.4780  0.7957  -1.7385   0.0000   0.0000   0.0000   0.3606
   3.400   0.7010   0.00763   0.00241  -0.0786  0.4390  0.7970  -1.7937   0.0000   0.0000   0.0000   0.3585
   3.600   0.7119   0.00845   0.00278  -0.0768  0.3412  0.7997  -1.8961   0.0000   0.0000   0.0000   0.3541
   3.700   0.7158   0.00892   0.00300  -0.0757  0.2834  0.8050  -1.9422   0.0000   0.0000   0.0000   0.3519
   3.800   0.7208   0.00930   0.00319  -0.0748  0.2391  0.8100  -1.9919   0.0000   0.0000   0.0000   0.3498
   3.900   0.7252   0.00970   0.00340  -0.0737  0.1930  0.8145  -2.0400   0.0000   0.0000   0.0000   0.3476
   4.000   0.7292   0.01011   0.00362  -0.0726  0.1473  0.8186  -2.0862   0.0000   0.0000   0.0000   0.3454
   4.100   0.7336   0.01048   0.00382  -0.0715  0.1126  0.8223  -2.1334   0.0000   0.0000   0.0000   0.3432
   4.200   0.7380   0.01084   0.00404  -0.0704  0.0791  0.8259  -2.1804   0.0000   0.0000   0.0000   0.3410
   4.300   0.7419   0.01122   0.00425  -0.0692  0.0494  0.8294  -2.2248   0.0000   0.0000   0.0000   0.3388
   4.400   0.7492   0.01141   0.00439  -0.0685  0.0388  0.8326  -2.2774   0.0000   0.0000   0.0000   0.3370
   4.500   0.7559   0.01163   0.00458  -0.0677  0.0224  0.8358  -2.2972   0.0000   0.0000   0.0000   0.3349
   4.600   0.7643   0.01175   0.00473  -0.0672  0.0206  0.8386  -2.3467   0.0000   0.0000   0.0000   0.3333
   4.700   0.7723   0.01189   0.00488  -0.0667  0.0189  0.8412  -2.3902   0.0000   0.0000   0.0000   0.3315
   4.800   0.7803   0.01204   0.00504  -0.0661  0.0179  0.8435  -2.4356   0.0000   0.0000   0.0000   0.3299
   4.900   0.7883   0.01218   0.00519  -0.0656  0.0172  0.8456  -2.4824   0.0000   0.0000   0.0000   0.3282
   5.000   0.7963   0.01232   0.00535  -0.0650  0.0167  0.8473  -2.5298   0.0000   0.0000   0.0000   0.3266
   5.100   0.8041   0.01247   0.00552  -0.0644  0.0163  0.8488  -2.5774   0.0000   0.0000   0.0000   0.3250
   5.200   0.8114   0.01259   0.00568  -0.0637  0.0161  0.8538  -2.6239   0.0000   0.0000   0.0000   0.3233
   5.300   0.8178   0.01272   0.00585  -0.0629  0.0158  0.8600  -2.6684   0.0000   0.0000   0.0000   0.3215
   5.400   0.8236   0.01285   0.00603  -0.0619  0.0157  0.8657  -2.7113   0.0000   0.0000   0.0000   0.3197
   5.500   0.8289   0.01298   0.00622  -0.0607  0.0156  0.8708  -2.7529   0.0000   0.0000   0.0000   0.3177
   5.600   0.8338   0.01313   0.00641  -0.0595  0.0155  0.8757  -2.7934   0.0000   0.0000   0.0000   0.3158
   5.700   0.8384   0.01328   0.00661  -0.0583  0.0154  0.8805  -2.8329   0.0000   0.0000   0.0000   0.3138
   5.800   0.8426   0.01344   0.00681  -0.0570  0.0153  0.8851  -2.8711   0.0000   0.0000   0.0000   0.3118
   5.900   0.8449   0.01358   0.00699  -0.0553  0.0153  0.8899  -2.9041   0.0000   0.0000   0.0000   0.3095
   6.000   0.8461   0.01373   0.00717  -0.0533  0.0152  0.8943  -2.9339   0.0000   0.0000   0.0000   0.3070
   6.100   0.8478   0.01389   0.00738  -0.0515  0.0152  0.8978  -2.9646   0.0000   0.0000   0.0000   0.3046
   6.200   0.8491   0.01406   0.00758  -0.0497  0.0152  0.9043  -2.9940   0.0000   0.0000   0.0000   0.3023
   6.300   0.8475   0.01416   0.00775  -0.0472  0.0152  0.9155  -3.0156   0.0000   0.0000   0.0000   0.2993
   6.400   0.8455   0.01428   0.00792  -0.0446  0.0152  0.9257  -3.0360   0.0000   0.0000   0.0000   0.2963
   6.500   0.8379   0.01466   0.00859  -0.0409  0.0155  0.9374  -3.0132   0.0000   0.0000   0.0000   0.2923
   6.600   0.8426   0.01467   0.00854  -0.0399  0.0130  0.9438  -3.1536   0.0000   0.0000   0.0000   0.2907
   6.700   0.8406   0.01495   0.00886  -0.0376  0.0124  0.9507  -3.1766   0.0000   0.0000   0.0000   0.2879
   6.800   0.8445   0.01535   0.00932  -0.0366  0.0120  0.9686  -3.2123   0.0000   0.0000   0.0000   0.2865
   6.900   0.8485   0.01576   0.00980  -0.0357  0.0117  0.9887  -3.2462   0.0000   0.0000   0.0000   0.2851
   7.000   0.8526   0.01622   0.01031  -0.0348  0.0115  1.0000  -3.2783   0.0000   0.0000   0.0000   0.2837
   7.100   0.8557   0.01669   0.01082  -0.0337  0.0113  1.0000  -3.3067   0.0000   0.0000   0.0000   0.2822
   7.200   0.8592   0.01719   0.01136  -0.0326  0.0112  1.0000  -3.3343   0.0000   0.0000   0.0000   0.2807
   7.300   0.8633   0.01773   0.01194  -0.0317  0.0110  1.0000  -3.3612   0.0000   0.0000   0.0000   0.2793
   7.400   0.8678   0.01859   0.01288  -0.0308  0.0108  1.0000  -3.3678   0.0000   0.0000   0.0000   0.2780
   7.500   0.8755   0.01919   0.01350  -0.0305  0.0107  1.0000  -3.4071   0.0000   0.0000   0.0000   0.2772
   7.600   0.8827   0.01927   0.01359  -0.0300  0.0106  1.0000  -3.4882   0.0000   0.0000   0.0000   0.2763
   7.700   0.8900   0.01944   0.01376  -0.0296  0.0106  1.0000  -3.5635   0.0000   0.0000   0.0000   0.2754
   7.800   0.8974   0.01963   0.01397  -0.0292  0.0105  1.0000  -3.6359   0.0000   0.0000   0.0000   0.2746
   7.900   0.9046   0.01985   0.01420  -0.0288  0.0105  1.0000  -3.7064   0.0000   0.0000   0.0000   0.2737
   8.000   0.9119   0.02009   0.01446  -0.0284  0.0105  1.0000  -3.7759   0.0000   0.0000   0.0000   0.2729
   8.100   0.9191   0.02035   0.01472  -0.0279  0.0104  1.0000  -3.8447   0.0000   0.0000   0.0000   0.2721
   8.200   0.9263   0.02061   0.01500  -0.0275  0.0104  1.0000  -3.9131   0.0000   0.0000   0.0000   0.2713
   8.300   0.9335   0.02089   0.01530  -0.0271  0.0103  1.0000  -3.9813   0.0000   0.0000   0.0000   0.2705
   8.400   0.9406   0.02117   0.01560  -0.0266  0.0103  1.0000  -4.0494   0.0000   0.0000   0.0000   0.2697
   8.500   0.9477   0.02146   0.01591  -0.0262  0.0102  1.0000  -4.1174   0.0000   0.0000   0.0000   0.2689
   8.600   0.9547   0.02176   0.01622  -0.0258  0.0102  1.0000  -4.1850   0.0000   0.0000   0.0000   0.2681
   8.700   0.9615   0.02206   0.01655  -0.0253  0.0101  1.0000  -4.2522   0.0000   0.0000   0.0000   0.2673
   8.800   0.9682   0.02237   0.01688  -0.0248  0.0101  1.0000  -4.3193   0.0000   0.0000   0.0000   0.2665
   8.900   0.9747   0.02269   0.01722  -0.0243  0.0100  1.0000  -4.3862   0.0000   0.0000   0.0000   0.2657
   9.000   0.9812   0.02301   0.01757  -0.0238  0.0099  1.0000  -4.4531   0.0000   0.0000   0.0000   0.2649
   9.100   0.9876   0.02334   0.01792  -0.0233  0.0099  1.0000  -4.5201   0.0000   0.0000   0.0000   0.2641
   9.200   0.9939   0.02367   0.01827  -0.0228  0.0098  1.0000  -4.5872   0.0000   0.0000   0.0000   0.2633
   9.300   0.9939   0.02303   0.01761  -0.0215  0.0092  1.0000  -4.7700   0.0000   0.0000   0.0000   0.2618
   9.400   0.9989   0.02299   0.01755  -0.0209  0.0089  1.0000  -4.8955   0.0000   0.0000   0.0000   0.2609
   9.500   1.0045   0.02313   0.01769  -0.0203  0.0087  1.0000  -4.9967   0.0000   0.0000   0.0000   0.2601
   9.600   1.0102   0.02333   0.01789  -0.0198  0.0086  1.0000  -5.0905   0.0000   0.0000   0.0000   0.2593
   9.700   1.0159   0.02355   0.01812  -0.0193  0.0084  1.0000  -5.1811   0.0000   0.0000   0.0000   0.2586
   9.800   1.0215   0.02378   0.01836  -0.0187  0.0083  1.0000  -5.2700   0.0000   0.0000   0.0000   0.2578
   9.900   1.0267   0.02403   0.01863  -0.0181  0.0082  1.0000  -5.3559   0.0000   0.0000   0.0000   0.2570
  10.000   1.0314   0.02430   0.01891  -0.0175  0.0081  1.0000  -5.4390   0.0000   0.0000   0.0000   0.2561
  10.100   1.0358   0.02458   0.01920  -0.0168  0.0080  1.0000  -5.5213   0.0000   0.0000   0.0000   0.2553
  10.200   1.0404   0.02486   0.01949  -0.0162  0.0079  1.0000  -5.6046   0.0000   0.0000   0.0000   0.2545
  10.300   1.0450   0.02514   0.01978  -0.0156  0.0078  1.0000  -5.6894   0.0000   0.0000   0.0000   0.2537
  10.400   1.0498   0.02542   0.02007  -0.0150  0.0077  1.0000  -5.7759   0.0000   0.0000   0.0000   0.2529
  10.500   1.0546   0.02570   0.02036  -0.0144  0.0076  1.0000  -5.8637   0.0000   0.0000   0.0000   0.2521
  10.600   1.0595   0.02598   0.02065  -0.0139  0.0076  1.0000  -5.9527   0.0000   0.0000   0.0000   0.2514
  10.700   1.0643   0.02626   0.02094  -0.0133  0.0075  1.0000  -6.0428   0.0000   0.0000   0.0000   0.2507
  10.800   1.0691   0.02654   0.02123  -0.0128  0.0074  1.0000  -6.1336   0.0000   0.0000   0.0000   0.2500
  10.900   1.0739   0.02683   0.02153  -0.0122  0.0073  1.0000  -6.2249   0.0000   0.0000   0.0000   0.2493
  11.000   1.0785   0.02712   0.02183  -0.0117  0.0073  1.0000  -6.3165   0.0000   0.0000   0.0000   0.2486
  11.100   1.0830   0.02743   0.02214  -0.0112  0.0072  1.0000  -6.4074   0.0000   0.0000   0.0000   0.2479
  11.200   1.0867   0.02777   0.02249  -0.0105  0.0071  1.0000  -6.4934   0.0000   0.0000   0.0000   0.2471
  11.300   1.0899   0.02814   0.02287  -0.0099  0.0070  1.0000  -6.5761   0.0000   0.0000   0.0000   0.2463
  11.400   1.0932   0.02852   0.02326  -0.0093  0.0070  1.0000  -6.6585   0.0000   0.0000   0.0000   0.2455
  11.500   1.0966   0.02891   0.02366  -0.0087  0.0069  1.0000  -6.7411   0.0000   0.0000   0.0000   0.2448
  11.600   1.1001   0.02931   0.02408  -0.0081  0.0068  1.0000  -6.8224   0.0000   0.0000   0.0000   0.2441
  11.700   1.1035   0.02975   0.02454  -0.0075  0.0067  1.0000  -6.9012   0.0000   0.0000   0.0000   0.2434
  11.800   1.1068   0.03023   0.02504  -0.0069  0.0066  1.0000  -6.9757   0.0000   0.0000   0.0000   0.2427
  11.900   1.1098   0.03078   0.02561  -0.0063  0.0065  1.0000  -7.0434   0.0000   0.0000   0.0000   0.2420
  12.000   1.1122   0.03142   0.02629  -0.0057  0.0064  1.0000  -7.1006   0.0000   0.0000   0.0000   0.2412
  12.100   1.1137   0.03224   0.02717  -0.0050  0.0063  1.0000  -7.1381   0.0000   0.0000   0.0000   0.2404
  12.200   1.1125   0.03364   0.02868  -0.0041  0.0061  1.0000  -7.1141   0.0000   0.0000   0.0000   0.2395
  12.300   1.1119   0.03492   0.03006  -0.0033  0.0059  1.0000  -7.1107   0.0000   0.0000   0.0000   0.2387
  12.400   1.1155   0.03525   0.03041  -0.0028  0.0059  1.0000  -7.2096   0.0000   0.0000   0.0000   0.2381
  12.500   1.1181   0.03564   0.03082  -0.0023  0.0059  1.0000  -7.3003   0.0000   0.0000   0.0000   0.2374
  12.600   1.1205   0.03606   0.03126  -0.0018  0.0058  1.0000  -7.3890   0.0000   0.0000   0.0000   0.2368
  12.700   1.1232   0.03648   0.03169  -0.0013  0.0058  1.0000  -7.4811   0.0000   0.0000   0.0000   0.2361
  12.800   1.1263   0.03688   0.03211  -0.0009  0.0058  1.0000  -7.5768   0.0000   0.0000   0.0000   0.2356
  12.900   1.1296   0.03729   0.03253  -0.0004  0.0058  1.0000  -7.6746   0.0000   0.0000   0.0000   0.2350
  13.000   1.1331   0.03770   0.03296  -0.0000  0.0057  1.0000  -7.7738   0.0000   0.0000   0.0000   0.2345
  13.100   1.1366   0.03812   0.03340   0.0003  0.0057  1.0000  -7.8735   0.0000   0.0000   0.0000   0.2340
  13.200   1.1400   0.03855   0.03384   0.0007  0.0057  1.0000  -7.9732   0.0000   0.0000   0.0000   0.2335
  13.400   1.1403   0.04042   0.03590   0.0018  0.0057  1.0000  -7.9997   0.0000   0.0000   0.0000   0.2322
  13.500   1.1405   0.04119   0.03672   0.0023  0.0057  1.0000  -8.0482   0.0000   0.0000   0.0000   0.2316
  13.600   1.1412   0.04188   0.03744   0.0027  0.0057  1.0000  -8.1140   0.0000   0.0000   0.0000   0.2310
  13.700   1.1428   0.04249   0.03808   0.0031  0.0057  1.0000  -8.1932   0.0000   0.0000   0.0000   0.2305
  13.800   1.1450   0.04306   0.03867   0.0034  0.0056  1.0000  -8.2819   0.0000   0.0000   0.0000   0.2301
  13.900   1.1476   0.04360   0.03924   0.0037  0.0056  1.0000  -8.3764   0.0000   0.0000   0.0000   0.2296
  14.000   1.1504   0.04414   0.03979   0.0039  0.0055  1.0000  -8.4741   0.0000   0.0000   0.0000   0.2292
  14.100   1.1531   0.04468   0.04035   0.0042  0.0055  1.0000  -8.5733   0.0000   0.0000   0.0000   0.2288
  14.200   1.1558   0.04523   0.04092   0.0044  0.0054  1.0000  -8.6728   0.0000   0.0000   0.0000   0.2284
  14.300   1.1584   0.04581   0.04152   0.0046  0.0054  1.0000  -8.7715   0.0000   0.0000   0.0000   0.2280
  14.400   1.1602   0.04646   0.04220   0.0049  0.0053  1.0000  -8.8630   0.0000   0.0000   0.0000   0.2277
  14.500   1.1605   0.04725   0.04302   0.0051  0.0053  1.0000  -8.9401   0.0000   0.0000   0.0000   0.2272
  14.600   1.1611   0.04804   0.04383   0.0053  0.0052  1.0000  -9.0204   0.0000   0.0000   0.0000   0.2269
  14.700   1.1624   0.04879   0.04461   0.0055  0.0051  1.0000  -9.1076   0.0000   0.0000   0.0000   0.2265
  14.800   1.1640   0.04953   0.04537   0.0056  0.0051  1.0000  -9.1986   0.0000   0.0000   0.0000   0.2262
  14.900   1.1658   0.05027   0.04613   0.0058  0.0050  1.0000  -9.2917   0.0000   0.0000   0.0000   0.2259
  15.000   1.1675   0.05101   0.04690   0.0059  0.0049  1.0000  -9.3858   0.0000   0.0000   0.0000   0.2256
  15.100   1.1693   0.05177   0.04768   0.0060  0.0049  1.0000  -9.4801   0.0000   0.0000   0.0000   0.2253
  15.200   1.1709   0.05256   0.04848   0.0060  0.0048  1.0000  -9.5744   0.0000   0.0000   0.0000   0.2250
  15.300   1.1719   0.05341   0.04937   0.0061  0.0048  1.0000  -9.6620   0.0000   0.0000   0.0000   0.2248
  15.400   1.1709   0.05447   0.05046   0.0061  0.0047  1.0000  -9.7283   0.0000   0.0000   0.0000   0.2245
  15.500   1.1707   0.05548   0.05149   0.0061  0.0047  1.0000  -9.8027   0.0000   0.0000   0.0000   0.2243
  15.600   1.1713   0.05642   0.05245   0.0061  0.0046  1.0000  -9.8881   0.0000   0.0000   0.0000   0.2241
  15.700   1.1725   0.05731   0.05336   0.0060  0.0046  1.0000  -9.9795   0.0000   0.0000   0.0000   0.2240
  15.800   1.1739   0.05819   0.05426   0.0060  0.0045  1.0000  -10.0749   0.0000   0.0000   0.0000   0.2238
  15.900   1.1754   0.05908   0.05516   0.0059  0.0045  1.0000  -10.1715   0.0000   0.0000   0.0000   0.2237
  16.000   1.1769   0.05997   0.05608   0.0058  0.0044  1.0000  -10.2681   0.0000   0.0000   0.0000   0.2235
  16.100   1.1782   0.06090   0.05702   0.0056  0.0044  1.0000  -10.3634   0.0000   0.0000   0.0000   0.2234
  16.200   1.1775   0.06207   0.05821   0.0054  0.0043  1.0000  -10.4345   0.0000   0.0000   0.0000   0.2234
  16.300   1.1759   0.06338   0.05955   0.0052  0.0043  1.0000  -10.4933   0.0000   0.0000   0.0000   0.2233
  16.400   1.1759   0.06452   0.06071   0.0049  0.0043  1.0000  -10.5725   0.0000   0.0000   0.0000   0.2233
  16.500   1.1766   0.06558   0.06179   0.0047  0.0042  1.0000  -10.6612   0.0000   0.0000   0.0000   0.2233
  16.600   1.1777   0.06663   0.06285   0.0044  0.0042  1.0000  -10.7533   0.0000   0.0000   0.0000   0.2233
  16.700   1.1787   0.06768   0.06392   0.0041  0.0042  1.0000  -10.8455   0.0000   0.0000   0.0000   0.2233
  16.800   1.1796   0.06877   0.06503   0.0038  0.0042  1.0000  -10.9353   0.0000   0.0000   0.0000   0.2234
  16.900   1.1801   0.06992   0.06620   0.0034  0.0041  1.0000  -11.0203   0.0000   0.0000   0.0000   0.2234
  17.000   1.1775   0.07152   0.06783   0.0029  0.0041  1.0000  -11.0639   0.0000   0.0000   0.0000   0.2237
  17.100   1.1751   0.07316   0.06950   0.0023  0.0041  1.0000  -11.1079   0.0000   0.0000   0.0000   0.2239
  17.200   1.1742   0.07458   0.07095   0.0017  0.0041  1.0000  -11.1717   0.0000   0.0000   0.0000   0.2242
  17.300   1.1737   0.07598   0.07237   0.0012  0.0040  1.0000  -11.2391   0.0000   0.0000   0.0000   0.2244
  17.400   1.1729   0.07743   0.07385   0.0006  0.0040  1.0000  -11.3027   0.0000   0.0000   0.0000   0.2246
  17.500   1.1716   0.07899   0.07544  -0.0001  0.0040  1.0000  -11.3573   0.0000   0.0000   0.0000   0.2250
  17.600   1.1674   0.08106   0.07756  -0.0010  0.0040  1.0000  -11.3687   0.0000   0.0000   0.0000   0.2255
  17.700   1.1627   0.08329   0.07983  -0.0021  0.0040  1.0000  -11.3706   0.0000   0.0000   0.0000   0.2262
  17.800   1.1596   0.08528   0.08186  -0.0030  0.0039  1.0000  -11.3941   0.0000   0.0000   0.0000   0.2268
  17.900   1.1565   0.08729   0.08392  -0.0040  0.0039  1.0000  -11.4153   0.0000   0.0000   0.0000   0.2274
  18.000   1.1527   0.08947   0.08614  -0.0050  0.0039  1.0000  -11.4234   0.0000   0.0000   0.0000   0.2281
  18.100   1.1450   0.09246   0.08920  -0.0067  0.0039  1.0000  -11.3688   0.0000   0.0000   0.0000   0.2293
  18.200   1.1396   0.09508   0.09187  -0.0081  0.0039  1.0000  -11.3458   0.0000   0.0000   0.0000   0.2303
  18.300   1.1345   0.09765   0.09449  -0.0095  0.0039  1.0000  -11.3255   0.0000   0.0000   0.0000   0.2314
  18.400   1.1273   0.10071   0.09762  -0.0112  0.0039  1.0000  -11.2670   0.0000   0.0000   0.0000   0.2327
  18.500   1.1190   0.10413   0.10111  -0.0132  0.0039  1.0000  -11.1825   0.0000   0.0000   0.0000   0.2344
  18.600   1.1126   0.10716   0.10419  -0.0149  0.0039  1.0000  -11.1275   0.0000   0.0000   0.0000   0.2358
  18.700   1.1046   0.11058   0.10769  -0.0170  0.0039  1.0000  -11.0402   0.0000   0.0000   0.0000   0.2376
  18.800   1.0935   0.11485   0.11204  -0.0196  0.0039  1.0000  -10.8874   0.0000   0.0000   0.0000   0.2399
  18.900   1.0850   0.11853   0.11579  -0.0218  0.0039  1.0000  -10.7770   0.0000   0.0000   0.0000   0.2419
  19.000   1.0681   0.12438   0.12175  -0.0254  0.0039  1.0000  -10.4923   0.0000   0.0000   0.0000   0.2455
  19.100   1.0549   0.12932   0.12678  -0.0283  0.0039  1.0000  -10.2687   0.0000   0.0000   0.0000   0.2485


