xflr5 v6.61

 Calculated polar for: NACA 65(1)-212

 1 1 Reynolds number fixed          Mach number fixed         

 xtrf =   1.000 (top)        1.000 (bottom)
 Mach =   0.000     Re =     0.719 e 6     Ncrit =   9.000

  alpha     CL        CD       CDp       Cm    Top Xtr Bot Xtr   Cpmin    Chinge    XCp    
 ------- -------- --------- --------- -------- ------- ------- -------- --------- ---------
 -10.000  -0.8239   0.02094   0.01589  -0.0478  0.9841  0.0067  -7.5876   0.0000   0.0000   0.0000   0.1825
  -9.900  -0.8136   0.02066   0.01560  -0.0481  0.9820  0.0068  -7.4304   0.0000   0.0000   0.0000   0.1815
  -9.800  -0.8031   0.02038   0.01530  -0.0484  0.9800  0.0069  -7.2730   0.0000   0.0000   0.0000   0.1805
  -9.700  -0.7924   0.02011   0.01501  -0.0487  0.9779  0.0070  -7.1155   0.0000   0.0000   0.0000   0.1794
  -9.600  -0.7815   0.01983   0.01472  -0.0490  0.9757  0.0071  -6.9584   0.0000   0.0000   0.0000   0.1782
  -9.500  -0.7704   0.01957   0.01443  -0.0494  0.9735  0.0073  -6.8019   0.0000   0.0000   0.0000   0.1769
  -9.400  -0.7592   0.01930   0.01414  -0.0498  0.9712  0.0074  -6.6459   0.0000   0.0000   0.0000   0.1755
  -9.300  -0.7477   0.01906   0.01387  -0.0502  0.9688  0.0076  -6.4902   0.0000   0.0000   0.0000   0.1741
  -9.200  -0.7360   0.01883   0.01363  -0.0507  0.9663  0.0078  -6.3348   0.0000   0.0000   0.0000   0.1725
  -9.100  -0.7240   0.01865   0.01343  -0.0511  0.9636  0.0079  -6.1791   0.0000   0.0000   0.0000   0.1708
  -9.000  -0.7120   0.01851   0.01328  -0.0516  0.9605  0.0081  -6.0236   0.0000   0.0000   0.0000   0.1690
  -8.900  -0.6999   0.01842   0.01318  -0.0521  0.9568  0.0082  -5.8693   0.0000   0.0000   0.0000   0.1672
  -8.800  -0.6881   0.01837   0.01313  -0.0525  0.9523  0.0083  -5.7173   0.0000   0.0000   0.0000   0.1654
  -8.700  -0.6788   0.01835   0.01310  -0.0524  0.9493  0.0083  -5.5821   0.0000   0.0000   0.0000   0.1647
  -8.600  -0.6709   0.01835   0.01310  -0.0519  0.9474  0.0084  -5.4565   0.0000   0.0000   0.0000   0.1646
  -8.500  -0.6707   0.01698   0.01160  -0.0503  0.9442  0.0091  -5.4719   0.0000   0.0000   0.0000   0.1670
  -8.400  -0.6639   0.01677   0.01139  -0.0497  0.9412  0.0093  -5.3697   0.0000   0.0000   0.0000   0.1672
  -8.300  -0.6563   0.01668   0.01132  -0.0492  0.9380  0.0095  -5.2540   0.0000   0.0000   0.0000   0.1672
  -8.200  -0.6481   0.01666   0.01130  -0.0488  0.9346  0.0097  -5.1312   0.0000   0.0000   0.0000   0.1670
  -8.100  -0.6395   0.01667   0.01133  -0.0485  0.9309  0.0098  -5.0048   0.0000   0.0000   0.0000   0.1666
  -8.000  -0.6308   0.01670   0.01137  -0.0482  0.9271  0.0100  -4.8769   0.0000   0.0000   0.0000   0.1662
  -7.900  -0.6221   0.01675   0.01143  -0.0478  0.9230  0.0102  -4.7482   0.0000   0.0000   0.0000   0.1658
  -7.800  -0.6134   0.01682   0.01152  -0.0475  0.9188  0.0104  -4.6175   0.0000   0.0000   0.0000   0.1653
  -7.700  -0.6045   0.01694   0.01165  -0.0472  0.9140  0.0107  -4.4814   0.0000   0.0000   0.0000   0.1648
  -7.600  -0.5949   0.01718   0.01190  -0.0470  0.9086  0.0111  -4.3265   0.0000   0.0000   0.0000   0.1639
  -7.500  -0.5823   0.01851   0.01333  -0.0474  0.9029  0.0123  -4.0074   0.0000   0.0000   0.0000   0.1617
  -7.400  -0.5731   0.01841   0.01322  -0.0472  0.8996  0.0125  -3.9163   0.0000   0.0000   0.0000   0.1608
  -7.300  -0.5640   0.01831   0.01310  -0.0470  0.8982  0.0126  -3.8275   0.0000   0.0000   0.0000   0.1600
  -7.200  -0.5549   0.01821   0.01300  -0.0467  0.8965  0.0128  -3.7393   0.0000   0.0000   0.0000   0.1591
  -7.100  -0.5457   0.01813   0.01290  -0.0465  0.8945  0.0129  -3.6512   0.0000   0.0000   0.0000   0.1582
  -7.000  -0.5364   0.01807   0.01282  -0.0463  0.8923  0.0131  -3.5632   0.0000   0.0000   0.0000   0.1572
  -6.900  -0.5270   0.01802   0.01277  -0.0461  0.8899  0.0132  -3.4746   0.0000   0.0000   0.0000   0.1561
  -6.800  -0.5175   0.01801   0.01274  -0.0459  0.8872  0.0133  -3.3850   0.0000   0.0000   0.0000   0.1550
  -6.700  -0.5080   0.01804   0.01276  -0.0457  0.8842  0.0134  -3.2935   0.0000   0.0000   0.0000   0.1538
  -6.600  -0.4984   0.01813   0.01284  -0.0455  0.8812  0.0135  -3.1977   0.0000   0.0000   0.0000   0.1525
  -6.500  -0.4898   0.01773   0.01239  -0.0451  0.8780  0.0136  -3.1443   0.0000   0.0000   0.0000   0.1516
  -6.400  -0.4827   0.01656   0.01112  -0.0446  0.8748  0.0138  -3.1583   0.0000   0.0000   0.0000   0.1515
  -6.300  -0.4750   0.01574   0.01022  -0.0440  0.8714  0.0140  -3.1477   0.0000   0.0000   0.0000   0.1512
  -6.200  -0.4671   0.01512   0.00952  -0.0435  0.8677  0.0142  -3.1242   0.0000   0.0000   0.0000   0.1507
  -6.100  -0.4591   0.01461   0.00895  -0.0431  0.8636  0.0144  -3.0927   0.0000   0.0000   0.0000   0.1502
  -6.000  -0.4509   0.01418   0.00847  -0.0426  0.8590  0.0146  -3.0557   0.0000   0.0000   0.0000   0.1494
  -5.900  -0.4423   0.01381   0.00805  -0.0423  0.8540  0.0148  -3.0144   0.0000   0.0000   0.0000   0.1484
  -5.800  -0.4334   0.01349   0.00769  -0.0420  0.8501  0.0149  -2.9697   0.0000   0.0000   0.0000   0.1472
  -5.700  -0.4244   0.01318   0.00737  -0.0417  0.8491  0.0151  -2.9225   0.0000   0.0000   0.0000   0.1458
  -5.600  -0.4146   0.01300   0.00716  -0.0416  0.8478  0.0149  -2.8695   0.0000   0.0000   0.0000   0.1439
  -5.500  -0.4058   0.01269   0.00682  -0.0413  0.8462  0.0151  -2.8241   0.0000   0.0000   0.0000   0.1426
  -5.400  -0.3969   0.01240   0.00651  -0.0410  0.8445  0.0154  -2.7763   0.0000   0.0000   0.0000   0.1410
  -5.300  -0.3878   0.01214   0.00623  -0.0407  0.8425  0.0156  -2.7261   0.0000   0.0000   0.0000   0.1393
  -5.200  -0.3785   0.01191   0.00597  -0.0405  0.8403  0.0160  -2.6729   0.0000   0.0000   0.0000   0.1374
  -5.100  -0.3691   0.01170   0.00575  -0.0403  0.8380  0.0163  -2.6156   0.0000   0.0000   0.0000   0.1353
  -5.000  -0.3594   0.01153   0.00557  -0.0401  0.8355  0.0168  -2.5510   0.0000   0.0000   0.0000   0.1328
  -4.900  -0.3435   0.01246   0.00661  -0.0414  0.8332  0.0211  -2.2483   0.0000   0.0000   0.0000   0.1239
  -4.800  -0.3344   0.01214   0.00623  -0.0410  0.8305  0.0211  -2.2193   0.0000   0.0000   0.0000   0.1218
  -4.700  -0.3254   0.01183   0.00588  -0.0407  0.8276  0.0210  -2.1893   0.0000   0.0000   0.0000   0.1195
  -4.600  -0.3164   0.01155   0.00556  -0.0403  0.8247  0.0210  -2.1580   0.0000   0.0000   0.0000   0.1170
  -4.500  -0.3072   0.01128   0.00524  -0.0400  0.8216  0.0210  -2.1258   0.0000   0.0000   0.0000   0.1143
  -4.400  -0.2980   0.01104   0.00495  -0.0397  0.8183  0.0211  -2.0927   0.0000   0.0000   0.0000   0.1113
  -4.300  -0.2886   0.01082   0.00468  -0.0394  0.8146  0.0211  -2.0585   0.0000   0.0000   0.0000   0.1079
  -4.200  -0.2790   0.01062   0.00442  -0.0392  0.8105  0.0212  -2.0233   0.0000   0.0000   0.0000   0.1040
  -4.100  -0.2692   0.01044   0.00419  -0.0391  0.8061  0.0214  -1.9872   0.0000   0.0000   0.0000   0.0994
  -4.000  -0.2590   0.01028   0.00398  -0.0390  0.8016  0.0216  -1.9501   0.0000   0.0000   0.0000   0.0941
  -3.900  -0.2487   0.01011   0.00378  -0.0389  0.7999  0.0219  -1.9122   0.0000   0.0000   0.0000   0.0882
  -3.800  -0.2383   0.00994   0.00359  -0.0388  0.7991  0.0223  -1.8738   0.0000   0.0000   0.0000   0.0816
  -3.700  -0.2278   0.00979   0.00341  -0.0388  0.7980  0.0228  -1.8346   0.0000   0.0000   0.0000   0.0742
  -3.600  -0.2171   0.00966   0.00325  -0.0388  0.7969  0.0234  -1.7943   0.0000   0.0000   0.0000   0.0659
  -3.500  -0.2064   0.00954   0.00312  -0.0388  0.7955  0.0242  -1.7516   0.0000   0.0000   0.0000   0.0565
  -3.400  -0.1955   0.00945   0.00302  -0.0388  0.7940  0.0249  -1.7044   0.0000   0.0000   0.0000   0.0459
  -3.300  -0.1846   0.00938   0.00294  -0.0388  0.7924  0.0256  -1.6518   0.0000   0.0000   0.0000   0.0337
  -3.200  -0.1735   0.00932   0.00290  -0.0389  0.7906  0.0260  -1.5954   0.0000   0.0000   0.0000   0.0199
  -3.100  -0.1632   0.00904   0.00249  -0.0387  0.7887  0.0362  -1.6108   0.0000   0.0000   0.0000   0.0068
  -3.000  -0.1524   0.00892   0.00239  -0.0387  0.7867  0.0432  -1.5647   0.0000   0.0000   0.0000  -0.0101
  -2.900  -0.1417   0.00881   0.00232  -0.0387  0.7844  0.0499  -1.5120   0.0000   0.0000   0.0000  -0.0298
  -2.800  -0.1315   0.00858   0.00222  -0.0387  0.7819  0.0805  -1.4594   0.0000   0.0000   0.0000  -0.0511
  -2.700  -0.1224   0.00816   0.00206  -0.0387  0.7793  0.1469  -1.4090   0.0000   0.0000   0.0000  -0.0734
  -2.600  -0.1131   0.00775   0.00192  -0.0388  0.7766  0.2240  -1.3576   0.0000   0.0000   0.0000  -0.1000
  -2.500  -0.1040   0.00726   0.00175  -0.0388  0.7738  0.3156  -1.3069   0.0000   0.0000   0.0000  -0.1306
  -2.400  -0.0955   0.00666   0.00158  -0.0389  0.7708  0.4333  -1.2574   0.0000   0.0000   0.0000  -0.1647
  -2.300  -0.0861   0.00629   0.00153  -0.0389  0.7677  0.5191  -1.2049   0.0000   0.0000   0.0000  -0.2094
  -2.200  -0.0753   0.00622   0.00151  -0.0389  0.7643  0.5486  -1.1487   0.0000   0.0000   0.0000  -0.2751
  -2.100  -0.0645   0.00614   0.00151  -0.0389  0.7608  0.5715  -1.0931   0.0000   0.0000   0.0000  -0.3628
  -2.000  -0.0534   0.00612   0.00152  -0.0390  0.7570  0.5870  -1.0372   0.0000   0.0000   0.0000  -0.4911
  -1.900  -0.0420   0.00614   0.00153  -0.0391  0.7531  0.5953  -0.9813   0.0000   0.0000   0.0000  -0.6945
  -1.800  -0.0305   0.00616   0.00153  -0.0393  0.7503  0.6005  -0.9257   0.0000   0.0000   0.0000  -1.0549
  -1.700  -0.0195   0.00608   0.00155  -0.0393  0.7497  0.6181  -0.8719   0.0000   0.0000   0.0000  -1.7935
  -1.600  -0.0085   0.00604   0.00157  -0.0393  0.7489  0.6346  -0.8185   0.0000   0.0000   0.0000  -4.4501
  -1.500   0.0029   0.00604   0.00159  -0.0394  0.7481  0.6457  -0.7651   0.0000   0.0000   0.0000  14.1453
  -1.400   0.0142   0.00604   0.00161  -0.0395  0.7471  0.6541  -0.7123   0.0000   0.0000   0.0000   3.0496
  -1.300   0.0252   0.00599   0.00163  -0.0395  0.7460  0.6682  -0.6614   0.0000   0.0000   0.0000   1.8324
  -1.200   0.0363   0.00598   0.00166  -0.0395  0.7448  0.6765  -0.6107   0.0000   0.0000   0.0000   1.3473
  -1.100   0.0475   0.00598   0.00168  -0.0395  0.7435  0.6824  -0.5605   0.0000   0.0000   0.0000   1.0876
  -1.000   0.0589   0.00599   0.00170  -0.0396  0.7420  0.6869  -0.5107   0.0000   0.0000   0.0000   0.9267
  -0.900   0.0703   0.00600   0.00170  -0.0397  0.7405  0.6901  -0.4617   0.0000   0.0000   0.0000   0.8176
  -0.800   0.0818   0.00600   0.00171  -0.0398  0.7390  0.6925  -0.4179   0.0000   0.0000   0.0000   0.7390
  -0.700   0.0933   0.00602   0.00171  -0.0400  0.7373  0.6946  -0.4229   0.0000   0.0000   0.0000   0.6798
  -0.600   0.1047   0.00603   0.00172  -0.0401  0.7356  0.6967  -0.4279   0.0000   0.0000   0.0000   0.6335
  -0.500   0.1162   0.00606   0.00174  -0.0402  0.7338  0.6984  -0.4329   0.0000   0.0000   0.0000   0.5963
  -0.400   0.1276   0.00608   0.00175  -0.0402  0.7319  0.7007  -0.4379   0.0000   0.0000   0.0000   0.5658
  -0.300   0.1387   0.00604   0.00173  -0.0403  0.7299  0.7081  -0.4428   0.0000   0.0000   0.0000   0.5406
  -0.200   0.1498   0.00602   0.00174  -0.0404  0.7277  0.7145  -0.4476   0.0000   0.0000   0.0000   0.5191
  -0.100   0.1609   0.00602   0.00175  -0.0404  0.7254  0.7195  -0.4527   0.0000   0.0000   0.0000   0.5005
   0.000   0.1720   0.00602   0.00177  -0.0404  0.7229  0.7234  -0.4582   0.0000   0.0000   0.0000   0.4842
   0.100   0.1832   0.00603   0.00177  -0.0404  0.7202  0.7263  -0.4637   0.0000   0.0000   0.0000   0.4700
   0.200   0.1944   0.00605   0.00178  -0.0405  0.7173  0.7286  -0.4692   0.0000   0.0000   0.0000   0.4575
   0.300   0.2056   0.00607   0.00180  -0.0406  0.7141  0.7309  -0.4747   0.0000   0.0000   0.0000   0.4463
   0.400   0.2170   0.00610   0.00182  -0.0407  0.7107  0.7330  -0.4802   0.0000   0.0000   0.0000   0.4364
   0.500   0.2283   0.00614   0.00184  -0.0408  0.7069  0.7349  -0.4857   0.0000   0.0000   0.0000   0.4275
   0.600   0.2398   0.00619   0.00188  -0.0410  0.7020  0.7367  -0.4912   0.0000   0.0000   0.0000   0.4195
   0.700   0.2512   0.00619   0.00188  -0.0411  0.6999  0.7384  -0.4968   0.0000   0.0000   0.0000   0.4121
   0.800   0.2626   0.00617   0.00187  -0.0412  0.6988  0.7400  -0.5026   0.0000   0.0000   0.0000   0.4053
   0.900   0.2740   0.00615   0.00185  -0.0413  0.6971  0.7416  -0.5084   0.0000   0.0000   0.0000   0.3990
   1.000   0.2853   0.00613   0.00183  -0.0413  0.6947  0.7430  -0.5143   0.0000   0.0000   0.0000   0.3932
   1.100   0.2966   0.00612   0.00181  -0.0414  0.6912  0.7443  -0.5202   0.0000   0.0000   0.0000   0.3878
   1.200   0.3079   0.00611   0.00179  -0.0415  0.6869  0.7456  -0.5467   0.0000   0.0000   0.0000   0.3828
   1.300   0.3191   0.00611   0.00177  -0.0415  0.6813  0.7466  -0.5998   0.0000   0.0000   0.0000   0.3781
   1.400   0.3302   0.00612   0.00176  -0.0415  0.6752  0.7476  -0.6534   0.0000   0.0000   0.0000   0.3737
   1.500   0.3411   0.00615   0.00174  -0.0415  0.6683  0.7484  -0.7075   0.0000   0.0000   0.0000   0.3696
   1.600   0.3520   0.00620   0.00174  -0.0415  0.6595  0.7492  -0.7621   0.0000   0.0000   0.0000   0.3657
   1.700   0.3630   0.00625   0.00174  -0.0415  0.6502  0.7513  -0.8178   0.0000   0.0000   0.0000   0.3622
   1.800   0.3743   0.00620   0.00172  -0.0416  0.6475  0.7553  -0.8753   0.0000   0.0000   0.0000   0.3589
   1.900   0.3856   0.00617   0.00171  -0.0417  0.6434  0.7591  -0.9333   0.0000   0.0000   0.0000   0.3558
   2.000   0.3966   0.00616   0.00171  -0.0418  0.6374  0.7628  -0.9918   0.0000   0.0000   0.0000   0.3528
   2.100   0.4074   0.00617   0.00171  -0.0417  0.6285  0.7660  -1.0503   0.0000   0.0000   0.0000   0.3499
   2.200   0.4177   0.00622   0.00171  -0.0416  0.6160  0.7690  -1.1084   0.0000   0.0000   0.0000   0.3470
   2.300   0.4278   0.00630   0.00172  -0.0414  0.6003  0.7718  -1.1665   0.0000   0.0000   0.0000   0.3442
   2.400   0.4389   0.00630   0.00174  -0.0415  0.5943  0.7745  -1.2281   0.0000   0.0000   0.0000   0.3418
   2.500   0.4498   0.00633   0.00177  -0.0415  0.5843  0.7772  -1.2897   0.0000   0.0000   0.0000   0.3394
   2.600   0.4604   0.00638   0.00179  -0.0414  0.5730  0.7798  -1.3513   0.0000   0.0000   0.0000   0.3371
   2.700   0.4704   0.00648   0.00182  -0.0413  0.5578  0.7825  -1.4119   0.0000   0.0000   0.0000   0.3348
   2.800   0.4809   0.00655   0.00185  -0.0412  0.5451  0.7850  -1.4745   0.0000   0.0000   0.0000   0.3327
   2.900   0.4911   0.00664   0.00189  -0.0411  0.5236  0.7873  -1.5368   0.0000   0.0000   0.0000   0.3306
   3.000   0.5000   0.00685   0.00195  -0.0408  0.4905  0.7894  -1.5958   0.0000   0.0000   0.0000   0.3284
   3.100   0.5080   0.00716   0.00205  -0.0404  0.4429  0.7915  -1.6522   0.0000   0.0000   0.0000   0.3263
   3.200   0.5145   0.00761   0.00221  -0.0398  0.3758  0.7933  -1.7041   0.0000   0.0000   0.0000   0.3240
   3.300   0.5197   0.00821   0.00246  -0.0390  0.2966  0.7950  -1.7515   0.0000   0.0000   0.0000   0.3217
   3.400   0.5259   0.00869   0.00267  -0.0384  0.2317  0.7965  -1.8022   0.0000   0.0000   0.0000   0.3196
   3.500   0.5328   0.00909   0.00285  -0.0379  0.1805  0.7977  -1.8554   0.0000   0.0000   0.0000   0.3176
   3.600   0.5402   0.00945   0.00302  -0.0375  0.1366  0.7988  -1.9098   0.0000   0.0000   0.0000   0.3157
   3.700   0.5470   0.00984   0.00319  -0.0369  0.0901  0.8005  -1.9620   0.0000   0.0000   0.0000   0.3138
   3.800   0.5535   0.01019   0.00336  -0.0363  0.0587  0.8055  -2.0131   0.0000   0.0000   0.0000   0.3118
   3.900   0.5622   0.01036   0.00348  -0.0360  0.0436  0.8102  -2.0697   0.0000   0.0000   0.0000   0.3101
   4.000   0.5708   0.01053   0.00361  -0.0356  0.0340  0.8144  -2.1195   0.0000   0.0000   0.0000   0.3084
   4.100   0.5795   0.01071   0.00384  -0.0351  0.0232  0.8182  -2.1299   0.0000   0.0000   0.0000   0.3065
   4.200   0.5889   0.01080   0.00395  -0.0348  0.0220  0.8215  -2.1832   0.0000   0.0000   0.0000   0.3050
   4.300   0.5981   0.01091   0.00410  -0.0345  0.0206  0.8247  -2.2285   0.0000   0.0000   0.0000   0.3035
   4.400   0.6072   0.01104   0.00426  -0.0341  0.0196  0.8278  -2.2729   0.0000   0.0000   0.0000   0.3019
   4.500   0.6163   0.01117   0.00442  -0.0337  0.0189  0.8308  -2.3178   0.0000   0.0000   0.0000   0.3004
   4.600   0.6252   0.01131   0.00459  -0.0334  0.0184  0.8338  -2.3631   0.0000   0.0000   0.0000   0.2990
   4.700   0.6341   0.01145   0.00477  -0.0330  0.0180  0.8366  -2.4083   0.0000   0.0000   0.0000   0.2975
   4.800   0.6428   0.01162   0.00496  -0.0325  0.0178  0.8392  -2.4530   0.0000   0.0000   0.0000   0.2961
   4.900   0.6513   0.01179   0.00517  -0.0321  0.0175  0.8416  -2.4971   0.0000   0.0000   0.0000   0.2946
   5.000   0.6597   0.01197   0.00538  -0.0316  0.0174  0.8438  -2.5404   0.0000   0.0000   0.0000   0.2932
   5.100   0.6678   0.01217   0.00561  -0.0311  0.0172  0.8458  -2.5829   0.0000   0.0000   0.0000   0.2918
   5.200   0.6757   0.01237   0.00585  -0.0305  0.0171  0.8475  -2.6245   0.0000   0.0000   0.0000   0.2903
   5.300   0.6833   0.01259   0.00611  -0.0299  0.0171  0.8489  -2.6647   0.0000   0.0000   0.0000   0.2888
   5.400   0.6906   0.01281   0.00637  -0.0292  0.0170  0.8524  -2.7035   0.0000   0.0000   0.0000   0.2873
   5.500   0.6971   0.01302   0.00664  -0.0284  0.0170  0.8584  -2.7402   0.0000   0.0000   0.0000   0.2856
   5.600   0.7031   0.01325   0.00692  -0.0275  0.0170  0.8640  -2.7749   0.0000   0.0000   0.0000   0.2838
   5.700   0.7122   0.01325   0.00706  -0.0272  0.0152  0.8684  -2.9199   0.0000   0.0000   0.0000   0.2829
   5.800   0.7187   0.01341   0.00721  -0.0265  0.0139  0.8728  -3.0001   0.0000   0.0000   0.0000   0.2814
   5.900   0.7238   0.01366   0.00751  -0.0254  0.0135  0.8772  -3.0447   0.0000   0.0000   0.0000   0.2796
   6.000   0.7287   0.01391   0.00781  -0.0243  0.0133  0.8815  -3.0865   0.0000   0.0000   0.0000   0.2777
   6.100   0.7334   0.01419   0.00813  -0.0231  0.0130  0.8856  -3.1264   0.0000   0.0000   0.0000   0.2758
   6.200   0.7381   0.01448   0.00846  -0.0220  0.0129  0.8896  -3.1649   0.0000   0.0000   0.0000   0.2740
   6.300   0.7427   0.01480   0.00882  -0.0209  0.0127  0.8931  -3.2024   0.0000   0.0000   0.0000   0.2722
   6.400   0.7473   0.01513   0.00919  -0.0198  0.0125  0.8960  -3.2389   0.0000   0.0000   0.0000   0.2704
   6.500   0.7524   0.01547   0.00957  -0.0187  0.0124  0.8984  -3.2770   0.0000   0.0000   0.0000   0.2688
   6.600   0.7573   0.01582   0.00996  -0.0177  0.0123  0.9027  -3.3131   0.0000   0.0000   0.0000   0.2672
   6.700   0.7610   0.01615   0.01034  -0.0164  0.0122  0.9108  -3.3454   0.0000   0.0000   0.0000   0.2652
   6.800   0.7638   0.01647   0.01072  -0.0148  0.0122  0.9183  -3.3746   0.0000   0.0000   0.0000   0.2631
   6.900   0.7668   0.01683   0.01113  -0.0133  0.0121  0.9250  -3.4033   0.0000   0.0000   0.0000   0.2609
   7.000   0.7708   0.01725   0.01159  -0.0121  0.0120  0.9312  -3.4325   0.0000   0.0000   0.0000   0.2591
   7.100   0.7764   0.01775   0.01213  -0.0111  0.0119  0.9365  -3.4631   0.0000   0.0000   0.0000   0.2577
   7.200   0.7834   0.01835   0.01278  -0.0105  0.0118  0.9409  -3.4937   0.0000   0.0000   0.0000   0.2566
   7.300   0.7914   0.01906   0.01354  -0.0100  0.0117  0.9444  -3.5221   0.0000   0.0000   0.0000   0.2558
   7.400   0.8004   0.01991   0.01445  -0.0098  0.0116  0.9470  -3.5467   0.0000   0.0000   0.0000   0.2553
   7.500   0.8091   0.02075   0.01534  -0.0094  0.0116  0.9492  -3.5730   0.0000   0.0000   0.0000   0.2547
   7.600   0.8174   0.02076   0.01536  -0.0092  0.0115  0.9572  -3.6606   0.0000   0.0000   0.0000   0.2541
   7.700   0.8275   0.02087   0.01549  -0.0093  0.0115  0.9671  -3.7503   0.0000   0.0000   0.0000   0.2540
   7.800   0.8381   0.02102   0.01567  -0.0095  0.0114  0.9765  -3.8394   0.0000   0.0000   0.0000   0.2540
   7.900   0.8487   0.02122   0.01589  -0.0097  0.0113  0.9850  -3.9275   0.0000   0.0000   0.0000   0.2540
   8.000   0.8589   0.02143   0.01613  -0.0098  0.0113  0.9942  -4.0128   0.0000   0.0000   0.0000   0.2539
   8.100   0.8678   0.02165   0.01637  -0.0097  0.0112  1.0000  -4.0929   0.0000   0.0000   0.0000   0.2535
   8.200   0.8759   0.02188   0.01662  -0.0094  0.0112  1.0000  -4.1692   0.0000   0.0000   0.0000   0.2530
   8.300   0.8837   0.02212   0.01688  -0.0091  0.0111  1.0000  -4.2448   0.0000   0.0000   0.0000   0.2524
   8.400   0.8910   0.02237   0.01715  -0.0086  0.0110  1.0000  -4.3185   0.0000   0.0000   0.0000   0.2517
   8.500   0.8843   0.02105   0.01577  -0.0055  0.0105  1.0000  -4.4943   0.0000   0.0000   0.0000   0.2481
   8.600   0.8882   0.02087   0.01557  -0.0044  0.0102  1.0000  -4.6107   0.0000   0.0000   0.0000   0.2468
   8.700   0.8937   0.02091   0.01561  -0.0037  0.0100  1.0000  -4.7091   0.0000   0.0000   0.0000   0.2458
   8.800   0.8996   0.02103   0.01574  -0.0030  0.0098  1.0000  -4.8011   0.0000   0.0000   0.0000   0.2449
   8.900   0.9053   0.02118   0.01590  -0.0024  0.0096  1.0000  -4.8885   0.0000   0.0000   0.0000   0.2440
   9.000   0.9106   0.02136   0.01608  -0.0016  0.0095  1.0000  -4.9727   0.0000   0.0000   0.0000   0.2431
   9.100   0.9159   0.02155   0.01628  -0.0009  0.0094  1.0000  -5.0554   0.0000   0.0000   0.0000   0.2421
   9.200   0.9210   0.02174   0.01649  -0.0002  0.0092  1.0000  -5.1379   0.0000   0.0000   0.0000   0.2412
   9.300   0.9262   0.02194   0.01670   0.0006  0.0091  1.0000  -5.2214   0.0000   0.0000   0.0000   0.2403
   9.400   0.9314   0.02214   0.01691   0.0013  0.0090  1.0000  -5.3061   0.0000   0.0000   0.0000   0.2394
   9.500   0.9366   0.02233   0.01711   0.0020  0.0089  1.0000  -5.3922   0.0000   0.0000   0.0000   0.2386
   9.600   0.9418   0.02252   0.01731   0.0027  0.0088  1.0000  -5.4795   0.0000   0.0000   0.0000   0.2377
   9.700   0.9470   0.02271   0.01751   0.0034  0.0087  1.0000  -5.5683   0.0000   0.0000   0.0000   0.2369
   9.800   0.9521   0.02290   0.01770   0.0040  0.0086  1.0000  -5.6583   0.0000   0.0000   0.0000   0.2360
   9.900   0.9570   0.02308   0.01789   0.0047  0.0085  1.0000  -5.7490   0.0000   0.0000   0.0000   0.2352
  10.000   0.9613   0.02327   0.01809   0.0055  0.0084  1.0000  -5.8376   0.0000   0.0000   0.0000   0.2343
  10.100   0.9653   0.02346   0.01829   0.0063  0.0083  1.0000  -5.9256   0.0000   0.0000   0.0000   0.2333
  10.200   0.9694   0.02365   0.01848   0.0071  0.0082  1.0000  -6.0150   0.0000   0.0000   0.0000   0.2324
  10.300   0.9736   0.02384   0.01868   0.0078  0.0082  1.0000  -6.1068   0.0000   0.0000   0.0000   0.2315
  10.400   0.9779   0.02403   0.01887   0.0086  0.0081  1.0000  -6.2006   0.0000   0.0000   0.0000   0.2307
  10.500   0.9823   0.02421   0.01905   0.0093  0.0080  1.0000  -6.2959   0.0000   0.0000   0.0000   0.2299
  10.600   0.9867   0.02440   0.01924   0.0099  0.0079  1.0000  -6.3921   0.0000   0.0000   0.0000   0.2291
  10.700   0.9911   0.02460   0.01944   0.0106  0.0078  1.0000  -6.4886   0.0000   0.0000   0.0000   0.2283
  10.800   0.9954   0.02482   0.01966   0.0113  0.0077  1.0000  -6.5843   0.0000   0.0000   0.0000   0.2275
  10.900   0.9991   0.02507   0.01992   0.0120  0.0077  1.0000  -6.6747   0.0000   0.0000   0.0000   0.2267
  11.000   1.0022   0.02537   0.02023   0.0128  0.0076  1.0000  -6.7597   0.0000   0.0000   0.0000   0.2258
  11.100   1.0051   0.02571   0.02058   0.0136  0.0075  1.0000  -6.8409   0.0000   0.0000   0.0000   0.2249
  11.200   1.0079   0.02611   0.02099   0.0143  0.0073  1.0000  -6.9172   0.0000   0.0000   0.0000   0.2240
  11.300   1.0103   0.02662   0.02154   0.0151  0.0072  1.0000  -6.9827   0.0000   0.0000   0.0000   0.2231
  11.400   1.0113   0.02743   0.02240   0.0161  0.0070  1.0000  -7.0178   0.0000   0.0000   0.0000   0.2221
  11.500   1.0064   0.02939   0.02454   0.0175  0.0066  1.0000  -6.9385   0.0000   0.0000   0.0000   0.2205
  11.600   1.0105   0.02959   0.02475   0.0181  0.0066  1.0000  -7.0425   0.0000   0.0000   0.0000   0.2199
  11.700   1.0147   0.02979   0.02497   0.0186  0.0066  1.0000  -7.1473   0.0000   0.0000   0.0000   0.2192
  11.800   1.0188   0.03001   0.02520   0.0192  0.0066  1.0000  -7.2525   0.0000   0.0000   0.0000   0.2186
  11.900   1.0224   0.03026   0.02546   0.0198  0.0065  1.0000  -7.3535   0.0000   0.0000   0.0000   0.2179
  12.000   1.0254   0.03055   0.02576   0.0204  0.0065  1.0000  -7.4497   0.0000   0.0000   0.0000   0.2171
  12.100   1.0283   0.03085   0.02608   0.0211  0.0065  1.0000  -7.5462   0.0000   0.0000   0.0000   0.2164
  12.200   1.0316   0.03115   0.02639   0.0217  0.0064  1.0000  -7.6455   0.0000   0.0000   0.0000   0.2158
  12.300   1.0351   0.03145   0.02671   0.0222  0.0064  1.0000  -7.7468   0.0000   0.0000   0.0000   0.2151
  12.400   1.0386   0.03177   0.02704   0.0227  0.0063  1.0000  -7.8491   0.0000   0.0000   0.0000   0.2145
  12.500   1.0422   0.03210   0.02739   0.0233  0.0063  1.0000  -7.9517   0.0000   0.0000   0.0000   0.2139
  12.600   1.0405   0.03314   0.02859   0.0242  0.0064  1.0000  -7.9094   0.0000   0.0000   0.0000   0.2129
  12.700   1.0419   0.03374   0.02924   0.0248  0.0064  1.0000  -7.9591   0.0000   0.0000   0.0000   0.2121
  12.800   1.0436   0.03423   0.02976   0.0254  0.0063  1.0000  -8.0324   0.0000   0.0000   0.0000   0.2115
  12.900   1.0450   0.03472   0.03028   0.0260  0.0063  1.0000  -8.1104   0.0000   0.0000   0.0000   0.2107
  13.000   1.0468   0.03518   0.03076   0.0265  0.0062  1.0000  -8.1953   0.0000   0.0000   0.0000   0.2101
  13.100   1.0490   0.03563   0.03124   0.0270  0.0062  1.0000  -8.2868   0.0000   0.0000   0.0000   0.2095
  13.200   1.0515   0.03608   0.03170   0.0275  0.0061  1.0000  -8.3825   0.0000   0.0000   0.0000   0.2089
  13.300   1.0541   0.03653   0.03218   0.0279  0.0060  1.0000  -8.4804   0.0000   0.0000   0.0000   0.2084
  13.400   1.0566   0.03700   0.03267   0.0283  0.0060  1.0000  -8.5791   0.0000   0.0000   0.0000   0.2079
  13.500   1.0590   0.03749   0.03318   0.0287  0.0059  1.0000  -8.6773   0.0000   0.0000   0.0000   0.2074
  13.600   1.0610   0.03801   0.03373   0.0292  0.0058  1.0000  -8.7726   0.0000   0.0000   0.0000   0.2068
  13.700   1.0616   0.03862   0.03437   0.0296  0.0058  1.0000  -8.8555   0.0000   0.0000   0.0000   0.2062
  13.800   1.0622   0.03925   0.03502   0.0301  0.0057  1.0000  -8.9384   0.0000   0.0000   0.0000   0.2057
  13.900   1.0633   0.03986   0.03566   0.0304  0.0056  1.0000  -9.0274   0.0000   0.0000   0.0000   0.2051
  14.000   1.0647   0.04046   0.03628   0.0308  0.0055  1.0000  -9.1208   0.0000   0.0000   0.0000   0.2046
  14.100   1.0663   0.04106   0.03690   0.0311  0.0055  1.0000  -9.2167   0.0000   0.0000   0.0000   0.2042
  14.200   1.0680   0.04167   0.03753   0.0314  0.0054  1.0000  -9.3139   0.0000   0.0000   0.0000   0.2038
  14.300   1.0697   0.04228   0.03816   0.0317  0.0053  1.0000  -9.4115   0.0000   0.0000   0.0000   0.2034
  14.400   1.0710   0.04292   0.03883   0.0320  0.0053  1.0000  -9.5062   0.0000   0.0000   0.0000   0.2029
  14.500   1.0707   0.04370   0.03962   0.0322  0.0052  1.0000  -9.5836   0.0000   0.0000   0.0000   0.2025
  14.600   1.0705   0.04447   0.04042   0.0325  0.0052  1.0000  -9.6627   0.0000   0.0000   0.0000   0.2020
  14.700   1.0712   0.04520   0.04117   0.0327  0.0051  1.0000  -9.7511   0.0000   0.0000   0.0000   0.2017
  14.800   1.0723   0.04591   0.04189   0.0328  0.0051  1.0000  -9.8450   0.0000   0.0000   0.0000   0.2013
  14.900   1.0737   0.04661   0.04261   0.0330  0.0051  1.0000  -9.9418   0.0000   0.0000   0.0000   0.2010
  15.000   1.0751   0.04731   0.04333   0.0331  0.0050  1.0000  -10.0392   0.0000   0.0000   0.0000   0.2008
  15.100   1.0764   0.04803   0.04406   0.0332  0.0050  1.0000  -10.1357   0.0000   0.0000   0.0000   0.2005
  15.200   1.0766   0.04885   0.04491   0.0332  0.0049  1.0000  -10.2196   0.0000   0.0000   0.0000   0.2002
  15.300   1.0751   0.04985   0.04593   0.0333  0.0049  1.0000  -10.2830   0.0000   0.0000   0.0000   0.1999
  15.400   1.0748   0.05078   0.04689   0.0333  0.0049  1.0000  -10.3590   0.0000   0.0000   0.0000   0.1997
  15.500   1.0751   0.05167   0.04779   0.0332  0.0049  1.0000  -10.4436   0.0000   0.0000   0.0000   0.1995
  15.600   1.0758   0.05255   0.04870   0.0332  0.0048  1.0000  -10.5308   0.0000   0.0000   0.0000   0.1994
  15.700   1.0763   0.05346   0.04963   0.0331  0.0048  1.0000  -10.6166   0.0000   0.0000   0.0000   0.1992
  15.800   1.0765   0.05443   0.05061   0.0330  0.0048  1.0000  -10.6982   0.0000   0.0000   0.0000   0.1991
  15.900   1.0755   0.05554   0.05176   0.0329  0.0047  1.0000  -10.7639   0.0000   0.0000   0.0000   0.1990
  16.000   1.0721   0.05697   0.05322   0.0326  0.0047  1.0000  -10.7974   0.0000   0.0000   0.0000   0.1989
  16.100   1.0700   0.05829   0.05457   0.0323  0.0047  1.0000  -10.8462   0.0000   0.0000   0.0000   0.1989
  16.200   1.0683   0.05958   0.05589   0.0320  0.0047  1.0000  -10.9001   0.0000   0.0000   0.0000   0.1989
  16.300   1.0665   0.06092   0.05727   0.0317  0.0047  1.0000  -10.9499   0.0000   0.0000   0.0000   0.1990
  16.400   1.0642   0.06238   0.05877   0.0313  0.0046  1.0000  -10.9911   0.0000   0.0000   0.0000   0.1991
  16.500   1.0591   0.06422   0.06066   0.0306  0.0046  1.0000  -10.9947   0.0000   0.0000   0.0000   0.1993
  16.600   1.0536   0.06617   0.06266   0.0299  0.0046  1.0000  -10.9896   0.0000   0.0000   0.0000   0.1995
  16.700   1.0492   0.06804   0.06458   0.0292  0.0046  1.0000  -10.9961   0.0000   0.0000   0.0000   0.1998
  16.800   1.0446   0.06998   0.06657   0.0285  0.0046  1.0000  -10.9978   0.0000   0.0000   0.0000   0.2002
  16.900   1.0379   0.07230   0.06896   0.0274  0.0046  1.0000  -10.9672   0.0000   0.0000   0.0000   0.2008
  17.000   1.0306   0.07480   0.07151   0.0262  0.0045  1.0000  -10.9234   0.0000   0.0000   0.0000   0.2016
  17.100   1.0243   0.07719   0.07396   0.0251  0.0045  1.0000  -10.8907   0.0000   0.0000   0.0000   0.2023
  17.200   1.0171   0.07985   0.07669   0.0237  0.0045  1.0000  -10.8393   0.0000   0.0000   0.0000   0.2032
  17.300   1.0081   0.08293   0.07984   0.0220  0.0045  1.0000  -10.7545   0.0000   0.0000   0.0000   0.2045
  17.400   1.0003   0.08582   0.08280   0.0203  0.0045  1.0000  -10.6844   0.0000   0.0000   0.0000   0.2058
  17.500   0.9898   0.08944   0.08650   0.0182  0.0045  1.0000  -10.5616   0.0000   0.0000   0.0000   0.2075
  17.600   0.9800   0.09303   0.09016   0.0161  0.0046  1.0000  -10.4422   0.0000   0.0000   0.0000   0.2093
  17.700   0.9658   0.09773   0.09496   0.0132  0.0046  1.0000  -10.2354   0.0000   0.0000   0.0000   0.2119
  17.800   0.9496   0.10303   0.10038   0.0100  0.0046  1.0000  -9.9766   0.0000   0.0000   0.0000   0.2149


