xflr5 v6.61

 Calculated polar for: NACA65413a=0.8

 1 1 Reynolds number fixed          Mach number fixed         

 xtrf =   1.000 (top)        1.000 (bottom)
 Mach =   0.000     Re =     0.200 e 6     Ncrit =   9.000

  alpha     CL        CD       CDp       Cm    Top Xtr Bot Xtr   Cpmin    Chinge    XCp    
 ------- -------- --------- --------- -------- ------- ------- -------- --------- ---------
 -10.000  -0.4540   0.09423   0.09098  -0.0505  0.9992  0.0566  -2.2305   0.0000   0.0000   0.0000   0.1272
  -9.900  -0.4469   0.09294   0.08968  -0.0512  0.9982  0.0570  -2.1776   0.0000   0.0000   0.0000   0.1239
  -9.800  -0.4403   0.09151   0.08824  -0.0523  0.9972  0.0574  -2.1344   0.0000   0.0000   0.0000   0.1198
  -9.600  -0.4289   0.08830   0.08502  -0.0552  0.9947  0.0584  -2.0732   0.0000   0.0000   0.0000   0.1098
  -9.500  -0.4237   0.08655   0.08327  -0.0570  0.9933  0.0589  -2.0512   0.0000   0.0000   0.0000   0.1040
  -9.400  -0.4188   0.08463   0.08134  -0.0591  0.9919  0.0595  -2.0364   0.0000   0.0000   0.0000   0.0974
  -9.300  -0.4141   0.08250   0.07920  -0.0617  0.9907  0.0601  -2.0294   0.0000   0.0000   0.0000   0.0895
  -9.200  -0.4112   0.08021   0.07691  -0.0645  0.9886  0.0607  -2.0342   0.0000   0.0000   0.0000   0.0819
  -9.100  -0.4092   0.07746   0.07416  -0.0681  0.9864  0.0614  -2.0548   0.0000   0.0000   0.0000   0.0724
  -9.000  -0.4088   0.07396   0.07065  -0.0732  0.9843  0.0620  -2.1005   0.0000   0.0000   0.0000   0.0598
  -8.900  -0.4108   0.07089   0.06754  -0.0777  0.9811  0.0625  -2.1470   0.0000   0.0000   0.0000   0.0499
  -8.800  -0.4137   0.06816   0.06477  -0.0818  0.9773  0.0630  -2.1897   0.0000   0.0000   0.0000   0.0417
  -8.700  -0.4140   0.06548   0.06200  -0.0861  0.9745  0.0637  -2.2236   0.0000   0.0000   0.0000   0.0317
  -8.600  -0.4160   0.06348   0.05994  -0.0880  0.9699  0.0645  -2.2477   0.0000   0.0000   0.0000   0.0281
  -8.500  -0.4149   0.06135   0.05770  -0.0907  0.9668  0.0658  -2.2717   0.0000   0.0000   0.0000   0.0212
  -8.400  -0.4170   0.06093   0.05684  -0.0947  0.9625  0.0691  -2.3636   0.0000   0.0000   0.0000   0.0129
  -8.300  -0.4175   0.06094   0.05668  -0.0945  0.9576  0.0695  -2.3620   0.0000   0.0000   0.0000   0.0139
  -8.100  -0.4201   0.05365   0.04914  -0.0977  0.9533  0.0712  -2.4334   0.0000   0.0000   0.0000   0.0078
  -8.000  -0.4087   0.05153   0.04711  -0.0988  0.9527  0.0720  -2.3614   0.0000   0.0000   0.0000  -0.0015
  -7.900  -0.3976   0.05003   0.04564  -0.0998  0.9520  0.0727  -2.2908   0.0000   0.0000   0.0000  -0.0110
  -7.800  -0.3916   0.04903   0.04463  -0.0998  0.9494  0.0734  -2.2395   0.0000   0.0000   0.0000  -0.0149
  -7.700  -0.3880   0.04820   0.04379  -0.0994  0.9458  0.0741  -2.1976   0.0000   0.0000   0.0000  -0.0160
  -7.600  -0.3802   0.04720   0.04277  -0.0998  0.9437  0.0750  -2.1439   0.0000   0.0000   0.0000  -0.0223
  -7.500  -0.3715   0.04618   0.04171  -0.1003  0.9419  0.0762  -2.0901   0.0000   0.0000   0.0000  -0.0300
  -7.400  -0.3624   0.04514   0.04060  -0.1010  0.9403  0.0776  -2.0372   0.0000   0.0000   0.0000  -0.0388
  -7.300  -0.3529   0.04411   0.03941  -0.1018  0.9389  0.0795  -1.9877   0.0000   0.0000   0.0000  -0.0486
  -7.200  -0.3431   0.04336   0.03848  -0.1025  0.9375  0.0824  -1.9509   0.0000   0.0000   0.0000  -0.0590
  -7.100  -0.3421   0.04750   0.04222  -0.0994  0.9300  0.0864  -1.9193   0.0000   0.0000   0.0000  -0.0506
  -7.000  -0.3473   0.04175   0.03644  -0.1001  0.9273  0.0888  -1.9652   0.0000   0.0000   0.0000  -0.0483
  -6.900  -0.3369   0.04027   0.03502  -0.1007  0.9260  0.0899  -1.9252   0.0000   0.0000   0.0000  -0.0590
  -6.800  -0.3265   0.03917   0.03393  -0.1012  0.9247  0.0911  -1.8860   0.0000   0.0000   0.0000  -0.0702
  -6.700  -0.3160   0.03824   0.03299  -0.1016  0.9234  0.0927  -1.8492   0.0000   0.0000   0.0000  -0.0819
  -6.500  -0.3056   0.03243   0.02607  -0.0975  0.9155  0.0521  -2.2379   0.0000   0.0000   0.0000  -0.0799
  -6.400  -0.2990   0.03061   0.02412  -0.0971  0.9130  0.0493  -2.2623   0.0000   0.0000   0.0000  -0.0857
  -6.300  -0.2907   0.02806   0.02095  -0.0958  0.9109  0.0427  -2.4460   0.0000   0.0000   0.0000  -0.0910
  -6.200  -0.2789   0.02764   0.02038  -0.0957  0.9094  0.0420  -2.4300   0.0000   0.0000   0.0000  -0.1050
  -6.100  -0.2671   0.02713   0.01977  -0.0958  0.9082  0.0417  -2.4053   0.0000   0.0000   0.0000  -0.1206
  -6.000  -0.2556   0.02647   0.01901  -0.0959  0.9070  0.0415  -2.3844   0.0000   0.0000   0.0000  -0.1373
  -5.900  -0.2443   0.02562   0.01805  -0.0959  0.9060  0.0416  -2.3715   0.0000   0.0000   0.0000  -0.1551
  -5.800  -0.2391   0.02492   0.01728  -0.0950  0.9024  0.0418  -2.3680   0.0000   0.0000   0.0000  -0.1599
  -5.700  -0.2321   0.02407   0.01636  -0.0943  0.8993  0.0422  -2.3636   0.0000   0.0000   0.0000  -0.1692
  -5.600  -0.2230   0.02326   0.01550  -0.0941  0.8971  0.0430  -2.3462   0.0000   0.0000   0.0000  -0.1848
  -5.500  -0.2131   0.02267   0.01490  -0.0939  0.8952  0.0439  -2.3125   0.0000   0.0000   0.0000  -0.2042
  -5.400  -0.2025   0.02222   0.01444  -0.0939  0.8935  0.0449  -2.2703   0.0000   0.0000   0.0000  -0.2274
  -5.300  -0.1915   0.02184   0.01404  -0.0939  0.8920  0.0460  -2.2253   0.0000   0.0000   0.0000  -0.2546
  -5.200  -0.1803   0.02148   0.01365  -0.0939  0.8907  0.0470  -2.1797   0.0000   0.0000   0.0000  -0.2858
  -5.100  -0.1689   0.02112   0.01327  -0.0939  0.8896  0.0479  -2.1328   0.0000   0.0000   0.0000  -0.3215
  -5.000  -0.1576   0.02078   0.01290  -0.0939  0.8885  0.0487  -2.0852   0.0000   0.0000   0.0000  -0.3622
  -4.900  -0.1462   0.02046   0.01254  -0.0939  0.8875  0.0495  -2.0368   0.0000   0.0000   0.0000  -0.4090
  -4.800  -0.1416   0.02034   0.01242  -0.0929  0.8829  0.0499  -2.0036   0.0000   0.0000   0.0000  -0.4234
  -4.700  -0.1331   0.02010   0.01216  -0.0925  0.8801  0.0505  -1.9607   0.0000   0.0000   0.0000  -0.4626
  -4.600  -0.1235   0.01983   0.01187  -0.0922  0.8778  0.0511  -1.9146   0.0000   0.0000   0.0000  -0.5151
  -4.500  -0.1133   0.01960   0.01162  -0.0920  0.8758  0.0520  -1.8628   0.0000   0.0000   0.0000  -0.5823
  -4.400  -0.1024   0.01945   0.01144  -0.0919  0.8741  0.0533  -1.8046   0.0000   0.0000   0.0000  -0.6698
  -4.300  -0.0909   0.01938   0.01133  -0.0919  0.8726  0.0544  -1.7426   0.0000   0.0000   0.0000  -0.7848
  -4.200  -0.0814   0.01878   0.01074  -0.0916  0.8713  0.0559  -1.7010   0.0000   0.0000   0.0000  -0.9011
  -4.100  -0.0716   0.01832   0.01023  -0.0914  0.8700  0.0572  -1.6508   0.0000   0.0000   0.0000  -1.0549
  -4.000  -0.0614   0.01799   0.00990  -0.0913  0.8689  0.0585  -1.6010   0.0000   0.0000   0.0000  -1.2680
  -3.900  -0.0532   0.01780   0.00972  -0.0908  0.8665  0.0595  -1.5570   0.0000   0.0000   0.0000  -1.4931
  -3.800  -0.0468   0.01768   0.00961  -0.0902  0.8627  0.0603  -1.5186   0.0000   0.0000   0.0000  -1.7178
  -3.700  -0.0384   0.01750   0.00943  -0.0898  0.8600  0.0613  -1.4755   0.0000   0.0000   0.0000  -2.1359
  -3.600  -0.0292   0.01730   0.00922  -0.0895  0.8577  0.0626  -1.4310   0.0000   0.0000   0.0000  -2.8747
  -3.500  -0.0194   0.01709   0.00900  -0.0893  0.8559  0.0644  -1.3859   0.0000   0.0000   0.0000  -4.4391
  -3.400  -0.0092   0.01689   0.00877  -0.0892  0.8542  0.0668  -1.3410   0.0000   0.0000   0.0000  -9.6672
  -3.300   0.0015   0.01670   0.00854  -0.0890  0.8528  0.0696  -1.2981   0.0000   0.0000   0.0000  59.0282
  -3.200   0.0113   0.01630   0.00816  -0.0889  0.8515  0.0781  -1.2921   0.0000   0.0000   0.0000   8.2404
  -3.100   0.0212   0.01585   0.00782  -0.0887  0.8503  0.1026  -1.2935   0.0000   0.0000   0.0000   4.5086
  -3.000   0.0198   0.01384   0.00744  -0.0878  0.8487  0.4663  -1.3077   0.0000   0.0000   0.0000   4.7536
  -2.900   0.0269   0.01368   0.00772  -0.0866  0.8477  0.5943  -1.2847   0.0000   0.0000   0.0000   3.5229
  -2.800   0.0333   0.01386   0.00796  -0.0857  0.8441  0.6216  -1.2553   0.0000   0.0000   0.0000   2.8672
  -2.700   0.0414   0.01401   0.00811  -0.0852  0.8411  0.6411  -1.2201   0.0000   0.0000   0.0000   2.3402
  -2.600   0.0501   0.01411   0.00826  -0.0845  0.8387  0.6545  -1.1818   0.0000   0.0000   0.0000   1.9625
  -2.500   0.0600   0.01423   0.00833  -0.0842  0.8366  0.6704  -1.1405   0.0000   0.0000   0.0000   1.6735
  -2.400   0.0692   0.01433   0.00850  -0.0835  0.8349  0.6831  -1.0994   0.0000   0.0000   0.0000   1.4733
  -2.300   0.0794   0.01447   0.00860  -0.0830  0.8333  0.6983  -1.0562   0.0000   0.0000   0.0000   1.3099
  -2.200   0.0883   0.01458   0.00880  -0.0820  0.8319  0.7104  -1.0145   0.0000   0.0000   0.0000   1.1905
  -2.100   0.0983   0.01476   0.00894  -0.0814  0.8306  0.7258  -0.9711   0.0000   0.0000   0.0000   1.0879
  -2.000   0.1062   0.01490   0.00918  -0.0799  0.8294  0.7383  -0.9305   0.0000   0.0000   0.0000   1.0109
  -1.900   0.1157   0.01508   0.00934  -0.0790  0.8283  0.7528  -0.8879   0.0000   0.0000   0.0000   0.9408
  -1.800   0.1237   0.01516   0.00948  -0.0775  0.8272  0.7618  -0.8474   0.0000   0.0000   0.0000   0.8841
  -1.700   0.1336   0.01523   0.00951  -0.0768  0.8262  0.7701  -0.7986   0.0000   0.0000   0.0000   0.8314
  -1.600   0.1428   0.01534   0.00959  -0.0766  0.8238  0.7758  -0.7601   0.0000   0.0000   0.0000   0.7922
  -1.500   0.1496   0.01542   0.00967  -0.0760  0.8202  0.7790  -0.7264   0.0000   0.0000   0.0000   0.7631
  -1.400   0.1581   0.01544   0.00970  -0.0756  0.8176  0.7814  -0.6895   0.0000   0.0000   0.0000   0.7323
  -1.300   0.1676   0.01545   0.00970  -0.0753  0.8154  0.7839  -0.6510   0.0000   0.0000   0.0000   0.7029
  -1.200   0.1778   0.01544   0.00967  -0.0751  0.8136  0.7865  -0.6115   0.0000   0.0000   0.0000   0.6757
  -1.100   0.1886   0.01541   0.00962  -0.0751  0.8121  0.7890  -0.5714   0.0000   0.0000   0.0000   0.6509
  -1.000   0.1999   0.01537   0.00956  -0.0751  0.8107  0.7915  -0.5398   0.0000   0.0000   0.0000   0.6283
  -0.900   0.2115   0.01533   0.00948  -0.0753  0.8094  0.7940  -0.5453   0.0000   0.0000   0.0000   0.6079
  -0.800   0.2235   0.01528   0.00940  -0.0755  0.8082  0.7963  -0.5509   0.0000   0.0000   0.0000   0.5896
  -0.700   0.2358   0.01522   0.00931  -0.0758  0.8072  0.7985  -0.5567   0.0000   0.0000   0.0000   0.5729
  -0.600   0.2482   0.01518   0.00923  -0.0762  0.8062  0.8006  -0.5627   0.0000   0.0000   0.0000   0.5579
  -0.500   0.2600   0.01510   0.00913  -0.0763  0.8052  0.8024  -0.5683   0.0000   0.0000   0.0000   0.5442
  -0.400   0.2713   0.01502   0.00905  -0.0762  0.8043  0.8043  -0.5738   0.0000   0.0000   0.0000   0.5316
  -0.300   0.2827   0.01497   0.00899  -0.0762  0.8034  0.8064  -0.5794   0.0000   0.0000   0.0000   0.5199
  -0.200   0.2939   0.01496   0.00897  -0.0762  0.8023  0.8086  -0.5847   0.0000   0.0000   0.0000   0.5094
  -0.100   0.2997   0.01515   0.00919  -0.0756  0.7985  0.8112  -0.5863   0.0000   0.0000   0.0000   0.5023
   0.000   0.3081   0.01524   0.00928  -0.0753  0.7956  0.8137  -0.5899   0.0000   0.0000   0.0000   0.4944
   0.100   0.3179   0.01526   0.00931  -0.0752  0.7932  0.8161  -0.5945   0.0000   0.0000   0.0000   0.4864
   0.200   0.3286   0.01526   0.00930  -0.0753  0.7912  0.8185  -0.5997   0.0000   0.0000   0.0000   0.4787
   0.300   0.3400   0.01524   0.00926  -0.0754  0.7894  0.8208  -0.6053   0.0000   0.0000   0.0000   0.4713
   0.400   0.3518   0.01521   0.00921  -0.0757  0.7879  0.8231  -0.6113   0.0000   0.0000   0.0000   0.4644
   0.500   0.3634   0.01516   0.00916  -0.0759  0.7866  0.8251  -0.6171   0.0000   0.0000   0.0000   0.4578
   0.600   0.3745   0.01511   0.00910  -0.0758  0.7854  0.8270  -0.6228   0.0000   0.0000   0.0000   0.4514
   0.700   0.3857   0.01505   0.00905  -0.0758  0.7842  0.8290  -0.6285   0.0000   0.0000   0.0000   0.4454
   0.800   0.3970   0.01501   0.00901  -0.0758  0.7832  0.8313  -0.6344   0.0000   0.0000   0.0000   0.4396
   0.900   0.4084   0.01497   0.00897  -0.0758  0.7822  0.8338  -0.6403   0.0000   0.0000   0.0000   0.4342
   1.000   0.4200   0.01494   0.00893  -0.0759  0.7812  0.8365  -0.6462   0.0000   0.0000   0.0000   0.4291
   1.100   0.4319   0.01491   0.00890  -0.0760  0.7803  0.8393  -0.6524   0.0000   0.0000   0.0000   0.4243
   1.200   0.4440   0.01490   0.00888  -0.0762  0.7794  0.8421  -0.6586   0.0000   0.0000   0.0000   0.4199
   1.300   0.4563   0.01491   0.00888  -0.0765  0.7784  0.8448  -0.6648   0.0000   0.0000   0.0000   0.4158
   1.400   0.4625   0.01513   0.00914  -0.0761  0.7754  0.8476  -0.6663   0.0000   0.0000   0.0000   0.4125
   1.500   0.4693   0.01527   0.00932  -0.0755  0.7723  0.8501  -0.6687   0.0000   0.0000   0.0000   0.4088
   1.600   0.4776   0.01535   0.00943  -0.0751  0.7697  0.8527  -0.6727   0.0000   0.0000   0.0000   0.4051
   1.700   0.4871   0.01538   0.00948  -0.0749  0.7675  0.8554  -0.6776   0.0000   0.0000   0.0000   0.4015
   1.800   0.4975   0.01538   0.00950  -0.0748  0.7656  0.8583  -0.6832   0.0000   0.0000   0.0000   0.3981
   1.900   0.5084   0.01537   0.00950  -0.0749  0.7639  0.8613  -0.6891   0.0000   0.0000   0.0000   0.3948
   2.000   0.5198   0.01536   0.00950  -0.0750  0.7625  0.8643  -0.6953   0.0000   0.0000   0.0000   0.3917
   2.100   0.5315   0.01536   0.00955  -0.0752  0.7612  0.8673  -0.7016   0.0000   0.0000   0.0000   0.3888
   2.200   0.5422   0.01533   0.00953  -0.0751  0.7600  0.8698  -0.7084   0.0000   0.0000   0.0000   0.3857
   2.300   0.5531   0.01530   0.00952  -0.0750  0.7589  0.8726  -0.7154   0.0000   0.0000   0.0000   0.3827
   2.400   0.5641   0.01527   0.00951  -0.0749  0.7578  0.8758  -0.7231   0.0000   0.0000   0.0000   0.3798
   2.500   0.5755   0.01525   0.00950  -0.0749  0.7567  0.8794  -0.7310   0.0000   0.0000   0.0000   0.3771
   2.600   0.5873   0.01522   0.00948  -0.0750  0.7557  0.8831  -0.7392   0.0000   0.0000   0.0000   0.3745
   2.700   0.5996   0.01520   0.00947  -0.0752  0.7547  0.8869  -0.7723   0.0000   0.0000   0.0000   0.3722
   2.800   0.6108   0.01517   0.00946  -0.0751  0.7536  0.8901  -0.8142   0.0000   0.0000   0.0000   0.3696
   2.900   0.6169   0.01535   0.00969  -0.0743  0.7510  0.8945  -0.8460   0.0000   0.0000   0.0000   0.3671
   3.000   0.6219   0.01556   0.00996  -0.0736  0.7475  0.8997  -0.8757   0.0000   0.0000   0.0000   0.3647
   3.100   0.6297   0.01568   0.01012  -0.0732  0.7446  0.9048  -0.9112   0.0000   0.0000   0.0000   0.3626
   3.200   0.6382   0.01572   0.01021  -0.0727  0.7421  0.9090  -0.9489   0.0000   0.0000   0.0000   0.3602
   3.300   0.6481   0.01571   0.01022  -0.0725  0.7399  0.9137  -0.9899   0.0000   0.0000   0.0000   0.3580
   3.400   0.6592   0.01565   0.01019  -0.0724  0.7380  0.9187  -1.0337   0.0000   0.0000   0.0000   0.3559
   3.500   0.6710   0.01557   0.01013  -0.0724  0.7362  0.9236  -1.0795   0.0000   0.0000   0.0000   0.3539
   3.600   0.6834   0.01546   0.01006  -0.0725  0.7346  0.9284  -1.1271   0.0000   0.0000   0.0000   0.3520
   3.700   0.6962   0.01536   0.00998  -0.0727  0.7331  0.9339  -1.1759   0.0000   0.0000   0.0000   0.3502
   3.800   0.7098   0.01525   0.00990  -0.0730  0.7316  0.9393  -1.2271   0.0000   0.0000   0.0000   0.3486
   3.900   0.7249   0.01513   0.00980  -0.0736  0.7302  0.9443  -1.2818   0.0000   0.0000   0.0000   0.3472
   4.000   0.7404   0.01501   0.00969  -0.0743  0.7287  0.9498  -1.3381   0.0000   0.0000   0.0000   0.3459
   4.100   0.7570   0.01493   0.00961  -0.0752  0.7269  0.9546  -1.3973   0.0000   0.0000   0.0000   0.3448
   4.200   0.7679   0.01507   0.00985  -0.0757  0.7227  0.9642  -1.4433   0.0000   0.0000   0.0000   0.3439
   4.300   0.7826   0.01503   0.00995  -0.0765  0.7178  0.9727  -1.5096   0.0000   0.0000   0.0000   0.3431
   4.400   0.8001   0.01467   0.00962  -0.0775  0.7124  0.9798  -1.5914   0.0000   0.0000   0.0000   0.3420
   4.500   0.8211   0.01378   0.00865  -0.0781  0.7046  0.9826  -1.6867   0.0000   0.0000   0.0000   0.3402
   4.600   0.8377   0.01325   0.00809  -0.0786  0.6929  0.9921  -1.7691   0.0000   0.0000   0.0000   0.3387
   4.700   0.8519   0.01272   0.00751  -0.0786  0.6800  1.0000  -1.8451   0.0000   0.0000   0.0000   0.3371
   4.800   0.8646   0.01240   0.00710  -0.0785  0.6702  1.0000  -1.9166   0.0000   0.0000   0.0000   0.3355
   4.900   0.8714   0.01236   0.00711  -0.0779  0.6616  1.0000  -1.9689   0.0000   0.0000   0.0000   0.3340
   5.000   0.8816   0.01228   0.00702  -0.0778  0.6539  1.0000  -2.0320   0.0000   0.0000   0.0000   0.3327
   5.100   0.8939   0.01218   0.00689  -0.0779  0.6474  1.0000  -2.1021   0.0000   0.0000   0.0000   0.3315
   5.200   0.9047   0.01216   0.00687  -0.0779  0.6406  1.0000  -2.1678   0.0000   0.0000   0.0000   0.3304
   5.300   0.9133   0.01218   0.00694  -0.0776  0.6323  1.0000  -2.2264   0.0000   0.0000   0.0000   0.3291
   5.400   0.9235   0.01214   0.00689  -0.0773  0.6227  1.0000  -2.2913   0.0000   0.0000   0.0000   0.3278
   5.500   0.9344   0.01210   0.00680  -0.0772  0.6126  1.0000  -2.3582   0.0000   0.0000   0.0000   0.3265
   5.600   0.9423   0.01213   0.00687  -0.0767  0.5998  1.0000  -2.4154   0.0000   0.0000   0.0000   0.3252
   5.700   0.9515   0.01213   0.00678  -0.0762  0.5838  1.0000  -2.4773   0.0000   0.0000   0.0000   0.3237
   5.800   0.9583   0.01218   0.00680  -0.0753  0.5606  1.0000  -2.5305   0.0000   0.0000   0.0000   0.3222
   5.900   0.9633   0.01231   0.00676  -0.0741  0.5238  1.0000  -2.5776   0.0000   0.0000   0.0000   0.3203
   6.000   0.9626   0.01272   0.00680  -0.0719  0.4573  1.0000  -2.6071   0.0000   0.0000   0.0000   0.3180
   6.100   0.9556   0.01351   0.00710  -0.0690  0.3820  1.0000  -2.6175   0.0000   0.0000   0.0000   0.3154
   6.200   0.9473   0.01444   0.00759  -0.0661  0.3165  1.0000  -2.6226   0.0000   0.0000   0.0000   0.3128
   6.300   0.9389   0.01541   0.00815  -0.0632  0.2509  1.0000  -2.6257   0.0000   0.0000   0.0000   0.3102
   6.400   0.9300   0.01635   0.00871  -0.0603  0.1907  1.0000  -2.6266   0.0000   0.0000   0.0000   0.3077
   6.500   0.9216   0.01734   0.00932  -0.0576  0.1353  1.0000  -2.6268   0.0000   0.0000   0.0000   0.3052
   6.600   0.9158   0.01829   0.00994  -0.0554  0.0959  1.0000  -2.6305   0.0000   0.0000   0.0000   0.3030
   6.700   0.9149   0.01900   0.01050  -0.0538  0.0783  1.0000  -2.6451   0.0000   0.0000   0.0000   0.3012
   6.800   0.9171   0.01954   0.01097  -0.0526  0.0698  1.0000  -2.6725   0.0000   0.0000   0.0000   0.2997
   6.900   0.9192   0.02009   0.01148  -0.0515  0.0642  1.0000  -2.6972   0.0000   0.0000   0.0000   0.2982
   7.000   0.9243   0.02046   0.01188  -0.0507  0.0611  1.0000  -2.7342   0.0000   0.0000   0.0000   0.2969
   7.100   0.9290   0.02086   0.01229  -0.0499  0.0586  1.0000  -2.7715   0.0000   0.0000   0.0000   0.2957
   7.200   0.9334   0.02128   0.01272  -0.0491  0.0564  1.0000  -2.8156   0.0000   0.0000   0.0000   0.2944
   7.300   0.9370   0.02176   0.01319  -0.0482  0.0545  1.0000  -2.8687   0.0000   0.0000   0.0000   0.2932
   7.400   0.9395   0.02232   0.01375  -0.0472  0.0528  1.0000  -2.9154   0.0000   0.0000   0.0000   0.2918
   7.500   0.9407   0.02298   0.01442  -0.0461  0.0512  1.0000  -2.9538   0.0000   0.0000   0.0000   0.2904
   7.600   0.9434   0.02358   0.01513  -0.0451  0.0502  1.0000  -3.0089   0.0000   0.0000   0.0000   0.2891
   7.700   0.9491   0.02397   0.01555  -0.0445  0.0494  1.0000  -3.0738   0.0000   0.0000   0.0000   0.2880
   7.800   0.9547   0.02437   0.01598  -0.0438  0.0486  1.0000  -3.1366   0.0000   0.0000   0.0000   0.2870
   7.900   0.9603   0.02480   0.01644  -0.0432  0.0476  1.0000  -3.1981   0.0000   0.0000   0.0000   0.2859
   8.000   0.9657   0.02525   0.01691  -0.0426  0.0466  1.0000  -3.2586   0.0000   0.0000   0.0000   0.2849
   8.100   0.9712   0.02570   0.01738  -0.0420  0.0456  1.0000  -3.3189   0.0000   0.0000   0.0000   0.2839
   8.200   0.9769   0.02616   0.01786  -0.0413  0.0445  1.0000  -3.3797   0.0000   0.0000   0.0000   0.2829
   8.300   0.9826   0.02664   0.01834  -0.0408  0.0435  1.0000  -3.4411   0.0000   0.0000   0.0000   0.2819
   8.400   0.9884   0.02712   0.01883  -0.0402  0.0425  1.0000  -3.5032   0.0000   0.0000   0.0000   0.2810
   8.500   0.9945   0.02763   0.01934  -0.0396  0.0416  1.0000  -3.5661   0.0000   0.0000   0.0000   0.2800
   8.600   1.0011   0.02817   0.01987  -0.0391  0.0407  1.0000  -3.6299   0.0000   0.0000   0.0000   0.2792
   8.700   1.0085   0.02876   0.02045  -0.0387  0.0399  1.0000  -3.6947   0.0000   0.0000   0.0000   0.2783
   8.800   1.0183   0.02945   0.02114  -0.0384  0.0391  1.0000  -3.7630   0.0000   0.0000   0.0000   0.2776
   8.900   1.0334   0.03035   0.02204  -0.0387  0.0383  1.0000  -3.8422   0.0000   0.0000   0.0000   0.2772
   9.000   1.0584   0.03165   0.02337  -0.0401  0.0377  1.0000  -3.9456   0.0000   0.0000   0.0000   0.2776
   9.100   1.0870   0.03318   0.02498  -0.0423  0.0375  1.0000  -4.0609   0.0000   0.0000   0.0000   0.2786
   9.200   1.1098   0.03451   0.02640  -0.0440  0.0375  1.0000  -4.1633   0.0000   0.0000   0.0000   0.2792
   9.300   1.1275   0.03561   0.02757  -0.0450  0.0375  1.0000  -4.2531   0.0000   0.0000   0.0000   0.2793
   9.400   1.1418   0.03653   0.02857  -0.0455  0.0377  1.0000  -4.3344   0.0000   0.0000   0.0000   0.2792
   9.500   1.1600   0.03850   0.03067  -0.0468  0.0375  1.0000  -4.4034   0.0000   0.0000   0.0000   0.2795
   9.600   1.1627   0.03865   0.03089  -0.0456  0.0371  1.0000  -4.4601   0.0000   0.0000   0.0000   0.2783
   9.700   1.1642   0.03864   0.03095  -0.0443  0.0368  1.0000  -4.5168   0.0000   0.0000   0.0000   0.2770
   9.800   1.1661   0.03874   0.03112  -0.0430  0.0363  1.0000  -4.5728   0.0000   0.0000   0.0000   0.2757
   9.900   1.1689   0.03895   0.03141  -0.0419  0.0357  1.0000  -4.6300   0.0000   0.0000   0.0000   0.2745
  10.000   1.1728   0.03932   0.03185  -0.0410  0.0350  1.0000  -4.6878   0.0000   0.0000   0.0000   0.2735
  10.100   1.1786   0.03995   0.03264  -0.0404  0.0345  1.0000  -4.7378   0.0000   0.0000   0.0000   0.2727
  10.200   1.1858   0.04086   0.03366  -0.0400  0.0341  1.0000  -4.7857   0.0000   0.0000   0.0000   0.2720
  10.300   1.1921   0.04178   0.03468  -0.0394  0.0338  1.0000  -4.8287   0.0000   0.0000   0.0000   0.2712
  10.400   1.1975   0.04271   0.03573  -0.0388  0.0334  1.0000  -4.8663   0.0000   0.0000   0.0000   0.2704
  10.500   1.2021   0.04365   0.03678  -0.0381  0.0329  1.0000  -4.8985   0.0000   0.0000   0.0000   0.2696
  10.600   1.2058   0.04461   0.03785  -0.0373  0.0325  1.0000  -4.9256   0.0000   0.0000   0.0000   0.2687
  10.700   1.2088   0.04559   0.03893  -0.0364  0.0320  1.0000  -4.9481   0.0000   0.0000   0.0000   0.2678
  10.800   1.2111   0.04659   0.04004  -0.0355  0.0316  1.0000  -4.9666   0.0000   0.0000   0.0000   0.2669
  10.900   1.2129   0.04760   0.04115  -0.0346  0.0311  1.0000  -4.9820   0.0000   0.0000   0.0000   0.2659
  11.000   1.2141   0.04864   0.04229  -0.0336  0.0307  1.0000  -4.9950   0.0000   0.0000   0.0000   0.2649
  11.100   1.2149   0.04973   0.04347  -0.0327  0.0303  1.0000  -5.0047   0.0000   0.0000   0.0000   0.2640
  11.200   1.2150   0.05089   0.04473  -0.0316  0.0300  1.0000  -5.0087   0.0000   0.0000   0.0000   0.2630
  11.300   1.2140   0.05218   0.04612  -0.0305  0.0298  1.0000  -5.0017   0.0000   0.0000   0.0000   0.2620
  11.400   1.2114   0.05363   0.04771  -0.0293  0.0298  1.0000  -4.9787   0.0000   0.0000   0.0000   0.2609
  11.500   1.2064   0.05532   0.04956  -0.0279  0.0300  1.0000  -4.9501   0.0000   0.0000   0.0000   0.2597
  11.600   1.1993   0.05735   0.05179  -0.0263  0.0304  1.0000  -4.8926   0.0000   0.0000   0.0000   0.2584
  11.700   1.1905   0.05951   0.05414  -0.0248  0.0309  1.0000  -4.8251   0.0000   0.0000   0.0000   0.2572
  11.800   1.1813   0.06163   0.05642  -0.0234  0.0315  1.0000  -4.7636   0.0000   0.0000   0.0000   0.2560
  11.900   1.1723   0.06367   0.05861  -0.0221  0.0321  1.0000  -4.7111   0.0000   0.0000   0.0000   0.2550
  12.000   1.1633   0.06567   0.06074  -0.0211  0.0326  1.0000  -4.6658   0.0000   0.0000   0.0000   0.2540
  12.100   1.1546   0.06768   0.06287  -0.0202  0.0331  1.0000  -4.6252   0.0000   0.0000   0.0000   0.2532
  12.200   1.1459   0.06970   0.06499  -0.0194  0.0336  1.0000  -4.5886   0.0000   0.0000   0.0000   0.2526
  12.300   1.1372   0.07173   0.06712  -0.0188  0.0340  1.0000  -4.5546   0.0000   0.0000   0.0000   0.2520
  12.400   1.1283   0.07378   0.06925  -0.0183  0.0344  1.0000  -4.5222   0.0000   0.0000   0.0000   0.2515
  12.500   1.1193   0.07590   0.07145  -0.0179  0.0348  1.0000  -4.4901   0.0000   0.0000   0.0000   0.2511
  12.600   1.1101   0.07813   0.07376  -0.0176  0.0352  1.0000  -4.4569   0.0000   0.0000   0.0000   0.2509
  12.700   1.1006   0.08059   0.07629  -0.0176  0.0357  1.0000  -4.4200   0.0000   0.0000   0.0000   0.2508
  13.100   0.9739   0.10624   0.10288  -0.0248  0.0606  1.0000  -3.2437   0.0000   0.0000   0.0000   0.2598
  13.200   0.9612   0.10985   0.10653  -0.0269  0.0608  1.0000  -3.1868   0.0000   0.0000   0.0000   0.2622
  13.300   0.9485   0.11377   0.11048  -0.0293  0.0610  1.0000  -3.1240   0.0000   0.0000   0.0000   0.2650
  13.400   0.9360   0.11802   0.11476  -0.0320  0.0613  1.0000  -3.0545   0.0000   0.0000   0.0000   0.2683
  13.500   0.9238   0.12268   0.11945  -0.0351  0.0615  1.0000  -2.9759   0.0000   0.0000   0.0000   0.2720
  13.600   0.9121   0.12787   0.12465  -0.0387  0.0617  1.0000  -2.8854   0.0000   0.0000   0.0000   0.2763
  13.700   0.9011   0.13369   0.13046  -0.0426  0.0617  1.0000  -2.7789   0.0000   0.0000   0.0000   0.2812
  13.800   0.8929   0.13860   0.13536  -0.0458  0.0613  1.0000  -2.6876   0.0000   0.0000   0.0000   0.2853
  13.900   0.8866   0.14271   0.13946  -0.0485  0.0607  1.0000  -2.6132   0.0000   0.0000   0.0000   0.2886
  14.000   0.8820   0.14627   0.14300  -0.0506  0.0599  1.0000  -2.5526   0.0000   0.0000   0.0000   0.2913
  14.100   0.8786   0.14941   0.14613  -0.0525  0.0591  1.0000  -2.5036   0.0000   0.0000   0.0000   0.2935
  14.200   0.8763   0.15222   0.14893  -0.0540  0.0583  1.0000  -2.4649   0.0000   0.0000   0.0000   0.2953
  14.300   0.8749   0.15474   0.15144  -0.0554  0.0574  1.0000  -2.4356   0.0000   0.0000   0.0000   0.2969
  14.400   0.8744   0.15699   0.15368  -0.0565  0.0566  1.0000  -2.4155   0.0000   0.0000   0.0000   0.2981
  14.500   0.8747   0.15899   0.15568  -0.0574  0.0558  1.0000  -2.4046   0.0000   0.0000   0.0000   0.2990
  14.600   0.8758   0.16074   0.15743  -0.0581  0.0550  1.0000  -2.4032   0.0000   0.0000   0.0000   0.2996
  14.700   0.8778   0.16224   0.15893  -0.0586  0.0543  1.0000  -2.4121   0.0000   0.0000   0.0000   0.2998
  14.800   0.8806   0.16346   0.16016  -0.0588  0.0537  1.0000  -2.4332   0.0000   0.0000   0.0000   0.2997
  14.900   0.8845   0.16441   0.16112  -0.0588  0.0531  1.0000  -2.4841   0.0000   0.0000   0.0000   0.2991
  15.000   0.8883   0.16533   0.16204  -0.0586  0.0525  1.0000  -2.5389   0.0000   0.0000   0.0000   0.2985
  15.100   0.8933   0.16594   0.16266  -0.0580  0.0520  1.0000  -2.6115   0.0000   0.0000   0.0000   0.2973
  15.200   0.8990   0.16640   0.16313  -0.0568  0.0514  1.0000  -2.7032   0.0000   0.0000   0.0000   0.2953
  15.300   0.8887   0.17247   0.16915  -0.0585  0.0504  1.0000  -2.5942   0.0000   0.0000   0.0000   0.2979
  15.400   0.8872   0.17548   0.17216  -0.0603  0.0504  1.0000  -2.5486   0.0000   0.0000   0.0000   0.3000
  15.500   0.8861   0.17832   0.17499  -0.0621  0.0503  1.0000  -2.5069   0.0000   0.0000   0.0000   0.3020
  15.600   0.8853   0.18103   0.17770  -0.0639  0.0502  1.0000  -2.4674   0.0000   0.0000   0.0000   0.3040
  15.700   0.8846   0.18363   0.18028  -0.0657  0.0501  1.0000  -2.4277   0.0000   0.0000   0.0000   0.3060
  15.800   0.8839   0.18612   0.18277  -0.0677  0.0498  1.0000  -2.3817   0.0000   0.0000   0.0000   0.3082
  15.900   0.8791   0.18947   0.18609  -0.0715  0.0488  1.0000  -2.2617   0.0000   0.0000   0.0000   0.3129
  16.000   0.8766   0.19245   0.18906  -0.0741  0.0474  1.0000  -2.1817   0.0000   0.0000   0.0000   0.3161
  16.100   0.8765   0.19480   0.19140  -0.0758  0.0464  1.0000  -2.1493   0.0000   0.0000   0.0000   0.3178
  16.200   0.8772   0.19691   0.19350  -0.0770  0.0456  1.0000  -2.1324   0.0000   0.0000   0.0000   0.3191
  16.300   0.8784   0.19887   0.19546  -0.0782  0.0448  1.0000  -2.1241   0.0000   0.0000   0.0000   0.3201
  16.400   0.8798   0.20073   0.19732  -0.0792  0.0440  1.0000  -2.1215   0.0000   0.0000   0.0000   0.3210
  16.500   0.8816   0.20251   0.19909  -0.0801  0.0434  1.0000  -2.1237   0.0000   0.0000   0.0000   0.3218
  16.600   0.8836   0.20420   0.20079  -0.0810  0.0427  1.0000  -2.1304   0.0000   0.0000   0.0000   0.3224
  16.700   0.8858   0.20582   0.20241  -0.0818  0.0421  1.0000  -2.1415   0.0000   0.0000   0.0000   0.3229
  16.800   0.8883   0.20737   0.20396  -0.0825  0.0416  1.0000  -2.1573   0.0000   0.0000   0.0000   0.3233
  16.900   0.8912   0.20882   0.20541  -0.0832  0.0410  1.0000  -2.1795   0.0000   0.0000   0.0000   0.3235
  17.000   0.8946   0.21011   0.20669  -0.0836  0.0405  1.0000  -2.2140   0.0000   0.0000   0.0000   0.3235
  17.100   0.8989   0.21111   0.20770  -0.0837  0.0398  1.0000  -2.2686   0.0000   0.0000   0.0000   0.3229
  17.200   0.9048   0.21163   0.20824  -0.0831  0.0391  1.0000  -2.3611   0.0000   0.0000   0.0000   0.3215
  17.300   0.9116   0.21202   0.20871  -0.0820  0.0384  1.0000  -2.4940   0.0000   0.0000   0.0000   0.3193
  17.400   0.9094   0.21689   0.21355  -0.0821  0.0374  1.0000  -2.4644   0.0000   0.0000   0.0000   0.3196
  17.500   0.9107   0.21886   0.21551  -0.0835  0.0373  1.0000  -2.4405   0.0000   0.0000   0.0000   0.3209
  17.600   0.9121   0.22072   0.21736  -0.0850  0.0372  1.0000  -2.4157   0.0000   0.0000   0.0000   0.3222
  17.700   0.9135   0.22245   0.21909  -0.0865  0.0371  1.0000  -2.3884   0.0000   0.0000   0.0000   0.3235
  17.800   0.9143   0.22414   0.22077  -0.0884  0.0368  1.0000  -2.3459   0.0000   0.0000   0.0000   0.3254
  17.900   0.9136   0.22595   0.22256  -0.0910  0.0362  1.0000  -2.2618   0.0000   0.0000   0.0000   0.3283
  18.000   0.9123   0.22782   0.22442  -0.0938  0.0350  1.0000  -2.1717   0.0000   0.0000   0.0000   0.3313
  18.100   0.9134   0.22959   0.22618  -0.0954  0.0337  1.0000  -2.1374   0.0000   0.0000   0.0000   0.3328
  18.200   0.9155   0.23122   0.22780  -0.0965  0.0327  1.0000  -2.1294   0.0000   0.0000   0.0000   0.3336
  18.300   0.9179   0.23279   0.22938  -0.0975  0.0320  1.0000  -2.1280   0.0000   0.0000   0.0000   0.3343
  18.400   0.9204   0.23432   0.23090  -0.0984  0.0313  1.0000  -2.1309   0.0000   0.0000   0.0000   0.3348
  18.500   0.9231   0.23579   0.23238  -0.0993  0.0306  1.0000  -2.1380   0.0000   0.0000   0.0000   0.3352
  18.600   0.9259   0.23721   0.23379  -0.1001  0.0300  1.0000  -2.1497   0.0000   0.0000   0.0000   0.3355
  18.700   0.9290   0.23855   0.23514  -0.1008  0.0294  1.0000  -2.1671   0.0000   0.0000   0.0000   0.3357
  18.800   0.9322   0.23982   0.23641  -0.1013  0.0289  1.0000  -2.1915   0.0000   0.0000   0.0000   0.3358
  18.900   0.9359   0.24102   0.23762  -0.1018  0.0283  1.0000  -2.2257   0.0000   0.0000   0.0000   0.3356
  19.000   0.9401   0.24214   0.23874  -0.1019  0.0278  1.0000  -2.2740   0.0000   0.0000   0.0000   0.3351
  19.100   0.9455   0.24324   0.23985  -0.1016  0.0274  1.0000  -2.3474   0.0000   0.0000   0.0000   0.3340
  19.200   0.9508   0.24450   0.24113  -0.1011  0.0269  1.0000  -2.4301   0.0000   0.0000   0.0000   0.3326
  19.300   0.9502   0.24970   0.24630  -0.1012  0.0261  1.0000  -2.3862   0.0000   0.0000   0.0000   0.3327
  19.400   0.9524   0.25162   0.24823  -0.1023  0.0261  1.0000  -2.3595   0.0000   0.0000   0.0000   0.3334
  19.500   0.9546   0.25353   0.25013  -0.1034  0.0260  1.0000  -2.3334   0.0000   0.0000   0.0000   0.3342
  19.600   0.9569   0.25540   0.25200  -0.1046  0.0260  1.0000  -2.3079   0.0000   0.0000   0.0000   0.3349
  19.700   0.9592   0.25724   0.25383  -0.1057  0.0260  1.0000  -2.2830   0.0000   0.0000   0.0000   0.3356
  19.800   0.9615   0.25904   0.25563  -0.1068  0.0259  1.0000  -2.2587   0.0000   0.0000   0.0000   0.3364
  19.900   0.9638   0.26080   0.25739  -0.1079  0.0259  1.0000  -2.2347   0.0000   0.0000   0.0000   0.3371
  20.000   0.9661   0.26250   0.25909  -0.1091  0.0258  1.0000  -2.2108   0.0000   0.0000   0.0000   0.3379
  20.100   0.9679   0.26416   0.26074  -0.1104  0.0257  1.0000  -2.1779   0.0000   0.0000   0.0000   0.3389
  20.200   0.9696   0.26572   0.26229  -0.1118  0.0256  1.0000  -2.1408   0.0000   0.0000   0.0000   0.3400
  20.300   0.9706   0.26711   0.26368  -0.1136  0.0254  1.0000  -2.0919   0.0000   0.0000   0.0000   0.3415
  20.400   0.9713   0.26850   0.26506  -0.1155  0.0250  1.0000  -2.0321   0.0000   0.0000   0.0000   0.3432
  20.500   0.9728   0.27012   0.26667  -0.1174  0.0244  1.0000  -1.9740   0.0000   0.0000   0.0000   0.3448
  20.600   0.9750   0.27190   0.26845  -0.1188  0.0238  1.0000  -1.9390   0.0000   0.0000   0.0000   0.3457
  20.700   0.9776   0.27367   0.27022  -0.1199  0.0232  1.0000  -1.9190   0.0000   0.0000   0.0000   0.3464
  20.800   0.9801   0.27541   0.27196  -0.1209  0.0227  1.0000  -1.9060   0.0000   0.0000   0.0000   0.3469
  20.900   0.9828   0.27714   0.27369  -0.1219  0.0222  1.0000  -1.8967   0.0000   0.0000   0.0000   0.3474
  21.000   0.9854   0.27885   0.27540  -0.1228  0.0218  1.0000  -1.8900   0.0000   0.0000   0.0000   0.3478
  21.100   0.9881   0.28055   0.27710  -0.1237  0.0215  1.0000  -1.8852   0.0000   0.0000   0.0000   0.3482
  21.200   0.9907   0.28223   0.27878  -0.1247  0.0211  1.0000  -1.8820   0.0000   0.0000   0.0000   0.3486
  21.300   0.9934   0.28390   0.28046  -0.1256  0.0208  1.0000  -1.8802   0.0000   0.0000   0.0000   0.3490
  21.400   0.9961   0.28557   0.28212  -0.1264  0.0205  1.0000  -1.8796   0.0000   0.0000   0.0000   0.3493
  21.500   0.9988   0.28722   0.28377  -0.1273  0.0202  1.0000  -1.8803   0.0000   0.0000   0.0000   0.3497
  21.600   1.0015   0.28886   0.28542  -0.1282  0.0199  1.0000  -1.8821   0.0000   0.0000   0.0000   0.3500
  21.700   1.0042   0.29049   0.28705  -0.1290  0.0197  1.0000  -1.8851   0.0000   0.0000   0.0000   0.3503
  21.800   1.0070   0.29212   0.28868  -0.1299  0.0194  1.0000  -1.8892   0.0000   0.0000   0.0000   0.3506
  21.900   1.0097   0.29373   0.29030  -0.1307  0.0192  1.0000  -1.8947   0.0000   0.0000   0.0000   0.3508
  22.000   1.0124   0.29534   0.29191  -0.1315  0.0190  1.0000  -1.9014   0.0000   0.0000   0.0000   0.3511
  22.100   1.0152   0.29694   0.29351  -0.1323  0.0188  1.0000  -1.9095   0.0000   0.0000   0.0000   0.3513
  22.200   1.0179   0.29854   0.29511  -0.1331  0.0186  1.0000  -1.9190   0.0000   0.0000   0.0000   0.3515
  22.300   1.0207   0.30013   0.29670  -0.1339  0.0184  1.0000  -1.9301   0.0000   0.0000   0.0000   0.3517
  22.400   1.0234   0.30172   0.29830  -0.1347  0.0182  1.0000  -1.9429   0.0000   0.0000   0.0000   0.3519
  22.500   1.0262   0.30331   0.29989  -0.1354  0.0181  1.0000  -1.9576   0.0000   0.0000   0.0000   0.3520
  22.600   1.0291   0.30491   0.30150  -0.1361  0.0179  1.0000  -1.9744   0.0000   0.0000   0.0000   0.3521
  22.700   1.0320   0.30653   0.30312  -0.1367  0.0177  1.0000  -1.9935   0.0000   0.0000   0.0000   0.3521
  22.800   1.0349   0.30818   0.30481  -0.1373  0.0176  1.0000  -2.0144   0.0000   0.0000   0.0000   0.3521
  22.900   1.0379   0.30988   0.30652  -0.1378  0.0174  1.0000  -2.0394   0.0000   0.0000   0.0000   0.3520
  23.000   1.0411   0.31170   0.30834  -0.1383  0.0173  1.0000  -2.0686   0.0000   0.0000   0.0000   0.3517
  23.100   1.0445   0.31375   0.31040  -0.1386  0.0172  1.0000  -2.1032   0.0000   0.0000   0.0000   0.3514
  23.200   1.0484   0.31634   0.31301  -0.1385  0.0170  1.0000  -2.1472   0.0000   0.0000   0.0000   0.3506
  23.300   1.0500   0.32304   0.31968  -0.1385  0.0166  1.0000  -2.1084   0.0000   0.0000   0.0000   0.3503
  23.400   1.0525   0.32491   0.32155  -0.1395  0.0165  1.0000  -2.1002   0.0000   0.0000   0.0000   0.3507
  23.500   1.0549   0.32677   0.32342  -0.1404  0.0165  1.0000  -2.0922   0.0000   0.0000   0.0000   0.3511
  23.600   1.0574   0.32863   0.32528  -0.1414  0.0165  1.0000  -2.0844   0.0000   0.0000   0.0000   0.3515
  23.700   1.0598   0.33049   0.32714  -0.1423  0.0165  1.0000  -2.0768   0.0000   0.0000   0.0000   0.3518
  23.800   1.0622   0.33233   0.32899  -0.1433  0.0165  1.0000  -2.0693   0.0000   0.0000   0.0000   0.3522
  23.900   1.0646   0.33417   0.33083  -0.1442  0.0165  1.0000  -2.0619   0.0000   0.0000   0.0000   0.3526
  24.000   1.0670   0.33600   0.33266  -0.1452  0.0165  1.0000  -2.0546   0.0000   0.0000   0.0000   0.3530
  24.100   1.0694   0.33783   0.33449  -0.1462  0.0165  1.0000  -2.0475   0.0000   0.0000   0.0000   0.3533
  24.200   1.0717   0.33964   0.33631  -0.1471  0.0165  1.0000  -2.0404   0.0000   0.0000   0.0000   0.3537
  24.300   1.0741   0.34145   0.33812  -0.1481  0.0165  1.0000  -2.0334   0.0000   0.0000   0.0000   0.3541
  24.400   1.0765   0.34326   0.33993  -0.1491  0.0165  1.0000  -2.0266   0.0000   0.0000   0.0000   0.3544
  24.500   1.0788   0.34505   0.34173  -0.1500  0.0165  1.0000  -2.0198   0.0000   0.0000   0.0000   0.3548
  24.600   1.0811   0.34684   0.34351  -0.1510  0.0164  1.0000  -2.0129   0.0000   0.0000   0.0000   0.3552
  24.700   1.0834   0.34862   0.34530  -0.1520  0.0164  1.0000  -2.0062   0.0000   0.0000   0.0000   0.3555
  24.800   1.0857   0.35039   0.34707  -0.1529  0.0164  1.0000  -1.9995   0.0000   0.0000   0.0000   0.3559
  24.900   1.0879   0.35211   0.34880  -0.1540  0.0164  1.0000  -1.9910   0.0000   0.0000   0.0000   0.3563
  25.000   1.0901   0.35383   0.35051  -0.1550  0.0164  1.0000  -1.9814   0.0000   0.0000   0.0000   0.3568
  25.100   1.0922   0.35551   0.35220  -0.1560  0.0164  1.0000  -1.9712   0.0000   0.0000   0.0000   0.3572
  25.200   1.0942   0.35717   0.35386  -0.1571  0.0164  1.0000  -1.9602   0.0000   0.0000   0.0000   0.3577
  25.300   1.0963   0.35883   0.35552  -0.1582  0.0163  1.0000  -1.9493   0.0000   0.0000   0.0000   0.3581
  25.400   1.0984   0.36048   0.35717  -0.1593  0.0163  1.0000  -1.9384   0.0000   0.0000   0.0000   0.3586
  25.500   1.1004   0.36213   0.35883  -0.1604  0.0163  1.0000  -1.9277   0.0000   0.0000   0.0000   0.3591
  25.600   1.1025   0.36378   0.36048  -0.1614  0.0163  1.0000  -1.9170   0.0000   0.0000   0.0000   0.3595
  25.700   1.1046   0.36542   0.36212  -0.1625  0.0163  1.0000  -1.9064   0.0000   0.0000   0.0000   0.3600
  25.800   1.1067   0.36707   0.36377  -0.1636  0.0162  1.0000  -1.8958   0.0000   0.0000   0.0000   0.3604
  25.900   1.1088   0.36870   0.36541  -0.1647  0.0162  1.0000  -1.8852   0.0000   0.0000   0.0000   0.3609
  26.000   1.1109   0.37034   0.36705  -0.1658  0.0162  1.0000  -1.8745   0.0000   0.0000   0.0000   0.3613
  26.100   1.1130   0.37197   0.36868  -0.1669  0.0162  1.0000  -1.8637   0.0000   0.0000   0.0000   0.3618
  26.200   1.1151   0.37360   0.37032  -0.1680  0.0161  1.0000  -1.8528   0.0000   0.0000   0.0000   0.3622
  26.300   1.1173   0.37522   0.37194  -0.1691  0.0161  1.0000  -1.8418   0.0000   0.0000   0.0000   0.3626
  26.400   1.1195   0.37686   0.37358  -0.1702  0.0160  1.0000  -1.8306   0.0000   0.0000   0.0000   0.3631
  26.500   1.1217   0.37850   0.37522  -0.1713  0.0160  1.0000  -1.8191   0.0000   0.0000   0.0000   0.3635
  26.600   1.1239   0.38016   0.37688  -0.1724  0.0159  1.0000  -1.8075   0.0000   0.0000   0.0000   0.3639
  26.700   1.1262   0.38182   0.37855  -0.1735  0.0158  1.0000  -1.7957   0.0000   0.0000   0.0000   0.3643
  26.800   1.1285   0.38350   0.38024  -0.1746  0.0158  1.0000  -1.7839   0.0000   0.0000   0.0000   0.3647
  26.900   1.1308   0.38519   0.38195  -0.1757  0.0156  1.0000  -1.7722   0.0000   0.0000   0.0000   0.3651
  27.000   1.1332   0.38696   0.38372  -0.1767  0.0155  1.0000  -1.7612   0.0000   0.0000   0.0000   0.3655
  27.100   1.1355   0.38874   0.38550  -0.1778  0.0154  1.0000  -1.7512   0.0000   0.0000   0.0000   0.3658
  27.200   1.1379   0.39055   0.38732  -0.1788  0.0152  1.0000  -1.7425   0.0000   0.0000   0.0000   0.3661
  27.300   1.1402   0.39239   0.38917  -0.1798  0.0151  1.0000  -1.7352   0.0000   0.0000   0.0000   0.3664
  27.400   1.1425   0.39425   0.39104  -0.1808  0.0149  1.0000  -1.7292   0.0000   0.0000   0.0000   0.3667
  27.500   1.1448   0.39613   0.39292  -0.1817  0.0148  1.0000  -1.7243   0.0000   0.0000   0.0000   0.3669
  27.600   1.1470   0.39801   0.39481  -0.1826  0.0146  1.0000  -1.7203   0.0000   0.0000   0.0000   0.3672
  27.700   1.1492   0.39990   0.39670  -0.1836  0.0145  1.0000  -1.7171   0.0000   0.0000   0.0000   0.3674
  27.800   1.1513   0.40180   0.39860  -0.1845  0.0143  1.0000  -1.7144   0.0000   0.0000   0.0000   0.3676
  27.900   1.1535   0.40369   0.40050  -0.1854  0.0142  1.0000  -1.7122   0.0000   0.0000   0.0000   0.3679
  28.000   1.1556   0.40559   0.40241  -0.1863  0.0140  1.0000  -1.7105   0.0000   0.0000   0.0000   0.3681
  28.100   1.1577   0.40749   0.40432  -0.1873  0.0139  1.0000  -1.7090   0.0000   0.0000   0.0000   0.3683
  28.200   1.1598   0.40940   0.40623  -0.1882  0.0137  1.0000  -1.7079   0.0000   0.0000   0.0000   0.3685
  28.300   1.1618   0.41130   0.40814  -0.1891  0.0136  1.0000  -1.7070   0.0000   0.0000   0.0000   0.3687
  28.400   1.1638   0.41321   0.41005  -0.1900  0.0135  1.0000  -1.7063   0.0000   0.0000   0.0000   0.3689
  28.500   1.1659   0.41512   0.41197  -0.1909  0.0133  1.0000  -1.7059   0.0000   0.0000   0.0000   0.3692
  28.600   1.1679   0.41703   0.41389  -0.1918  0.0132  1.0000  -1.7056   0.0000   0.0000   0.0000   0.3694
  28.700   1.1698   0.41895   0.41581  -0.1927  0.0131  1.0000  -1.7055   0.0000   0.0000   0.0000   0.3696
  28.800   1.1718   0.42086   0.41773  -0.1936  0.0130  1.0000  -1.7055   0.0000   0.0000   0.0000   0.3698
  28.900   1.1737   0.42278   0.41965  -0.1945  0.0129  1.0000  -1.7066   0.0000   0.0000   0.0000   0.3700
  29.000   1.1757   0.42470   0.42158  -0.1954  0.0128  1.0000  -1.7176   0.0000   0.0000   0.0000   0.3702
  29.100   1.1776   0.42662   0.42351  -0.1963  0.0127  1.0000  -1.7286   0.0000   0.0000   0.0000   0.3704
  29.200   1.1795   0.42854   0.42544  -0.1972  0.0126  1.0000  -1.7396   0.0000   0.0000   0.0000   0.3706
  29.300   1.1813   0.43047   0.42737  -0.1981  0.0125  1.0000  -1.7506   0.0000   0.0000   0.0000   0.3708
  29.400   1.1832   0.43240   0.42930  -0.1990  0.0124  1.0000  -1.7617   0.0000   0.0000   0.0000   0.3710
  29.500   1.1850   0.43432   0.43124  -0.1999  0.0123  1.0000  -1.7728   0.0000   0.0000   0.0000   0.3712
  29.600   1.1869   0.43626   0.43318  -0.2008  0.0122  1.0000  -1.7838   0.0000   0.0000   0.0000   0.3714
  29.700   1.1887   0.43819   0.43512  -0.2017  0.0121  1.0000  -1.7949   0.0000   0.0000   0.0000   0.3716
  29.800   1.1905   0.44013   0.43706  -0.2026  0.0120  1.0000  -1.8059   0.0000   0.0000   0.0000   0.3717
  29.900   1.1922   0.44206   0.43900  -0.2035  0.0119  1.0000  -1.8170   0.0000   0.0000   0.0000   0.3719
  30.000   1.1940   0.44400   0.44095  -0.2044  0.0118  1.0000  -1.8280   0.0000   0.0000   0.0000   0.3721


