xflr5 v6.61

 Calculated polar for: NACA 0012-34

 1 1 Reynolds number fixed          Mach number fixed         

 xtrf =   1.000 (top)        1.000 (bottom)
 Mach =   0.000     Re =     0.450 e 6     Ncrit =   9.000

  alpha     CL        CD       CDp       Cm    Top Xtr Bot Xtr   Cpmin    Chinge    XCp    
 ------- -------- --------- --------- -------- ------- ------- -------- --------- ---------
 -10.000  -0.6183   0.07083   0.06714  -0.0422  1.0000  0.0124  -3.0475   0.0000   0.0000   0.0000   0.1721
  -9.900  -0.6256   0.06940   0.06566  -0.0421  1.0000  0.0124  -3.0688   0.0000   0.0000   0.0000   0.1734
  -9.800  -0.6321   0.06798   0.06419  -0.0417  1.0000  0.0124  -3.0881   0.0000   0.0000   0.0000   0.1748
  -9.700  -0.6389   0.06665   0.06282  -0.0412  1.0000  0.0124  -3.1060   0.0000   0.0000   0.0000   0.1766
  -6.400  -0.6108   0.02510   0.01915  -0.0160  0.9457  0.0578  -2.1172   0.0000   0.0000   0.0000   0.2186
  -6.300  -0.6024   0.02422   0.01831  -0.0156  0.9437  0.0601  -2.0511   0.0000   0.0000   0.0000   0.2189
  -6.200  -0.5939   0.02342   0.01750  -0.0151  0.9413  0.0624  -1.9913   0.0000   0.0000   0.0000   0.2195
  -6.000  -0.5572   0.01821   0.01122  -0.0121  0.9337  0.0289  -2.2426   0.0000   0.0000   0.0000   0.2232
  -5.900  -0.5444   0.01634   0.00920  -0.0110  0.9297  0.0211  -2.3034   0.0000   0.0000   0.0000   0.2248
  -5.800  -0.5381   0.01489   0.00755  -0.0094  0.9247  0.0191  -2.3313   0.0000   0.0000   0.0000   0.2277
  -5.700  -0.5321   0.01398   0.00647  -0.0080  0.9199  0.0180  -2.3179   0.0000   0.0000   0.0000   0.2302
  -5.600  -0.5246   0.01336   0.00571  -0.0070  0.9159  0.0174  -2.2715   0.0000   0.0000   0.0000   0.2319
  -5.500  -0.5160   0.01290   0.00516  -0.0064  0.9126  0.0175  -2.2138   0.0000   0.0000   0.0000   0.2330
  -5.400  -0.5070   0.01253   0.00470  -0.0059  0.9102  0.0182  -2.1468   0.0000   0.0000   0.0000   0.2338
  -5.300  -0.4980   0.01220   0.00433  -0.0055  0.9088  0.0209  -2.0757   0.0000   0.0000   0.0000   0.2345
  -5.200  -0.4876   0.01210   0.00427  -0.0056  0.9077  0.0244  -1.9662   0.0000   0.0000   0.0000   0.2341
  -5.100  -0.4770   0.01195   0.00411  -0.0057  0.9049  0.0285  -1.8591   0.0000   0.0000   0.0000   0.2337
  -5.000  -0.4664   0.01175   0.00388  -0.0058  0.9011  0.0347  -1.7600   0.0000   0.0000   0.0000   0.2335
  -4.900  -0.4570   0.01158   0.00376  -0.0056  0.8989  0.0403  -1.6600   0.0000   0.0000   0.0000   0.2336
  -4.800  -0.4480   0.01142   0.00365  -0.0054  0.8974  0.0454  -1.5799   0.0000   0.0000   0.0000   0.2338
  -4.700  -0.4390   0.01126   0.00353  -0.0052  0.8956  0.0565  -1.5470   0.0000   0.0000   0.0000   0.2341
  -4.600  -0.4332   0.01081   0.00333  -0.0046  0.8937  0.0910  -1.5192   0.0000   0.0000   0.0000   0.2356
  -4.500  -0.4277   0.01034   0.00311  -0.0039  0.8916  0.1413  -1.4921   0.0000   0.0000   0.0000   0.2372
  -4.400  -0.4241   0.00974   0.00291  -0.0028  0.8892  0.1980  -1.4675   0.0000   0.0000   0.0000   0.2396
  -4.300  -0.4197   0.00926   0.00275  -0.0019  0.8866  0.2684  -1.4408   0.0000   0.0000   0.0000   0.2418
  -4.200  -0.4129   0.00898   0.00264  -0.0014  0.8834  0.3043  -1.4096   0.0000   0.0000   0.0000   0.2432
  -4.100  -0.4086   0.00857   0.00251  -0.0003  0.8795  0.3644  -1.3828   0.0000   0.0000   0.0000   0.2458
  -4.000  -0.4013   0.00835   0.00242   0.0002  0.8749  0.3948  -1.3505   0.0000   0.0000   0.0000   0.2471
  -3.900  -0.3968   0.00802   0.00232   0.0013  0.8691  0.4495  -1.3234   0.0000   0.0000   0.0000   0.2500
  -3.800  -0.3915   0.00770   0.00225   0.0023  0.8626  0.4991  -1.2946   0.0000   0.0000   0.0000   0.2526
  -3.700  -0.3882   0.00734   0.00219   0.0038  0.8547  0.5615  -1.2696   0.0000   0.0000   0.0000   0.2567
  -3.600  -0.3799   0.00719   0.00215   0.0043  0.8471  0.5933  -1.2360   0.0000   0.0000   0.0000   0.2582
  -3.500  -0.3698   0.00712   0.00210   0.0043  0.8400  0.6080  -1.2002   0.0000   0.0000   0.0000   0.2586
  -3.400  -0.3606   0.00703   0.00206   0.0045  0.8339  0.6261  -1.1661   0.0000   0.0000   0.0000   0.2596
  -3.300  -0.3513   0.00695   0.00203   0.0048  0.8284  0.6410  -1.1322   0.0000   0.0000   0.0000   0.2607
  -3.200  -0.3414   0.00688   0.00200   0.0048  0.8229  0.6533  -1.0976   0.0000   0.0000   0.0000   0.2614
  -3.100  -0.3312   0.00684   0.00197   0.0049  0.8174  0.6637  -1.0630   0.0000   0.0000   0.0000   0.2619
  -3.000  -0.3209   0.00680   0.00194   0.0048  0.8120  0.6720  -1.0285   0.0000   0.0000   0.0000   0.2624
  -2.900  -0.3105   0.00678   0.00191   0.0048  0.8071  0.6785  -0.9942   0.0000   0.0000   0.0000   0.2627
  -2.800  -0.3000   0.00676   0.00189   0.0047  0.8027  0.6847  -0.9602   0.0000   0.0000   0.0000   0.2630
  -2.700  -0.2895   0.00673   0.00186   0.0046  0.7997  0.6904  -0.9265   0.0000   0.0000   0.0000   0.2633
  -2.600  -0.2791   0.00671   0.00184   0.0045  0.7986  0.6950  -0.8933   0.0000   0.0000   0.0000   0.2637
  -2.500  -0.2688   0.00670   0.00182   0.0045  0.7974  0.6983  -0.8606   0.0000   0.0000   0.0000   0.2641
  -2.400  -0.2582   0.00668   0.00180   0.0043  0.7959  0.7042  -0.8278   0.0000   0.0000   0.0000   0.2643
  -2.300  -0.2474   0.00664   0.00179   0.0042  0.7939  0.7161  -0.7949   0.0000   0.0000   0.0000   0.2644
  -2.200  -0.2368   0.00661   0.00179   0.0040  0.7915  0.7256  -0.7627   0.0000   0.0000   0.0000   0.2647
  -2.100  -0.2261   0.00659   0.00179   0.0039  0.7884  0.7335  -0.7307   0.0000   0.0000   0.0000   0.2650
  -2.000  -0.2153   0.00657   0.00179   0.0038  0.7849  0.7394  -0.6989   0.0000   0.0000   0.0000   0.2653
  -1.900  -0.2044   0.00656   0.00177   0.0036  0.7808  0.7436  -0.6673   0.0000   0.0000   0.0000   0.2654
  -1.800  -0.1937   0.00655   0.00175   0.0035  0.7759  0.7465  -0.6362   0.0000   0.0000   0.0000   0.2656
  -1.700  -0.1829   0.00655   0.00173   0.0033  0.7702  0.7483  -0.6054   0.0000   0.0000   0.0000   0.2658
  -1.600  -0.1722   0.00654   0.00170   0.0032  0.7641  0.7498  -0.5750   0.0000   0.0000   0.0000   0.2661
  -1.500  -0.1615   0.00655   0.00167   0.0030  0.7563  0.7524  -0.5449   0.0000   0.0000   0.0000   0.2666
  -1.400  -0.1509   0.00656   0.00165   0.0029  0.7463  0.7560  -0.5152   0.0000   0.0000   0.0000   0.2673
  -1.300  -0.1405   0.00658   0.00162   0.0029  0.7352  0.7598  -0.4860   0.0000   0.0000   0.0000   0.2684
  -1.200  -0.1302   0.00661   0.00159   0.0029  0.7235  0.7630  -0.4572   0.0000   0.0000   0.0000   0.2698
  -1.100  -0.1200   0.00663   0.00156   0.0028  0.7124  0.7652  -0.4290   0.0000   0.0000   0.0000   0.2716
  -1.000  -0.1097   0.00664   0.00153   0.0028  0.7042  0.7660  -0.4094   0.0000   0.0000   0.0000   0.2731
  -0.900  -0.0990   0.00664   0.00151   0.0026  0.7002  0.7650  -0.4007   0.0000   0.0000   0.0000   0.2741
  -0.800  -0.0883   0.00664   0.00148   0.0024  0.6993  0.7624  -0.3920   0.0000   0.0000   0.0000   0.2748
  -0.700  -0.0775   0.00663   0.00145   0.0021  0.6985  0.7587  -0.3833   0.0000   0.0000   0.0000   0.2756
  -0.600  -0.0667   0.00663   0.00142   0.0019  0.6978  0.7538  -0.3766   0.0000   0.0000   0.0000   0.2766
  -0.500  -0.0559   0.00664   0.00138   0.0017  0.6971  0.7471  -0.3701   0.0000   0.0000   0.0000   0.2777
  -0.400  -0.0451   0.00666   0.00134   0.0014  0.6964  0.7383  -0.3636   0.0000   0.0000   0.0000   0.2789
  -0.300  -0.0340   0.00669   0.00130   0.0011  0.6957  0.7267  -0.3571   0.0000   0.0000   0.0000   0.2793
  -0.200  -0.0224   0.00673   0.00126   0.0006  0.6951  0.7110  -0.3503   0.0000   0.0000   0.0000   0.2760
  -0.100  -0.0111   0.00676   0.00124   0.0003  0.6945  0.6988  -0.3435   0.0000   0.0000   0.0000   0.2726
   0.000  -0.0000   0.00678   0.00110   0.0000  0.6939  0.6939  -0.3369   0.0000   0.0000   0.0000   0.4687
   0.100   0.0111   0.00676   0.00124  -0.0003  0.6988  0.6945  -0.3435   0.0000   0.0000   0.0000   0.2726
   0.200   0.0224   0.00673   0.00126  -0.0006  0.7110  0.6951  -0.3503   0.0000   0.0000   0.0000   0.2760
   0.300   0.0340   0.00669   0.00130  -0.0011  0.7267  0.6957  -0.3571   0.0000   0.0000   0.0000   0.2793
   0.400   0.0451   0.00666   0.00134  -0.0014  0.7383  0.6964  -0.3636   0.0000   0.0000   0.0000   0.2789
   0.500   0.0559   0.00664   0.00138  -0.0017  0.7471  0.6971  -0.3701   0.0000   0.0000   0.0000   0.2777
   0.600   0.0667   0.00663   0.00142  -0.0019  0.7538  0.6978  -0.3766   0.0000   0.0000   0.0000   0.2766
   0.700   0.0775   0.00663   0.00145  -0.0021  0.7587  0.6985  -0.3833   0.0000   0.0000   0.0000   0.2756
   0.800   0.0883   0.00664   0.00148  -0.0024  0.7624  0.6993  -0.3920   0.0000   0.0000   0.0000   0.2748
   0.900   0.0991   0.00664   0.00151  -0.0026  0.7650  0.7002  -0.4007   0.0000   0.0000   0.0000   0.2741
   1.000   0.1097   0.00664   0.00153  -0.0028  0.7660  0.7042  -0.4094   0.0000   0.0000   0.0000   0.2731
   1.100   0.1200   0.00663   0.00156  -0.0028  0.7652  0.7124  -0.4290   0.0000   0.0000   0.0000   0.2716
   1.200   0.1302   0.00661   0.00159  -0.0029  0.7630  0.7235  -0.4572   0.0000   0.0000   0.0000   0.2699
   1.300   0.1405   0.00658   0.00162  -0.0029  0.7598  0.7352  -0.4860   0.0000   0.0000   0.0000   0.2684
   1.400   0.1509   0.00656   0.00165  -0.0029  0.7560  0.7463  -0.5152   0.0000   0.0000   0.0000   0.2673
   1.500   0.1615   0.00655   0.00167  -0.0030  0.7524  0.7563  -0.5449   0.0000   0.0000   0.0000   0.2666
   1.600   0.1722   0.00654   0.00170  -0.0032  0.7498  0.7641  -0.5750   0.0000   0.0000   0.0000   0.2661
   1.700   0.1829   0.00655   0.00173  -0.0033  0.7483  0.7702  -0.6054   0.0000   0.0000   0.0000   0.2658
   1.800   0.1937   0.00655   0.00175  -0.0035  0.7465  0.7759  -0.6362   0.0000   0.0000   0.0000   0.2656
   1.900   0.2044   0.00656   0.00177  -0.0036  0.7436  0.7808  -0.6673   0.0000   0.0000   0.0000   0.2654
   2.000   0.2153   0.00657   0.00179  -0.0038  0.7394  0.7849  -0.6989   0.0000   0.0000   0.0000   0.2653
   2.100   0.2261   0.00659   0.00179  -0.0039  0.7335  0.7884  -0.7307   0.0000   0.0000   0.0000   0.2650
   2.200   0.2368   0.00661   0.00179  -0.0040  0.7256  0.7915  -0.7627   0.0000   0.0000   0.0000   0.2647
   2.300   0.2474   0.00664   0.00179  -0.0042  0.7161  0.7939  -0.7949   0.0000   0.0000   0.0000   0.2644
   2.400   0.2582   0.00668   0.00180  -0.0043  0.7042  0.7959  -0.8278   0.0000   0.0000   0.0000   0.2643
   2.500   0.2688   0.00670   0.00182  -0.0045  0.6983  0.7974  -0.8606   0.0000   0.0000   0.0000   0.2641
   2.600   0.2791   0.00671   0.00184  -0.0045  0.6950  0.7986  -0.8933   0.0000   0.0000   0.0000   0.2637
   2.700   0.2895   0.00673   0.00186  -0.0046  0.6904  0.7997  -0.9265   0.0000   0.0000   0.0000   0.2633
   2.800   0.3000   0.00675   0.00189  -0.0047  0.6847  0.8027  -0.9602   0.0000   0.0000   0.0000   0.2630
   2.900   0.3105   0.00678   0.00191  -0.0048  0.6785  0.8071  -0.9942   0.0000   0.0000   0.0000   0.2627
   3.000   0.3209   0.00680   0.00194  -0.0048  0.6720  0.8120  -1.0285   0.0000   0.0000   0.0000   0.2624
   3.100   0.3312   0.00684   0.00197  -0.0049  0.6637  0.8174  -1.0630   0.0000   0.0000   0.0000   0.2619
   3.200   0.3414   0.00688   0.00200  -0.0048  0.6533  0.8229  -1.0976   0.0000   0.0000   0.0000   0.2614
   3.300   0.3513   0.00695   0.00203  -0.0048  0.6410  0.8284  -1.1322   0.0000   0.0000   0.0000   0.2607
   3.400   0.3606   0.00703   0.00206  -0.0045  0.6261  0.8339  -1.1661   0.0000   0.0000   0.0000   0.2596
   3.500   0.3698   0.00712   0.00210  -0.0043  0.6080  0.8400  -1.2002   0.0000   0.0000   0.0000   0.2586
   3.600   0.3799   0.00719   0.00215  -0.0043  0.5933  0.8471  -1.2361   0.0000   0.0000   0.0000   0.2582
   3.700   0.3882   0.00734   0.00219  -0.0038  0.5615  0.8547  -1.2696   0.0000   0.0000   0.0000   0.2567
   3.800   0.3915   0.00770   0.00225  -0.0023  0.4990  0.8626  -1.2946   0.0000   0.0000   0.0000   0.2527
   3.900   0.3968   0.00802   0.00232  -0.0013  0.4495  0.8691  -1.3235   0.0000   0.0000   0.0000   0.2500
   4.000   0.4013   0.00835   0.00242  -0.0002  0.3948  0.8749  -1.3505   0.0000   0.0000   0.0000   0.2471
   4.100   0.4087   0.00857   0.00250   0.0003  0.3644  0.8795  -1.3829   0.0000   0.0000   0.0000   0.2458
   4.200   0.4129   0.00898   0.00264   0.0013  0.3042  0.8835  -1.4097   0.0000   0.0000   0.0000   0.2432
   4.300   0.4197   0.00926   0.00275   0.0019  0.2683  0.8866  -1.4409   0.0000   0.0000   0.0000   0.2418
   4.400   0.4241   0.00974   0.00291   0.0028  0.1979  0.8892  -1.4676   0.0000   0.0000   0.0000   0.2396
   4.500   0.4277   0.01034   0.00311   0.0038  0.1412  0.8916  -1.4922   0.0000   0.0000   0.0000   0.2372
   4.600   0.4332   0.01081   0.00333   0.0045  0.0908  0.8937  -1.5193   0.0000   0.0000   0.0000   0.2356
   4.700   0.4391   0.01126   0.00353   0.0052  0.0564  0.8956  -1.5472   0.0000   0.0000   0.0000   0.2342
   4.800   0.4480   0.01142   0.00365   0.0054  0.0454  0.8974  -1.5800   0.0000   0.0000   0.0000   0.2339
   4.900   0.4571   0.01158   0.00376   0.0056  0.0402  0.8990  -1.6604   0.0000   0.0000   0.0000   0.2336
   5.000   0.4665   0.01174   0.00388   0.0057  0.0347  0.9011  -1.7605   0.0000   0.0000   0.0000   0.2335
   5.100   0.4771   0.01195   0.00411   0.0057  0.0285  0.9049  -1.8595   0.0000   0.0000   0.0000   0.2337
   5.200   0.4878   0.01210   0.00426   0.0056  0.0244  0.9077  -1.9669   0.0000   0.0000   0.0000   0.2342
   5.300   0.4981   0.01220   0.00433   0.0055  0.0208  0.9088  -2.0761   0.0000   0.0000   0.0000   0.2345
   5.400   0.5071   0.01253   0.00470   0.0059  0.0182  0.9102  -2.1471   0.0000   0.0000   0.0000   0.2338
   5.500   0.5161   0.01290   0.00516   0.0064  0.0174  0.9127  -2.2142   0.0000   0.0000   0.0000   0.2330
   5.600   0.5248   0.01336   0.00572   0.0070  0.0174  0.9159  -2.2719   0.0000   0.0000   0.0000   0.2320
   5.700   0.5322   0.01398   0.00647   0.0079  0.0180  0.9200  -2.3181   0.0000   0.0000   0.0000   0.2303
   5.800   0.5383   0.01490   0.00755   0.0093  0.0191  0.9248  -2.3313   0.0000   0.0000   0.0000   0.2277
   5.900   0.5445   0.01636   0.00921   0.0110  0.0212  0.9297  -2.3030   0.0000   0.0000   0.0000   0.2249
   6.000   0.5574   0.01820   0.01120   0.0121  0.0290  0.9337  -2.2434   0.0000   0.0000   0.0000   0.2233
   6.200   0.5940   0.02342   0.01750   0.0151  0.0624  0.9414  -1.9917   0.0000   0.0000   0.0000   0.2195
   6.300   0.6025   0.02422   0.01831   0.0156  0.0600  0.9437  -2.0515   0.0000   0.0000   0.0000   0.2190
   6.400   0.6109   0.02510   0.01915   0.0160  0.0578  0.9458  -2.1176   0.0000   0.0000   0.0000   0.2186
   6.900   0.6511   0.02920   0.02350   0.0170  0.0351  0.9569  -2.4963   0.0000   0.0000   0.0000   0.2183
   7.000   0.6616   0.02981   0.02404   0.0163  0.0322  0.9589  -2.6228   0.0000   0.0000   0.0000   0.2196
   7.100   0.6704   0.03066   0.02486   0.0158  0.0298  0.9612  -2.7384   0.0000   0.0000   0.0000   0.2205
   7.200   0.6745   0.03347   0.02774   0.0159  0.0271  0.9640  -2.7702   0.0000   0.0000   0.0000   0.2206
  12.100   0.5519   0.12247   0.11925   0.0140  0.0124  1.0000  -2.1814   0.0000   0.0000   0.0000   0.2118
  12.200   0.5518   0.12466   0.12144   0.0131  0.0124  1.0000  -2.1519   0.0000   0.0000   0.0000   0.2134
  12.300   0.5517   0.12682   0.12359   0.0122  0.0124  1.0000  -2.1238   0.0000   0.0000   0.0000   0.2149
  12.400   0.5518   0.12894   0.12571   0.0113  0.0123  1.0000  -2.0969   0.0000   0.0000   0.0000   0.2163
  12.500   0.5520   0.13103   0.12780   0.0105  0.0123  1.0000  -2.0713   0.0000   0.0000   0.0000   0.2178
  12.600   0.5522   0.13309   0.12986   0.0096  0.0123  1.0000  -2.0468   0.0000   0.0000   0.0000   0.2192
  12.700   0.5526   0.13512   0.13189   0.0088  0.0123  1.0000  -2.0234   0.0000   0.0000   0.0000   0.2206
  12.800   0.5531   0.13713   0.13390   0.0080  0.0123  1.0000  -2.0009   0.0000   0.0000   0.0000   0.2219
  12.900   0.5537   0.13911   0.13588   0.0072  0.0123  1.0000  -1.9794   0.0000   0.0000   0.0000   0.2232
  13.000   0.5544   0.14107   0.13784   0.0065  0.0123  1.0000  -1.9587   0.0000   0.0000   0.0000   0.2245
  13.100   0.5552   0.14301   0.13977   0.0057  0.0123  1.0000  -1.9389   0.0000   0.0000   0.0000   0.2258
  13.200   0.5560   0.14493   0.14169   0.0050  0.0122  1.0000  -1.9198   0.0000   0.0000   0.0000   0.2271
  13.300   0.5570   0.14683   0.14359   0.0042  0.0122  1.0000  -1.9015   0.0000   0.0000   0.0000   0.2283
  13.400   0.5580   0.14871   0.14547   0.0035  0.0122  1.0000  -1.8840   0.0000   0.0000   0.0000   0.2296
  13.500   0.5591   0.15057   0.14733   0.0027  0.0122  1.0000  -1.8671   0.0000   0.0000   0.0000   0.2308
  13.600   0.5603   0.15242   0.14917   0.0020  0.0122  1.0000  -1.8508   0.0000   0.0000   0.0000   0.2320
  13.700   0.5616   0.15425   0.15100   0.0013  0.0122  1.0000  -1.8352   0.0000   0.0000   0.0000   0.2331
  13.800   0.5629   0.15606   0.15281   0.0006  0.0121  1.0000  -1.8201   0.0000   0.0000   0.0000   0.2343
  13.900   0.5643   0.15786   0.15461  -0.0001  0.0121  1.0000  -1.8057   0.0000   0.0000   0.0000   0.2354
  14.000   0.5657   0.15964   0.15639  -0.0008  0.0121  1.0000  -1.7917   0.0000   0.0000   0.0000   0.2366
  14.100   0.5673   0.16141   0.15816  -0.0015  0.0121  1.0000  -1.7783   0.0000   0.0000   0.0000   0.2377
  14.200   0.5688   0.16317   0.15991  -0.0022  0.0121  1.0000  -1.7654   0.0000   0.0000   0.0000   0.2388
  14.300   0.5705   0.16491   0.16166  -0.0029  0.0121  1.0000  -1.7529   0.0000   0.0000   0.0000   0.2399
  14.400   0.5722   0.16665   0.16339  -0.0036  0.0120  1.0000  -1.7409   0.0000   0.0000   0.0000   0.2410
  14.500   0.5739   0.16837   0.16511  -0.0043  0.0120  1.0000  -1.7293   0.0000   0.0000   0.0000   0.2420
  14.600   0.5757   0.17008   0.16681  -0.0050  0.0120  1.0000  -1.7181   0.0000   0.0000   0.0000   0.2431
  14.700   0.5775   0.17177   0.16851  -0.0056  0.0120  1.0000  -1.7074   0.0000   0.0000   0.0000   0.2441
  14.800   0.5794   0.17341   0.17015  -0.0063  0.0120  1.0000  -1.6970   0.0000   0.0000   0.0000   0.2451
  14.900   0.5814   0.17499   0.17172  -0.0070  0.0119  1.0000  -1.6872   0.0000   0.0000   0.0000   0.2461
  15.000   0.5834   0.17652   0.17325  -0.0077  0.0119  1.0000  -1.6777   0.0000   0.0000   0.0000   0.2471
  15.100   0.5854   0.17803   0.17476  -0.0083  0.0119  1.0000  -1.6686   0.0000   0.0000   0.0000   0.2481
  15.200   0.5875   0.17954   0.17627  -0.0090  0.0119  1.0000  -1.6597   0.0000   0.0000   0.0000   0.2491
  15.300   0.5896   0.18105   0.17777  -0.0097  0.0119  1.0000  -1.6512   0.0000   0.0000   0.0000   0.2501
  15.400   0.5917   0.18256   0.17928  -0.0103  0.0119  1.0000  -1.6428   0.0000   0.0000   0.0000   0.2510
  15.500   0.5939   0.18408   0.18080  -0.0110  0.0118  1.0000  -1.6347   0.0000   0.0000   0.0000   0.2520
  15.600   0.5961   0.18560   0.18233  -0.0117  0.0118  1.0000  -1.6267   0.0000   0.0000   0.0000   0.2529
  15.700   0.5982   0.18713   0.18386  -0.0124  0.0118  1.0000  -1.6180   0.0000   0.0000   0.0000   0.2539
  15.800   0.6003   0.18867   0.18540  -0.0131  0.0118  1.0000  -1.6088   0.0000   0.0000   0.0000   0.2549
  15.900   0.6024   0.19022   0.18694  -0.0138  0.0117  1.0000  -1.5992   0.0000   0.0000   0.0000   0.2559
  16.000   0.6045   0.19177   0.18849  -0.0145  0.0117  1.0000  -1.5898   0.0000   0.0000   0.0000   0.2568
  16.100   0.6067   0.19333   0.19005  -0.0152  0.0117  1.0000  -1.5813   0.0000   0.0000   0.0000   0.2578
  16.200   0.6089   0.19490   0.19162  -0.0159  0.0117  1.0000  -1.5730   0.0000   0.0000   0.0000   0.2588
  16.300   0.6111   0.19648   0.19320  -0.0166  0.0117  1.0000  -1.5650   0.0000   0.0000   0.0000   0.2597
  16.400   0.6133   0.19807   0.19478  -0.0174  0.0116  1.0000  -1.5574   0.0000   0.0000   0.0000   0.2607
  16.500   0.6156   0.19966   0.19637  -0.0181  0.0116  1.0000  -1.5500   0.0000   0.0000   0.0000   0.2616
  16.600   0.6179   0.20126   0.19797  -0.0188  0.0116  1.0000  -1.5428   0.0000   0.0000   0.0000   0.2625
  16.700   0.6202   0.20287   0.19958  -0.0195  0.0116  1.0000  -1.5359   0.0000   0.0000   0.0000   0.2634
  16.800   0.6226   0.20448   0.20120  -0.0202  0.0116  1.0000  -1.5293   0.0000   0.0000   0.0000   0.2643
  16.900   0.6249   0.20610   0.20282  -0.0209  0.0115  1.0000  -1.5228   0.0000   0.0000   0.0000   0.2652
  17.000   0.6273   0.20773   0.20444  -0.0216  0.0115  1.0000  -1.5166   0.0000   0.0000   0.0000   0.2660
  17.100   0.6297   0.20936   0.20607  -0.0223  0.0115  1.0000  -1.5106   0.0000   0.0000   0.0000   0.2669
  17.200   0.6321   0.21100   0.20771  -0.0229  0.0115  1.0000  -1.5048   0.0000   0.0000   0.0000   0.2677
  17.300   0.6345   0.21265   0.20936  -0.0236  0.0115  1.0000  -1.4992   0.0000   0.0000   0.0000   0.2685
  17.400   0.6369   0.21430   0.21101  -0.0243  0.0114  1.0000  -1.4938   0.0000   0.0000   0.0000   0.2694
  17.500   0.6394   0.21596   0.21267  -0.0250  0.0114  1.0000  -1.4885   0.0000   0.0000   0.0000   0.2702
  17.600   0.6418   0.21762   0.21433  -0.0257  0.0114  1.0000  -1.4834   0.0000   0.0000   0.0000   0.2710
  17.700   0.6443   0.21929   0.21600  -0.0264  0.0114  1.0000  -1.4785   0.0000   0.0000   0.0000   0.2717
  17.800   0.6467   0.22097   0.21768  -0.0271  0.0113  1.0000  -1.4737   0.0000   0.0000   0.0000   0.2725
  17.900   0.6492   0.22265   0.21936  -0.0277  0.0113  1.0000  -1.4691   0.0000   0.0000   0.0000   0.2733
  18.000   0.6517   0.22434   0.22105  -0.0284  0.0113  1.0000  -1.4646   0.0000   0.0000   0.0000   0.2740
  18.100   0.6541   0.22603   0.22274  -0.0291  0.0113  1.0000  -1.4603   0.0000   0.0000   0.0000   0.2748
  18.200   0.6566   0.22773   0.22444  -0.0298  0.0113  1.0000  -1.4561   0.0000   0.0000   0.0000   0.2755
  18.300   0.6591   0.22944   0.22615  -0.0305  0.0112  1.0000  -1.4520   0.0000   0.0000   0.0000   0.2763
  18.400   0.6616   0.23115   0.22786  -0.0311  0.0112  1.0000  -1.4480   0.0000   0.0000   0.0000   0.2770
  18.500   0.6640   0.23287   0.22958  -0.0318  0.0112  1.0000  -1.4441   0.0000   0.0000   0.0000   0.2777
  18.600   0.6665   0.23459   0.23130  -0.0325  0.0112  1.0000  -1.4404   0.0000   0.0000   0.0000   0.2784
  18.700   0.6690   0.23632   0.23303  -0.0331  0.0111  1.0000  -1.4368   0.0000   0.0000   0.0000   0.2791
  18.800   0.6714   0.23806   0.23477  -0.0338  0.0111  1.0000  -1.4332   0.0000   0.0000   0.0000   0.2798
  18.900   0.6739   0.23980   0.23651  -0.0345  0.0111  1.0000  -1.4298   0.0000   0.0000   0.0000   0.2805
  19.000   0.6763   0.24154   0.23826  -0.0351  0.0111  1.0000  -1.4264   0.0000   0.0000   0.0000   0.2811
  19.100   0.6788   0.24330   0.24001  -0.0358  0.0111  1.0000  -1.4231   0.0000   0.0000   0.0000   0.2818
  19.200   0.6812   0.24506   0.24177  -0.0365  0.0110  1.0000  -1.4200   0.0000   0.0000   0.0000   0.2824
  19.300   0.6837   0.24682   0.24354  -0.0371  0.0110  1.0000  -1.4168   0.0000   0.0000   0.0000   0.2831
  19.400   0.6861   0.24859   0.24531  -0.0378  0.0110  1.0000  -1.4138   0.0000   0.0000   0.0000   0.2837
  19.500   0.6885   0.25037   0.24709  -0.0384  0.0110  1.0000  -1.4109   0.0000   0.0000   0.0000   0.2844
  19.600   0.6909   0.25215   0.24887  -0.0391  0.0110  1.0000  -1.4080   0.0000   0.0000   0.0000   0.2850
  19.700   0.6933   0.25394   0.25066  -0.0397  0.0109  1.0000  -1.4051   0.0000   0.0000   0.0000   0.2856
  19.800   0.6956   0.25574   0.25246  -0.0404  0.0109  1.0000  -1.4024   0.0000   0.0000   0.0000   0.2862
  19.900   0.6980   0.25754   0.25426  -0.0410  0.0109  1.0000  -1.3997   0.0000   0.0000   0.0000   0.2868
  20.000   0.7003   0.25934   0.25606  -0.0417  0.0109  1.0000  -1.3970   0.0000   0.0000   0.0000   0.2874
  20.100   0.7026   0.26115   0.25788  -0.0423  0.0108  1.0000  -1.3944   0.0000   0.0000   0.0000   0.2880
  20.200   0.7049   0.26297   0.25969  -0.0430  0.0108  1.0000  -1.3919   0.0000   0.0000   0.0000   0.2886
  20.300   0.7072   0.26479   0.26152  -0.0436  0.0108  1.0000  -1.3894   0.0000   0.0000   0.0000   0.2892
  20.400   0.7095   0.26662   0.26335  -0.0443  0.0108  1.0000  -1.3869   0.0000   0.0000   0.0000   0.2897
  20.500   0.7118   0.26845   0.26518  -0.0449  0.0108  1.0000  -1.3845   0.0000   0.0000   0.0000   0.2903
  20.600   0.7140   0.27029   0.26702  -0.0455  0.0107  1.0000  -1.3821   0.0000   0.0000   0.0000   0.2909
  20.700   0.7162   0.27213   0.26886  -0.0462  0.0107  1.0000  -1.3798   0.0000   0.0000   0.0000   0.2914
  20.800   0.7184   0.27398   0.27071  -0.0468  0.0107  1.0000  -1.3775   0.0000   0.0000   0.0000   0.2920
  20.900   0.7206   0.27583   0.27257  -0.0474  0.0107  1.0000  -1.3752   0.0000   0.0000   0.0000   0.2925
  21.000   0.7227   0.27769   0.27443  -0.0480  0.0107  1.0000  -1.3729   0.0000   0.0000   0.0000   0.2931
  21.100   0.7249   0.27955   0.27629  -0.0487  0.0106  1.0000  -1.3707   0.0000   0.0000   0.0000   0.2936
  21.200   0.7270   0.28142   0.27816  -0.0493  0.0106  1.0000  -1.3684   0.0000   0.0000   0.0000   0.2941
  21.300   0.7291   0.28329   0.28003  -0.0499  0.0106  1.0000  -1.3662   0.0000   0.0000   0.0000   0.2946
  21.400   0.7311   0.28516   0.28191  -0.0505  0.0106  1.0000  -1.3640   0.0000   0.0000   0.0000   0.2951
  21.500   0.7331   0.28704   0.28379  -0.0511  0.0105  1.0000  -1.3618   0.0000   0.0000   0.0000   0.2957
  21.600   0.7351   0.28892   0.28567  -0.0517  0.0105  1.0000  -1.3597   0.0000   0.0000   0.0000   0.2962


