xflr5 v6.61

 Calculated polar for: NACA M6 AIRFOIL

 1 1 Reynolds number fixed          Mach number fixed         

 xtrf =   1.000 (top)        1.000 (bottom)
 Mach =   0.000     Re =     0.300 e 6     Ncrit =   9.000

  alpha     CL        CD       CDp       Cm    Top Xtr Bot Xtr   Cpmin    Chinge    XCp    
 ------- -------- --------- --------- -------- ------- ------- -------- --------- ---------
 -10.000  -0.5351   0.10033   0.09704  -0.0089  1.0000  0.0524  -1.9167   0.0000   0.0000   0.0000   0.2250
  -9.900  -0.5347   0.09884   0.09556  -0.0090  1.0000  0.0530  -1.9045   0.0000   0.0000   0.0000   0.2249
  -9.800  -0.5285   0.09849   0.09521  -0.0078  1.0000  0.0536  -1.8445   0.0000   0.0000   0.0000   0.2271
  -9.700  -0.5230   0.09801   0.09474  -0.0071  1.0000  0.0543  -1.7950   0.0000   0.0000   0.0000   0.2285
  -9.600  -0.5187   0.09731   0.09405  -0.0068  1.0000  0.0548  -1.7584   0.0000   0.0000   0.0000   0.2292
  -9.500  -0.5145   0.09655   0.09329  -0.0065  1.0000  0.0554  -1.7266   0.0000   0.0000   0.0000   0.2296
  -9.400  -0.5116   0.09555   0.09231  -0.0066  1.0000  0.0559  -1.7066   0.0000   0.0000   0.0000   0.2295
  -9.300  -0.5095   0.09439   0.09115  -0.0070  1.0000  0.0563  -1.6951   0.0000   0.0000   0.0000   0.2289
  -9.200  -0.5081   0.09310   0.08988  -0.0075  1.0000  0.0567  -1.6897   0.0000   0.0000   0.0000   0.2280
  -9.100  -0.5072   0.09172   0.08850  -0.0082  1.0000  0.0570  -1.6887   0.0000   0.0000   0.0000   0.2268
  -9.000  -0.5067   0.09024   0.08703  -0.0090  1.0000  0.0573  -1.6910   0.0000   0.0000   0.0000   0.2253
  -8.900  -0.5063   0.08867   0.08547  -0.0099  1.0000  0.0576  -1.6956   0.0000   0.0000   0.0000   0.2235
  -8.800  -0.5062   0.08703   0.08385  -0.0110  1.0000  0.0579  -1.7022   0.0000   0.0000   0.0000   0.2215
  -8.700  -0.5067   0.08530   0.08213  -0.0123  1.0000  0.0582  -1.7117   0.0000   0.0000   0.0000   0.2191
  -8.600  -0.5080   0.08343   0.08027  -0.0139  1.0000  0.0585  -1.7253   0.0000   0.0000   0.0000   0.2162
  -8.500  -0.5102   0.08145   0.07829  -0.0157  1.0000  0.0588  -1.7430   0.0000   0.0000   0.0000   0.2130
  -8.400  -0.5128   0.07966   0.07650  -0.0170  1.0000  0.0591  -1.7589   0.0000   0.0000   0.0000   0.2109
  -8.300  -0.5158   0.07800   0.07483  -0.0179  1.0000  0.0594  -1.7736   0.0000   0.0000   0.0000   0.2095
  -8.200  -0.5180   0.07639   0.07322  -0.0186  1.0000  0.0597  -1.7861   0.0000   0.0000   0.0000   0.2085
  -8.100  -0.5199   0.07486   0.07168  -0.0191  1.0000  0.0600  -1.7969   0.0000   0.0000   0.0000   0.2079
  -8.000  -0.5214   0.07337   0.07018  -0.0195  1.0000  0.0604  -1.8063   0.0000   0.0000   0.0000   0.2073
  -7.900  -0.5216   0.07185   0.06864  -0.0200  1.0000  0.0608  -1.8136   0.0000   0.0000   0.0000   0.2064
  -7.800  -0.5213   0.07034   0.06712  -0.0205  1.0000  0.0613  -1.8198   0.0000   0.0000   0.0000   0.2056
  -7.700  -0.5205   0.06884   0.06561  -0.0210  1.0000  0.0617  -1.8249   0.0000   0.0000   0.0000   0.2047
  -7.600  -0.5191   0.06736   0.06411  -0.0214  1.0000  0.0623  -1.8291   0.0000   0.0000   0.0000   0.2039
  -7.500  -0.5175   0.06591   0.06263  -0.0217  1.0000  0.0628  -1.8328   0.0000   0.0000   0.0000   0.2032
  -7.400  -0.5160   0.06450   0.06119  -0.0220  1.0000  0.0634  -1.8361   0.0000   0.0000   0.0000   0.2026
  -7.300  -0.5141   0.06311   0.05978  -0.0222  1.0000  0.0641  -1.8389   0.0000   0.0000   0.0000   0.2021
  -7.200  -0.5119   0.06173   0.05838  -0.0224  1.0000  0.0647  -1.8413   0.0000   0.0000   0.0000   0.2016
  -7.100  -0.5093   0.06039   0.05700  -0.0226  1.0000  0.0655  -1.8435   0.0000   0.0000   0.0000   0.2011
  -7.000  -0.5065   0.05908   0.05566  -0.0227  1.0000  0.0663  -1.8458   0.0000   0.0000   0.0000   0.2007
  -6.900  -0.5036   0.05782   0.05437  -0.0227  1.0000  0.0672  -1.8484   0.0000   0.0000   0.0000   0.2005
  -6.800  -0.4966   0.05638   0.05287  -0.0235  0.9902  0.0684  -1.8499   0.0000   0.0000   0.0000   0.1982
  -6.700  -0.4873   0.05502   0.05141  -0.0246  0.9789  0.0700  -1.8518   0.0000   0.0000   0.0000   0.1950
  -6.600  -0.4757   0.05428   0.05054  -0.0258  0.9688  0.0719  -1.8499   0.0000   0.0000   0.0000   0.1912
  -6.500  -0.4592   0.05489   0.05103  -0.0268  0.9596  0.0737  -1.8197   0.0000   0.0000   0.0000   0.1870
  -6.400  -0.4456   0.05490   0.05093  -0.0277  0.9499  0.0743  -1.7935   0.0000   0.0000   0.0000   0.1831
  -6.300  -0.4393   0.05443   0.05038  -0.0274  0.9406  0.0745  -1.7797   0.0000   0.0000   0.0000   0.1831
  -6.200  -0.4330   0.05377   0.04965  -0.0270  0.9310  0.0747  -1.7673   0.0000   0.0000   0.0000   0.1830
  -6.100  -0.4271   0.05305   0.04883  -0.0266  0.9215  0.0748  -1.7558   0.0000   0.0000   0.0000   0.1832
  -6.000  -0.4216   0.05229   0.04799  -0.0260  0.9120  0.0748  -1.7447   0.0000   0.0000   0.0000   0.1838
  -5.900  -0.4159   0.05151   0.04712  -0.0254  0.9021  0.0749  -1.7335   0.0000   0.0000   0.0000   0.1843
  -5.800  -0.4342   0.04294   0.03829  -0.0247  0.8976  0.0775  -1.8785   0.0000   0.0000   0.0000   0.1885
  -5.700  -0.4291   0.04142   0.03676  -0.0244  0.8936  0.0785  -1.8590   0.0000   0.0000   0.0000   0.1886
  -5.600  -0.4222   0.04047   0.03582  -0.0241  0.8887  0.0792  -1.8292   0.0000   0.0000   0.0000   0.1883
  -5.500  -0.4143   0.03973   0.03511  -0.0239  0.8830  0.0799  -1.7946   0.0000   0.0000   0.0000   0.1879
  -5.400  -0.4064   0.03908   0.03448  -0.0236  0.8766  0.0806  -1.7602   0.0000   0.0000   0.0000   0.1875
  -5.300  -0.3988   0.03850   0.03390  -0.0232  0.8697  0.0813  -1.7265   0.0000   0.0000   0.0000   0.1874
  -5.200  -0.3912   0.03797   0.03336  -0.0228  0.8621  0.0820  -1.6936   0.0000   0.0000   0.0000   0.1873
  -5.100  -0.3837   0.03748   0.03284  -0.0224  0.8540  0.0828  -1.6616   0.0000   0.0000   0.0000   0.1874
  -5.000  -0.3762   0.03702   0.03235  -0.0219  0.8454  0.0837  -1.6305   0.0000   0.0000   0.0000   0.1876
  -4.900  -0.3686   0.03658   0.03187  -0.0214  0.8358  0.0847  -1.6003   0.0000   0.0000   0.0000   0.1878
  -4.800  -0.3606   0.03618   0.03142  -0.0210  0.8247  0.0859  -1.5706   0.0000   0.0000   0.0000   0.1877
  -4.700  -0.3519   0.03581   0.03101  -0.0207  0.8123  0.0872  -1.5408   0.0000   0.0000   0.0000   0.1870
  -4.600  -0.3423   0.03550   0.03067  -0.0207  0.7999  0.0887  -1.5106   0.0000   0.0000   0.0000   0.1855
  -4.500  -0.3328   0.03520   0.03034  -0.0204  0.7984  0.0904  -1.4809   0.0000   0.0000   0.0000   0.1846
  -4.400  -0.3229   0.03502   0.03014  -0.0202  0.7964  0.0922  -1.4503   0.0000   0.0000   0.0000   0.1835
  -4.300  -0.3124   0.03503   0.03013  -0.0199  0.7941  0.0940  -1.4175   0.0000   0.0000   0.0000   0.1820
  -4.200  -0.3009   0.03533   0.03042  -0.0198  0.7915  0.0959  -1.3804   0.0000   0.0000   0.0000   0.1802
  -4.100  -0.2883   0.03612   0.03120  -0.0196  0.7883  0.0977  -1.3358   0.0000   0.0000   0.0000   0.1779
  -4.000  -0.2748   0.03737   0.03246  -0.0194  0.7846  0.0991  -1.2854   0.0000   0.0000   0.0000   0.1753
  -3.900  -0.2636   0.03789   0.03294  -0.0191  0.7805  0.0996  -1.2496   0.0000   0.0000   0.0000   0.1733
  -3.800  -0.2775   0.02955   0.02422  -0.0180  0.7782  0.1078  -1.3610   0.0000   0.0000   0.0000   0.1809
  -3.700  -0.2696   0.02865   0.02331  -0.0178  0.7740  0.1101  -1.3338   0.0000   0.0000   0.0000   0.1799
  -3.600  -0.2611   0.02802   0.02268  -0.0175  0.7695  0.1121  -1.3035   0.0000   0.0000   0.0000   0.1787
  -3.500  -0.2523   0.02750   0.02216  -0.0173  0.7649  0.1142  -1.2728   0.0000   0.0000   0.0000   0.1773
  -3.400  -0.2432   0.02703   0.02171  -0.0171  0.7601  0.1163  -1.2410   0.0000   0.0000   0.0000   0.1756
  -3.300  -0.2340   0.02660   0.02127  -0.0168  0.7552  0.1186  -1.2102   0.0000   0.0000   0.0000   0.1739
  -3.200  -0.2248   0.02620   0.02086  -0.0166  0.7501  0.1211  -1.1804   0.0000   0.0000   0.0000   0.1721
  -3.100  -0.2156   0.02583   0.02045  -0.0163  0.7447  0.1238  -1.1518   0.0000   0.0000   0.0000   0.1702
  -3.000  -0.2062   0.02548   0.02007  -0.0161  0.7389  0.1269  -1.1242   0.0000   0.0000   0.0000   0.1681
  -2.900  -0.1966   0.02516   0.01971  -0.0158  0.7324  0.1304  -1.0973   0.0000   0.0000   0.0000   0.1654
  -2.800  -0.1865   0.02491   0.01942  -0.0156  0.7254  0.1341  -1.0708   0.0000   0.0000   0.0000   0.1619
  -2.700  -0.1759   0.02478   0.01925  -0.0156  0.7180  0.1381  -1.0437   0.0000   0.0000   0.0000   0.1573
  -2.600  -0.1644   0.02488   0.01933  -0.0155  0.7105  0.1421  -1.0145   0.0000   0.0000   0.0000   0.1511
  -2.500  -0.1515   0.02561   0.02006  -0.0157  0.7030  0.1462  -0.9773   0.0000   0.0000   0.0000   0.1421
  -2.400  -0.1471   0.02349   0.01778  -0.0153  0.6997  0.1570  -0.9770   0.0000   0.0000   0.0000   0.1412
  -2.300  -0.1390   0.02236   0.01671  -0.0152  0.6991  0.1619  -0.9537   0.0000   0.0000   0.0000   0.1362
  -2.200  -0.1296   0.02186   0.01626  -0.0150  0.6984  0.1655  -0.9256   0.0000   0.0000   0.0000   0.1294
  -2.100  -0.1050   0.01779   0.01060  -0.0124  0.6981  0.0783  -1.1884   0.0000   0.0000   0.0000   0.1229
  -2.000  -0.0927   0.01707   0.00981  -0.0122  0.6973  0.0701  -1.1924   0.0000   0.0000   0.0000   0.1092
  -1.900  -0.0809   0.01601   0.00860  -0.0118  0.6965  0.0644  -1.2092   0.0000   0.0000   0.0000   0.0932
  -1.800  -0.0687   0.01522   0.00762  -0.0114  0.6955  0.0586  -1.2288   0.0000   0.0000   0.0000   0.0713
  -1.700  -0.0572   0.01493   0.00722  -0.0112  0.6943  0.0559  -1.2168   0.0000   0.0000   0.0000   0.0395
  -1.600  -0.0460   0.01478   0.00704  -0.0111  0.6930  0.0544  -1.1891   0.0000   0.0000   0.0000  -0.0085
  -1.500  -0.0350   0.01467   0.00693  -0.0111  0.6915  0.0534  -1.1572   0.0000   0.0000   0.0000  -0.0871
  -1.400  -0.0239   0.01458   0.00684  -0.0110  0.6898  0.0525  -1.1237   0.0000   0.0000   0.0000  -0.2384
  -1.300  -0.0129   0.01451   0.00677  -0.0110  0.6880  0.0518  -1.0894   0.0000   0.0000   0.0000  -0.6473
  -1.200  -0.0019   0.01445   0.00671  -0.0109  0.6860  0.0511  -1.0547   0.0000   0.0000   0.0000  -5.6851
  -1.100   0.0090   0.01439   0.00666  -0.0109  0.6838  0.0505  -1.0199   0.0000   0.0000   0.0000   1.5161
  -1.000   0.0196   0.01415   0.00639  -0.0107  0.6815  0.0498  -0.9947   0.0000   0.0000   0.0000   0.8239
  -0.900   0.0295   0.01370   0.00591  -0.0104  0.6791  0.0492  -0.9809   0.0000   0.0000   0.0000   0.6195
  -0.800   0.0395   0.01340   0.00558  -0.0101  0.6766  0.0487  -0.9607   0.0000   0.0000   0.0000   0.5179
  -0.700   0.0496   0.01316   0.00532  -0.0099  0.6739  0.0482  -0.9381   0.0000   0.0000   0.0000   0.4574
  -0.600   0.0597   0.01296   0.00509  -0.0096  0.6710  0.0478  -0.9139   0.0000   0.0000   0.0000   0.4175
  -0.500   0.0699   0.01279   0.00489  -0.0094  0.6679  0.0473  -0.8887   0.0000   0.0000   0.0000   0.3893
  -0.400   0.0802   0.01264   0.00471  -0.0092  0.6644  0.0468  -0.8626   0.0000   0.0000   0.0000   0.3682
  -0.300   0.0904   0.01250   0.00453  -0.0089  0.6604  0.0464  -0.8359   0.0000   0.0000   0.0000   0.3517
  -0.200   0.1005   0.01238   0.00436  -0.0087  0.6559  0.0459  -0.8086   0.0000   0.0000   0.0000   0.3385
  -0.100   0.1107   0.01227   0.00420  -0.0084  0.6509  0.0455  -0.7808   0.0000   0.0000   0.0000   0.3277
   0.000   0.1209   0.01218   0.00405  -0.0082  0.6451  0.0451  -0.7527   0.0000   0.0000   0.0000   0.3186
   0.100   0.1310   0.01211   0.00390  -0.0079  0.6379  0.0447  -0.7243   0.0000   0.0000   0.0000   0.3109
   0.200   0.1412   0.01207   0.00379  -0.0077  0.6287  0.0444  -0.6956   0.0000   0.0000   0.0000   0.3046
   0.300   0.1517   0.01207   0.00373  -0.0075  0.6172  0.0440  -0.6665   0.0000   0.0000   0.0000   0.2997
   0.400   0.1624   0.01216   0.00377  -0.0075  0.6041  0.0437  -0.6370   0.0000   0.0000   0.0000   0.2962
   0.500   0.1731   0.01211   0.00371  -0.0074  0.5994  0.0434  -0.6090   0.0000   0.0000   0.0000   0.2926
   0.600   0.1839   0.01199   0.00357  -0.0073  0.5982  0.0431  -0.6190   0.0000   0.0000   0.0000   0.2890
   0.700   0.1952   0.01205   0.00375  -0.0075  0.5984  0.0433  -0.6282   0.0000   0.0000   0.0000   0.2875
   0.800   0.2061   0.01199   0.00368  -0.0074  0.5975  0.0432  -0.6381   0.0000   0.0000   0.0000   0.2851
   0.900   0.2171   0.01194   0.00360  -0.0074  0.5965  0.0431  -0.6480   0.0000   0.0000   0.0000   0.2829
   1.000   0.2281   0.01189   0.00352  -0.0074  0.5952  0.0430  -0.6579   0.0000   0.0000   0.0000   0.2810
   1.100   0.2390   0.01184   0.00345  -0.0073  0.5937  0.0429  -0.6678   0.0000   0.0000   0.0000   0.2792
   1.200   0.2500   0.01180   0.00338  -0.0073  0.5918  0.0430  -0.6778   0.0000   0.0000   0.0000   0.2777
   1.300   0.2609   0.01177   0.00331  -0.0073  0.5897  0.0430  -0.6878   0.0000   0.0000   0.0000   0.2763
   1.400   0.2719   0.01173   0.00324  -0.0073  0.5872  0.0431  -0.6990   0.0000   0.0000   0.0000   0.2750
   1.500   0.2828   0.01170   0.00318  -0.0073  0.5843  0.0433  -0.7109   0.0000   0.0000   0.0000   0.2738
   1.600   0.2937   0.01167   0.00312  -0.0073  0.5811  0.0435  -0.7229   0.0000   0.0000   0.0000   0.2726
   1.700   0.3046   0.01164   0.00306  -0.0073  0.5775  0.0439  -0.7348   0.0000   0.0000   0.0000   0.2716
   1.800   0.3154   0.01162   0.00301  -0.0072  0.5736  0.0444  -0.7468   0.0000   0.0000   0.0000   0.2706
   1.900   0.3263   0.01161   0.00297  -0.0072  0.5695  0.0452  -0.7589   0.0000   0.0000   0.0000   0.2697
   2.000   0.3371   0.01159   0.00294  -0.0072  0.5651  0.0460  -0.7709   0.0000   0.0000   0.0000   0.2688
   2.100   0.3479   0.01159   0.00291  -0.0071  0.5605  0.0468  -0.7830   0.0000   0.0000   0.0000   0.2679
   2.200   0.3587   0.01158   0.00290  -0.0071  0.5557  0.0478  -0.7950   0.0000   0.0000   0.0000   0.2671
   2.300   0.3694   0.01158   0.00291  -0.0071  0.5509  0.0493  -0.8071   0.0000   0.0000   0.0000   0.2663
   2.400   0.3735   0.01068   0.00287  -0.0061  0.5469  0.3374  -0.8144   0.0000   0.0000   0.0000   0.2635
   2.500   0.3727   0.00908   0.00307  -0.0033  0.5433  0.8745  -0.8198   0.0000   0.0000   0.0000   0.2558
   2.600   0.4004   0.00929   0.00333  -0.0065  0.5360  0.9231  -0.8433   0.0000   0.0000   0.0000   0.2632
   2.700   0.4145   0.00946   0.00349  -0.0070  0.5295  0.9410  -0.8577   0.0000   0.0000   0.0000   0.2636
   2.800   0.4200   0.00959   0.00360  -0.0056  0.5235  0.9492  -0.8665   0.0000   0.0000   0.0000   0.2601
   2.900   0.4441   0.00976   0.00375  -0.0084  0.5137  0.9559  -0.8875   0.0000   0.0000   0.0000   0.2656
   3.000   0.4663   0.00995   0.00390  -0.0109  0.5033  0.9604  -0.9310   0.0000   0.0000   0.0000   0.2699
   3.100   0.4863   0.01003   0.00399  -0.0128  0.4994  0.9644  -0.9818   0.0000   0.0000   0.0000   0.2729
   3.200   0.5048   0.01007   0.00404  -0.0145  0.4985  0.9681  -1.0311   0.0000   0.0000   0.0000   0.2751
   3.300   0.5224   0.01010   0.00408  -0.0159  0.4972  0.9716  -1.0792   0.0000   0.0000   0.0000   0.2768
   3.400   0.5392   0.01012   0.00411  -0.0172  0.4954  0.9749  -1.1267   0.0000   0.0000   0.0000   0.2782
   3.500   0.5698   0.01025   0.00424  -0.0213  0.4920  0.9850  -1.1986   0.0000   0.0000   0.0000   0.2835
   3.600   0.6238   0.01052   0.00449  -0.0302  0.4848  1.0000  -1.3133   0.0000   0.0000   0.0000   0.2944
   3.700   0.6339   0.01052   0.00448  -0.0301  0.4805  1.0000  -1.3512   0.0000   0.0000   0.0000   0.2934
   3.800   0.6440   0.01054   0.00448  -0.0300  0.4753  1.0000  -1.3892   0.0000   0.0000   0.0000   0.2925
   3.900   0.6540   0.01055   0.00447  -0.0299  0.4694  1.0000  -1.4275   0.0000   0.0000   0.0000   0.2915
   4.000   0.6640   0.01058   0.00445  -0.0298  0.4629  1.0000  -1.4659   0.0000   0.0000   0.0000   0.2906
   4.100   0.6739   0.01061   0.00444  -0.0297  0.4559  1.0000  -1.5045   0.0000   0.0000   0.0000   0.2897
   4.200   0.6838   0.01065   0.00443  -0.0296  0.4487  1.0000  -1.5433   0.0000   0.0000   0.0000   0.2888
   4.300   0.6936   0.01070   0.00442  -0.0295  0.4411  1.0000  -1.5822   0.0000   0.0000   0.0000   0.2879
   4.400   0.7034   0.01076   0.00442  -0.0294  0.4329  1.0000  -1.6211   0.0000   0.0000   0.0000   0.2870
   4.500   0.7131   0.01082   0.00444  -0.0293  0.4239  1.0000  -1.6602   0.0000   0.0000   0.0000   0.2862
   4.600   0.7228   0.01087   0.00447  -0.0291  0.4143  1.0000  -1.6994   0.0000   0.0000   0.0000   0.2854
   4.700   0.7326   0.01093   0.00451  -0.0290  0.4053  1.0000  -1.7390   0.0000   0.0000   0.0000   0.2846
   4.800   0.7425   0.01098   0.00455  -0.0289  0.3996  1.0000  -1.7789   0.0000   0.0000   0.0000   0.2839
   4.900   0.7524   0.01099   0.00458  -0.0288  0.3983  1.0000  -1.8191   0.0000   0.0000   0.0000   0.2831
   5.000   0.7622   0.01101   0.00462  -0.0287  0.3967  1.0000  -1.8595   0.0000   0.0000   0.0000   0.2824
   5.100   0.7719   0.01103   0.00465  -0.0286  0.3944  1.0000  -1.8999   0.0000   0.0000   0.0000   0.2816
   5.200   0.7816   0.01106   0.00468  -0.0285  0.3914  1.0000  -1.9404   0.0000   0.0000   0.0000   0.2809
   5.300   0.7913   0.01109   0.00472  -0.0283  0.3874  1.0000  -1.9808   0.0000   0.0000   0.0000   0.2802
   5.400   0.8008   0.01114   0.00475  -0.0282  0.3818  1.0000  -2.0212   0.0000   0.0000   0.0000   0.2794
   5.500   0.8102   0.01120   0.00478  -0.0280  0.3737  1.0000  -2.0613   0.0000   0.0000   0.0000   0.2787
   5.600   0.8193   0.01129   0.00480  -0.0277  0.3620  1.0000  -2.1010   0.0000   0.0000   0.0000   0.2779
   5.700   0.8280   0.01143   0.00482  -0.0275  0.3457  1.0000  -2.1397   0.0000   0.0000   0.0000   0.2771
   5.800   0.8360   0.01163   0.00487  -0.0271  0.3245  1.0000  -2.1769   0.0000   0.0000   0.0000   0.2763
   5.900   0.8441   0.01181   0.00496  -0.0268  0.2986  1.0000  -2.2133   0.0000   0.0000   0.0000   0.2755
   6.000   0.8529   0.01195   0.00505  -0.0265  0.2882  1.0000  -2.2505   0.0000   0.0000   0.0000   0.2747
   6.100   0.8608   0.01220   0.00517  -0.0262  0.2672  1.0000  -2.2846   0.0000   0.0000   0.0000   0.2739
   6.200   0.8665   0.01273   0.00536  -0.0256  0.2268  1.0000  -2.3126   0.0000   0.0000   0.0000   0.2730
   6.300   0.8731   0.01314   0.00560  -0.0252  0.1858  1.0000  -2.3396   0.0000   0.0000   0.0000   0.2721
   6.400   0.8759   0.01401   0.00605  -0.0243  0.1431  1.0000  -2.3583   0.0000   0.0000   0.0000   0.2710
   6.500   0.8779   0.01499   0.00661  -0.0234  0.0871  1.0000  -2.3748   0.0000   0.0000   0.0000   0.2697
   6.600   0.8834   0.01549   0.00699  -0.0227  0.0694  1.0000  -2.3963   0.0000   0.0000   0.0000   0.2686
   6.700   0.8900   0.01581   0.00727  -0.0221  0.0621  1.0000  -2.4208   0.0000   0.0000   0.0000   0.2676
   6.800   0.8970   0.01612   0.00754  -0.0215  0.0557  1.0000  -2.4413   0.0000   0.0000   0.0000   0.2666
   6.900   0.9041   0.01641   0.00787  -0.0208  0.0517  1.0000  -2.4553   0.0000   0.0000   0.0000   0.2656
   7.000   0.9108   0.01672   0.00822  -0.0201  0.0500  1.0000  -2.4719   0.0000   0.0000   0.0000   0.2645
   7.100   0.9182   0.01693   0.00846  -0.0195  0.0498  1.0000  -2.5030   0.0000   0.0000   0.0000   0.2636
   7.200   0.9255   0.01712   0.00868  -0.0190  0.0495  1.0000  -2.5364   0.0000   0.0000   0.0000   0.2627
   7.300   0.9328   0.01731   0.00888  -0.0184  0.0492  1.0000  -2.5720   0.0000   0.0000   0.0000   0.2619
   7.400   0.9402   0.01748   0.00907  -0.0179  0.0487  1.0000  -2.6094   0.0000   0.0000   0.0000   0.2610
   7.500   0.9475   0.01765   0.00925  -0.0173  0.0482  1.0000  -2.6479   0.0000   0.0000   0.0000   0.2602
   7.600   0.9547   0.01782   0.00944  -0.0168  0.0477  1.0000  -2.6870   0.0000   0.0000   0.0000   0.2593
   7.700   0.9619   0.01799   0.00962  -0.0162  0.0470  1.0000  -2.7265   0.0000   0.0000   0.0000   0.2585
   7.800   0.9689   0.01817   0.00981  -0.0156  0.0463  1.0000  -2.7657   0.0000   0.0000   0.0000   0.2577
   7.900   0.9757   0.01836   0.01001  -0.0150  0.0457  1.0000  -2.8043   0.0000   0.0000   0.0000   0.2568
   8.000   0.9823   0.01855   0.01023  -0.0144  0.0451  1.0000  -2.8418   0.0000   0.0000   0.0000   0.2559
   8.100   0.9886   0.01877   0.01046  -0.0137  0.0446  1.0000  -2.8776   0.0000   0.0000   0.0000   0.2550
   8.200   0.9946   0.01900   0.01071  -0.0129  0.0443  1.0000  -2.9110   0.0000   0.0000   0.0000   0.2540
   8.300   1.0004   0.01924   0.01097  -0.0121  0.0440  1.0000  -2.9438   0.0000   0.0000   0.0000   0.2530
   8.400   1.0060   0.01949   0.01125  -0.0113  0.0437  1.0000  -2.9764   0.0000   0.0000   0.0000   0.2520
   8.500   1.0115   0.01974   0.01152  -0.0105  0.0434  1.0000  -3.0089   0.0000   0.0000   0.0000   0.2510
   8.600   1.0167   0.02000   0.01181  -0.0096  0.0431  1.0000  -3.0413   0.0000   0.0000   0.0000   0.2499
   8.700   1.0218   0.02027   0.01209  -0.0087  0.0428  1.0000  -3.0736   0.0000   0.0000   0.0000   0.2489
   8.800   1.0268   0.02053   0.01238  -0.0078  0.0425  1.0000  -3.1057   0.0000   0.0000   0.0000   0.2478
   8.900   1.0315   0.02080   0.01268  -0.0069  0.0422  1.0000  -3.1378   0.0000   0.0000   0.0000   0.2467
   9.000   1.0361   0.02108   0.01297  -0.0059  0.0420  1.0000  -3.1698   0.0000   0.0000   0.0000   0.2457
   9.100   1.0405   0.02136   0.01327  -0.0050  0.0417  1.0000  -3.2016   0.0000   0.0000   0.0000   0.2446
   9.200   1.0447   0.02164   0.01358  -0.0040  0.0414  1.0000  -3.2333   0.0000   0.0000   0.0000   0.2434
   9.300   1.0488   0.02192   0.01388  -0.0030  0.0411  1.0000  -3.2650   0.0000   0.0000   0.0000   0.2423
   9.400   1.0527   0.02221   0.01419  -0.0019  0.0407  1.0000  -3.2965   0.0000   0.0000   0.0000   0.2412
   9.500   1.0539   0.02263   0.01490  -0.0007  0.0313  1.0000  -3.4394   0.0000   0.0000   0.0000   0.2399
   9.600   1.0469   0.02352   0.01585   0.0019  0.0281  1.0000  -3.4508   0.0000   0.0000   0.0000   0.2372
   9.700   1.0395   0.02434   0.01673   0.0046  0.0265  1.0000  -3.4498   0.0000   0.0000   0.0000   0.2344
   9.800   1.0322   0.02529   0.01777   0.0071  0.0253  1.0000  -3.4431   0.0000   0.0000   0.0000   0.2318
   9.900   1.0719   0.02348   0.01562   0.0027  0.0208  1.0000  -3.8989   0.0000   0.0000   0.0000   0.2361
  10.000   1.0749   0.02374   0.01587   0.0038  0.0200  1.0000  -3.9724   0.0000   0.0000   0.0000   0.2349
  10.100   1.0772   0.02406   0.01619   0.0049  0.0193  1.0000  -4.0388   0.0000   0.0000   0.0000   0.2337
  10.200   1.0794   0.02441   0.01655   0.0060  0.0188  1.0000  -4.1025   0.0000   0.0000   0.0000   0.2326
  10.300   1.0819   0.02479   0.01694   0.0069  0.0183  1.0000  -4.1655   0.0000   0.0000   0.0000   0.2315
  10.400   1.0841   0.02521   0.01737   0.0078  0.0179  1.0000  -4.2252   0.0000   0.0000   0.0000   0.2305
  10.500   1.0858   0.02567   0.01785   0.0088  0.0176  1.0000  -4.2811   0.0000   0.0000   0.0000   0.2295
  10.600   1.0877   0.02616   0.01835   0.0096  0.0172  1.0000  -4.3363   0.0000   0.0000   0.0000   0.2285
  10.700   1.0899   0.02667   0.01888   0.0103  0.0169  1.0000  -4.3913   0.0000   0.0000   0.0000   0.2277
  10.800   1.0921   0.02721   0.01944   0.0111  0.0167  1.0000  -4.4447   0.0000   0.0000   0.0000   0.2269
  10.900   1.0942   0.02779   0.02004   0.0117  0.0164  1.0000  -4.4963   0.0000   0.0000   0.0000   0.2261
  11.000   1.0963   0.02840   0.02068   0.0124  0.0162  1.0000  -4.5459   0.0000   0.0000   0.0000   0.2253
  11.100   1.0980   0.02906   0.02137   0.0130  0.0160  1.0000  -4.5926   0.0000   0.0000   0.0000   0.2246
  11.200   1.0988   0.02983   0.02217   0.0135  0.0158  1.0000  -4.6337   0.0000   0.0000   0.0000   0.2239
  11.300   1.0996   0.03061   0.02299   0.0140  0.0157  1.0000  -4.6742   0.0000   0.0000   0.0000   0.2233
  11.400   1.1008   0.03140   0.02380   0.0145  0.0155  1.0000  -4.7153   0.0000   0.0000   0.0000   0.2227
  11.500   1.1021   0.03218   0.02462   0.0150  0.0154  1.0000  -4.7562   0.0000   0.0000   0.0000   0.2221
  11.600   1.1034   0.03298   0.02546   0.0154  0.0153  1.0000  -4.7965   0.0000   0.0000   0.0000   0.2215
  11.700   1.1046   0.03380   0.02632   0.0159  0.0152  1.0000  -4.8357   0.0000   0.0000   0.0000   0.2209
  11.800   1.1057   0.03464   0.02720   0.0163  0.0151  1.0000  -4.8738   0.0000   0.0000   0.0000   0.2203
  11.900   1.1067   0.03550   0.02810   0.0168  0.0151  1.0000  -4.9107   0.0000   0.0000   0.0000   0.2197
  12.000   1.1067   0.03648   0.02912   0.0171  0.0150  1.0000  -4.9428   0.0000   0.0000   0.0000   0.2192
  12.100   1.1063   0.03750   0.03019   0.0174  0.0150  1.0000  -4.9722   0.0000   0.0000   0.0000   0.2187
  12.200   1.1063   0.03845   0.03119   0.0178  0.0149  1.0000  -5.0034   0.0000   0.0000   0.0000   0.2182
  12.300   1.1067   0.03937   0.03216   0.0182  0.0149  1.0000  -5.0361   0.0000   0.0000   0.0000   0.2176
  12.400   1.1073   0.04029   0.03313   0.0186  0.0149  1.0000  -5.0695   0.0000   0.0000   0.0000   0.2171
  12.500   1.1081   0.04121   0.03410   0.0189  0.0149  1.0000  -5.1033   0.0000   0.0000   0.0000   0.2166
  12.600   1.1090   0.04215   0.03508   0.0193  0.0149  1.0000  -5.1368   0.0000   0.0000   0.0000   0.2160
  12.700   1.1099   0.04309   0.03608   0.0197  0.0149  1.0000  -5.1699   0.0000   0.0000   0.0000   0.2155
  12.800   1.1108   0.04406   0.03710   0.0201  0.0150  1.0000  -5.2021   0.0000   0.0000   0.0000   0.2150
  12.900   1.1116   0.04505   0.03815   0.0204  0.0150  1.0000  -5.2331   0.0000   0.0000   0.0000   0.2145
  13.000   1.1123   0.04608   0.03923   0.0208  0.0151  1.0000  -5.2622   0.0000   0.0000   0.0000   0.2140
  13.100   1.1128   0.04714   0.04036   0.0211  0.0152  1.0000  -5.2889   0.0000   0.0000   0.0000   0.2135
  13.200   1.1130   0.04826   0.04154   0.0215  0.0153  1.0000  -5.3119   0.0000   0.0000   0.0000   0.2130
  13.300   1.1128   0.04944   0.04280   0.0218  0.0154  1.0000  -5.3301   0.0000   0.0000   0.0000   0.2125
  13.400   1.1117   0.05076   0.04420   0.0221  0.0155  1.0000  -5.3399   0.0000   0.0000   0.0000   0.2120
  13.500   1.1088   0.05232   0.04586   0.0223  0.0157  1.0000  -5.3375   0.0000   0.0000   0.0000   0.2116
  13.600   1.1054   0.05398   0.04763   0.0225  0.0158  1.0000  -5.3261   0.0000   0.0000   0.0000   0.2111
  13.700   1.1013   0.05579   0.04957   0.0229  0.0161  1.0000  -5.3014   0.0000   0.0000   0.0000   0.2105
  13.800   1.0957   0.05785   0.05178   0.0232  0.0164  1.0000  -5.2595   0.0000   0.0000   0.0000   0.2099
  13.900   1.0884   0.06017   0.05426   0.0235  0.0167  1.0000  -5.2033   0.0000   0.0000   0.0000   0.2093
  14.000   1.0799   0.06267   0.05692   0.0236  0.0171  1.0000  -5.1397   0.0000   0.0000   0.0000   0.2088
  14.100   1.0707   0.06526   0.05967   0.0236  0.0174  1.0000  -5.0749   0.0000   0.0000   0.0000   0.2085
  14.200   1.0609   0.06782   0.06236   0.0234  0.0177  1.0000  -5.0137   0.0000   0.0000   0.0000   0.2083
  14.300   1.0507   0.07041   0.06508   0.0230  0.0179  1.0000  -4.9548   0.0000   0.0000   0.0000   0.2082
  14.400   1.0401   0.07315   0.06794   0.0223  0.0181  1.0000  -4.8971   0.0000   0.0000   0.0000   0.2084
  14.500   1.0294   0.07601   0.07088   0.0210  0.0181  1.0000  -4.8532   0.0000   0.0000   0.0000   0.2092
  14.600   1.0189   0.07898   0.07395   0.0199  0.0183  1.0000  -4.7982   0.0000   0.0000   0.0000   0.2099
  14.700   1.0086   0.08206   0.07713   0.0188  0.0185  1.0000  -4.7371   0.0000   0.0000   0.0000   0.2106
  14.800   0.9982   0.08523   0.08041   0.0176  0.0186  1.0000  -4.6747   0.0000   0.0000   0.0000   0.2113
  14.900   0.9879   0.08845   0.08372   0.0162  0.0188  1.0000  -4.6132   0.0000   0.0000   0.0000   0.2123
  15.000   0.9776   0.09174   0.08711   0.0147  0.0189  1.0000  -4.5534   0.0000   0.0000   0.0000   0.2135
  15.100   0.9671   0.09523   0.09067   0.0126  0.0189  1.0000  -4.5027   0.0000   0.0000   0.0000   0.2152
  15.200   0.9567   0.09883   0.09434   0.0105  0.0189  1.0000  -4.4452   0.0000   0.0000   0.0000   0.2170
  15.300   0.9464   0.10243   0.09801   0.0088  0.0190  1.0000  -4.3765   0.0000   0.0000   0.0000   0.2186
  15.400   0.9360   0.10609   0.10175   0.0070  0.0192  1.0000  -4.3029   0.0000   0.0000   0.0000   0.2202
  15.500   0.9255   0.10991   0.10565   0.0050  0.0193  1.0000  -4.2258   0.0000   0.0000   0.0000   0.2221
  15.600   0.9146   0.11395   0.10977   0.0028  0.0194  1.0000  -4.1456   0.0000   0.0000   0.0000   0.2243
  15.700   0.9031   0.11842   0.11430  -0.0001  0.0193  1.0000  -4.0673   0.0000   0.0000   0.0000   0.2273
  15.800   0.8913   0.12294   0.11888  -0.0028  0.0193  1.0000  -3.9729   0.0000   0.0000   0.0000   0.2302
  15.900   0.8791   0.12762   0.12362  -0.0053  0.0194  1.0000  -3.8595   0.0000   0.0000   0.0000   0.2330
  16.000   0.8656   0.13289   0.12895  -0.0080  0.0196  1.0000  -3.7205   0.0000   0.0000   0.0000   0.2362
  16.100   0.8482   0.13974   0.13587  -0.0116  0.0197  1.0000  -3.5254   0.0000   0.0000   0.0000   0.2408
  16.200   0.8239   0.14922   0.14541  -0.0160  0.0201  1.0000  -3.1967   0.0000   0.0000   0.0000   0.2469
  16.300   0.8038   0.15751   0.15372  -0.0194  0.0210  1.0000  -2.8742   0.0000   0.0000   0.0000   0.2520
  16.400   0.7923   0.16307   0.15927  -0.0218  0.0217  1.0000  -2.6768   0.0000   0.0000   0.0000   0.2555
  16.500   0.7827   0.16805   0.16425  -0.0238  0.0226  1.0000  -2.5073   0.0000   0.0000   0.0000   0.2585
  16.800   0.7727   0.18247   0.17875  -0.0288  0.0324  1.0000  -2.0174   0.0000   0.0000   0.0000   0.2659
  16.900   0.7715   0.18532   0.18159  -0.0301  0.0328  1.0000  -1.9643   0.0000   0.0000   0.0000   0.2675
  17.000   0.7710   0.18790   0.18417  -0.0312  0.0330  1.0000  -1.9246   0.0000   0.0000   0.0000   0.2689
  17.100   0.7709   0.19030   0.18657  -0.0322  0.0332  1.0000  -1.8936   0.0000   0.0000   0.0000   0.2701
  17.200   0.7711   0.19259   0.18885  -0.0332  0.0332  1.0000  -1.8684   0.0000   0.0000   0.0000   0.2712
  17.300   0.7716   0.19479   0.19104  -0.0341  0.0332  1.0000  -1.8474   0.0000   0.0000   0.0000   0.2723
  17.400   0.7723   0.19692   0.19317  -0.0350  0.0332  1.0000  -1.8295   0.0000   0.0000   0.0000   0.2733
  17.500   0.7731   0.19901   0.19525  -0.0358  0.0331  1.0000  -1.8142   0.0000   0.0000   0.0000   0.2742
  17.600   0.7740   0.20105   0.19730  -0.0367  0.0330  1.0000  -1.8011   0.0000   0.0000   0.0000   0.2751
  17.700   0.7751   0.20307   0.19930  -0.0375  0.0329  1.0000  -1.7896   0.0000   0.0000   0.0000   0.2760
  17.800   0.7763   0.20505   0.20129  -0.0383  0.0328  1.0000  -1.7796   0.0000   0.0000   0.0000   0.2768
  17.900   0.7776   0.20702   0.20325  -0.0391  0.0326  1.0000  -1.7708   0.0000   0.0000   0.0000   0.2776
  18.000   0.7789   0.20897   0.20520  -0.0398  0.0325  1.0000  -1.7629   0.0000   0.0000   0.0000   0.2784
  18.100   0.7803   0.21091   0.20714  -0.0406  0.0323  1.0000  -1.7558   0.0000   0.0000   0.0000   0.2791
  18.200   0.7818   0.21284   0.20906  -0.0413  0.0322  1.0000  -1.7493   0.0000   0.0000   0.0000   0.2798
  18.300   0.7833   0.21477   0.21098  -0.0421  0.0320  1.0000  -1.7435   0.0000   0.0000   0.0000   0.2805
  18.400   0.7848   0.21669   0.21290  -0.0428  0.0319  1.0000  -1.7380   0.0000   0.0000   0.0000   0.2812
  18.500   0.7864   0.21860   0.21481  -0.0435  0.0318  1.0000  -1.7329   0.0000   0.0000   0.0000   0.2819
  18.600   0.7880   0.22052   0.21673  -0.0442  0.0316  1.0000  -1.7281   0.0000   0.0000   0.0000   0.2826
  18.700   0.7896   0.22244   0.21864  -0.0450  0.0315  1.0000  -1.7236   0.0000   0.0000   0.0000   0.2832
  18.800   0.7913   0.22436   0.22056  -0.0457  0.0314  1.0000  -1.7192   0.0000   0.0000   0.0000   0.2838
  18.900   0.7930   0.22628   0.22248  -0.0464  0.0312  1.0000  -1.7149   0.0000   0.0000   0.0000   0.2844
  19.000   0.7946   0.22821   0.22441  -0.0471  0.0311  1.0000  -1.7107   0.0000   0.0000   0.0000   0.2851
  19.100   0.7963   0.23014   0.22634  -0.0478  0.0310  1.0000  -1.7066   0.0000   0.0000   0.0000   0.2857
  19.200   0.7980   0.23208   0.22827  -0.0485  0.0309  1.0000  -1.7025   0.0000   0.0000   0.0000   0.2863
  19.300   0.8012   0.23325   0.22944  -0.0487  0.0303  1.0000  -1.7359   0.0000   0.0000   0.0000   0.2861
  19.400   0.8049   0.23425   0.23044  -0.0489  0.0296  1.0000  -1.7790   0.0000   0.0000   0.0000   0.2858
  19.500   0.8089   0.23519   0.23137  -0.0488  0.0290  1.0000  -1.8293   0.0000   0.0000   0.0000   0.2852
  19.600   0.8132   0.23611   0.23229  -0.0488  0.0284  1.0000  -1.8839   0.0000   0.0000   0.0000   0.2845
  19.700   0.8165   0.23728   0.23346  -0.0488  0.0278  1.0000  -1.9282   0.0000   0.0000   0.0000   0.2841
  19.800   0.8184   0.23892   0.23510  -0.0490  0.0272  1.0000  -1.9553   0.0000   0.0000   0.0000   0.2841
  19.900   0.7978   0.25262   0.24876  -0.0510  0.0250  1.0000  -1.6317   0.0000   0.0000   0.0000   0.2886
  20.000   0.7993   0.25460   0.25074  -0.0518  0.0249  1.0000  -1.6252   0.0000   0.0000   0.0000   0.2893
  20.100   0.8010   0.25656   0.25270  -0.0526  0.0249  1.0000  -1.6192   0.0000   0.0000   0.0000   0.2899
  20.200   0.8026   0.25850   0.25464  -0.0534  0.0249  1.0000  -1.6138   0.0000   0.0000   0.0000   0.2906
  20.300   0.8043   0.26042   0.25656  -0.0541  0.0249  1.0000  -1.6090   0.0000   0.0000   0.0000   0.2913
  20.400   0.8059   0.26232   0.25846  -0.0549  0.0248  1.0000  -1.6049   0.0000   0.0000   0.0000   0.2919
  20.500   0.8077   0.26418   0.26031  -0.0556  0.0248  1.0000  -1.6015   0.0000   0.0000   0.0000   0.2926
  20.600   0.8094   0.26598   0.26212  -0.0564  0.0247  1.0000  -1.5990   0.0000   0.0000   0.0000   0.2932
  20.700   0.8112   0.26773   0.26387  -0.0572  0.0247  1.0000  -1.5976   0.0000   0.0000   0.0000   0.2938
  20.800   0.8131   0.26941   0.26555  -0.0579  0.0246  1.0000  -1.5978   0.0000   0.0000   0.0000   0.2944
  20.900   0.8152   0.27096   0.26710  -0.0587  0.0245  1.0000  -1.6003   0.0000   0.0000   0.0000   0.2950
  21.000   0.8176   0.27232   0.26846  -0.0595  0.0243  1.0000  -1.6067   0.0000   0.0000   0.0000   0.2956
  21.100   0.8205   0.27329   0.26943  -0.0603  0.0240  1.0000  -1.6199   0.0000   0.0000   0.0000   0.2962
  21.200   0.8246   0.27365   0.26978  -0.0613  0.0233  1.0000  -1.6445   0.0000   0.0000   0.0000   0.2968
  21.300   0.8283   0.27426   0.27040  -0.0627  0.0220  1.0000  -1.6497   0.0000   0.0000   0.0000   0.2980
  21.400   0.8311   0.27577   0.27191  -0.0639  0.0206  1.0000  -1.6448   0.0000   0.0000   0.0000   0.2990
  21.500   0.8334   0.27752   0.27366  -0.0647  0.0195  1.0000  -1.6473   0.0000   0.0000   0.0000   0.2997
  21.600   0.8354   0.27923   0.27537  -0.0655  0.0185  1.0000  -1.6569   0.0000   0.0000   0.0000   0.3002
  21.700   0.8374   0.28087   0.27700  -0.0661  0.0177  1.0000  -1.6720   0.0000   0.0000   0.0000   0.3006
  21.800   0.8394   0.28242   0.27856  -0.0667  0.0170  1.0000  -1.6918   0.0000   0.0000   0.0000   0.3009
  21.900   0.8415   0.28390   0.28004  -0.0673  0.0164  1.0000  -1.7160   0.0000   0.0000   0.0000   0.3012
  22.000   0.8436   0.28531   0.28144  -0.0678  0.0159  1.0000  -1.7442   0.0000   0.0000   0.0000   0.3014
  22.100   0.8458   0.28664   0.28277  -0.0683  0.0155  1.0000  -1.7764   0.0000   0.0000   0.0000   0.3015
  22.200   0.8480   0.28790   0.28403  -0.0687  0.0151  1.0000  -1.8127   0.0000   0.0000   0.0000   0.3015
  22.300   0.8503   0.28911   0.28523  -0.0691  0.0148  1.0000  -1.8528   0.0000   0.0000   0.0000   0.3015
  22.400   0.8527   0.29026   0.28638  -0.0695  0.0145  1.0000  -1.8968   0.0000   0.0000   0.0000   0.3014
  22.500   0.8553   0.29137   0.28749  -0.0697  0.0142  1.0000  -1.9448   0.0000   0.0000   0.0000   0.3012
  22.600   0.8579   0.29245   0.28857  -0.0699  0.0140  1.0000  -1.9970   0.0000   0.0000   0.0000   0.3009
  22.700   0.8606   0.29355   0.28967  -0.0700  0.0137  1.0000  -2.0522   0.0000   0.0000   0.0000   0.3006
  22.800   0.8622   0.29507   0.29119  -0.0702  0.0134  1.0000  -2.0924   0.0000   0.0000   0.0000   0.3004
  23.000   0.8494   0.30739   0.30348  -0.0713  0.0124  1.0000  -1.7936   0.0000   0.0000   0.0000   0.3031
  23.100   0.8501   0.30961   0.30571  -0.0719  0.0124  1.0000  -1.7796   0.0000   0.0000   0.0000   0.3037
  23.200   0.8507   0.31181   0.30791  -0.0725  0.0124  1.0000  -1.7660   0.0000   0.0000   0.0000   0.3042
  23.300   0.8513   0.31400   0.31011  -0.0731  0.0124  1.0000  -1.7527   0.0000   0.0000   0.0000   0.3047
  23.400   0.8518   0.31618   0.31229  -0.0737  0.0124  1.0000  -1.7397   0.0000   0.0000   0.0000   0.3052
  23.500   0.8522   0.31834   0.31445  -0.0743  0.0123  1.0000  -1.7269   0.0000   0.0000   0.0000   0.3057
  23.600   0.8526   0.32048   0.31660  -0.0748  0.0123  1.0000  -1.7144   0.0000   0.0000   0.0000   0.3061
  23.700   0.8530   0.32261   0.31873  -0.0754  0.0123  1.0000  -1.7021   0.0000   0.0000   0.0000   0.3066
  23.800   0.8533   0.32472   0.32085  -0.0759  0.0123  1.0000  -1.6901   0.0000   0.0000   0.0000   0.3071
  23.900   0.8535   0.32682   0.32295  -0.0764  0.0123  1.0000  -1.6782   0.0000   0.0000   0.0000   0.3075
  24.000   0.8536   0.32889   0.32503  -0.0769  0.0123  1.0000  -1.6664   0.0000   0.0000   0.0000   0.3079
  24.100   0.8536   0.33094   0.32709  -0.0774  0.0122  1.0000  -1.6545   0.0000   0.0000   0.0000   0.3084
  24.200   0.8536   0.33297   0.32912  -0.0778  0.0122  1.0000  -1.6428   0.0000   0.0000   0.0000   0.3088
  24.300   0.8534   0.33498   0.33113  -0.0783  0.0122  1.0000  -1.6311   0.0000   0.0000   0.0000   0.3092
  24.400   0.8531   0.33696   0.33312  -0.0787  0.0122  1.0000  -1.6195   0.0000   0.0000   0.0000   0.3096
  24.500   0.8533   0.33876   0.33505  -0.0789  0.0122  1.0000  -1.6200   0.0000   0.0000   0.0000   0.3097
  24.600   0.8528   0.34065   0.33696  -0.0793  0.0122  1.0000  -1.6108   0.0000   0.0000   0.0000   0.3100
  24.700   0.8522   0.34251   0.33883  -0.0796  0.0122  1.0000  -1.6002   0.0000   0.0000   0.0000   0.3103
  24.800   0.8513   0.34433   0.34067  -0.0799  0.0122  1.0000  -1.5891   0.0000   0.0000   0.0000   0.3107
  24.900   0.8503   0.34610   0.34245  -0.0802  0.0122  1.0000  -1.5775   0.0000   0.0000   0.0000   0.3110
  25.000   0.8490   0.34781   0.34417  -0.0804  0.0122  1.0000  -1.5654   0.0000   0.0000   0.0000   0.3113
  25.100   0.8473   0.34944   0.34581  -0.0806  0.0122  1.0000  -1.5528   0.0000   0.0000   0.0000   0.3116
  25.200   0.8454   0.35097   0.34735  -0.0807  0.0121  1.0000  -1.5396   0.0000   0.0000   0.0000   0.3119
  25.300   0.8429   0.35238   0.34878  -0.0807  0.0121  1.0000  -1.5250   0.0000   0.0000   0.0000   0.3121
  25.400   0.8399   0.35362   0.35003  -0.0807  0.0121  1.0000  -1.5093   0.0000   0.0000   0.0000   0.3124
  25.500   0.7866   0.34108   0.33756  -0.0725  0.0121  1.0000  -1.3889   0.0000   0.0000   0.0000   0.3100
  25.600   0.7782   0.33992   0.33643  -0.0715  0.0121  1.0000  -1.3625   0.0000   0.0000   0.0000   0.3100
  25.700   0.7719   0.33930   0.33582  -0.0709  0.0121  1.0000  -1.3406   0.0000   0.0000   0.0000   0.3100
  25.800   0.7667   0.33894   0.33548  -0.0705  0.0121  1.0000  -1.3212   0.0000   0.0000   0.0000   0.3101
  25.900   0.7622   0.33875   0.33530  -0.0701  0.0121  1.0000  -1.3035   0.0000   0.0000   0.0000   0.3103
  26.000   0.7582   0.33867   0.33524  -0.0699  0.0120  1.0000  -1.2870   0.0000   0.0000   0.0000   0.3105
  26.100   0.7546   0.33867   0.33525  -0.0697  0.0120  1.0000  -1.2715   0.0000   0.0000   0.0000   0.3107
  26.200   0.7513   0.33874   0.33533  -0.0696  0.0120  1.0000  -1.2568   0.0000   0.0000   0.0000   0.3109
  26.300   0.7484   0.33886   0.33546  -0.0695  0.0120  1.0000  -1.2428   0.0000   0.0000   0.0000   0.3111
  26.400   0.7455   0.33901   0.33563  -0.0694  0.0120  1.0000  -1.2284   0.0000   0.0000   0.0000   0.3114
  26.500   0.7429   0.33920   0.33583  -0.0694  0.0120  1.0000  -1.2143   0.0000   0.0000   0.0000   0.3117
  26.600   0.7404   0.33942   0.33606  -0.0694  0.0120  1.0000  -1.2007   0.0000   0.0000   0.0000   0.3120
  26.700   0.7381   0.33967   0.33632  -0.0694  0.0119  1.0000  -1.1877   0.0000   0.0000   0.0000   0.3123
  26.800   0.7359   0.33994   0.33661  -0.0695  0.0119  1.0000  -1.1751   0.0000   0.0000   0.0000   0.3126
  26.900   0.7339   0.34024   0.33692  -0.0695  0.0119  1.0000  -1.1630   0.0000   0.0000   0.0000   0.3129
  27.000   0.7320   0.34055   0.33724  -0.0696  0.0119  1.0000  -1.1513   0.0000   0.0000   0.0000   0.3132
  27.100   0.7302   0.34089   0.33759  -0.0697  0.0119  1.0000  -1.1400   0.0000   0.0000   0.0000   0.3135
  27.200   0.7285   0.34124   0.33795  -0.0698  0.0119  1.0000  -1.1290   0.0000   0.0000   0.0000   0.3138
  27.300   0.7269   0.34160   0.33832  -0.0699  0.0118  1.0000  -1.1183   0.0000   0.0000   0.0000   0.3142
  27.400   0.7254   0.34198   0.33871  -0.0701  0.0118  1.0000  -1.1080   0.0000   0.0000   0.0000   0.3145
  27.500   0.7239   0.34237   0.33911  -0.0702  0.0118  1.0000  -1.0979   0.0000   0.0000   0.0000   0.3148
  27.600   0.7226   0.34277   0.33952  -0.0704  0.0118  1.0000  -1.0881   0.0000   0.0000   0.0000   0.3152
  27.700   0.7213   0.34318   0.33994  -0.0705  0.0118  1.0000  -1.0786   0.0000   0.0000   0.0000   0.3155
  27.800   0.7201   0.34360   0.34037  -0.0707  0.0118  1.0000  -1.0694   0.0000   0.0000   0.0000   0.3158
  27.900   0.7189   0.34403   0.34081  -0.0709  0.0118  1.0000  -1.0604   0.0000   0.0000   0.0000   0.3162
  28.000   0.7178   0.34447   0.34125  -0.0711  0.0117  1.0000  -1.0516   0.0000   0.0000   0.0000   0.3165
  28.100   0.7168   0.34491   0.34171  -0.0713  0.0117  1.0000  -1.0431   0.0000   0.0000   0.0000   0.3169
  28.200   0.7158   0.34536   0.34217  -0.0715  0.0117  1.0000  -1.0348   0.0000   0.0000   0.0000   0.3172
  28.300   0.7148   0.34582   0.34264  -0.0717  0.0117  1.0000  -1.0266   0.0000   0.0000   0.0000   0.3176
  28.400   0.7139   0.34628   0.34311  -0.0719  0.0117  1.0000  -1.0187   0.0000   0.0000   0.0000   0.3179
  28.500   0.7130   0.34675   0.34359  -0.0721  0.0117  1.0000  -1.0109   0.0000   0.0000   0.0000   0.3182
  28.600   0.7122   0.34723   0.34407  -0.0723  0.0116  1.0000  -1.0034   0.0000   0.0000   0.0000   0.3186
  28.700   0.7114   0.34771   0.34456  -0.0726  0.0116  1.0000  -0.9963   0.0000   0.0000   0.0000   0.3189
  28.800   0.7107   0.34820   0.34506  -0.0728  0.0116  1.0000  -0.9895   0.0000   0.0000   0.0000   0.3193
  28.900   0.7100   0.34869   0.34556  -0.0731  0.0116  1.0000  -0.9828   0.0000   0.0000   0.0000   0.3196
  29.000   0.7093   0.34918   0.34606  -0.0733  0.0116  1.0000  -0.9763   0.0000   0.0000   0.0000   0.3200
  29.100   0.7087   0.34968   0.34657  -0.0736  0.0116  1.0000  -0.9699   0.0000   0.0000   0.0000   0.3203
  29.200   0.7080   0.35018   0.34708  -0.0738  0.0115  1.0000  -0.9636   0.0000   0.0000   0.0000   0.3207
  29.300   0.7075   0.35069   0.34760  -0.0741  0.0115  1.0000  -0.9575   0.0000   0.0000   0.0000   0.3210
  29.400   0.7069   0.35120   0.34811  -0.0744  0.0115  1.0000  -0.9515   0.0000   0.0000   0.0000   0.3214
  29.500   0.7064   0.35171   0.34864  -0.0746  0.0115  1.0000  -0.9456   0.0000   0.0000   0.0000   0.3218
  29.600   0.7058   0.35223   0.34916  -0.0749  0.0115  1.0000  -0.9399   0.0000   0.0000   0.0000   0.3221
  29.700   0.7053   0.35275   0.34969  -0.0752  0.0115  1.0000  -0.9342   0.0000   0.0000   0.0000   0.3225
  29.800   0.7049   0.35327   0.35022  -0.0755  0.0115  1.0000  -0.9287   0.0000   0.0000   0.0000   0.3228
  29.900   0.7044   0.35379   0.35075  -0.0757  0.0114  1.0000  -0.9233   0.0000   0.0000   0.0000   0.3232
  30.000   0.7040   0.35432   0.35129  -0.0760  0.0114  1.0000  -0.9180   0.0000   0.0000   0.0000   0.3235


