xflr5 v6.61

 Calculated polar for: NACA 4408

 1 1 Reynolds number fixed          Mach number fixed         

 xtrf =   1.000 (top)        1.000 (bottom)
 Mach =   0.000     Re =     0.100 e 6     Ncrit =   9.000

  alpha     CL        CD       CDp       Cm    Top Xtr Bot Xtr   Cpmin    Chinge    XCp    
 ------- -------- --------- --------- -------- ------- ------- -------- --------- ---------
 -10.000  -0.3735   0.11973   0.11444  -0.0255  1.0001  0.0667  -1.4414   0.0000   0.0000   0.0000   0.1755
  -9.900  -0.3713   0.11858   0.11330  -0.0258  1.0001  0.0682  -1.4336   0.0000   0.0000   0.0000   0.1744
  -9.800  -0.3694   0.11743   0.11217  -0.0262  1.0001  0.0693  -1.4308   0.0000   0.0000   0.0000   0.1732
  -9.700  -0.3677   0.11630   0.11104  -0.0266  1.0001  0.0702  -1.4297   0.0000   0.0000   0.0000   0.1718
  -9.600  -0.3662   0.11519   0.10995  -0.0270  1.0001  0.0712  -1.4298   0.0000   0.0000   0.0000   0.1703
  -9.500  -0.3649   0.11412   0.10890  -0.0276  1.0001  0.0722  -1.4317   0.0000   0.0000   0.0000   0.1686
  -9.400  -0.3639   0.11314   0.10794  -0.0282  1.0001  0.0732  -1.4363   0.0000   0.0000   0.0000   0.1669
  -9.300  -0.3635   0.11230   0.10711  -0.0289  1.0001  0.0742  -1.4456   0.0000   0.0000   0.0000   0.1649
  -9.200  -0.3639   0.11168   0.10652  -0.0298  1.0001  0.0751  -1.4619   0.0000   0.0000   0.0000   0.1626
  -9.100  -0.3656   0.11136   0.10623  -0.0309  1.0001  0.0759  -1.4867   0.0000   0.0000   0.0000   0.1602
  -9.000  -0.3683   0.11124   0.10614  -0.0321  1.0001  0.0766  -1.5174   0.0000   0.0000   0.0000   0.1578
  -8.900  -0.3714   0.11115   0.10610  -0.0332  1.0001  0.0770  -1.5485   0.0000   0.0000   0.0000   0.1557
  -8.800  -0.3745   0.11099   0.10598  -0.0341  1.0001  0.0773  -1.5759   0.0000   0.0000   0.0000   0.1543
  -8.700  -0.3778   0.11074   0.10578  -0.0347  1.0001  0.0775  -1.5997   0.0000   0.0000   0.0000   0.1537
  -8.600  -0.3813   0.11042   0.10550  -0.0350  1.0001  0.0777  -1.6200   0.0000   0.0000   0.0000   0.1538
  -8.500  -0.3851   0.11005   0.10517  -0.0352  1.0001  0.0778  -1.6391   0.0000   0.0000   0.0000   0.1545
  -8.400  -0.3886   0.10958   0.10475  -0.0355  1.0001  0.0779  -1.6578   0.0000   0.0000   0.0000   0.1546
  -8.300  -0.3904   0.10891   0.10411  -0.0365  1.0001  0.0780  -1.6765   0.0000   0.0000   0.0000   0.1527
  -8.200  -0.3916   0.10816   0.10339  -0.0374  1.0001  0.0781  -1.6931   0.0000   0.0000   0.0000   0.1506
  -8.100  -0.3920   0.10730   0.10256  -0.0382  1.0001  0.0782  -1.7033   0.0000   0.0000   0.0000   0.1487
  -8.000  -0.3921   0.10638   0.10166  -0.0390  1.0001  0.0782  -1.7129   0.0000   0.0000   0.0000   0.1469
  -7.800  -0.3889   0.09873   0.09407  -0.0348  1.0001  0.0798  -1.6428   0.0000   0.0000   0.0000   0.1568
  -7.700  -0.3820   0.09638   0.09171  -0.0324  1.0001  0.0807  -1.5621   0.0000   0.0000   0.0000   0.1614
  -7.600  -0.3770   0.09474   0.09007  -0.0311  1.0001  0.0816  -1.5054   0.0000   0.0000   0.0000   0.1638
  -7.500  -0.3739   0.09344   0.08877  -0.0301  1.0001  0.0824  -1.4652   0.0000   0.0000   0.0000   0.1656
  -7.400  -0.3725   0.09234   0.08769  -0.0294  1.0001  0.0831  -1.4363   0.0000   0.0000   0.0000   0.1675
  -7.300  -0.3720   0.09134   0.08672  -0.0287  1.0001  0.0839  -1.4143   0.0000   0.0000   0.0000   0.1693
  -7.200  -0.3719   0.09038   0.08578  -0.0281  1.0001  0.0846  -1.3961   0.0000   0.0000   0.0000   0.1708
  -7.100  -0.3723   0.08946   0.08489  -0.0276  1.0001  0.0853  -1.3815   0.0000   0.0000   0.0000   0.1723
  -7.000  -0.3731   0.08856   0.08402  -0.0272  1.0001  0.0861  -1.3698   0.0000   0.0000   0.0000   0.1737
  -6.900  -0.3741   0.08768   0.08317  -0.0268  1.0001  0.0869  -1.3603   0.0000   0.0000   0.0000   0.1750
  -6.800  -0.3753   0.08681   0.08232  -0.0265  1.0001  0.0877  -1.3526   0.0000   0.0000   0.0000   0.1761
  -6.700  -0.3765   0.08594   0.08148  -0.0263  1.0001  0.0885  -1.3465   0.0000   0.0000   0.0000   0.1770
  -6.600  -0.3778   0.08506   0.08062  -0.0262  1.0001  0.0893  -1.3421   0.0000   0.0000   0.0000   0.1777
  -6.500  -0.3789   0.08417   0.07976  -0.0262  1.0001  0.0903  -1.3473   0.0000   0.0000   0.0000   0.1781
  -6.400  -0.3800   0.08326   0.07887  -0.0263  1.0001  0.0912  -1.3538   0.0000   0.0000   0.0000   0.1781
  -6.300  -0.3808   0.08234   0.07797  -0.0265  1.0001  0.0923  -1.3619   0.0000   0.0000   0.0000   0.1776
  -6.200  -0.3812   0.08141   0.07706  -0.0271  1.0001  0.0935  -1.3725   0.0000   0.0000   0.0000   0.1764
  -6.100  -0.3812   0.08048   0.07615  -0.0281  1.0001  0.0948  -1.3880   0.0000   0.0000   0.0000   0.1738
  -6.000  -0.3797   0.07972   0.07538  -0.0308  1.0001  0.0969  -1.4208   0.0000   0.0000   0.0000   0.1666
  -5.900  -0.3709   0.08030   0.07582  -0.0396  1.0001  0.0996  -1.5244   0.0000   0.0000   0.0000   0.1410
  -5.800  -0.3660   0.07969   0.07513  -0.0416  1.0001  0.1000  -1.5518   0.0000   0.0000   0.0000   0.1340
  -5.700  -0.3615   0.07880   0.07419  -0.0427  1.0001  0.1002  -1.5666   0.0000   0.0000   0.0000   0.1296
  -5.600  -0.3646   0.07461   0.07008  -0.0430  1.0001  0.1011  -1.5893   0.0000   0.0000   0.0000   0.1300
  -5.500  -0.3652   0.07230   0.06784  -0.0414  1.0001  0.1018  -1.5673   0.0000   0.0000   0.0000   0.1346
  -5.400  -0.3647   0.07068   0.06627  -0.0400  1.0001  0.1025  -1.5444   0.0000   0.0000   0.0000   0.1383
  -5.300  -0.3635   0.06939   0.06501  -0.0386  1.0001  0.1033  -1.5206   0.0000   0.0000   0.0000   0.1417
  -5.200  -0.3618   0.06825   0.06390  -0.0374  1.0001  0.1041  -1.4981   0.0000   0.0000   0.0000   0.1446
  -5.100  -0.3597   0.06719   0.06286  -0.0365  1.0001  0.1050  -1.4781   0.0000   0.0000   0.0000   0.1466
  -5.000  -0.3570   0.06619   0.06187  -0.0357  1.0001  0.1060  -1.4597   0.0000   0.0000   0.0000   0.1480
  -4.900  -0.3539   0.06519   0.06088  -0.0352  1.0001  0.1073  -1.4441   0.0000   0.0000   0.0000   0.1485
  -4.800  -0.3501   0.06417   0.05986  -0.0351  1.0001  0.1087  -1.4316   0.0000   0.0000   0.0000   0.1479
  -4.700  -0.3457   0.06312   0.05880  -0.0353  1.0001  0.1104  -1.4223   0.0000   0.0000   0.0000   0.1461
  -4.600  -0.3402   0.06201   0.05768  -0.0358  1.0001  0.1125  -1.4167   0.0000   0.0000   0.0000   0.1428
  -4.500  -0.3104   0.06324   0.05844  -0.0451  1.0001  0.1240  -1.4923   0.0000   0.0000   0.0000   0.1028
  -4.400  -0.3035   0.06041   0.05553  -0.0474  1.0001  0.1253  -1.5227   0.0000   0.0000   0.0000   0.0919
  -4.300  -0.3022   0.05735   0.05257  -0.0469  1.0001  0.1265  -1.5102   0.0000   0.0000   0.0000   0.0927
  -4.200  -0.2993   0.05564   0.05078  -0.0462  1.0001  0.1276  -1.5037   0.0000   0.0000   0.0000   0.0936
  -4.100  -0.2952   0.05431   0.04950  -0.0457  1.0001  0.1287  -1.4843   0.0000   0.0000   0.0000   0.0934
  -4.000  -0.2905   0.05319   0.04841  -0.0451  1.0001  0.1300  -1.4653   0.0000   0.0000   0.0000   0.0927
  -3.900  -0.2851   0.05216   0.04739  -0.0448  1.0001  0.1315  -1.4484   0.0000   0.0000   0.0000   0.0907
  -3.800  -0.2787   0.05116   0.04638  -0.0448  1.0001  0.1335  -1.4346   0.0000   0.0000   0.0000   0.0872
  -3.700  -0.2712   0.05014   0.04534  -0.0452  1.0001  0.1361  -1.4248   0.0000   0.0000   0.0000   0.0814
  -3.600  -0.2142   0.04012   0.03412  -0.0574  1.0001  0.0767  -1.8790   0.0000   0.0000   0.0000  -0.0211
  -3.500  -0.2022   0.03742   0.03135  -0.0589  1.0001  0.0732  -1.8999   0.0000   0.0000   0.0000  -0.0448
  -3.400  -0.1864   0.03493   0.02864  -0.0606  1.0001  0.0699  -1.9566   0.0000   0.0000   0.0000  -0.0791
  -3.300  -0.1682   0.03230   0.02563  -0.0625  1.0001  0.0676  -2.0438   0.0000   0.0000   0.0000  -0.1262
  -3.200  -0.1527   0.03052   0.02356  -0.0637  1.0001  0.0679  -2.0989   0.0000   0.0000   0.0000  -0.1721
  -3.100  -0.1390   0.02929   0.02208  -0.0645  1.0001  0.0698  -2.1306   0.0000   0.0000   0.0000  -0.2190
  -3.000  -0.1181   0.02874   0.02122  -0.0663  0.9980  0.0761  -2.1267   0.0000   0.0000   0.0000  -0.3170
  -2.900  -0.1008   0.02794   0.02044  -0.0684  0.9959  0.0854  -2.0423   0.0000   0.0000   0.0000  -0.4358
  -2.800  -0.0810   0.02714   0.01949  -0.0702  0.9942  0.0885  -2.0051   0.0000   0.0000   0.0000  -0.6255
  -2.700  -0.0612   0.02595   0.01801  -0.0719  0.9923  0.0888  -1.9938   0.0000   0.0000   0.0000  -0.9355
  -2.600  -0.0416   0.02502   0.01684  -0.0734  0.9902  0.0903  -1.9640   0.0000   0.0000   0.0000  -1.5287
  -2.500  -0.0219   0.02425   0.01587  -0.0750  0.9883  0.0930  -1.9241   0.0000   0.0000   0.0000  -3.2092
  -2.400  -0.0017   0.02365   0.01506  -0.0766  0.9867  0.0967  -1.8774   0.0000   0.0000   0.0000  -45.9720
  -2.300   0.0156   0.02336   0.01458  -0.0777  0.9834  0.1001  -1.8252   0.0000   0.0000   0.0000   5.2580
  -2.200   0.0333   0.02219   0.01339  -0.0791  0.9819  0.1060  -1.7728   0.0000   0.0000   0.0000   2.6439
  -2.100   0.0510   0.02203   0.01326  -0.0806  0.9792  0.1144  -1.6860   0.0000   0.0000   0.0000   1.8434
  -2.000   0.0702   0.02219   0.01330  -0.0822  0.9767  0.1245  -1.5970   0.0000   0.0000   0.0000   1.4291
  -1.900   0.0877   0.02138   0.01259  -0.0837  0.9751  0.1348  -1.5259   0.0000   0.0000   0.0000   1.2105
  -1.800   0.1026   0.02112   0.01231  -0.0845  0.9713  0.1440  -1.4608   0.0000   0.0000   0.0000   1.0784
  -1.700   0.1199   0.02065   0.01182  -0.0857  0.9687  0.1557  -1.3938   0.0000   0.0000   0.0000   0.9684
  -1.600   0.1380   0.02038   0.01162  -0.0871  0.9662  0.1721  -1.3114   0.0000   0.0000   0.0000   0.8848
  -1.500   0.1568   0.02009   0.01144  -0.0888  0.9641  0.1957  -1.2230   0.0000   0.0000   0.0000   0.8191
  -1.400   0.1756   0.01980   0.01125  -0.0904  0.9622  0.2236  -1.1368   0.0000   0.0000   0.0000   0.7671
  -1.300   0.1874   0.01955   0.01108  -0.0906  0.9573  0.2486  -1.0730   0.0000   0.0000   0.0000   0.7355
  -1.200   0.2034   0.01924   0.01093  -0.0917  0.9539  0.2857  -1.0119   0.0000   0.0000   0.0000   0.7025
  -1.100   0.2208   0.01887   0.01068  -0.0930  0.9513  0.3409  -0.9817   0.0000   0.0000   0.0000   0.6728
  -1.000   0.2396   0.01824   0.01053  -0.0947  0.9495  0.4386  -0.9234   0.0000   0.0000   0.0000   0.6464
  -0.900   0.2489   0.01677   0.01046  -0.0932  0.9475  0.9999  -0.8809   0.0000   0.0000   0.0000   0.6253
  -0.800   0.2629   0.01684   0.01035  -0.0938  0.9425  0.9999  -0.8315   0.0000   0.0000   0.0000   0.6074
  -0.700   0.2768   0.01690   0.01026  -0.0943  0.9369  0.9999  -0.7809   0.0000   0.0000   0.0000   0.5914
  -0.600   0.2949   0.01693   0.01016  -0.0957  0.9331  0.9999  -0.7209   0.0000   0.0000   0.0000   0.5748
  -0.500   0.3148   0.01694   0.01006  -0.0973  0.9301  0.9999  -0.6574   0.0000   0.0000   0.0000   0.5595
  -0.400   0.3357   0.01695   0.00996  -0.0992  0.9277  0.9999  -0.5923   0.0000   0.0000   0.0000   0.5456
  -0.300   0.3433   0.01703   0.00999  -0.0986  0.9203  0.9999  -0.5556   0.0000   0.0000   0.0000   0.5371
  -0.200   0.3583   0.01705   0.00994  -0.0993  0.9155  0.9999  -0.5394   0.0000   0.0000   0.0000   0.5270
  -0.100   0.3759   0.01704   0.00986  -0.1005  0.9119  0.9999  -0.5506   0.0000   0.0000   0.0000   0.5172
   0.000   0.3950   0.01702   0.00977  -0.1020  0.9092  0.9999  -0.5626   0.0000   0.0000   0.0000   0.5079
   0.100   0.4153   0.01699   0.00968  -0.1037  0.9071  0.9999  -0.5753   0.0000   0.0000   0.0000   0.4993
   0.200   0.4273   0.01705   0.00970  -0.1039  0.9020  0.9999  -0.5832   0.0000   0.0000   0.0000   0.4926
   0.300   0.4367   0.01712   0.00974  -0.1036  0.8953  0.9999  -0.5897   0.0000   0.0000   0.0000   0.4866
   0.400   0.4523   0.01711   0.00969  -0.1044  0.8911  0.9999  -0.5998   0.0000   0.0000   0.0000   0.4800
   0.500   0.4693   0.01705   0.00959  -0.1054  0.8878  0.9999  -0.6110   0.0000   0.0000   0.0000   0.4737
   0.600   0.4874   0.01696   0.00947  -0.1065  0.8851  0.9999  -0.6228   0.0000   0.0000   0.0000   0.4676
   0.700   0.5060   0.01685   0.00933  -0.1077  0.8828  0.9999  -0.6353   0.0000   0.0000   0.0000   0.4618
   0.800   0.5145   0.01694   0.00940  -0.1072  0.8760  0.9999  -0.6423   0.0000   0.0000   0.0000   0.4572
   0.900   0.5245   0.01698   0.00942  -0.1069  0.8692  0.9999  -0.6502   0.0000   0.0000   0.0000   0.4526
   1.000   0.5391   0.01690   0.00932  -0.1074  0.8647  0.9999  -0.6611   0.0000   0.0000   0.0000   0.4478
   1.100   0.5552   0.01678   0.00918  -0.1080  0.8612  0.9999  -0.6731   0.0000   0.0000   0.0000   0.4431
   1.200   0.5721   0.01664   0.00907  -0.1088  0.8583  0.9999  -0.6856   0.0000   0.0000   0.0000   0.4386
   1.300   0.5890   0.01650   0.00890  -0.1095  0.8557  0.9999  -0.6982   0.0000   0.0000   0.0000   0.4343
   1.400   0.5944   0.01670   0.00909  -0.1085  0.8474  0.9999  -0.7030   0.0000   0.0000   0.0000   0.4309
   1.500   0.6049   0.01673   0.00912  -0.1083  0.8412  0.9999  -0.7113   0.0000   0.0000   0.0000   0.4273
   1.600   0.6182   0.01668   0.00905  -0.1085  0.8367  0.9999  -0.7223   0.0000   0.0000   0.0000   0.4237
   1.700   0.6327   0.01659   0.00894  -0.1089  0.8330  0.9999  -0.7344   0.0000   0.0000   0.0000   0.4201
   1.800   0.6479   0.01647   0.00881  -0.1093  0.8298  0.9999  -0.7472   0.0000   0.0000   0.0000   0.4167
   1.900   0.6635   0.01635   0.00867  -0.1097  0.8270  0.9999  -0.7603   0.0000   0.0000   0.0000   0.4133
   2.000   0.6693   0.01656   0.00889  -0.1089  0.8186  0.9999  -0.7663   0.0000   0.0000   0.0000   0.4105
   2.100   0.6791   0.01661   0.00894  -0.1085  0.8119  0.9999  -0.7753   0.0000   0.0000   0.0000   0.4075
   2.200   0.6914   0.01655   0.00887  -0.1084  0.8067  0.9999  -0.7865   0.0000   0.0000   0.0000   0.4045
   2.300   0.7051   0.01644   0.00875  -0.1085  0.8025  0.9999  -0.7997   0.0000   0.0000   0.0000   0.4015
   2.400   0.7194   0.01633   0.00862  -0.1087  0.7988  0.9999  -0.8134   0.0000   0.0000   0.0000   0.3986
   2.500   0.7338   0.01625   0.00852  -0.1089  0.7954  0.9999  -0.8273   0.0000   0.0000   0.0000   0.3959
   2.600   0.7390   0.01653   0.00883  -0.1081  0.7869  0.9999  -0.8337   0.0000   0.0000   0.0000   0.3936
   2.700   0.7487   0.01662   0.00894  -0.1078  0.7806  0.9999  -0.8449   0.0000   0.0000   0.0000   0.3912
   2.800   0.7604   0.01663   0.00895  -0.1077  0.7754  0.9999  -0.8580   0.0000   0.0000   0.0000   0.3888
   2.900   0.7731   0.01658   0.00889  -0.1077  0.7709  0.9999  -0.8914   0.0000   0.0000   0.0000   0.3863
   3.000   0.7863   0.01651   0.00881  -0.1077  0.7669  0.9999  -0.9265   0.0000   0.0000   0.0000   0.3839
   3.100   0.7997   0.01649   0.00876  -0.1077  0.7631  0.9999  -0.9736   0.0000   0.0000   0.0000   0.3816
   3.200   0.8063   0.01673   0.00906  -0.1071  0.7554  0.9999  -1.0151   0.0000   0.0000   0.0000   0.3796
   3.300   0.8156   0.01685   0.00920  -0.1067  0.7487  0.9999  -1.0649   0.0000   0.0000   0.0000   0.3775
   3.400   0.8265   0.01688   0.00924  -0.1065  0.7430  0.9999  -1.1202   0.0000   0.0000   0.0000   0.3755
   3.500   0.8384   0.01688   0.00924  -0.1064  0.7382  0.9999  -1.1788   0.0000   0.0000   0.0000   0.3734
   3.600   0.8508   0.01688   0.00923  -0.1063  0.7339  0.9999  -1.2396   0.0000   0.0000   0.0000   0.3714
   3.700   0.8635   0.01691   0.00924  -0.1063  0.7298  0.9999  -1.3021   0.0000   0.0000   0.0000   0.3694
   3.800   0.8721   0.01712   0.00970  -0.1059  0.7237  0.9999  -1.3214   0.0000   0.0000   0.0000   0.3677
   3.900   0.8806   0.01730   0.00992  -0.1055  0.7169  0.9999  -1.3671   0.0000   0.0000   0.0000   0.3659
   4.000   0.8907   0.01739   0.01004  -0.1052  0.7108  0.9999  -1.4203   0.0000   0.0000   0.0000   0.3641
   4.100   0.9019   0.01742   0.01009  -0.1049  0.7054  0.9999  -1.4783   0.0000   0.0000   0.0000   0.3623
   4.200   0.9137   0.01743   0.01011  -0.1048  0.7005  0.9999  -1.5400   0.0000   0.0000   0.0000   0.3606
   4.300   0.9258   0.01747   0.01013  -0.1047  0.6960  0.9999  -1.6039   0.0000   0.0000   0.0000   0.3588
   4.400   0.9366   0.01763   0.01031  -0.1045  0.6910  0.9999  -1.6665   0.0000   0.0000   0.0000   0.3572
   4.500   0.9445   0.01784   0.01060  -0.1040  0.6845  0.9999  -1.7397   0.0000   0.0000   0.0000   0.3557
   4.600   0.9538   0.01797   0.01078  -0.1036  0.6779  0.9999  -1.8207   0.0000   0.0000   0.0000   0.3541
   4.700   0.9642   0.01803   0.01087  -0.1033  0.6717  0.9999  -1.9083   0.0000   0.0000   0.0000   0.3525
   4.800   0.9755   0.01804   0.01089  -0.1030  0.6660  0.9999  -2.0015   0.0000   0.0000   0.0000   0.3509
   4.900   0.9874   0.01804   0.01088  -0.1028  0.6604  0.9999  -2.0990   0.0000   0.0000   0.0000   0.3492
   5.000   0.9979   0.01814   0.01097  -0.1023  0.6533  0.9999  -2.1919   0.0000   0.0000   0.0000   0.3476
   5.100   1.0054   0.01818   0.01109  -0.1015  0.6436  0.9999  -2.2713   0.0000   0.0000   0.0000   0.3460
   5.200   1.0151   0.01803   0.01094  -0.1008  0.6326  0.9999  -2.3652   0.0000   0.0000   0.0000   0.3441
   5.300   1.0267   0.01780   0.01060  -0.1000  0.6213  0.9999  -2.4715   0.0000   0.0000   0.0000   0.3421
   5.400   1.0346   0.01779   0.01062  -0.0991  0.6093  0.9999  -2.5580   0.0000   0.0000   0.0000   0.3404
   5.500   1.0430   0.01770   0.01054  -0.0982  0.5962  0.9999  -2.6481   0.0000   0.0000   0.0000   0.3386
   5.600   1.0533   0.01758   0.01033  -0.0974  0.5841  0.9999  -2.7500   0.0000   0.0000   0.0000   0.3368
   5.700   1.0618   0.01763   0.01039  -0.0967  0.5725  0.9999  -2.8417   0.0000   0.0000   0.0000   0.3353
   5.800   1.0696   0.01762   0.01044  -0.0958  0.5597  0.9999  -2.9301   0.0000   0.0000   0.0000   0.3337
   5.900   1.0788   0.01759   0.01034  -0.0950  0.5465  0.9999  -3.0278   0.0000   0.0000   0.0000   0.3321
   6.000   1.0872   0.01765   0.01039  -0.0943  0.5334  0.9999  -3.1202   0.0000   0.0000   0.0000   0.3305
   6.100   1.0947   0.01768   0.01050  -0.0934  0.5195  0.9999  -3.2081   0.0000   0.0000   0.0000   0.3291
   6.200   1.1034   0.01774   0.01050  -0.0926  0.5058  0.9999  -3.3029   0.0000   0.0000   0.0000   0.3275
   6.300   1.1109   0.01783   0.01062  -0.0918  0.4900  0.9999  -3.3899   0.0000   0.0000   0.0000   0.3261
   6.400   1.1178   0.01789   0.01088  -0.0907  0.4704  0.9999  -3.4426   0.0000   0.0000   0.0000   0.3245
   6.500   1.1234   0.01801   0.01095  -0.0895  0.4434  0.9999  -3.5130   0.0000   0.0000   0.0000   0.3228
   6.600   1.1268   0.01822   0.01101  -0.0878  0.4004  0.9999  -3.5732   0.0000   0.0000   0.0000   0.3210
   6.700   1.1254   0.01883   0.01113  -0.0855  0.3189  0.9999  -3.6079   0.0000   0.0000   0.0000   0.3189
   6.800   1.1182   0.02029   0.01172  -0.0828  0.2087  0.9999  -3.6115   0.0000   0.0000   0.0000   0.3169
   6.900   1.1124   0.02200   0.01275  -0.0806  0.1398  0.9999  -3.6061   0.0000   0.0000   0.0000   0.3151
   7.000   1.1112   0.02328   0.01374  -0.0787  0.1131  0.9999  -3.6093   0.0000   0.0000   0.0000   0.3134
   7.100   1.1140   0.02414   0.01456  -0.0773  0.0995  0.9999  -3.6336   0.0000   0.0000   0.0000   0.3118
   7.200   1.1132   0.02528   0.01557  -0.0755  0.0908  0.9999  -3.6407   0.0000   0.0000   0.0000   0.3101
   7.300   1.1187   0.02587   0.01626  -0.0744  0.0848  0.9999  -3.6738   0.0000   0.0000   0.0000   0.3087
   7.400   1.1231   0.02656   0.01696  -0.0732  0.0796  0.9999  -3.7066   0.0000   0.0000   0.0000   0.3073
   7.500   1.1270   0.02732   0.01771  -0.0721  0.0756  0.9999  -3.7409   0.0000   0.0000   0.0000   0.3059
   7.600   1.1300   0.02836   0.01868  -0.0708  0.0720  0.9999  -3.7657   0.0000   0.0000   0.0000   0.3045
   7.700   1.1355   0.02961   0.01989  -0.0699  0.0684  0.9999  -3.7875   0.0000   0.0000   0.0000   0.3033
   7.800   1.1427   0.02993   0.02029  -0.0692  0.0647  0.9999  -3.8467   0.0000   0.0000   0.0000   0.3022
   7.900   1.1487   0.03032   0.02071  -0.0685  0.0602  0.9999  -3.9110   0.0000   0.0000   0.0000   0.3012
   8.000   1.1537   0.03082   0.02117  -0.0679  0.0562  0.9999  -3.9781   0.0000   0.0000   0.0000   0.3002
   8.100   1.1592   0.03182   0.02212  -0.0672  0.0531  0.9999  -4.0233   0.0000   0.0000   0.0000   0.2992
   8.200   1.1705   0.03397   0.02422  -0.0671  0.0501  0.9999  -4.0234   0.0000   0.0000   0.0000   0.2985
   8.300   1.1789   0.03454   0.02490  -0.0665  0.0486  0.9999  -4.0542   0.0000   0.0000   0.0000   0.2974
   8.400   1.1881   0.03535   0.02580  -0.0660  0.0469  0.9999  -4.0758   0.0000   0.0000   0.0000   0.2965
   8.500   1.1978   0.03632   0.02687  -0.0656  0.0453  0.9999  -4.0943   0.0000   0.0000   0.0000   0.2955
   8.600   1.2077   0.03740   0.02804  -0.0652  0.0439  0.9999  -4.1127   0.0000   0.0000   0.0000   0.2947
   8.700   1.2173   0.03856   0.02928  -0.0648  0.0429  0.9999  -4.1315   0.0000   0.0000   0.0000   0.2938
   8.800   1.2265   0.03977   0.03060  -0.0644  0.0422  0.9999  -4.1497   0.0000   0.0000   0.0000   0.2929
   8.900   1.2352   0.04104   0.03199  -0.0639  0.0417  0.9999  -4.1659   0.0000   0.0000   0.0000   0.2921
   9.000   1.2432   0.04237   0.03346  -0.0634  0.0415  0.9999  -4.1787   0.0000   0.0000   0.0000   0.2911
   9.100   1.2505   0.04376   0.03501  -0.0627  0.0413  0.9999  -4.1877   0.0000   0.0000   0.0000   0.2902
   9.200   1.2571   0.04522   0.03663  -0.0620  0.0414  0.9999  -4.1921   0.0000   0.0000   0.0000   0.2893
   9.300   1.2625   0.04673   0.03832  -0.0612  0.0416  0.9999  -4.1919   0.0000   0.0000   0.0000   0.2883
   9.400   1.2669   0.04829   0.04007  -0.0602  0.0418  0.9999  -4.1875   0.0000   0.0000   0.0000   0.2872
   9.500   1.2702   0.04989   0.04187  -0.0592  0.0422  0.9999  -4.1793   0.0000   0.0000   0.0000   0.2862
   9.600   1.2725   0.05153   0.04370  -0.0581  0.0426  0.9999  -4.1684   0.0000   0.0000   0.0000   0.2851
   9.700   1.2739   0.05320   0.04556  -0.0569  0.0431  0.9999  -4.1556   0.0000   0.0000   0.0000   0.2841
   9.800   1.2743   0.05489   0.04743  -0.0557  0.0436  0.9999  -4.1416   0.0000   0.0000   0.0000   0.2830
   9.900   1.2739   0.05659   0.04930  -0.0545  0.0441  0.9999  -4.1268   0.0000   0.0000   0.0000   0.2819
  10.000   1.2727   0.05830   0.05118  -0.0532  0.0446  0.9999  -4.1116   0.0000   0.0000   0.0000   0.2809
  10.100   1.2708   0.06002   0.05305  -0.0520  0.0451  0.9999  -4.0961   0.0000   0.0000   0.0000   0.2799
  10.200   1.2681   0.06174   0.05492  -0.0507  0.0457  0.9999  -4.0803   0.0000   0.0000   0.0000   0.2789
  10.300   1.2648   0.06348   0.05679  -0.0495  0.0462  0.9999  -4.0641   0.0000   0.0000   0.0000   0.2779
  10.400   1.2608   0.06523   0.05867  -0.0482  0.0466  0.9999  -4.0476   0.0000   0.0000   0.0000   0.2769
  10.500   1.2559   0.06694   0.06048  -0.0469  0.0471  0.9999  -4.0305   0.0000   0.0000   0.0000   0.2760
  10.600   1.2501   0.06863   0.06227  -0.0456  0.0475  0.9999  -4.0127   0.0000   0.0000   0.0000   0.2750
  10.700   1.2439   0.07037   0.06411  -0.0443  0.0479  0.9999  -3.9938   0.0000   0.0000   0.0000   0.2740
  10.800   1.2372   0.07220   0.06602  -0.0432  0.0483  0.9999  -3.9732   0.0000   0.0000   0.0000   0.2732
  10.900   1.2302   0.07418   0.06809  -0.0422  0.0487  0.9999  -3.9501   0.0000   0.0000   0.0000   0.2724
  11.000   1.2229   0.07654   0.07052  -0.0414  0.0492  0.9999  -3.9211   0.0000   0.0000   0.0000   0.2719
  11.200   1.2276   0.07765   0.07196  -0.0392  0.0541  0.9999  -3.8906   0.0000   0.0000   0.0000   0.2697
  11.300   1.2137   0.07924   0.07368  -0.0383  0.0545  0.9999  -3.8437   0.0000   0.0000   0.0000   0.2692
  11.400   1.2002   0.08101   0.07558  -0.0377  0.0549  0.9999  -3.7970   0.0000   0.0000   0.0000   0.2689
  11.500   1.1868   0.08298   0.07765  -0.0374  0.0552  0.9999  -3.7489   0.0000   0.0000   0.0000   0.2690
  11.600   1.1737   0.08513   0.07991  -0.0376  0.0555  0.9999  -3.7006   0.0000   0.0000   0.0000   0.2693
  11.700   1.1610   0.08744   0.08232  -0.0380  0.0558  0.9999  -3.6532   0.0000   0.0000   0.0000   0.2699
  11.800   1.1486   0.08989   0.08486  -0.0388  0.0560  0.9999  -3.6064   0.0000   0.0000   0.0000   0.2708
  11.900   1.1363   0.09249   0.08753  -0.0398  0.0562  0.9999  -3.5595   0.0000   0.0000   0.0000   0.2719
  12.000   1.1242   0.09522   0.09033  -0.0411  0.0563  0.9999  -3.5120   0.0000   0.0000   0.0000   0.2733
  12.100   1.1122   0.09806   0.09324  -0.0426  0.0564  0.9999  -3.4635   0.0000   0.0000   0.0000   0.2750
  12.200   1.1001   0.10112   0.09636  -0.0444  0.0565  0.9999  -3.4114   0.0000   0.0000   0.0000   0.2769
  12.300   1.0878   0.10447   0.09976  -0.0466  0.0566  0.9999  -3.3538   0.0000   0.0000   0.0000   0.2792
  12.400   1.0751   0.10818   0.10351  -0.0491  0.0566  0.9999  -3.2879   0.0000   0.0000   0.0000   0.2820
  12.500   1.0618   0.11242   0.10779  -0.0522  0.0568  0.9999  -3.2078   0.0000   0.0000   0.0000   0.2854
  12.600   1.0472   0.11745   0.11286  -0.0559  0.0572  0.9999  -3.1049   0.0000   0.0000   0.0000   0.2896
  12.700   1.0311   0.12368   0.11912  -0.0604  0.0580  0.9999  -2.9658   0.0000   0.0000   0.0000   0.2949
  12.800   1.0159   0.13094   0.12636  -0.0653  0.0600  0.9999  -2.7953   0.0000   0.0000   0.0000   0.3007
  12.900   1.0079   0.13589   0.13129  -0.0680  0.0622  0.9999  -2.6918   0.0000   0.0000   0.0000   0.3038
  13.000   1.0042   0.13916   0.13455  -0.0691  0.0644  0.9999  -2.6412   0.0000   0.0000   0.0000   0.3051
  13.100   1.0052   0.14054   0.13592  -0.0677  0.0673  0.9999  -2.6586   0.0000   0.0000   0.0000   0.3035
  13.200   0.9870   0.15999   0.15541  -0.0796  0.1190  0.9999  -2.0682   0.0000   0.0000   0.0000   0.3175
  13.300   0.9901   0.16189   0.15731  -0.0794  0.1184  0.9999  -2.0759   0.0000   0.0000   0.0000   0.3169
  13.400   0.9948   0.16384   0.15927  -0.0787  0.1177  0.9999  -2.0934   0.0000   0.0000   0.0000   0.3158
  13.500   1.0024   0.16621   0.16167  -0.0771  0.1167  0.9999  -2.1284   0.0000   0.0000   0.0000   0.3134
  13.600   0.9952   0.17260   0.16800  -0.0776  0.1151  0.9999  -2.0841   0.0000   0.0000   0.0000   0.3145
  13.700   0.9923   0.17471   0.17009  -0.0794  0.1149  0.9999  -2.0525   0.0000   0.0000   0.0000   0.3164
  13.800   0.9890   0.17651   0.17188  -0.0814  0.1146  0.9999  -2.0179   0.0000   0.0000   0.0000   0.3186
  13.900   0.9689   0.17657   0.17186  -0.0888  0.1106  0.9999  -1.8830   0.0000   0.0000   0.0000   0.3279
  14.000   0.9654   0.17836   0.17363  -0.0909  0.1080  0.9999  -1.8463   0.0000   0.0000   0.0000   0.3303
  14.100   0.9646   0.18009   0.17535  -0.0921  0.1062  0.9999  -1.8269   0.0000   0.0000   0.0000   0.3316
  14.200   0.9647   0.18176   0.17702  -0.0931  0.1047  0.9999  -1.8139   0.0000   0.0000   0.0000   0.3325
  14.300   0.9653   0.18339   0.17864  -0.0939  0.1032  0.9999  -1.8052   0.0000   0.0000   0.0000   0.3331
  14.400   0.9665   0.18497   0.18023  -0.0946  0.1019  0.9999  -1.8000   0.0000   0.0000   0.0000   0.3335
  14.500   0.9681   0.18653   0.18179  -0.0951  0.1006  0.9999  -1.7981   0.0000   0.0000   0.0000   0.3338
  14.600   0.9701   0.18807   0.18333  -0.0955  0.0995  0.9999  -1.7999   0.0000   0.0000   0.0000   0.3339
  14.700   0.9726   0.18959   0.18485  -0.0958  0.0983  0.9999  -1.8057   0.0000   0.0000   0.0000   0.3338
  14.800   0.9757   0.19110   0.18636  -0.0959  0.0972  0.9999  -1.8162   0.0000   0.0000   0.0000   0.3335
  14.900   0.9794   0.19262   0.18789  -0.0958  0.0962  0.9999  -1.8325   0.0000   0.0000   0.0000   0.3329
  15.000   0.9840   0.19417   0.18945  -0.0955  0.0952  0.9999  -1.8557   0.0000   0.0000   0.0000   0.3319
  15.100   0.9894   0.19582   0.19112  -0.0948  0.0942  0.9999  -1.8871   0.0000   0.0000   0.0000   0.3305
  15.200   0.9961   0.19777   0.19309  -0.0935  0.0933  0.9999  -1.9303   0.0000   0.0000   0.0000   0.3285
  15.300   1.0043   0.20104   0.19640  -0.0914  0.0921  0.9999  -1.9882   0.0000   0.0000   0.0000   0.3254
  15.400   1.0014   0.20763   0.20294  -0.0915  0.0908  0.9999  -1.9571   0.0000   0.0000   0.0000   0.3257
  15.500   1.0012   0.20928   0.20458  -0.0928  0.0907  0.9999  -1.9365   0.0000   0.0000   0.0000   0.3270
  15.600   1.0010   0.21079   0.20609  -0.0943  0.0906  0.9999  -1.9153   0.0000   0.0000   0.0000   0.3283
  15.700   1.0007   0.21213   0.20741  -0.0958  0.0903  0.9999  -1.8927   0.0000   0.0000   0.0000   0.3297
  15.800   0.9982   0.21312   0.20839  -0.0979  0.0900  0.9999  -1.8547   0.0000   0.0000   0.0000   0.3320
  15.900   0.9944   0.21362   0.20886  -0.1007  0.0892  0.9999  -1.8035   0.0000   0.0000   0.0000   0.3350
  16.000   0.9890   0.21397   0.20918  -0.1041  0.0876  0.9999  -1.7392   0.0000   0.0000   0.0000   0.3389
  16.100   0.9865   0.21504   0.21024  -0.1062  0.0859  0.9999  -1.7013   0.0000   0.0000   0.0000   0.3412
  16.200   0.9862   0.21655   0.21174  -0.1076  0.0844  0.9999  -1.6813   0.0000   0.0000   0.0000   0.3424
  16.300   0.9868   0.21819   0.21337  -0.1086  0.0830  0.9999  -1.6694   0.0000   0.0000   0.0000   0.3433
  16.400   0.9880   0.21987   0.21505  -0.1095  0.0817  0.9999  -1.6621   0.0000   0.0000   0.0000   0.3439
  16.500   0.9894   0.22156   0.21674  -0.1102  0.0804  0.9999  -1.6580   0.0000   0.0000   0.0000   0.3444
  16.600   0.9910   0.22324   0.21843  -0.1109  0.0793  0.9999  -1.6567   0.0000   0.0000   0.0000   0.3447
  16.700   0.9929   0.22492   0.22011  -0.1115  0.0782  0.9999  -1.6632   0.0000   0.0000   0.0000   0.3449
  16.800   0.9949   0.22659   0.22178  -0.1120  0.0772  0.9999  -1.6822   0.0000   0.0000   0.0000   0.3451
  16.900   0.9972   0.22826   0.22346  -0.1124  0.0762  0.9999  -1.7047   0.0000   0.0000   0.0000   0.3451
  17.000   0.9998   0.22993   0.22514  -0.1127  0.0753  0.9999  -1.7314   0.0000   0.0000   0.0000   0.3449
  17.100   1.0028   0.23163   0.22684  -0.1128  0.0744  0.9999  -1.7632   0.0000   0.0000   0.0000   0.3446
  17.200   1.0062   0.23338   0.22860  -0.1128  0.0735  0.9999  -1.8017   0.0000   0.0000   0.0000   0.3440
  17.300   1.0105   0.23528   0.23052  -0.1125  0.0727  0.9999  -1.8501   0.0000   0.0000   0.0000   0.3431
  17.400   1.0163   0.23754   0.23280  -0.1118  0.0718  0.9999  -1.9155   0.0000   0.0000   0.0000   0.3415
  17.500   1.0232   0.24036   0.23565  -0.1104  0.0710  0.9999  -1.9985   0.0000   0.0000   0.0000   0.3393
  17.600   1.0280   0.24980   0.24508  -0.1076  0.0693  0.9999  -2.0724   0.0000   0.0000   0.0000   0.3360
  17.700   1.0287   0.25158   0.24685  -0.1086  0.0692  0.9999  -2.0667   0.0000   0.0000   0.0000   0.3368
  17.800   1.0294   0.25329   0.24857  -0.1097  0.0691  0.9999  -2.0605   0.0000   0.0000   0.0000   0.3376
  17.900   1.0301   0.25493   0.25020  -0.1108  0.0690  0.9999  -2.0536   0.0000   0.0000   0.0000   0.3385
  18.000   1.0306   0.25647   0.25173  -0.1120  0.0689  0.9999  -2.0441   0.0000   0.0000   0.0000   0.3394
  18.100   1.0301   0.25781   0.25307  -0.1134  0.0688  0.9999  -2.0251   0.0000   0.0000   0.0000   0.3407
  18.200   1.0295   0.25899   0.25424  -0.1149  0.0686  0.9999  -2.0035   0.0000   0.0000   0.0000   0.3421
  18.300   1.0286   0.25996   0.25520  -0.1166  0.0683  0.9999  -1.9776   0.0000   0.0000   0.0000   0.3436
  18.400   1.0268   0.26063   0.25586  -0.1185  0.0680  0.9999  -1.9418   0.0000   0.0000   0.0000   0.3456
  18.500   1.0240   0.26108   0.25629  -0.1206  0.0674  0.9999  -1.8990   0.0000   0.0000   0.0000   0.3478
  18.600   1.0223   0.26186   0.25707  -0.1227  0.0665  0.9999  -1.8601   0.0000   0.0000   0.0000   0.3498
  18.700   1.0220   0.26320   0.25840  -0.1243  0.0654  0.9999  -1.8356   0.0000   0.0000   0.0000   0.3513
  18.800   1.0226   0.26488   0.26008  -0.1255  0.0643  0.9999  -1.8235   0.0000   0.0000   0.0000   0.3523
  18.900   1.0236   0.26669   0.26189  -0.1265  0.0633  0.9999  -1.8183   0.0000   0.0000   0.0000   0.3529
  19.000   1.0247   0.26856   0.26376  -0.1273  0.0622  0.9999  -1.8167   0.0000   0.0000   0.0000   0.3534
  19.100   1.0259   0.27046   0.26566  -0.1280  0.0612  0.9999  -1.8174   0.0000   0.0000   0.0000   0.3538
  19.200   1.0272   0.27235   0.26756  -0.1287  0.0602  0.9999  -1.8197   0.0000   0.0000   0.0000   0.3542
  19.300   1.0287   0.27420   0.26950  -0.1292  0.0585  0.9999  -1.8101   0.0000   0.0000   0.0000   0.3543
  19.400   1.0309   0.27578   0.27109  -0.1294  0.0563  0.9999  -1.8313   0.0000   0.0000   0.0000   0.3540
  19.600   1.0468   0.28664   0.28199  -0.1228  0.0502  0.9999  -2.0693   0.0000   0.0000   0.0000   0.3455
  19.700   1.0466   0.28820   0.28354  -0.1240  0.0501  0.9999  -2.0423   0.0000   0.0000   0.0000   0.3465
  19.800   1.0461   0.28960   0.28494  -0.1253  0.0499  0.9999  -2.0113   0.0000   0.0000   0.0000   0.3476
  19.900   1.0454   0.29085   0.28618  -0.1266  0.0497  0.9999  -1.9777   0.0000   0.0000   0.0000   0.3489
  20.000   1.0437   0.29183   0.28716  -0.1282  0.0495  0.9999  -1.9379   0.0000   0.0000   0.0000   0.3504
  20.100   1.0416   0.29269   0.28800  -0.1300  0.0492  0.9999  -1.8936   0.0000   0.0000   0.0000   0.3522
  20.200   1.0400   0.29362   0.28892  -0.1319  0.0487  0.9999  -1.8463   0.0000   0.0000   0.0000   0.3540
  20.300   1.0393   0.29490   0.29019  -0.1336  0.0478  0.9999  -1.8021   0.0000   0.0000   0.0000   0.3557
  20.400   1.0395   0.29664   0.29194  -0.1350  0.0467  0.9999  -1.7699   0.0000   0.0000   0.0000   0.3568
  20.500   1.0401   0.29861   0.29390  -0.1359  0.0456  0.9999  -1.7484   0.0000   0.0000   0.0000   0.3574
  20.600   1.0408   0.30063   0.29593  -0.1367  0.0445  0.9999  -1.7332   0.0000   0.0000   0.0000   0.3579
  20.700   1.0414   0.30267   0.29797  -0.1373  0.0436  0.9999  -1.7217   0.0000   0.0000   0.0000   0.3583
  20.800   1.0421   0.30469   0.30000  -0.1379  0.0427  0.9999  -1.7129   0.0000   0.0000   0.0000   0.3586
  20.900   1.0428   0.30670   0.30201  -0.1384  0.0418  0.9999  -1.7064   0.0000   0.0000   0.0000   0.3588
  21.000   1.0434   0.30869   0.30401  -0.1388  0.0411  0.9999  -1.7020   0.0000   0.0000   0.0000   0.3590
  21.100   1.0440   0.31066   0.30599  -0.1392  0.0403  0.9999  -1.6997   0.0000   0.0000   0.0000   0.3591
  21.200   1.0447   0.31261   0.30794  -0.1396  0.0396  0.9999  -1.6995   0.0000   0.0000   0.0000   0.3592
  21.300   1.0452   0.31453   0.30987  -0.1399  0.0390  0.9999  -1.7017   0.0000   0.0000   0.0000   0.3593
  21.400   1.0458   0.31644   0.31179  -0.1401  0.0384  0.9999  -1.7065   0.0000   0.0000   0.0000   0.3592
  21.500   1.0464   0.31835   0.31370  -0.1402  0.0378  0.9999  -1.7143   0.0000   0.0000   0.0000   0.3591
  21.600   1.0470   0.32026   0.31562  -0.1403  0.0373  0.9999  -1.7258   0.0000   0.0000   0.0000   0.3589
  21.700   1.0477   0.32220   0.31758  -0.1402  0.0368  0.9999  -1.7420   0.0000   0.0000   0.0000   0.3585
  21.800   1.0486   0.32427   0.31966  -0.1399  0.0363  0.9999  -1.7647   0.0000   0.0000   0.0000   0.3579
  21.900   1.0501   0.32667   0.32208  -0.1392  0.0358  0.9999  -1.7987   0.0000   0.0000   0.0000   0.3570
  22.000   1.0555   0.33114   0.32659  -0.1373  0.0351  0.9999  -1.8754   0.0000   0.0000   0.0000   0.3543
  22.100   1.0573   0.33940   0.33482  -0.1358  0.0344  0.9999  -1.8796   0.0000   0.0000   0.0000   0.3527
  22.200   1.0565   0.34125   0.33667  -0.1363  0.0343  0.9999  -1.8630   0.0000   0.0000   0.0000   0.3531
  22.300   1.0554   0.34304   0.33847  -0.1368  0.0343  0.9999  -1.8463   0.0000   0.0000   0.0000   0.3535
  22.400   1.0542   0.34479   0.34022  -0.1372  0.0343  0.9999  -1.8295   0.0000   0.0000   0.0000   0.3539
  22.500   1.0526   0.34644   0.34187  -0.1376  0.0343  0.9999  -1.8112   0.0000   0.0000   0.0000   0.3544
  22.600   1.0503   0.34796   0.34340  -0.1381  0.0342  0.9999  -1.7897   0.0000   0.0000   0.0000   0.3549
  22.700   1.0475   0.34937   0.34482  -0.1384  0.0342  0.9999  -1.7674   0.0000   0.0000   0.0000   0.3554
  22.800   1.0443   0.35067   0.34613  -0.1387  0.0341  0.9999  -1.7444   0.0000   0.0000   0.0000   0.3560
  22.900   1.0403   0.35179   0.34726  -0.1388  0.0341  0.9999  -1.7193   0.0000   0.0000   0.0000   0.3565
  23.000   1.0350   0.35266   0.34813  -0.1389  0.0341  0.9999  -1.6912   0.0000   0.0000   0.0000   0.3571
  23.100   1.0286   0.35327   0.34875  -0.1387  0.0340  0.9999  -1.6613   0.0000   0.0000   0.0000   0.3577
  24.000   0.9002   0.33101   0.32674  -0.1224  0.0337  0.9999  -1.3025   0.0000   0.0000   0.0000   0.3595
  25.000   0.8720   0.33153   0.32736  -0.1243  0.0312  0.9999  -1.0985   0.0000   0.0000   0.0000   0.3649
  26.000   0.8561   0.33521   0.33116  -0.1250  0.0277  0.9999  -1.0179   0.0000   0.0000   0.0000   0.3670
  27.000   0.8447   0.33906   0.33519  -0.1259  0.0250  0.9999  -0.9843   0.0000   0.0000   0.0000   0.3685
  28.000   0.8360   0.34275   0.33900  -0.1267  0.0228  0.9999  -0.9973   0.0000   0.0000   0.0000   0.3692
  29.000   0.8356   0.35488   0.35122  -0.1258  0.0213  0.9999  -1.0624   0.0000   0.0000   0.0000   0.3665
  30.000   0.8235   0.35600   0.35245  -0.1289  0.0212  0.9999  -0.9596   0.0000   0.0000   0.0000   0.3706


