xflr5 v6.61

 Calculated polar for: NACA 2412

 1 1 Reynolds number fixed          Mach number fixed         

 xtrf =   1.000 (top)        1.000 (bottom)
 Mach =   0.000     Re =     0.563 e 6     Ncrit =   9.000

  alpha     CL        CD       CDp       Cm    Top Xtr Bot Xtr   Cpmin    Chinge    XCp    
 ------- -------- --------- --------- -------- ------- ------- -------- --------- ---------
 -10.000  -0.8901   0.02134   0.01588  -0.0349  1.0000  0.0124  -5.8266   0.0000   0.0000   0.0000   0.2001
  -9.900  -0.8866   0.02078   0.01524  -0.0339  1.0000  0.0124  -5.7818   0.0000   0.0000   0.0000   0.2013
  -9.800  -0.8831   0.02027   0.01466  -0.0327  1.0000  0.0124  -5.7367   0.0000   0.0000   0.0000   0.2026
  -9.700  -0.8798   0.01980   0.01412  -0.0316  1.0000  0.0124  -5.6912   0.0000   0.0000   0.0000   0.2038
  -9.600  -0.8717   0.01924   0.01349  -0.0314  0.9997  0.0124  -5.6288   0.0000   0.0000   0.0000   0.2039
  -9.500  -0.8616   0.01869   0.01285  -0.0315  0.9992  0.0125  -5.5586   0.0000   0.0000   0.0000   0.2034
  -9.400  -0.8513   0.01818   0.01227  -0.0317  0.9986  0.0125  -5.4872   0.0000   0.0000   0.0000   0.2029
  -9.300  -0.8408   0.01771   0.01173  -0.0318  0.9980  0.0126  -5.4148   0.0000   0.0000   0.0000   0.2023
  -9.200  -0.8305   0.01719   0.01117  -0.0320  0.9973  0.0127  -5.3443   0.0000   0.0000   0.0000   0.2018
  -9.100  -0.8208   0.01651   0.01037  -0.0321  0.9965  0.0133  -5.2757   0.0000   0.0000   0.0000   0.2013
  -9.000  -0.8102   0.01604   0.00982  -0.0322  0.9957  0.0140  -5.1969   0.0000   0.0000   0.0000   0.2007
  -8.900  -0.7990   0.01570   0.00945  -0.0325  0.9949  0.0149  -5.1108   0.0000   0.0000   0.0000   0.1999
  -8.800  -0.7875   0.01547   0.00924  -0.0328  0.9941  0.0159  -5.0158   0.0000   0.0000   0.0000   0.1990
  -8.700  -0.7756   0.01533   0.00918  -0.0332  0.9932  0.0170  -4.9084   0.0000   0.0000   0.0000   0.1980
  -8.600  -0.7632   0.01531   0.00925  -0.0337  0.9923  0.0181  -4.7884   0.0000   0.0000   0.0000   0.1967
  -8.500  -0.7503   0.01544   0.00947  -0.0343  0.9914  0.0194  -4.6553   0.0000   0.0000   0.0000   0.1953
  -8.400  -0.7366   0.01576   0.00991  -0.0350  0.9906  0.0210  -4.5020   0.0000   0.0000   0.0000   0.1936
  -8.300  -0.7073   0.02184   0.01670  -0.0389  0.9905  0.0349  -3.6555   0.0000   0.0000   0.0000   0.1866
  -8.200  -0.6962   0.02147   0.01629  -0.0392  0.9894  0.0352  -3.6044   0.0000   0.0000   0.0000   0.1853
  -8.100  -0.6850   0.02109   0.01587  -0.0395  0.9882  0.0354  -3.5548   0.0000   0.0000   0.0000   0.1840
  -8.000  -0.6735   0.02068   0.01542  -0.0399  0.9869  0.0357  -3.5061   0.0000   0.0000   0.0000   0.1826
  -7.900  -0.6617   0.02027   0.01496  -0.0403  0.9855  0.0359  -3.4581   0.0000   0.0000   0.0000   0.1809
  -7.800  -0.6495   0.01984   0.01448  -0.0408  0.9840  0.0361  -3.4104   0.0000   0.0000   0.0000   0.1791
  -7.700  -0.6368   0.01940   0.01400  -0.0413  0.9824  0.0363  -3.3629   0.0000   0.0000   0.0000   0.1770
  -7.600  -0.6238   0.01895   0.01350  -0.0420  0.9807  0.0365  -3.3158   0.0000   0.0000   0.0000   0.1747
  -7.500  -0.6106   0.01850   0.01300  -0.0426  0.9790  0.0366  -3.2692   0.0000   0.0000   0.0000   0.1722
  -7.400  -0.5973   0.01806   0.01251  -0.0433  0.9772  0.0367  -3.2233   0.0000   0.0000   0.0000   0.1696
  -7.300  -0.5840   0.01762   0.01202  -0.0439  0.9755  0.0368  -3.1781   0.0000   0.0000   0.0000   0.1669
  -7.200  -0.5710   0.01720   0.01155  -0.0445  0.9739  0.0369  -3.1338   0.0000   0.0000   0.0000   0.1642
  -7.100  -0.5581   0.01679   0.01110  -0.0451  0.9725  0.0370  -3.0900   0.0000   0.0000   0.0000   0.1614
  -7.000  -0.5451   0.01651   0.01079  -0.0456  0.9711  0.0373  -3.0378   0.0000   0.0000   0.0000   0.1584
  -6.900  -0.5322   0.01633   0.01061  -0.0462  0.9698  0.0379  -2.9792   0.0000   0.0000   0.0000   0.1554
  -6.800  -0.5192   0.01618   0.01045  -0.0468  0.9686  0.0386  -2.9189   0.0000   0.0000   0.0000   0.1521
  -6.700  -0.5061   0.01602   0.01028  -0.0474  0.9675  0.0393  -2.8604   0.0000   0.0000   0.0000   0.1486
  -6.600  -0.4930   0.01580   0.01005  -0.0480  0.9663  0.0398  -2.8067   0.0000   0.0000   0.0000   0.1449
  -6.500  -0.4801   0.01547   0.00969  -0.0486  0.9652  0.0400  -2.7615   0.0000   0.0000   0.0000   0.1411
  -6.400  -0.4672   0.01504   0.00920  -0.0490  0.9641  0.0398  -2.7268   0.0000   0.0000   0.0000   0.1373
  -6.300  -0.4543   0.01462   0.00873  -0.0495  0.9630  0.0395  -2.6922   0.0000   0.0000   0.0000   0.1332
  -6.200  -0.4412   0.01423   0.00829  -0.0501  0.9619  0.0393  -2.6564   0.0000   0.0000   0.0000   0.1288
  -6.100  -0.4280   0.01386   0.00787  -0.0506  0.9608  0.0390  -2.6196   0.0000   0.0000   0.0000   0.1240
  -6.000  -0.4146   0.01353   0.00749  -0.0512  0.9597  0.0388  -2.5819   0.0000   0.0000   0.0000   0.1188
  -5.900  -0.4012   0.01322   0.00714  -0.0518  0.9586  0.0386  -2.5433   0.0000   0.0000   0.0000   0.1132
  -5.800  -0.3877   0.01293   0.00682  -0.0524  0.9573  0.0384  -2.5039   0.0000   0.0000   0.0000   0.1071
  -5.700  -0.3742   0.01267   0.00652  -0.0530  0.9559  0.0382  -2.4639   0.0000   0.0000   0.0000   0.1005
  -5.600  -0.3606   0.01243   0.00624  -0.0536  0.9544  0.0380  -2.4232   0.0000   0.0000   0.0000   0.0934
  -5.500  -0.3472   0.01223   0.00600  -0.0542  0.9525  0.0378  -2.3820   0.0000   0.0000   0.0000   0.0859
  -5.400  -0.3341   0.01206   0.00581  -0.0548  0.9501  0.0377  -2.3405   0.0000   0.0000   0.0000   0.0781
  -5.300  -0.3240   0.01187   0.00558  -0.0546  0.9490  0.0376  -2.3037   0.0000   0.0000   0.0000   0.0736
  -5.200  -0.3138   0.01168   0.00537  -0.0544  0.9476  0.0375  -2.2663   0.0000   0.0000   0.0000   0.0687
  -5.100  -0.3036   0.01150   0.00516  -0.0542  0.9459  0.0374  -2.2283   0.0000   0.0000   0.0000   0.0634
  -5.000  -0.2931   0.01132   0.00496  -0.0541  0.9438  0.0373  -2.1896   0.0000   0.0000   0.0000   0.0575
  -4.900  -0.2823   0.01116   0.00477  -0.0540  0.9413  0.0372  -2.1500   0.0000   0.0000   0.0000   0.0507
  -4.800  -0.2713   0.01100   0.00458  -0.0540  0.9385  0.0372  -2.1097   0.0000   0.0000   0.0000   0.0429
  -4.700  -0.2600   0.01085   0.00440  -0.0540  0.9356  0.0371  -2.0688   0.0000   0.0000   0.0000   0.0341
  -4.600  -0.2486   0.01070   0.00423  -0.0540  0.9325  0.0371  -2.0275   0.0000   0.0000   0.0000   0.0243
  -4.500  -0.2372   0.01057   0.00407  -0.0541  0.9295  0.0370  -1.9862   0.0000   0.0000   0.0000   0.0134
  -4.400  -0.2254   0.01044   0.00392  -0.0542  0.9267  0.0370  -1.9443   0.0000   0.0000   0.0000   0.0008
  -4.300  -0.2133   0.01032   0.00377  -0.0544  0.9240  0.0371  -1.9020   0.0000   0.0000   0.0000  -0.0141
  -4.200  -0.2010   0.01020   0.00363  -0.0547  0.9213  0.0371  -1.8597   0.0000   0.0000   0.0000  -0.0311
  -4.100  -0.1887   0.01009   0.00350  -0.0550  0.9186  0.0372  -1.8174   0.0000   0.0000   0.0000  -0.0506
  -4.000  -0.1763   0.00998   0.00336  -0.0552  0.9157  0.0374  -1.7754   0.0000   0.0000   0.0000  -0.0730
  -3.900  -0.1639   0.00988   0.00323  -0.0555  0.9125  0.0376  -1.7339   0.0000   0.0000   0.0000  -0.0987
  -3.800  -0.1515   0.00979   0.00310  -0.0558  0.9089  0.0379  -1.6933   0.0000   0.0000   0.0000  -0.1285
  -3.600  -0.1268   0.00963   0.00289  -0.0563  0.8999  0.0396  -1.6165   0.0000   0.0000   0.0000  -0.2057
  -3.500  -0.1167   0.00953   0.00280  -0.0561  0.8988  0.0419  -1.5869   0.0000   0.0000   0.0000  -0.2431
  -3.400  -0.1069   0.00936   0.00271  -0.0558  0.8975  0.0496  -1.5656   0.0000   0.0000   0.0000  -0.2852
  -3.300  -0.0981   0.00905   0.00261  -0.0555  0.8957  0.0798  -1.5329   0.0000   0.0000   0.0000  -0.3294
  -3.200  -0.0887   0.00885   0.00254  -0.0553  0.8937  0.0965  -1.4950   0.0000   0.0000   0.0000  -0.3877
  -3.100  -0.0785   0.00878   0.00250  -0.0552  0.8913  0.1054  -1.4548   0.0000   0.0000   0.0000  -0.4681
  -3.000  -0.0683   0.00870   0.00246  -0.0550  0.8885  0.1167  -1.4145   0.0000   0.0000   0.0000  -0.5724
  -2.900  -0.0582   0.00861   0.00242  -0.0549  0.8852  0.1251  -1.3743   0.0000   0.0000   0.0000  -0.7125
  -2.800  -0.0480   0.00852   0.00236  -0.0548  0.8809  0.1325  -1.3339   0.0000   0.0000   0.0000  -0.9141
  -2.700  -0.0376   0.00844   0.00231  -0.0546  0.8754  0.1391  -1.2934   0.0000   0.0000   0.0000  -1.2310
  -2.600  -0.0270   0.00838   0.00225  -0.0545  0.8687  0.1449  -1.2527   0.0000   0.0000   0.0000  -1.8068
  -2.500  -0.0162   0.00832   0.00219  -0.0544  0.8605  0.1509  -1.2118   0.0000   0.0000   0.0000  -3.1730
  -2.400  -0.0055   0.00822   0.00212  -0.0543  0.8507  0.1660  -1.1714   0.0000   0.0000   0.0000  -9.8348
  -2.300   0.0050   0.00811   0.00204  -0.0542  0.8389  0.1795  -1.1318   0.0000   0.0000   0.0000  11.2926
  -2.200   0.0155   0.00806   0.00197  -0.0541  0.8237  0.1895  -1.0924   0.0000   0.0000   0.0000   3.7981
  -2.100   0.0267   0.00803   0.00192  -0.0541  0.8066  0.1964  -1.0520   0.0000   0.0000   0.0000   2.3058
  -2.000   0.0376   0.00800   0.00190  -0.0541  0.7987  0.2031  -1.0127   0.0000   0.0000   0.0000   1.7101
  -1.900   0.0476   0.00792   0.00187  -0.0539  0.7954  0.2159  -0.9751   0.0000   0.0000   0.0000   1.3974
  -1.800   0.0577   0.00783   0.00184  -0.0538  0.7901  0.2274  -0.9379   0.0000   0.0000   0.0000   1.1939
  -1.700   0.0679   0.00777   0.00179  -0.0536  0.7820  0.2369  -0.9005   0.0000   0.0000   0.0000   1.0484
  -1.600   0.0783   0.00773   0.00175  -0.0535  0.7707  0.2439  -0.8632   0.0000   0.0000   0.0000   0.9399
  -1.500   0.0887   0.00773   0.00170  -0.0533  0.7564  0.2493  -0.8261   0.0000   0.0000   0.0000   0.8566
  -1.400   0.0988   0.00772   0.00164  -0.0531  0.7402  0.2591  -0.7902   0.0000   0.0000   0.0000   0.7922
  -1.300   0.1085   0.00769   0.00160  -0.0528  0.7217  0.2703  -0.7551   0.0000   0.0000   0.0000   0.7410
  -1.200   0.1188   0.00767   0.00157  -0.0527  0.7037  0.2803  -0.7194   0.0000   0.0000   0.0000   0.6972
  -1.100   0.1295   0.00763   0.00156  -0.0527  0.6978  0.2883  -0.6833   0.0000   0.0000   0.0000   0.6597
  -1.000   0.1403   0.00760   0.00155  -0.0527  0.6940  0.2944  -0.6475   0.0000   0.0000   0.0000   0.6277
  -0.900   0.1512   0.00759   0.00154  -0.0527  0.6895  0.2989  -0.6119   0.0000   0.0000   0.0000   0.6002
  -0.800   0.1621   0.00759   0.00153  -0.0527  0.6834  0.3072  -0.5767   0.0000   0.0000   0.0000   0.5764
  -0.700   0.1728   0.00758   0.00152  -0.0527  0.6752  0.3216  -0.5423   0.0000   0.0000   0.0000   0.5557
  -0.600   0.1831   0.00756   0.00151  -0.0526  0.6650  0.3373  -0.5166   0.0000   0.0000   0.0000   0.5377
  -0.500   0.1931   0.00754   0.00149  -0.0524  0.6539  0.3519  -0.5243   0.0000   0.0000   0.0000   0.5217
  -0.400   0.2030   0.00752   0.00149  -0.0522  0.6429  0.3678  -0.5321   0.0000   0.0000   0.0000   0.5074
  -0.300   0.2127   0.00752   0.00148  -0.0520  0.6309  0.3830  -0.5410   0.0000   0.0000   0.0000   0.4944
  -0.200   0.2225   0.00753   0.00148  -0.0518  0.6174  0.3962  -0.5499   0.0000   0.0000   0.0000   0.4825
  -0.100   0.2325   0.00750   0.00149  -0.0517  0.6040  0.4240  -0.5589   0.0000   0.0000   0.0000   0.4717
   0.000   0.2422   0.00736   0.00149  -0.0515  0.5979  0.4613  -0.5678   0.0000   0.0000   0.0000   0.4619
   0.100   0.2524   0.00728   0.00150  -0.0514  0.5939  0.4902  -0.5769   0.0000   0.0000   0.0000   0.4528
   0.200   0.2621   0.00718   0.00152  -0.0512  0.5887  0.5312  -0.5859   0.0000   0.0000   0.0000   0.4443
   0.300   0.2712   0.00703   0.00154  -0.0509  0.5822  0.5765  -0.5962   0.0000   0.0000   0.0000   0.4364
   0.400   0.2814   0.00695   0.00158  -0.0507  0.5813  0.6107  -0.6072   0.0000   0.0000   0.0000   0.4290
   0.500   0.2907   0.00684   0.00161  -0.0504  0.5771  0.6480  -0.6177   0.0000   0.0000   0.0000   0.4219
   0.600   0.3006   0.00679   0.00162  -0.0502  0.5722  0.6712  -0.6287   0.0000   0.0000   0.0000   0.4153
   0.700   0.3110   0.00678   0.00163  -0.0500  0.5669  0.6865  -0.6399   0.0000   0.0000   0.0000   0.4092
   0.800   0.3215   0.00680   0.00165  -0.0499  0.5604  0.6973  -0.6512   0.0000   0.0000   0.0000   0.4036
   0.900   0.3314   0.00681   0.00167  -0.0497  0.5528  0.7175  -0.6622   0.0000   0.0000   0.0000   0.3981
   1.000   0.3404   0.00680   0.00171  -0.0493  0.5441  0.7440  -0.6727   0.0000   0.0000   0.0000   0.3928
   1.100   0.3497   0.00680   0.00173  -0.0489  0.5342  0.7663  -0.6833   0.0000   0.0000   0.0000   0.3877
   1.200   0.3595   0.00683   0.00175  -0.0486  0.5234  0.7846  -0.6943   0.0000   0.0000   0.0000   0.3830
   1.300   0.3698   0.00685   0.00178  -0.0485  0.5134  0.7987  -0.7056   0.0000   0.0000   0.0000   0.3788
   1.400   0.3791   0.00683   0.00183  -0.0480  0.5057  0.8344  -0.7164   0.0000   0.0000   0.0000   0.3743
   1.500   0.3889   0.00681   0.00189  -0.0476  0.4998  0.8701  -0.7275   0.0000   0.0000   0.0000   0.3700
   1.600   0.3995   0.00681   0.00193  -0.0474  0.4984  0.8930  -0.7420   0.0000   0.0000   0.0000   0.3662
   1.700   0.4130   0.00683   0.00198  -0.0479  0.4963  0.9151  -0.7715   0.0000   0.0000   0.0000   0.3633
   1.800   0.4289   0.00687   0.00205  -0.0488  0.4928  0.9397  -0.8150   0.0000   0.0000   0.0000   0.3610
   1.900   0.4440   0.00693   0.00209  -0.0496  0.4878  0.9546  -0.8577   0.0000   0.0000   0.0000   0.3590
   2.000   0.4669   0.00700   0.00213  -0.0522  0.4788  0.9678  -0.9134   0.0000   0.0000   0.0000   0.3590
   2.100   0.4865   0.00710   0.00217  -0.0541  0.4674  0.9774  -0.9646   0.0000   0.0000   0.0000   0.3583
   2.200   0.5043   0.00722   0.00221  -0.0557  0.4552  0.9848  -1.0132   0.0000   0.0000   0.0000   0.3574
   2.300   0.5212   0.00734   0.00225  -0.0570  0.4423  0.9906  -1.0611   0.0000   0.0000   0.0000   0.3563
   2.400   0.5380   0.00746   0.00229  -0.0583  0.4290  0.9948  -1.1091   0.0000   0.0000   0.0000   0.3553
   2.500   0.5544   0.00756   0.00232  -0.0596  0.4159  0.9976  -1.1569   0.0000   0.0000   0.0000   0.3542
   2.600   0.5700   0.00762   0.00236  -0.0606  0.4052  0.9993  -1.2039   0.0000   0.0000   0.0000   0.3530
   2.700   0.5825   0.00766   0.00238  -0.0610  0.3994  1.0000  -1.2459   0.0000   0.0000   0.0000   0.3513
   2.800   0.5922   0.00769   0.00240  -0.0608  0.3979  1.0000  -1.2832   0.0000   0.0000   0.0000   0.3492
   2.900   0.6020   0.00772   0.00242  -0.0606  0.3961  1.0000  -1.3209   0.0000   0.0000   0.0000   0.3471
   3.000   0.6117   0.00775   0.00245  -0.0604  0.3940  1.0000  -1.3588   0.0000   0.0000   0.0000   0.3451
   3.100   0.6214   0.00778   0.00247  -0.0602  0.3914  1.0000  -1.3970   0.0000   0.0000   0.0000   0.3431
   3.200   0.6310   0.00782   0.00250  -0.0600  0.3883  1.0000  -1.4354   0.0000   0.0000   0.0000   0.3412
   3.300   0.6406   0.00786   0.00252  -0.0598  0.3843  1.0000  -1.4739   0.0000   0.0000   0.0000   0.3393
   3.400   0.6500   0.00792   0.00255  -0.0595  0.3788  1.0000  -1.5125   0.0000   0.0000   0.0000   0.3375
   3.500   0.6592   0.00800   0.00259  -0.0592  0.3705  1.0000  -1.5507   0.0000   0.0000   0.0000   0.3357
   3.600   0.6677   0.00813   0.00264  -0.0588  0.3584  1.0000  -1.5881   0.0000   0.0000   0.0000   0.3338
   3.700   0.6757   0.00828   0.00270  -0.0583  0.3434  1.0000  -1.6247   0.0000   0.0000   0.0000   0.3319
   3.800   0.6834   0.00846   0.00276  -0.0577  0.3239  1.0000  -1.6608   0.0000   0.0000   0.0000   0.3301
   3.900   0.6919   0.00858   0.00281  -0.0573  0.3029  1.0000  -1.6987   0.0000   0.0000   0.0000   0.3283
   4.000   0.7010   0.00866   0.00286  -0.0570  0.2947  1.0000  -1.7379   0.0000   0.0000   0.0000   0.3267
   4.100   0.7098   0.00877   0.00291  -0.0566  0.2861  1.0000  -1.7769   0.0000   0.0000   0.0000   0.3251
   4.200   0.7178   0.00893   0.00297  -0.0561  0.2740  1.0000  -1.8145   0.0000   0.0000   0.0000   0.3234
   4.300   0.7248   0.00918   0.00308  -0.0554  0.2593  1.0000  -1.8501   0.0000   0.0000   0.0000   0.3216
   4.400   0.7330   0.00934   0.00317  -0.0550  0.2473  1.0000  -1.8883   0.0000   0.0000   0.0000   0.3200
   4.500   0.7415   0.00947   0.00325  -0.0546  0.2387  1.0000  -1.9275   0.0000   0.0000   0.0000   0.3185
   4.600   0.7493   0.00965   0.00334  -0.0540  0.2262  1.0000  -1.9653   0.0000   0.0000   0.0000   0.3169
   4.700   0.7566   0.00989   0.00345  -0.0534  0.2098  1.0000  -2.0020   0.0000   0.0000   0.0000   0.3153
   4.800   0.7651   0.01004   0.00355  -0.0530  0.1953  1.0000  -2.0412   0.0000   0.0000   0.0000   0.3139
   4.900   0.7731   0.01024   0.00366  -0.0525  0.1802  1.0000  -2.0795   0.0000   0.0000   0.0000   0.3125
   5.000   0.7801   0.01052   0.00379  -0.0519  0.1591  1.0000  -2.1155   0.0000   0.0000   0.0000   0.3110
   5.100   0.7885   0.01069   0.00390  -0.0514  0.1433  1.0000  -2.1541   0.0000   0.0000   0.0000   0.3096
   5.200   0.7945   0.01107   0.00411  -0.0507  0.1175  1.0000  -2.1871   0.0000   0.0000   0.0000   0.3080
   5.300   0.7992   0.01159   0.00437  -0.0497  0.0812  1.0000  -2.2155   0.0000   0.0000   0.0000   0.3064
   5.400   0.8037   0.01215   0.00468  -0.0486  0.0476  1.0000  -2.2332   0.0000   0.0000   0.0000   0.3046
   5.500   0.8119   0.01239   0.00486  -0.0481  0.0428  1.0000  -2.2567   0.0000   0.0000   0.0000   0.3032
   5.600   0.8210   0.01255   0.00501  -0.0477  0.0411  1.0000  -2.2889   0.0000   0.0000   0.0000   0.3020
   5.700   0.8302   0.01269   0.00516  -0.0474  0.0401  1.0000  -2.3238   0.0000   0.0000   0.0000   0.3009
   5.800   0.8396   0.01282   0.00530  -0.0471  0.0395  1.0000  -2.3601   0.0000   0.0000   0.0000   0.2998
   5.900   0.8491   0.01294   0.00544  -0.0469  0.0390  1.0000  -2.3975   0.0000   0.0000   0.0000   0.2987
   6.000   0.8586   0.01307   0.00558  -0.0466  0.0387  1.0000  -2.4356   0.0000   0.0000   0.0000   0.2977
   6.100   0.8680   0.01320   0.00573  -0.0463  0.0384  1.0000  -2.4741   0.0000   0.0000   0.0000   0.2967
   6.200   0.8775   0.01333   0.00588  -0.0460  0.0383  1.0000  -2.5130   0.0000   0.0000   0.0000   0.2957
   6.300   0.8869   0.01347   0.00603  -0.0458  0.0381  1.0000  -2.5521   0.0000   0.0000   0.0000   0.2947
   6.400   0.8963   0.01361   0.00619  -0.0455  0.0380  1.0000  -2.5915   0.0000   0.0000   0.0000   0.2938
   6.500   0.9056   0.01375   0.00636  -0.0452  0.0380  1.0000  -2.6308   0.0000   0.0000   0.0000   0.2928
   6.600   0.9149   0.01390   0.00653  -0.0449  0.0379  1.0000  -2.6703   0.0000   0.0000   0.0000   0.2919
   6.700   0.9242   0.01406   0.00671  -0.0447  0.0379  1.0000  -2.7097   0.0000   0.0000   0.0000   0.2910
   6.800   0.9333   0.01422   0.00689  -0.0444  0.0379  1.0000  -2.7491   0.0000   0.0000   0.0000   0.2901
   6.900   0.9425   0.01439   0.00709  -0.0440  0.0379  1.0000  -2.7884   0.0000   0.0000   0.0000   0.2892
   7.000   0.9515   0.01456   0.00729  -0.0437  0.0379  1.0000  -2.8275   0.0000   0.0000   0.0000   0.2883
   7.100   0.9605   0.01474   0.00749  -0.0434  0.0378  1.0000  -2.8672   0.0000   0.0000   0.0000   0.2874
   7.200   0.9694   0.01492   0.00768  -0.0431  0.0374  1.0000  -2.9090   0.0000   0.0000   0.0000   0.2865
   7.300   0.9784   0.01510   0.00786  -0.0428  0.0369  1.0000  -2.9521   0.0000   0.0000   0.0000   0.2857
   7.400   0.9873   0.01528   0.00804  -0.0425  0.0362  1.0000  -2.9958   0.0000   0.0000   0.0000   0.2849
   7.500   0.9961   0.01547   0.00823  -0.0422  0.0356  1.0000  -3.0396   0.0000   0.0000   0.0000   0.2840
   7.600   1.0048   0.01566   0.00843  -0.0418  0.0349  1.0000  -3.0828   0.0000   0.0000   0.0000   0.2832
   7.700   1.0135   0.01586   0.00864  -0.0415  0.0344  1.0000  -3.1254   0.0000   0.0000   0.0000   0.2824
   7.800   1.0221   0.01606   0.00886  -0.0411  0.0341  1.0000  -3.1672   0.0000   0.0000   0.0000   0.2816
   7.900   1.0306   0.01628   0.00909  -0.0407  0.0340  1.0000  -3.2084   0.0000   0.0000   0.0000   0.2808
   8.000   1.0390   0.01649   0.00932  -0.0403  0.0338  1.0000  -3.2496   0.0000   0.0000   0.0000   0.2799
   8.100   1.0473   0.01672   0.00956  -0.0399  0.0337  1.0000  -3.2908   0.0000   0.0000   0.0000   0.2791
   8.200   1.0555   0.01694   0.00981  -0.0395  0.0335  1.0000  -3.3320   0.0000   0.0000   0.0000   0.2783
   8.300   1.0636   0.01718   0.01007  -0.0391  0.0334  1.0000  -3.3731   0.0000   0.0000   0.0000   0.2775
   8.400   1.0717   0.01742   0.01032  -0.0387  0.0332  1.0000  -3.4142   0.0000   0.0000   0.0000   0.2767
   8.500   1.0796   0.01766   0.01059  -0.0382  0.0330  1.0000  -3.4553   0.0000   0.0000   0.0000   0.2759
   8.600   1.0874   0.01791   0.01086  -0.0378  0.0329  1.0000  -3.4963   0.0000   0.0000   0.0000   0.2750
   8.700   1.1056   0.01717   0.01019  -0.0396  0.0232  1.0000  -3.8535   0.0000   0.0000   0.0000   0.2760
   8.800   1.1174   0.01704   0.00998  -0.0399  0.0213  1.0000  -3.9849   0.0000   0.0000   0.0000   0.2757
   8.900   1.1269   0.01713   0.01002  -0.0399  0.0198  1.0000  -4.0805   0.0000   0.0000   0.0000   0.2752
   9.000   1.1354   0.01731   0.01013  -0.0396  0.0184  1.0000  -4.1643   0.0000   0.0000   0.0000   0.2746
   9.100   1.1434   0.01753   0.01028  -0.0393  0.0172  1.0000  -4.2414   0.0000   0.0000   0.0000   0.2739
   9.200   1.1513   0.01777   0.01047  -0.0389  0.0162  1.0000  -4.3126   0.0000   0.0000   0.0000   0.2732
   9.300   1.1591   0.01801   0.01070  -0.0384  0.0152  1.0000  -4.3793   0.0000   0.0000   0.0000   0.2724
   9.400   1.1667   0.01826   0.01095  -0.0380  0.0144  1.0000  -4.4428   0.0000   0.0000   0.0000   0.2717
   9.500   1.1739   0.01854   0.01124  -0.0374  0.0137  1.0000  -4.5034   0.0000   0.0000   0.0000   0.2709
   9.600   1.1807   0.01884   0.01158  -0.0368  0.0131  1.0000  -4.5615   0.0000   0.0000   0.0000   0.2700
   9.700   1.1869   0.01919   0.01197  -0.0361  0.0127  1.0000  -4.6168   0.0000   0.0000   0.0000   0.2691
   9.800   1.1933   0.01951   0.01230  -0.0354  0.0125  1.0000  -4.6719   0.0000   0.0000   0.0000   0.2682
   9.900   1.1998   0.01981   0.01263  -0.0348  0.0125  1.0000  -4.7272   0.0000   0.0000   0.0000   0.2674
  10.000   1.2059   0.02012   0.01297  -0.0341  0.0124  1.0000  -4.7813   0.0000   0.0000   0.0000   0.2665
  10.100   1.2112   0.02043   0.01332  -0.0333  0.0124  1.0000  -4.8331   0.0000   0.0000   0.0000   0.2655
  10.200   1.2163   0.02077   0.01369  -0.0324  0.0123  1.0000  -4.8840   0.0000   0.0000   0.0000   0.2645
  10.300   1.2211   0.02111   0.01407  -0.0315  0.0123  1.0000  -4.9344   0.0000   0.0000   0.0000   0.2635
  10.400   1.2258   0.02148   0.01447  -0.0306  0.0123  1.0000  -4.9845   0.0000   0.0000   0.0000   0.2626
  10.500   1.2303   0.02186   0.01489  -0.0297  0.0122  1.0000  -5.0341   0.0000   0.0000   0.0000   0.2616
  10.600   1.2346   0.02226   0.01533  -0.0288  0.0122  1.0000  -5.0832   0.0000   0.0000   0.0000   0.2606
  10.700   1.2388   0.02267   0.01578  -0.0278  0.0122  1.0000  -5.1317   0.0000   0.0000   0.0000   0.2596
  10.800   1.2427   0.02311   0.01626  -0.0269  0.0122  1.0000  -5.1793   0.0000   0.0000   0.0000   0.2586
  10.900   1.2456   0.02356   0.01676  -0.0259  0.0121  1.0000  -5.2237   0.0000   0.0000   0.0000   0.2576
  11.000   1.2478   0.02404   0.01728  -0.0247  0.0121  1.0000  -5.2653   0.0000   0.0000   0.0000   0.2565
  11.100   1.2498   0.02454   0.01782  -0.0236  0.0121  1.0000  -5.3066   0.0000   0.0000   0.0000   0.2554
  11.200   1.2520   0.02507   0.01840  -0.0226  0.0121  1.0000  -5.3483   0.0000   0.0000   0.0000   0.2543
  11.300   1.2543   0.02562   0.01900  -0.0216  0.0121  1.0000  -5.3902   0.0000   0.0000   0.0000   0.2533
  11.400   1.2565   0.02620   0.01962  -0.0206  0.0121  1.0000  -5.4317   0.0000   0.0000   0.0000   0.2524
  11.500   1.2581   0.02683   0.02030  -0.0196  0.0120  1.0000  -5.4707   0.0000   0.0000   0.0000   0.2514
  11.600   1.2589   0.02751   0.02103  -0.0186  0.0120  1.0000  -5.5066   0.0000   0.0000   0.0000   0.2504
  11.700   1.2850   0.02616   0.01958  -0.0206  0.0121  1.0000  -5.5760   0.0000   0.0000   0.0000   0.2515
  11.800   1.2860   0.02680   0.02027  -0.0196  0.0121  1.0000  -5.6132   0.0000   0.0000   0.0000   0.2505
  11.900   1.2871   0.02747   0.02099  -0.0186  0.0120  1.0000  -5.6508   0.0000   0.0000   0.0000   0.2496
  12.000   1.2884   0.02816   0.02174  -0.0177  0.0120  1.0000  -5.6898   0.0000   0.0000   0.0000   0.2487
  12.100   1.2897   0.02888   0.02251  -0.0169  0.0120  1.0000  -5.7291   0.0000   0.0000   0.0000   0.2478
  12.200   1.2910   0.02963   0.02331  -0.0160  0.0120  1.0000  -5.7679   0.0000   0.0000   0.0000   0.2470
  12.300   1.2920   0.03041   0.02415  -0.0152  0.0120  1.0000  -5.8059   0.0000   0.0000   0.0000   0.2461
  12.400   1.2927   0.03122   0.02503  -0.0143  0.0120  1.0000  -5.8425   0.0000   0.0000   0.0000   0.2453
  12.500   1.2931   0.03208   0.02595  -0.0135  0.0120  1.0000  -5.8775   0.0000   0.0000   0.0000   0.2444
  12.600   1.2931   0.03298   0.02692  -0.0127  0.0120  1.0000  -5.9104   0.0000   0.0000   0.0000   0.2436
  12.700   1.2923   0.03391   0.02792  -0.0118  0.0120  1.0000  -5.9397   0.0000   0.0000   0.0000   0.2428
  12.800   1.2893   0.03499   0.02907  -0.0110  0.0120  1.0000  -5.9594   0.0000   0.0000   0.0000   0.2420
  12.900   1.2867   0.03612   0.03026  -0.0103  0.0120  1.0000  -5.9799   0.0000   0.0000   0.0000   0.2412
  13.000   1.2849   0.03724   0.03145  -0.0096  0.0120  1.0000  -6.0036   0.0000   0.0000   0.0000   0.2405
  13.100   1.2834   0.03838   0.03266  -0.0090  0.0120  1.0000  -6.0277   0.0000   0.0000   0.0000   0.2398
  13.200   1.2817   0.03957   0.03392  -0.0083  0.0120  1.0000  -6.0510   0.0000   0.0000   0.0000   0.2391
  13.300   1.2799   0.04081   0.03524  -0.0078  0.0120  1.0000  -6.0726   0.0000   0.0000   0.0000   0.2385
  13.400   1.2777   0.04211   0.03661  -0.0073  0.0120  1.0000  -6.0919   0.0000   0.0000   0.0000   0.2379
  13.500   1.2750   0.04348   0.03806  -0.0068  0.0120  1.0000  -6.1085   0.0000   0.0000   0.0000   0.2374
  13.600   1.2710   0.04501   0.03967  -0.0065  0.0120  1.0000  -6.1182   0.0000   0.0000   0.0000   0.2369
  13.700   1.2655   0.04674   0.04149  -0.0064  0.0120  1.0000  -6.1199   0.0000   0.0000   0.0000   0.2366
  13.800   1.2612   0.04839   0.04321  -0.0062  0.0120  1.0000  -6.1262   0.0000   0.0000   0.0000   0.2363
  13.900   1.2571   0.05002   0.04492  -0.0060  0.0120  1.0000  -6.1328   0.0000   0.0000   0.0000   0.2360
  14.000   1.2527   0.05170   0.04668  -0.0059  0.0120  1.0000  -6.1377   0.0000   0.0000   0.0000   0.2357
  14.100   1.2480   0.05343   0.04850  -0.0058  0.0120  1.0000  -6.1400   0.0000   0.0000   0.0000   0.2354
  14.200   1.2428   0.05525   0.05039  -0.0058  0.0120  1.0000  -6.1389   0.0000   0.0000   0.0000   0.2352
  14.300   1.2368   0.05718   0.05241  -0.0060  0.0120  1.0000  -6.1329   0.0000   0.0000   0.0000   0.2351
  14.400   1.2283   0.05956   0.05487  -0.0067  0.0120  1.0000  -6.1124   0.0000   0.0000   0.0000   0.2355
  14.500   1.2212   0.06173   0.05711  -0.0072  0.0120  1.0000  -6.0990   0.0000   0.0000   0.0000   0.2357
  14.600   1.2145   0.06378   0.05924  -0.0075  0.0120  1.0000  -6.0864   0.0000   0.0000   0.0000   0.2358
  14.700   1.2075   0.06587   0.06140  -0.0079  0.0120  1.0000  -6.0721   0.0000   0.0000   0.0000   0.2359
  14.800   1.2003   0.06806   0.06368  -0.0084  0.0120  1.0000  -6.0550   0.0000   0.0000   0.0000   0.2361
  14.900   1.1927   0.07044   0.06614  -0.0091  0.0120  1.0000  -6.0343   0.0000   0.0000   0.0000   0.2365
  15.000   1.1825   0.07350   0.06926  -0.0106  0.0120  1.0000  -5.9961   0.0000   0.0000   0.0000   0.2377
  15.100   1.1739   0.07626   0.07210  -0.0118  0.0121  1.0000  -5.9662   0.0000   0.0000   0.0000   0.2385
  15.200   1.1664   0.07886   0.07477  -0.0128  0.0121  1.0000  -5.9406   0.0000   0.0000   0.0000   0.2391
  15.300   1.1589   0.08152   0.07750  -0.0137  0.0121  1.0000  -5.9142   0.0000   0.0000   0.0000   0.2398
  15.400   1.1512   0.08425   0.08031  -0.0148  0.0121  1.0000  -5.8847   0.0000   0.0000   0.0000   0.2406
  15.500   1.1430   0.08713   0.08326  -0.0161  0.0121  1.0000  -5.8507   0.0000   0.0000   0.0000   0.2416
  15.600   1.1338   0.09033   0.08654  -0.0177  0.0121  1.0000  -5.8077   0.0000   0.0000   0.0000   0.2429
  15.700   1.1227   0.09424   0.09052  -0.0201  0.0121  1.0000  -5.7490   0.0000   0.0000   0.0000   0.2450
  15.800   1.1144   0.09739   0.09373  -0.0217  0.0121  1.0000  -5.7073   0.0000   0.0000   0.0000   0.2463
  15.900   1.1065   0.10040   0.09681  -0.0231  0.0121  1.0000  -5.6669   0.0000   0.0000   0.0000   0.2475
  16.000   1.0985   0.10344   0.09991  -0.0245  0.0121  1.0000  -5.6243   0.0000   0.0000   0.0000   0.2488
  16.100   1.0903   0.10659   0.10313  -0.0260  0.0121  1.0000  -5.5775   0.0000   0.0000   0.0000   0.2502
  16.200   1.0818   0.10996   0.10656  -0.0278  0.0121  1.0000  -5.5245   0.0000   0.0000   0.0000   0.2518
  16.300   1.0718   0.11391   0.11058  -0.0301  0.0122  1.0000  -5.4556   0.0000   0.0000   0.0000   0.2541
  16.400   1.0617   0.11794   0.11468  -0.0325  0.0122  1.0000  -5.3818   0.0000   0.0000   0.0000   0.2565
  16.500   1.0519   0.12182   0.11861  -0.0347  0.0122  1.0000  -5.3084   0.0000   0.0000   0.0000   0.2588
  16.600   1.0409   0.12636   0.12321  -0.0375  0.0122  1.0000  -5.2156   0.0000   0.0000   0.0000   0.2617
  16.700   1.0304   0.13062   0.12753  -0.0399  0.0122  1.0000  -5.1250   0.0000   0.0000   0.0000   0.2643
  16.800   1.0198   0.13491   0.13188  -0.0423  0.0122  1.0000  -5.0282   0.0000   0.0000   0.0000   0.2670
  16.900   1.0066   0.14009   0.13712  -0.0453  0.0122  1.0000  -4.8975   0.0000   0.0000   0.0000   0.2705
  17.000   0.9949   0.14484   0.14192  -0.0479  0.0122  1.0000  -4.7748   0.0000   0.0000   0.0000   0.2737
  17.100   0.9812   0.14999   0.14713  -0.0508  0.0122  1.0000  -4.6197   0.0000   0.0000   0.0000   0.2773
  17.200   0.9650   0.15586   0.15304  -0.0541  0.0122  1.0000  -4.4210   0.0000   0.0000   0.0000   0.2817
  18.100   0.9401   0.18025   0.17754  -0.0656  0.0135  1.0000  -4.0244   0.0000   0.0000   0.0000   0.2947
  19.100   0.8500   0.24837   0.24567  -0.0845  0.0246  1.0000  -1.6225   0.0000   0.0000   0.0000   0.3269
  19.200   0.8521   0.25013   0.24743  -0.0852  0.0246  1.0000  -1.6237   0.0000   0.0000   0.0000   0.3273
  19.300   0.8544   0.25181   0.24911  -0.0859  0.0245  1.0000  -1.6273   0.0000   0.0000   0.0000   0.3277
  19.400   0.8568   0.25336   0.25065  -0.0866  0.0244  1.0000  -1.6343   0.0000   0.0000   0.0000   0.3280
  19.500   0.8597   0.25468   0.25197  -0.0873  0.0242  1.0000  -1.6473   0.0000   0.0000   0.0000   0.3283
  19.600   0.8636   0.25548   0.25277  -0.0880  0.0239  1.0000  -1.6745   0.0000   0.0000   0.0000   0.3285
  19.700   0.8702   0.25513   0.25241  -0.0887  0.0229  1.0000  -1.7330   0.0000   0.0000   0.0000   0.3282
  19.800   0.8757   0.25549   0.25277  -0.0898  0.0210  1.0000  -1.7643   0.0000   0.0000   0.0000   0.3287
  19.900   0.8790   0.25685   0.25413  -0.0907  0.0194  1.0000  -1.7820   0.0000   0.0000   0.0000   0.3292
  20.000   0.8818   0.25821   0.25549  -0.0914  0.0182  1.0000  -1.8084   0.0000   0.0000   0.0000   0.3295
  20.100   0.8844   0.25944   0.25671  -0.0920  0.0173  1.0000  -1.8429   0.0000   0.0000   0.0000   0.3296
  20.200   0.8872   0.26054   0.25780  -0.0925  0.0166  1.0000  -1.8839   0.0000   0.0000   0.0000   0.3296
  20.300   0.8900   0.26153   0.25879  -0.0929  0.0160  1.0000  -1.9308   0.0000   0.0000   0.0000   0.3295
  20.400   0.8930   0.26242   0.25968  -0.0933  0.0156  1.0000  -1.9830   0.0000   0.0000   0.0000   0.3293
  20.500   0.8961   0.26322   0.26047  -0.0936  0.0152  1.0000  -2.0401   0.0000   0.0000   0.0000   0.3291
  20.600   0.8994   0.26394   0.26119  -0.0939  0.0148  1.0000  -2.1020   0.0000   0.0000   0.0000   0.3287
  20.700   0.9028   0.26458   0.26182  -0.0941  0.0146  1.0000  -2.1687   0.0000   0.0000   0.0000   0.3283
  20.800   0.9062   0.26517   0.26241  -0.0943  0.0143  1.0000  -2.2390   0.0000   0.0000   0.0000   0.3278
  20.900   0.9092   0.26593   0.26316  -0.0946  0.0140  1.0000  -2.3026   0.0000   0.0000   0.0000   0.3274
  21.000   0.9114   0.26700   0.26423  -0.0949  0.0137  1.0000  -2.3537   0.0000   0.0000   0.0000   0.3273


