xflr5 v6.61

 Calculated polar for: NACA 65(1)-212 a=0.6

 1 1 Reynolds number fixed          Mach number fixed         

 xtrf =   1.000 (top)        1.000 (bottom)
 Mach =   0.000     Re =     0.450 e 6     Ncrit =   9.000

  alpha     CL        CD       CDp       Cm    Top Xtr Bot Xtr   Cpmin    Chinge    XCp    
 ------- -------- --------- --------- -------- ------- ------- -------- --------- ---------
 -10.000  -0.4260   0.07254   0.07016  -0.0596  0.9999  0.0202  -2.3287   0.0000   0.0000   0.0000   0.1001
  -9.900  -0.4311   0.06870   0.06630  -0.0637  0.9990  0.0200  -2.4193   0.0000   0.0000   0.0000   0.0924
  -9.800  -0.4367   0.06546   0.06301  -0.0672  0.9976  0.0199  -2.4939   0.0000   0.0000   0.0000   0.0867
  -9.700  -0.4426   0.06260   0.06011  -0.0701  0.9956  0.0198  -2.5586   0.0000   0.0000   0.0000   0.0822
  -9.300  -0.6483   0.03218   0.02788  -0.0624  0.9326  0.0093  -5.4117   0.0000   0.0000   0.0000   0.1453
  -9.200  -0.6552   0.03072   0.02622  -0.0599  0.9261  0.0092  -5.4878   0.0000   0.0000   0.0000   0.1502
  -9.100  -0.6588   0.02962   0.02496  -0.0578  0.9203  0.0091  -5.5095   0.0000   0.0000   0.0000   0.1539
  -9.000  -0.6612   0.02855   0.02375  -0.0559  0.9145  0.0091  -5.5191   0.0000   0.0000   0.0000   0.1572
  -8.900  -0.6624   0.02747   0.02252  -0.0542  0.9083  0.0092  -5.5190   0.0000   0.0000   0.0000   0.1600
  -8.800  -0.6613   0.02643   0.02133  -0.0530  0.9014  0.0092  -5.5006   0.0000   0.0000   0.0000   0.1617
  -8.700  -0.6585   0.02554   0.02035  -0.0520  0.8991  0.0093  -5.4556   0.0000   0.0000   0.0000   0.1631
  -8.600  -0.6543   0.02489   0.01962  -0.0511  0.8973  0.0094  -5.3850   0.0000   0.0000   0.0000   0.1641
  -8.500  -0.6489   0.02442   0.01910  -0.0503  0.8953  0.0096  -5.2957   0.0000   0.0000   0.0000   0.1647
  -8.400  -0.6428   0.02407   0.01871  -0.0497  0.8930  0.0097  -5.1947   0.0000   0.0000   0.0000   0.1650
  -8.300  -0.6361   0.02379   0.01841  -0.0491  0.8905  0.0098  -5.0869   0.0000   0.0000   0.0000   0.1652
  -8.200  -0.6292   0.02356   0.01815  -0.0486  0.8880  0.0099  -4.9754   0.0000   0.0000   0.0000   0.1653
  -8.100  -0.6220   0.02335   0.01792  -0.0481  0.8853  0.0101  -4.8619   0.0000   0.0000   0.0000   0.1653
  -8.000  -0.6146   0.02315   0.01770  -0.0476  0.8826  0.0103  -4.7475   0.0000   0.0000   0.0000   0.1653
  -7.900  -0.6072   0.02296   0.01748  -0.0471  0.8799  0.0105  -4.6325   0.0000   0.0000   0.0000   0.1653
  -7.800  -0.5996   0.02279   0.01728  -0.0466  0.8772  0.0107  -4.5168   0.0000   0.0000   0.0000   0.1652
  -7.700  -0.5919   0.02262   0.01709  -0.0461  0.8745  0.0110  -4.3991   0.0000   0.0000   0.0000   0.1651
  -7.600  -0.5839   0.02250   0.01694  -0.0456  0.8718  0.0114  -4.2767   0.0000   0.0000   0.0000   0.1650
  -7.400  -0.5618   0.02407   0.01860  -0.0454  0.8664  0.0133  -3.7922   0.0000   0.0000   0.0000   0.1625
  -7.300  -0.5528   0.02425   0.01876  -0.0450  0.8633  0.0135  -3.6781   0.0000   0.0000   0.0000   0.1619
  -7.200  -0.5434   0.02456   0.01906  -0.0447  0.8598  0.0137  -3.5582   0.0000   0.0000   0.0000   0.1611
  -7.100  -0.5444   0.02160   0.01578  -0.0432  0.8554  0.0147  -3.6686   0.0000   0.0000   0.0000   0.1641
  -7.000  -0.5380   0.02062   0.01471  -0.0428  0.8507  0.0154  -3.6387   0.0000   0.0000   0.0000   0.1640
  -6.900  -0.5297   0.02021   0.01428  -0.0425  0.8496  0.0159  -3.5639   0.0000   0.0000   0.0000   0.1634
  -6.800  -0.5210   0.01998   0.01404  -0.0422  0.8483  0.0163  -3.4781   0.0000   0.0000   0.0000   0.1625
  -6.700  -0.5120   0.01981   0.01387  -0.0420  0.8469  0.0166  -3.3902   0.0000   0.0000   0.0000   0.1616
  -6.600  -0.5029   0.01966   0.01372  -0.0419  0.8453  0.0170  -3.3039   0.0000   0.0000   0.0000   0.1605
  -6.500  -0.4937   0.01950   0.01355  -0.0417  0.8436  0.0173  -3.2214   0.0000   0.0000   0.0000   0.1594
  -6.400  -0.4844   0.01932   0.01336  -0.0415  0.8418  0.0177  -3.1435   0.0000   0.0000   0.0000   0.1582
  -6.300  -0.4751   0.01912   0.01314  -0.0413  0.8400  0.0180  -3.0705   0.0000   0.0000   0.0000   0.1569
  -6.200  -0.4657   0.01890   0.01289  -0.0411  0.8381  0.0184  -3.0021   0.0000   0.0000   0.0000   0.1556
  -6.100  -0.4562   0.01865   0.01262  -0.0410  0.8362  0.0187  -2.9377   0.0000   0.0000   0.0000   0.1542
  -6.000  -0.4467   0.01838   0.01232  -0.0408  0.8343  0.0190  -2.8770   0.0000   0.0000   0.0000   0.1528
  -5.900  -0.4372   0.01810   0.01201  -0.0406  0.8325  0.0193  -2.8191   0.0000   0.0000   0.0000   0.1513
  -5.800  -0.4276   0.01780   0.01168  -0.0404  0.8306  0.0195  -2.7636   0.0000   0.0000   0.0000   0.1497
  -5.700  -0.4180   0.01750   0.01134  -0.0401  0.8287  0.0198  -2.7108   0.0000   0.0000   0.0000   0.1481
  -5.600  -0.4085   0.01719   0.01099  -0.0399  0.8267  0.0200  -2.6610   0.0000   0.0000   0.0000   0.1464
  -5.500  -0.3989   0.01684   0.01060  -0.0397  0.8248  0.0202  -2.6180   0.0000   0.0000   0.0000   0.1447
  -5.400  -0.3894   0.01641   0.01010  -0.0394  0.8228  0.0200  -2.5910   0.0000   0.0000   0.0000   0.1430
  -5.300  -0.3797   0.01615   0.00981  -0.0392  0.8208  0.0203  -2.5388   0.0000   0.0000   0.0000   0.1411
  -5.200  -0.3701   0.01589   0.00952  -0.0389  0.8187  0.0206  -2.4871   0.0000   0.0000   0.0000   0.1390
  -5.100  -0.3605   0.01564   0.00924  -0.0387  0.8165  0.0209  -2.4355   0.0000   0.0000   0.0000   0.1368
  -5.000  -0.3507   0.01541   0.00898  -0.0385  0.8142  0.0213  -2.3833   0.0000   0.0000   0.0000   0.1345
  -4.900  -0.3410   0.01520   0.00874  -0.0383  0.8116  0.0217  -2.3296   0.0000   0.0000   0.0000   0.1319
  -4.800  -0.3310   0.01503   0.00854  -0.0382  0.8088  0.0222  -2.2721   0.0000   0.0000   0.0000   0.1289
  -4.700  -0.3184   0.01692   0.01042  -0.0390  0.8054  0.0276  -1.9762   0.0000   0.0000   0.0000   0.1220
  -4.600  -0.3078   0.01671   0.01018  -0.0389  0.8021  0.0274  -1.9371   0.0000   0.0000   0.0000   0.1179
  -4.500  -0.2973   0.01644   0.00990  -0.0389  0.8005  0.0272  -1.8994   0.0000   0.0000   0.0000   0.1136
  -4.400  -0.2869   0.01613   0.00957  -0.0388  0.7998  0.0271  -1.8635   0.0000   0.0000   0.0000   0.1092
  -4.300  -0.2765   0.01579   0.00922  -0.0386  0.7991  0.0269  -1.8296   0.0000   0.0000   0.0000   0.1045
  -4.200  -0.2663   0.01543   0.00884  -0.0385  0.7982  0.0268  -1.7983   0.0000   0.0000   0.0000   0.0996
  -4.100  -0.2562   0.01505   0.00843  -0.0383  0.7973  0.0267  -1.7700   0.0000   0.0000   0.0000   0.0945
  -4.000  -0.2463   0.01463   0.00799  -0.0381  0.7963  0.0267  -1.7450   0.0000   0.0000   0.0000   0.0892
  -3.900  -0.2367   0.01418   0.00752  -0.0379  0.7951  0.0267  -1.7238   0.0000   0.0000   0.0000   0.0840
  -3.800  -0.2275   0.01372   0.00703  -0.0375  0.7939  0.0268  -1.7065   0.0000   0.0000   0.0000   0.0789
  -3.700  -0.2187   0.01325   0.00651  -0.0371  0.7926  0.0270  -1.6932   0.0000   0.0000   0.0000   0.0741
  -3.600  -0.2103   0.01277   0.00599  -0.0367  0.7912  0.0273  -1.6838   0.0000   0.0000   0.0000   0.0694
  -3.500  -0.2021   0.01231   0.00547  -0.0362  0.7897  0.0279  -1.6784   0.0000   0.0000   0.0000   0.0647
  -3.400  -0.1937   0.01188   0.00497  -0.0357  0.7882  0.0289  -1.6768   0.0000   0.0000   0.0000   0.0594
  -3.300  -0.1849   0.01150   0.00450  -0.0352  0.7867  0.0307  -1.6795   0.0000   0.0000   0.0000   0.0530
  -3.200  -0.1756   0.01118   0.00410  -0.0349  0.7851  0.0340  -1.6832   0.0000   0.0000   0.0000   0.0447
  -3.100  -0.1656   0.01096   0.00384  -0.0347  0.7836  0.0389  -1.6714   0.0000   0.0000   0.0000   0.0339
  -3.000  -0.1552   0.01081   0.00369  -0.0346  0.7821  0.0431  -1.6363   0.0000   0.0000   0.0000   0.0204
  -2.900  -0.1447   0.01069   0.00357  -0.0345  0.7806  0.0468  -1.5931   0.0000   0.0000   0.0000   0.0045
  -2.800  -0.1341   0.01059   0.00345  -0.0344  0.7790  0.0503  -1.5464   0.0000   0.0000   0.0000  -0.0144
  -2.700  -0.1239   0.01042   0.00333  -0.0343  0.7775  0.0675  -1.5047   0.0000   0.0000   0.0000  -0.0350
  -2.600  -0.1160   0.00990   0.00315  -0.0341  0.7760  0.1454  -1.4641   0.0000   0.0000   0.0000  -0.0519
  -2.500  -0.1094   0.00919   0.00293  -0.0338  0.7744  0.2757  -1.4241   0.0000   0.0000   0.0000  -0.0671
  -2.300  -0.0967   0.00796   0.00275  -0.0328  0.7709  0.5455  -1.3386   0.0000   0.0000   0.0000  -0.0977
  -2.200  -0.0872   0.00782   0.00277  -0.0325  0.7691  0.5860  -1.2863   0.0000   0.0000   0.0000  -0.1317
  -2.100  -0.0767   0.00779   0.00276  -0.0323  0.7672  0.6065  -1.2315   0.0000   0.0000   0.0000  -0.1822
  -2.000  -0.0668   0.00771   0.00279  -0.0321  0.7651  0.6294  -1.1783   0.0000   0.0000   0.0000  -0.2413
  -1.900  -0.0561   0.00772   0.00280  -0.0320  0.7629  0.6429  -1.1235   0.0000   0.0000   0.0000  -0.3334
  -1.800  -0.0451   0.00774   0.00282  -0.0320  0.7604  0.6527  -1.0687   0.0000   0.0000   0.0000  -0.4735
  -1.700  -0.0350   0.00772   0.00288  -0.0318  0.7579  0.6681  -1.0163   0.0000   0.0000   0.0000  -0.6769
  -1.600  -0.0245   0.00777   0.00298  -0.0316  0.7552  0.6811  -0.9635   0.0000   0.0000   0.0000  -1.0649
  -1.500  -0.0137   0.00787   0.00309  -0.0316  0.7523  0.6912  -0.9105   0.0000   0.0000   0.0000  -2.1047
  -1.400  -0.0025   0.00795   0.00316  -0.0317  0.7508  0.6974  -0.8573   0.0000   0.0000   0.0000  -12.4344
  -1.300   0.0084   0.00792   0.00315  -0.0316  0.7503  0.7055  -0.8054   0.0000   0.0000   0.0000   4.0750
  -1.200   0.0191   0.00788   0.00316  -0.0316  0.7497  0.7132  -0.7546   0.0000   0.0000   0.0000   1.9255
  -1.100   0.0299   0.00786   0.00318  -0.0315  0.7491  0.7189  -0.7043   0.0000   0.0000   0.0000   1.3179
  -1.000   0.0408   0.00785   0.00319  -0.0315  0.7484  0.7234  -0.6543   0.0000   0.0000   0.0000   1.0304
  -0.900   0.0518   0.00785   0.00320  -0.0314  0.7476  0.7278  -0.6049   0.0000   0.0000   0.0000   0.8640
  -0.800   0.0627   0.00785   0.00323  -0.0314  0.7467  0.7328  -0.5562   0.0000   0.0000   0.0000   0.7559
  -0.700   0.0737   0.00787   0.00325  -0.0314  0.7457  0.7379  -0.5081   0.0000   0.0000   0.0000   0.6797
  -0.600   0.0847   0.00790   0.00328  -0.0314  0.7447  0.7424  -0.4606   0.0000   0.0000   0.0000   0.6232
  -0.500   0.0958   0.00793   0.00332  -0.0314  0.7436  0.7460  -0.4444   0.0000   0.0000   0.0000   0.5797
  -0.400   0.1069   0.00797   0.00335  -0.0314  0.7425  0.7485  -0.4493   0.0000   0.0000   0.0000   0.5452
  -0.300   0.1177   0.00791   0.00331  -0.0314  0.7413  0.7543  -0.4539   0.0000   0.0000   0.0000   0.5178
  -0.200   0.1284   0.00786   0.00328  -0.0313  0.7400  0.7591  -0.4585   0.0000   0.0000   0.0000   0.4950
  -0.100   0.1392   0.00783   0.00326  -0.0313  0.7387  0.7625  -0.4635   0.0000   0.0000   0.0000   0.4756
   0.000   0.1500   0.00781   0.00324  -0.0313  0.7374  0.7655  -0.4689   0.0000   0.0000   0.0000   0.4590
   0.100   0.1609   0.00779   0.00322  -0.0313  0.7361  0.7685  -0.4742   0.0000   0.0000   0.0000   0.4447
   0.200   0.1719   0.00777   0.00320  -0.0314  0.7347  0.7714  -0.4796   0.0000   0.0000   0.0000   0.4322
   0.300   0.1829   0.00775   0.00318  -0.0314  0.7332  0.7744  -0.4851   0.0000   0.0000   0.0000   0.4212
   0.400   0.1939   0.00773   0.00316  -0.0314  0.7317  0.7773  -0.4905   0.0000   0.0000   0.0000   0.4114
   0.500   0.2050   0.00771   0.00314  -0.0315  0.7301  0.7802  -0.4960   0.0000   0.0000   0.0000   0.4027
   0.600   0.2161   0.00769   0.00311  -0.0315  0.7284  0.7829  -0.5016   0.0000   0.0000   0.0000   0.3949
   0.700   0.2273   0.00768   0.00309  -0.0316  0.7268  0.7856  -0.5071   0.0000   0.0000   0.0000   0.3879
   0.800   0.2384   0.00766   0.00307  -0.0316  0.7252  0.7881  -0.5127   0.0000   0.0000   0.0000   0.3815
   0.900   0.2496   0.00764   0.00304  -0.0317  0.7237  0.7904  -0.5183   0.0000   0.0000   0.0000   0.3757
   1.000   0.2607   0.00764   0.00303  -0.0318  0.7222  0.7925  -0.5238   0.0000   0.0000   0.0000   0.3705
   1.100   0.2719   0.00764   0.00301  -0.0319  0.7208  0.7944  -0.5294   0.0000   0.0000   0.0000   0.3657
   1.200   0.2831   0.00764   0.00300  -0.0319  0.7193  0.7960  -0.5349   0.0000   0.0000   0.0000   0.3612
   1.300   0.2943   0.00764   0.00300  -0.0320  0.7178  0.7974  -0.5404   0.0000   0.0000   0.0000   0.3571
   1.400   0.3055   0.00765   0.00300  -0.0321  0.7163  0.7985  -0.5459   0.0000   0.0000   0.0000   0.3533
   1.500   0.3168   0.00767   0.00301  -0.0322  0.7146  0.8007  -0.5514   0.0000   0.0000   0.0000   0.3499
   1.600   0.3283   0.00769   0.00303  -0.0324  0.7128  0.8057  -0.5596   0.0000   0.0000   0.0000   0.3469
   1.700   0.3397   0.00773   0.00307  -0.0326  0.7108  0.8108  -0.6130   0.0000   0.0000   0.0000   0.3440
   1.800   0.3510   0.00779   0.00313  -0.0328  0.7079  0.8160  -0.6669   0.0000   0.0000   0.0000   0.3413
   1.900   0.3619   0.00793   0.00328  -0.0329  0.7030  0.8211  -0.7207   0.0000   0.0000   0.0000   0.3387
   2.000   0.3729   0.00794   0.00332  -0.0329  0.7004  0.8263  -0.7759   0.0000   0.0000   0.0000   0.3360
   2.100   0.3838   0.00785   0.00326  -0.0328  0.6989  0.8315  -0.8322   0.0000   0.0000   0.0000   0.3331
   2.200   0.3944   0.00776   0.00321  -0.0326  0.6966  0.8367  -0.8885   0.0000   0.0000   0.0000   0.3301
   2.300   0.4044   0.00769   0.00319  -0.0321  0.6932  0.8417  -0.9445   0.0000   0.0000   0.0000   0.3270
   2.400   0.4139   0.00765   0.00319  -0.0316  0.6888  0.8462  -1.0001   0.0000   0.0000   0.0000   0.3236
   2.500   0.4232   0.00763   0.00320  -0.0309  0.6837  0.8501  -1.0560   0.0000   0.0000   0.0000   0.3203
   2.600   0.4327   0.00761   0.00319  -0.0303  0.6782  0.8541  -1.1131   0.0000   0.0000   0.0000   0.3172
   2.700   0.4423   0.00759   0.00317  -0.0298  0.6724  0.8580  -1.1709   0.0000   0.0000   0.0000   0.3144
   2.800   0.4518   0.00760   0.00315  -0.0292  0.6656  0.8617  -1.2291   0.0000   0.0000   0.0000   0.3116
   2.900   0.4611   0.00765   0.00316  -0.0287  0.6561  0.8652  -1.2874   0.0000   0.0000   0.0000   0.3090
   3.000   0.4708   0.00766   0.00317  -0.0282  0.6489  0.8687  -1.3472   0.0000   0.0000   0.0000   0.3067
   3.100   0.4805   0.00761   0.00316  -0.0278  0.6423  0.8721  -1.4081   0.0000   0.0000   0.0000   0.3045
   3.200   0.4902   0.00759   0.00314  -0.0273  0.6327  0.8754  -1.4693   0.0000   0.0000   0.0000   0.3024
   3.300   0.4996   0.00760   0.00312  -0.0268  0.6224  0.8786  -1.5303   0.0000   0.0000   0.0000   0.3003
   3.600   0.5351   0.00777   0.00311  -0.0281  0.5946  0.9029  -1.7340   0.0000   0.0000   0.0000   0.2989
   3.700   0.5456   0.00775   0.00310  -0.0281  0.5841  0.9068  -1.7995   0.0000   0.0000   0.0000   0.2977
   3.800   0.5550   0.00779   0.00306  -0.0277  0.5664  0.9106  -1.8625   0.0000   0.0000   0.0000   0.2962
   3.900   0.5633   0.00789   0.00306  -0.0272  0.5420  0.9142  -1.9220   0.0000   0.0000   0.0000   0.2944
   4.000   0.5692   0.00812   0.00308  -0.0262  0.4946  0.9178  -1.9747   0.0000   0.0000   0.0000   0.2921
   4.100   0.5725   0.00855   0.00321  -0.0249  0.4267  0.9214  -2.0188   0.0000   0.0000   0.0000   0.2894
   4.200   0.5733   0.00916   0.00346  -0.0233  0.3530  0.9251  -2.0543   0.0000   0.0000   0.0000   0.2864
   4.400   0.5761   0.01026   0.00399  -0.0203  0.2228  0.9317  -2.1271   0.0000   0.0000   0.0000   0.2808
   4.500   0.5769   0.01083   0.00426  -0.0187  0.1626  0.9348  -2.1602   0.0000   0.0000   0.0000   0.2779
   4.600   0.5777   0.01136   0.00453  -0.0171  0.1066  0.9377  -2.1920   0.0000   0.0000   0.0000   0.2750
   4.700   0.5786   0.01185   0.00478  -0.0154  0.0641  0.9404  -2.2223   0.0000   0.0000   0.0000   0.2720
   4.800   0.5826   0.01217   0.00499  -0.0142  0.0435  0.9426  -2.2544   0.0000   0.0000   0.0000   0.2697
   4.900   0.5795   0.01285   0.00578  -0.0113  0.0244  0.9450  -2.1314   0.0000   0.0000   0.0000   0.2647
   5.000   0.5837   0.01310   0.00609  -0.0100  0.0234  0.9467  -2.1445   0.0000   0.0000   0.0000   0.2623
   5.100   0.5900   0.01324   0.00624  -0.0092  0.0232  0.9481  -2.1868   0.0000   0.0000   0.0000   0.2606
   5.200   0.5958   0.01340   0.00642  -0.0082  0.0229  0.9493  -2.2261   0.0000   0.0000   0.0000   0.2587
   5.400   0.6073   0.01374   0.00682  -0.0065  0.0225  0.9533  -2.2996   0.0000   0.0000   0.0000   0.2554
   5.500   0.6128   0.01394   0.00705  -0.0056  0.0222  0.9556  -2.3340   0.0000   0.0000   0.0000   0.2537
   5.600   0.6173   0.01414   0.00728  -0.0045  0.0220  0.9580  -2.3652   0.0000   0.0000   0.0000   0.2518
   5.700   0.6208   0.01435   0.00752  -0.0032  0.0219  0.9604  -2.3934   0.0000   0.0000   0.0000   0.2496
   5.800   0.6245   0.01459   0.00780  -0.0020  0.0217  0.9628  -2.4216   0.0000   0.0000   0.0000   0.2476
   5.900   0.6289   0.01486   0.00810  -0.0009  0.0216  0.9650  -2.4506   0.0000   0.0000   0.0000   0.2458
   6.000   0.6339   0.01516   0.00844  -0.0000  0.0215  0.9670  -2.4801   0.0000   0.0000   0.0000   0.2442
   6.100   0.6391   0.01548   0.00880   0.0008  0.0214  0.9689  -2.5097   0.0000   0.0000   0.0000   0.2428
   6.200   0.6446   0.01583   0.00918   0.0016  0.0213  0.9707  -2.5393   0.0000   0.0000   0.0000   0.2415
   6.300   0.6506   0.01620   0.00959   0.0023  0.0213  0.9724  -2.5692   0.0000   0.0000   0.0000   0.2404
   6.400   0.6571   0.01659   0.01001   0.0028  0.0212  0.9739  -2.5996   0.0000   0.0000   0.0000   0.2395
   6.500   0.6644   0.01700   0.01046   0.0033  0.0212  0.9753  -2.6309   0.0000   0.0000   0.0000   0.2388
   6.600   0.6726   0.01744   0.01093   0.0036  0.0212  0.9766  -2.6631   0.0000   0.0000   0.0000   0.2383
   6.700   0.6850   0.01840   0.01220   0.0035  0.0212  0.9776  -2.6846   0.0000   0.0000   0.0000   0.2385
   6.800   0.6917   0.01817   0.01194   0.0038  0.0197  0.9793  -2.8023   0.0000   0.0000   0.0000   0.2379
   6.900   0.7009   0.01809   0.01184   0.0037  0.0184  0.9808  -2.9161   0.0000   0.0000   0.0000   0.2381
   7.000   0.7107   0.01816   0.01190   0.0036  0.0174  0.9822  -3.0140   0.0000   0.0000   0.0000   0.2382
   7.100   0.7203   0.01836   0.01210   0.0035  0.0169  0.9835  -3.0936   0.0000   0.0000   0.0000   0.2383
   7.200   0.7297   0.01868   0.01244   0.0035  0.0166  0.9848  -3.1553   0.0000   0.0000   0.0000   0.2383
   7.300   0.7391   0.01900   0.01280   0.0035  0.0163  0.9861  -3.2170   0.0000   0.0000   0.0000   0.2382
   7.400   0.7485   0.01934   0.01317   0.0036  0.0162  0.9872  -3.2755   0.0000   0.0000   0.0000   0.2381
   7.500   0.7579   0.01970   0.01354   0.0036  0.0160  0.9882  -3.3336   0.0000   0.0000   0.0000   0.2380
   7.600   0.7672   0.02005   0.01392   0.0037  0.0159  0.9891  -3.3917   0.0000   0.0000   0.0000   0.2378
   7.700   0.7765   0.02042   0.01431   0.0038  0.0157  0.9900  -3.4498   0.0000   0.0000   0.0000   0.2377
   7.800   0.7858   0.02078   0.01470   0.0039  0.0156  0.9907  -3.5079   0.0000   0.0000   0.0000   0.2375
   7.900   0.7949   0.02116   0.01510   0.0040  0.0154  0.9914  -3.5661   0.0000   0.0000   0.0000   0.2373
   8.000   0.8039   0.02153   0.01550   0.0042  0.0153  0.9920  -3.6250   0.0000   0.0000   0.0000   0.2371
   8.100   0.8130   0.02192   0.01591   0.0043  0.0152  0.9925  -3.6845   0.0000   0.0000   0.0000   0.2369
   8.200   0.8220   0.02231   0.01633   0.0044  0.0150  0.9931  -3.7447   0.0000   0.0000   0.0000   0.2366
   8.300   0.8308   0.02270   0.01675   0.0046  0.0149  0.9936  -3.8053   0.0000   0.0000   0.0000   0.2364
   8.400   0.8395   0.02310   0.01718   0.0048  0.0148  0.9941  -3.8664   0.0000   0.0000   0.0000   0.2361
   8.500   0.8479   0.02350   0.01760   0.0050  0.0147  0.9946  -3.9278   0.0000   0.0000   0.0000   0.2358
   8.600   0.8560   0.02390   0.01803   0.0053  0.0145  0.9950  -3.9895   0.0000   0.0000   0.0000   0.2355
   8.700   0.8638   0.02430   0.01846   0.0055  0.0144  0.9955  -4.0513   0.0000   0.0000   0.0000   0.2351
   8.800   0.8713   0.02470   0.01890   0.0059  0.0143  0.9959  -4.1132   0.0000   0.0000   0.0000   0.2347
   8.900   0.8785   0.02511   0.01934   0.0062  0.0141  0.9963  -4.1750   0.0000   0.0000   0.0000   0.2342
   9.000   0.8854   0.02552   0.01978   0.0067  0.0140  0.9967  -4.2368   0.0000   0.0000   0.0000   0.2337
   9.100   0.8847   0.02565   0.01989   0.0079  0.0129  0.9971  -4.3619   0.0000   0.0000   0.0000   0.2321
   9.200   0.8954   0.02715   0.02148   0.0076  0.0121  0.9974  -4.3983   0.0000   0.0000   0.0000   0.2325
   9.300   0.9135   0.03164   0.02631   0.0055  0.0114  0.9974  -4.2852   0.0000   0.0000   0.0000   0.2349
   9.400   0.9142   0.03197   0.02668   0.0069  0.0112  0.9978  -4.3368   0.0000   0.0000   0.0000   0.2333
   9.500   0.9152   0.03170   0.02642   0.0083  0.0111  0.9982  -4.4242   0.0000   0.0000   0.0000   0.2316
   9.600   0.9172   0.03160   0.02633   0.0095  0.0110  0.9985  -4.5071   0.0000   0.0000   0.0000   0.2302
   9.700   0.9202   0.03161   0.02636   0.0104  0.0109  0.9988  -4.5890   0.0000   0.0000   0.0000   0.2291
   9.800   0.9239   0.03171   0.02647   0.0112  0.0108  0.9991  -4.6708   0.0000   0.0000   0.0000   0.2281
   9.900   0.9279   0.03188   0.02667   0.0120  0.0107  0.9995  -4.7505   0.0000   0.0000   0.0000   0.2272
  10.000   0.9317   0.03211   0.02692   0.0127  0.0105  0.9998  -4.8261   0.0000   0.0000   0.0000   0.2264
  10.100   0.9350   0.03237   0.02722   0.0135  0.0104  1.0000  -4.8976   0.0000   0.0000   0.0000   0.2254
  10.200   0.9365   0.03264   0.02752   0.0146  0.0103  1.0000  -4.9587   0.0000   0.0000   0.0000   0.2241
  10.300   0.9381   0.03293   0.02784   0.0157  0.0102  1.0000  -5.0202   0.0000   0.0000   0.0000   0.2228
  10.400   0.9398   0.03323   0.02816   0.0168  0.0101  1.0000  -5.0820   0.0000   0.0000   0.0000   0.2216
  10.500   0.9415   0.03354   0.02851   0.0178  0.0099  1.0000  -5.1438   0.0000   0.0000   0.0000   0.2204
  10.600   0.9431   0.03387   0.02887   0.0189  0.0098  1.0000  -5.2055   0.0000   0.0000   0.0000   0.2192
  10.700   0.9445   0.03422   0.02925   0.0199  0.0097  1.0000  -5.2658   0.0000   0.0000   0.0000   0.2180
  10.800   0.9453   0.03459   0.02965   0.0210  0.0096  1.0000  -5.3238   0.0000   0.0000   0.0000   0.2167
  10.900   0.9460   0.03497   0.03007   0.0220  0.0094  1.0000  -5.3814   0.0000   0.0000   0.0000   0.2155
  11.000   0.9468   0.03536   0.03049   0.0230  0.0093  1.0000  -5.4400   0.0000   0.0000   0.0000   0.2143
  11.100   0.9476   0.03576   0.03092   0.0240  0.0092  1.0000  -5.4998   0.0000   0.0000   0.0000   0.2131
  11.200   0.9484   0.03616   0.03135   0.0250  0.0091  1.0000  -5.5607   0.0000   0.0000   0.0000   0.2120
  11.300   0.9492   0.03656   0.03179   0.0260  0.0090  1.0000  -5.6224   0.0000   0.0000   0.0000   0.2108
  11.400   0.9498   0.03698   0.03224   0.0269  0.0088  1.0000  -5.6842   0.0000   0.0000   0.0000   0.2097
  11.500   0.9498   0.03741   0.03271   0.0279  0.0087  1.0000  -5.7428   0.0000   0.0000   0.0000   0.2085
  11.600   0.9497   0.03786   0.03319   0.0288  0.0086  1.0000  -5.8010   0.0000   0.0000   0.0000   0.2074
  11.700   0.9497   0.03831   0.03366   0.0297  0.0085  1.0000  -5.8613   0.0000   0.0000   0.0000   0.2062
  11.800   0.9498   0.03876   0.03414   0.0306  0.0084  1.0000  -5.9230   0.0000   0.0000   0.0000   0.2052
  11.900   0.9498   0.03921   0.03463   0.0315  0.0083  1.0000  -5.9849   0.0000   0.0000   0.0000   0.2041
  12.000   0.9499   0.03967   0.03511   0.0323  0.0083  1.0000  -6.0480   0.0000   0.0000   0.0000   0.2031
  12.100   0.9500   0.04012   0.03559   0.0332  0.0082  1.0000  -6.1115   0.0000   0.0000   0.0000   0.2020
  12.200   0.9493   0.04062   0.03612   0.0340  0.0081  1.0000  -6.1700   0.0000   0.0000   0.0000   0.2010
  12.300   0.9483   0.04114   0.03667   0.0348  0.0080  1.0000  -6.2271   0.0000   0.0000   0.0000   0.1999
  12.400   0.9476   0.04165   0.03721   0.0356  0.0079  1.0000  -6.2868   0.0000   0.0000   0.0000   0.1989
  12.500   0.9472   0.04216   0.03775   0.0363  0.0079  1.0000  -6.3493   0.0000   0.0000   0.0000   0.1979
  12.600   0.9469   0.04268   0.03829   0.0370  0.0078  1.0000  -6.4135   0.0000   0.0000   0.0000   0.1970
  12.700   0.9467   0.04320   0.03883   0.0377  0.0077  1.0000  -6.4787   0.0000   0.0000   0.0000   0.1961
  12.800   0.9463   0.04373   0.03939   0.0384  0.0077  1.0000  -6.5436   0.0000   0.0000   0.0000   0.1952
  12.900   0.9451   0.04433   0.04002   0.0390  0.0076  1.0000  -6.6007   0.0000   0.0000   0.0000   0.1943
  13.000   0.9435   0.04498   0.04069   0.0397  0.0076  1.0000  -6.6541   0.0000   0.0000   0.0000   0.1933
  13.100   0.9421   0.04562   0.04136   0.0403  0.0075  1.0000  -6.7104   0.0000   0.0000   0.0000   0.1924
  13.200   0.9411   0.04626   0.04202   0.0408  0.0075  1.0000  -6.7690   0.0000   0.0000   0.0000   0.1916
  13.300   0.9401   0.04691   0.04270   0.0414  0.0074  1.0000  -6.8279   0.0000   0.0000   0.0000   0.1908
  13.400   0.9390   0.04759   0.04340   0.0419  0.0073  1.0000  -6.8856   0.0000   0.0000   0.0000   0.1900
  13.500   0.9377   0.04831   0.04415   0.0424  0.0073  1.0000  -6.9401   0.0000   0.0000   0.0000   0.1892
  13.600   0.9349   0.04917   0.04504   0.0429  0.0072  1.0000  -6.9808   0.0000   0.0000   0.0000   0.1884
  13.700   0.9317   0.05009   0.04600   0.0433  0.0072  1.0000  -7.0151   0.0000   0.0000   0.0000   0.1875
  13.800   0.9286   0.05104   0.04698   0.0437  0.0072  1.0000  -7.0503   0.0000   0.0000   0.0000   0.1868
  13.900   0.9255   0.05202   0.04800   0.0441  0.0071  1.0000  -7.0828   0.0000   0.0000   0.0000   0.1860
  14.000   0.9219   0.05308   0.04911   0.0444  0.0071  1.0000  -7.1088   0.0000   0.0000   0.0000   0.1853
  14.100   0.9177   0.05426   0.05033   0.0447  0.0070  1.0000  -7.1257   0.0000   0.0000   0.0000   0.1846
  14.200   0.9117   0.05565   0.05178   0.0448  0.0070  1.0000  -7.1242   0.0000   0.0000   0.0000   0.1838
  14.300   0.9053   0.05714   0.05332   0.0449  0.0069  1.0000  -7.1159   0.0000   0.0000   0.0000   0.1832
  14.400   0.8989   0.05871   0.05496   0.0450  0.0069  1.0000  -7.1037   0.0000   0.0000   0.0000   0.1826
  14.500   0.8920   0.06041   0.05672   0.0449  0.0069  1.0000  -7.0834   0.0000   0.0000   0.0000   0.1821
  14.600   0.8844   0.06225   0.05863   0.0447  0.0068  1.0000  -7.0537   0.0000   0.0000   0.0000   0.1817
  14.700   0.8761   0.06421   0.06065   0.0444  0.0068  1.0000  -7.0176   0.0000   0.0000   0.0000   0.1814
  14.800   0.8681   0.06624   0.06275   0.0439  0.0068  1.0000  -6.9785   0.0000   0.0000   0.0000   0.1812
  14.900   0.8600   0.06838   0.06496   0.0434  0.0068  1.0000  -6.9350   0.0000   0.0000   0.0000   0.1811
  15.000   0.8518   0.07059   0.06724   0.0427  0.0068  1.0000  -6.8900   0.0000   0.0000   0.0000   0.1813
  15.100   0.8436   0.07289   0.06959   0.0418  0.0068  1.0000  -6.8428   0.0000   0.0000   0.0000   0.1816
  15.200   0.8355   0.07528   0.07205   0.0409  0.0068  1.0000  -6.7921   0.0000   0.0000   0.0000   0.1820
  15.300   0.8275   0.07775   0.07458   0.0398  0.0068  1.0000  -6.7404   0.0000   0.0000   0.0000   0.1826
  15.400   0.8196   0.08032   0.07721   0.0386  0.0068  1.0000  -6.6856   0.0000   0.0000   0.0000   0.1834
  15.500   0.8117   0.08299   0.07994   0.0373  0.0068  1.0000  -6.6258   0.0000   0.0000   0.0000   0.1844
  15.600   0.8036   0.08583   0.08284   0.0358  0.0068  1.0000  -6.5598   0.0000   0.0000   0.0000   0.1857
  15.700   0.7954   0.08881   0.08588   0.0341  0.0068  1.0000  -6.4844   0.0000   0.0000   0.0000   0.1871
  15.800   0.7862   0.09223   0.08937   0.0322  0.0069  1.0000  -6.3871   0.0000   0.0000   0.0000   0.1889
  15.900   0.7754   0.09616   0.09337   0.0299  0.0069  1.0000  -6.2551   0.0000   0.0000   0.0000   0.1911
  16.100   0.6140   0.14932   0.14681   0.0065  0.0088  1.0000  -2.6465   0.0000   0.0000   0.0000   0.2221
  16.200   0.6110   0.15209   0.14956   0.0055  0.0091  1.0000  -2.5444   0.0000   0.0000   0.0000   0.2236
  16.300   0.6083   0.15470   0.15217   0.0046  0.0095  1.0000  -2.4541   0.0000   0.0000   0.0000   0.2251
  16.400   0.6045   0.15755   0.15501   0.0036  0.0102  1.0000  -2.3482   0.0000   0.0000   0.0000   0.2266
  17.000   0.6113   0.16903   0.16650  -0.0000  0.0134  1.0000  -2.1075   0.0000   0.0000   0.0000   0.2322
  17.100   0.6122   0.17076   0.16823  -0.0007  0.0134  1.0000  -2.0898   0.0000   0.0000   0.0000   0.2332
  17.200   0.6133   0.17242   0.16989  -0.0013  0.0133  1.0000  -2.0773   0.0000   0.0000   0.0000   0.2341
  17.300   0.6146   0.17404   0.17150  -0.0020  0.0133  1.0000  -2.0683   0.0000   0.0000   0.0000   0.2350
  17.400   0.6161   0.17561   0.17307  -0.0026  0.0132  1.0000  -2.0620   0.0000   0.0000   0.0000   0.2359
  17.500   0.6176   0.17717   0.17462  -0.0032  0.0132  1.0000  -2.0576   0.0000   0.0000   0.0000   0.2368
  17.600   0.6192   0.17869   0.17615  -0.0038  0.0131  1.0000  -2.0548   0.0000   0.0000   0.0000   0.2376
  17.700   0.6209   0.18021   0.17766  -0.0044  0.0131  1.0000  -2.0534   0.0000   0.0000   0.0000   0.2384
  17.800   0.6227   0.18170   0.17915  -0.0050  0.0130  1.0000  -2.0531   0.0000   0.0000   0.0000   0.2392
  17.900   0.6245   0.18318   0.18063  -0.0056  0.0129  1.0000  -2.0539   0.0000   0.0000   0.0000   0.2400
  18.000   0.6264   0.18466   0.18210  -0.0062  0.0129  1.0000  -2.0557   0.0000   0.0000   0.0000   0.2408
  18.100   0.6284   0.18612   0.18356  -0.0067  0.0128  1.0000  -2.0583   0.0000   0.0000   0.0000   0.2415
  18.200   0.6304   0.18758   0.18502  -0.0073  0.0127  1.0000  -2.0618   0.0000   0.0000   0.0000   0.2423
  18.300   0.6325   0.18903   0.18647  -0.0079  0.0127  1.0000  -2.0661   0.0000   0.0000   0.0000   0.2430
  18.400   0.6346   0.19048   0.18792  -0.0084  0.0126  1.0000  -2.0705   0.0000   0.0000   0.0000   0.2437
  18.500   0.6364   0.19199   0.18943  -0.0090  0.0125  1.0000  -2.0695   0.0000   0.0000   0.0000   0.2445
  18.600   0.6382   0.19351   0.19094  -0.0096  0.0124  1.0000  -2.0685   0.0000   0.0000   0.0000   0.2453
  18.700   0.6401   0.19503   0.19246  -0.0103  0.0124  1.0000  -2.0671   0.0000   0.0000   0.0000   0.2461
  18.800   0.6419   0.19658   0.19401  -0.0109  0.0123  1.0000  -2.0648   0.0000   0.0000   0.0000   0.2468
  18.900   0.6438   0.19816   0.19559  -0.0115  0.0122  1.0000  -2.0611   0.0000   0.0000   0.0000   0.2476
  19.000   0.6455   0.19979   0.19722  -0.0121  0.0121  1.0000  -2.0546   0.0000   0.0000   0.0000   0.2484
  19.100   0.6471   0.20152   0.19894  -0.0127  0.0120  1.0000  -2.0432   0.0000   0.0000   0.0000   0.2492
  19.200   0.6483   0.20344   0.20086  -0.0134  0.0119  1.0000  -2.0217   0.0000   0.0000   0.0000   0.2501
  19.300   0.6485   0.20601   0.20343  -0.0142  0.0117  1.0000  -1.9660   0.0000   0.0000   0.0000   0.2512
  19.600   0.6480   0.21487   0.21225  -0.0167  0.0113  1.0000  -1.7172   0.0000   0.0000   0.0000   0.2550
  19.700   0.6501   0.21638   0.21376  -0.0173  0.0113  1.0000  -1.7107   0.0000   0.0000   0.0000   0.2557
  19.800   0.6522   0.21788   0.21526  -0.0179  0.0113  1.0000  -1.7044   0.0000   0.0000   0.0000   0.2565
  19.900   0.6544   0.21936   0.21674  -0.0185  0.0113  1.0000  -1.6983   0.0000   0.0000   0.0000   0.2572
  20.000   0.6565   0.22085   0.21822  -0.0191  0.0113  1.0000  -1.6923   0.0000   0.0000   0.0000   0.2579
  20.100   0.6587   0.22232   0.21969  -0.0197  0.0113  1.0000  -1.6865   0.0000   0.0000   0.0000   0.2586
  20.200   0.6608   0.22378   0.22115  -0.0203  0.0113  1.0000  -1.6810   0.0000   0.0000   0.0000   0.2593
  20.300   0.6630   0.22524   0.22261  -0.0209  0.0112  1.0000  -1.6755   0.0000   0.0000   0.0000   0.2600
  20.400   0.6652   0.22668   0.22405  -0.0216  0.0112  1.0000  -1.6703   0.0000   0.0000   0.0000   0.2606
  20.500   0.6674   0.22812   0.22549  -0.0222  0.0112  1.0000  -1.6652   0.0000   0.0000   0.0000   0.2613
  20.600   0.6694   0.22944   0.22681  -0.0228  0.0112  1.0000  -1.6592   0.0000   0.0000   0.0000   0.2620
  20.700   0.6711   0.23061   0.22798  -0.0234  0.0112  1.0000  -1.6525   0.0000   0.0000   0.0000   0.2627
  20.800   0.6729   0.23169   0.22906  -0.0241  0.0112  1.0000  -1.6470   0.0000   0.0000   0.0000   0.2634
  20.900   0.6748   0.23269   0.23006  -0.0247  0.0111  1.0000  -1.6430   0.0000   0.0000   0.0000   0.2641
  21.000   0.6766   0.23359   0.23095  -0.0253  0.0111  1.0000  -1.6404   0.0000   0.0000   0.0000   0.2648
  21.100   0.6785   0.23438   0.23174  -0.0259  0.0110  1.0000  -1.6399   0.0000   0.0000   0.0000   0.2654
  21.200   0.6805   0.23504   0.23240  -0.0265  0.0109  1.0000  -1.6413   0.0000   0.0000   0.0000   0.2661
  21.300   0.6825   0.23562   0.23298  -0.0272  0.0107  1.0000  -1.6435   0.0000   0.0000   0.0000   0.2667
  21.400   0.6842   0.23615   0.23351  -0.0278  0.0105  1.0000  -1.6379   0.0000   0.0000   0.0000   0.2674
  21.500   0.6858   0.23680   0.23415  -0.0285  0.0102  1.0000  -1.6218   0.0000   0.0000   0.0000   0.2682
  21.600   0.6878   0.23769   0.23503  -0.0292  0.0099  1.0000  -1.6043   0.0000   0.0000   0.0000   0.2689
  21.700   0.6900   0.23875   0.23609  -0.0298  0.0095  1.0000  -1.5903   0.0000   0.0000   0.0000   0.2695
  21.800   0.6923   0.23987   0.23721  -0.0304  0.0092  1.0000  -1.5822   0.0000   0.0000   0.0000   0.2700
  21.900   0.6946   0.24099   0.23834  -0.0310  0.0089  1.0000  -1.5791   0.0000   0.0000   0.0000   0.2706
  22.000   0.6969   0.24211   0.23945  -0.0315  0.0086  1.0000  -1.5798   0.0000   0.0000   0.0000   0.2711
  22.100   0.6992   0.24321   0.24055  -0.0321  0.0084  1.0000  -1.5834   0.0000   0.0000   0.0000   0.2716
  22.200   0.7015   0.24429   0.24163  -0.0327  0.0082  1.0000  -1.5895   0.0000   0.0000   0.0000   0.2721
  22.300   0.7039   0.24536   0.24270  -0.0332  0.0080  1.0000  -1.5980   0.0000   0.0000   0.0000   0.2726
  22.400   0.7062   0.24642   0.24376  -0.0338  0.0079  1.0000  -1.6087   0.0000   0.0000   0.0000   0.2730
  22.500   0.7086   0.24746   0.24480  -0.0343  0.0077  1.0000  -1.6215   0.0000   0.0000   0.0000   0.2735
  22.600   0.7109   0.24849   0.24583  -0.0349  0.0076  1.0000  -1.6364   0.0000   0.0000   0.0000   0.2739
  22.700   0.7133   0.24950   0.24684  -0.0355  0.0074  1.0000  -1.6535   0.0000   0.0000   0.0000   0.2744
  22.800   0.7158   0.25051   0.24785  -0.0360  0.0073  1.0000  -1.6729   0.0000   0.0000   0.0000   0.2748
  22.900   0.7182   0.25151   0.24885  -0.0366  0.0072  1.0000  -1.6946   0.0000   0.0000   0.0000   0.2752
  23.000   0.7207   0.25251   0.24985  -0.0371  0.0071  1.0000  -1.7187   0.0000   0.0000   0.0000   0.2756
  23.100   0.7233   0.25350   0.25084  -0.0377  0.0070  1.0000  -1.7456   0.0000   0.0000   0.0000   0.2759
  23.200   0.7259   0.25451   0.25185  -0.0382  0.0069  1.0000  -1.7754   0.0000   0.0000   0.0000   0.2762
  23.300   0.7286   0.25554   0.25288  -0.0387  0.0069  1.0000  -1.8085   0.0000   0.0000   0.0000   0.2765
  23.400   0.7315   0.25663   0.25396  -0.0392  0.0068  1.0000  -1.8457   0.0000   0.0000   0.0000   0.2768
  23.500   0.7348   0.25784   0.25518  -0.0396  0.0067  1.0000  -1.8892   0.0000   0.0000   0.0000   0.2769
  25.400   0.7800   0.32420   0.32204  -0.1173  0.0040  1.0000  -1.2203   0.0000   0.0000   0.0000   0.3770
  25.500   0.7818   0.32646   0.32430  -0.1179  0.0040  1.0000  -1.2110   0.0000   0.0000   0.0000   0.3771
  25.600   0.7837   0.32872   0.32657  -0.1184  0.0040  1.0000  -1.2022   0.0000   0.0000   0.0000   0.3772
  25.700   0.7855   0.33097   0.32882  -0.1189  0.0040  1.0000  -1.1940   0.0000   0.0000   0.0000   0.3773
  25.800   0.7873   0.33322   0.33107  -0.1194  0.0040  1.0000  -1.1862   0.0000   0.0000   0.0000   0.3774
  25.900   0.7891   0.33546   0.33332  -0.1199  0.0040  1.0000  -1.1789   0.0000   0.0000   0.0000   0.3775
  26.000   0.7909   0.33770   0.33556  -0.1205  0.0040  1.0000  -1.1720   0.0000   0.0000   0.0000   0.3775
  26.100   0.7927   0.33993   0.33779  -0.1210  0.0040  1.0000  -1.1654   0.0000   0.0000   0.0000   0.3776
  26.200   0.7946   0.34216   0.34002  -0.1215  0.0040  1.0000  -1.1593   0.0000   0.0000   0.0000   0.3777
  26.300   0.7964   0.34438   0.34224  -0.1220  0.0039  1.0000  -1.1534   0.0000   0.0000   0.0000   0.3778
  26.400   0.7982   0.34659   0.34446  -0.1225  0.0039  1.0000  -1.1479   0.0000   0.0000   0.0000   0.3778
  26.500   0.8000   0.34881   0.34668  -0.1230  0.0039  1.0000  -1.1428   0.0000   0.0000   0.0000   0.3779
  26.600   0.8018   0.35101   0.34889  -0.1235  0.0039  1.0000  -1.1379   0.0000   0.0000   0.0000   0.3780
  26.700   0.8036   0.35322   0.35109  -0.1240  0.0039  1.0000  -1.1332   0.0000   0.0000   0.0000   0.3780
  26.800   0.8054   0.35541   0.35329  -0.1245  0.0039  1.0000  -1.1289   0.0000   0.0000   0.0000   0.3781
  26.900   0.8072   0.35761   0.35549  -0.1250  0.0039  1.0000  -1.1248   0.0000   0.0000   0.0000   0.3781
  27.000   0.8089   0.35979   0.35768  -0.1255  0.0039  1.0000  -1.1209   0.0000   0.0000   0.0000   0.3782
  27.100   0.8107   0.36198   0.35987  -0.1260  0.0039  1.0000  -1.1172   0.0000   0.0000   0.0000   0.3782
  27.200   0.8125   0.36416   0.36205  -0.1265  0.0039  1.0000  -1.1138   0.0000   0.0000   0.0000   0.3783
  27.300   0.8142   0.36633   0.36423  -0.1271  0.0039  1.0000  -1.1106   0.0000   0.0000   0.0000   0.3783
  27.400   0.8160   0.36850   0.36640  -0.1276  0.0039  1.0000  -1.1075   0.0000   0.0000   0.0000   0.3784
  27.500   0.8177   0.37067   0.36857  -0.1281  0.0039  1.0000  -1.1047   0.0000   0.0000   0.0000   0.3784
  27.600   0.8194   0.37283   0.37074  -0.1286  0.0039  1.0000  -1.1021   0.0000   0.0000   0.0000   0.3785
  27.700   0.8211   0.37499   0.37290  -0.1291  0.0039  1.0000  -1.0996   0.0000   0.0000   0.0000   0.3785
  27.800   0.8228   0.37714   0.37505  -0.1296  0.0039  1.0000  -1.0973   0.0000   0.0000   0.0000   0.3786
  27.900   0.8245   0.37929   0.37721  -0.1301  0.0039  1.0000  -1.0951   0.0000   0.0000   0.0000   0.3786
  28.000   0.8262   0.38144   0.37936  -0.1306  0.0039  1.0000  -1.0930   0.0000   0.0000   0.0000   0.3787
  28.100   0.8279   0.38358   0.38150  -0.1311  0.0039  1.0000  -1.0911   0.0000   0.0000   0.0000   0.3787
  28.200   0.8296   0.38572   0.38364  -0.1316  0.0039  1.0000  -1.0893   0.0000   0.0000   0.0000   0.3788
  28.300   0.8313   0.38785   0.38578  -0.1321  0.0039  1.0000  -1.0877   0.0000   0.0000   0.0000   0.3788
  28.400   0.8329   0.38998   0.38791  -0.1326  0.0039  1.0000  -1.0861   0.0000   0.0000   0.0000   0.3789
  28.500   0.8345   0.39210   0.39004  -0.1331  0.0039  1.0000  -1.0847   0.0000   0.0000   0.0000   0.3789
  28.600   0.8362   0.39422   0.39216  -0.1336  0.0038  1.0000  -1.0834   0.0000   0.0000   0.0000   0.3789
  28.700   0.8378   0.39634   0.39428  -0.1342  0.0038  1.0000  -1.0821   0.0000   0.0000   0.0000   0.3790
  28.800   0.8394   0.39845   0.39640  -0.1347  0.0038  1.0000  -1.0810   0.0000   0.0000   0.0000   0.3790
  28.900   0.8410   0.40056   0.39851  -0.1352  0.0038  1.0000  -1.0799   0.0000   0.0000   0.0000   0.3791
  29.000   0.8426   0.40267   0.40062  -0.1357  0.0038  1.0000  -1.0789   0.0000   0.0000   0.0000   0.3791
  29.100   0.8442   0.40477   0.40272  -0.1362  0.0038  1.0000  -1.0780   0.0000   0.0000   0.0000   0.3792
  29.200   0.8457   0.40686   0.40482  -0.1367  0.0038  1.0000  -1.0772   0.0000   0.0000   0.0000   0.3792
  29.300   0.8473   0.40896   0.40692  -0.1372  0.0038  1.0000  -1.0765   0.0000   0.0000   0.0000   0.3793
  29.400   0.8488   0.41105   0.40901  -0.1377  0.0038  1.0000  -1.0758   0.0000   0.0000   0.0000   0.3793
  29.500   0.8504   0.41313   0.41110  -0.1383  0.0038  1.0000  -1.0752   0.0000   0.0000   0.0000   0.3794
  29.600   0.8519   0.41521   0.41319  -0.1388  0.0038  1.0000  -1.0746   0.0000   0.0000   0.0000   0.3794
  29.700   0.8534   0.41729   0.41527  -0.1393  0.0038  1.0000  -1.0741   0.0000   0.0000   0.0000   0.3795
  29.800   0.8549   0.41936   0.41735  -0.1398  0.0038  1.0000  -1.0737   0.0000   0.0000   0.0000   0.3795
  29.900   0.8564   0.42143   0.41942  -0.1403  0.0038  1.0000  -1.0733   0.0000   0.0000   0.0000   0.3796
  30.000   0.8578   0.42350   0.42149  -0.1409  0.0038  1.0000  -1.0730   0.0000   0.0000   0.0000   0.3796


