xflr5 v6.61

 Calculated polar for: NACA M6 AIRFOIL

 1 1 Reynolds number fixed          Mach number fixed         

 xtrf =   1.000 (top)        1.000 (bottom)
 Mach =   0.000     Re =     0.100 e 6     Ncrit =   9.000

  alpha     CL        CD       CDp       Cm    Top Xtr Bot Xtr   Cpmin    Chinge    XCp    
 ------- -------- --------- --------- -------- ------- ------- -------- --------- ---------
 -10.000  -0.4718   0.11734   0.11177   0.0031  1.0000  0.1176  -1.1823   0.0000   0.0000   0.0000   0.2484
  -9.900  -0.4694   0.11608   0.11052   0.0027  1.0000  0.1186  -1.1791   0.0000   0.0000   0.0000   0.2478
  -9.800  -0.4670   0.11481   0.10926   0.0023  1.0000  0.1197  -1.1765   0.0000   0.0000   0.0000   0.2471
  -9.700  -0.4649   0.11355   0.10801   0.0019  1.0000  0.1207  -1.1747   0.0000   0.0000   0.0000   0.2464
  -9.600  -0.4629   0.11228   0.10675   0.0015  1.0000  0.1219  -1.1735   0.0000   0.0000   0.0000   0.2456
  -9.500  -0.4610   0.11100   0.10549   0.0010  1.0000  0.1230  -1.1729   0.0000   0.0000   0.0000   0.2447
  -9.400  -0.4592   0.10972   0.10423   0.0005  1.0000  0.1242  -1.1729   0.0000   0.0000   0.0000   0.2437
  -9.300  -0.4576   0.10844   0.10296   0.0000  1.0000  0.1254  -1.1737   0.0000   0.0000   0.0000   0.2427
  -9.200  -0.4562   0.10715   0.10168  -0.0006  1.0000  0.1267  -1.1751   0.0000   0.0000   0.0000   0.2416
  -9.100  -0.4549   0.10586   0.10041  -0.0012  1.0000  0.1281  -1.1774   0.0000   0.0000   0.0000   0.2404
  -9.000  -0.4539   0.10457   0.09913  -0.0018  1.0000  0.1294  -1.1804   0.0000   0.0000   0.0000   0.2391
  -8.900  -0.4531   0.10327   0.09785  -0.0025  1.0000  0.1309  -1.1845   0.0000   0.0000   0.0000   0.2377
  -8.800  -0.4526   0.10198   0.09657  -0.0032  1.0000  0.1324  -1.1896   0.0000   0.0000   0.0000   0.2362
  -8.700  -0.4524   0.10069   0.09530  -0.0041  1.0000  0.1339  -1.1961   0.0000   0.0000   0.0000   0.2345
  -8.600  -0.4526   0.09941   0.09405  -0.0050  1.0000  0.1356  -1.2042   0.0000   0.0000   0.0000   0.2326
  -8.500  -0.4533   0.09815   0.09280  -0.0061  1.0000  0.1373  -1.2144   0.0000   0.0000   0.0000   0.2304
  -8.400  -0.4546   0.09690   0.09157  -0.0074  1.0000  0.1391  -1.2277   0.0000   0.0000   0.0000   0.2276
  -8.300  -0.4571   0.09570   0.09040  -0.0092  1.0000  0.1411  -1.2461   0.0000   0.0000   0.0000   0.2240
  -8.200  -0.4622   0.09458   0.08930  -0.0117  1.0000  0.1430  -1.2725   0.0000   0.0000   0.0000   0.2193
  -8.100  -0.4705   0.09376   0.08849  -0.0141  1.0000  0.1447  -1.3056   0.0000   0.0000   0.0000   0.2148
  -8.000  -0.4771   0.09380   0.08851  -0.0153  1.0000  0.1464  -1.3287   0.0000   0.0000   0.0000   0.2130
  -7.900  -0.4792   0.09412   0.08881  -0.0162  1.0000  0.1477  -1.3398   0.0000   0.0000   0.0000   0.2116
  -7.800  -0.4796   0.09398   0.08864  -0.0167  1.0000  0.1485  -1.3464   0.0000   0.0000   0.0000   0.2106
  -7.700  -0.4791   0.09348   0.08812  -0.0171  1.0000  0.1489  -1.3510   0.0000   0.0000   0.0000   0.2098
  -7.600  -0.4782   0.09276   0.08738  -0.0174  1.0000  0.1492  -1.3544   0.0000   0.0000   0.0000   0.2092
  -7.500  -0.4770   0.09191   0.08651  -0.0177  1.0000  0.1494  -1.3569   0.0000   0.0000   0.0000   0.2087
  -7.400  -0.4754   0.09096   0.08554  -0.0179  1.0000  0.1496  -1.3587   0.0000   0.0000   0.0000   0.2082
  -7.300  -0.4736   0.08996   0.08452  -0.0180  1.0000  0.1497  -1.3598   0.0000   0.0000   0.0000   0.2078
  -7.200  -0.4714   0.08890   0.08344  -0.0182  1.0000  0.1498  -1.3602   0.0000   0.0000   0.0000   0.2074
  -7.100  -0.4690   0.08781   0.08233  -0.0183  1.0000  0.1499  -1.3601   0.0000   0.0000   0.0000   0.2071
  -7.000  -0.4959   0.07600   0.07062  -0.0202  1.0000  0.1548  -1.4619   0.0000   0.0000   0.0000   0.2055
  -6.900  -0.4907   0.07364   0.06833  -0.0200  1.0000  0.1566  -1.4452   0.0000   0.0000   0.0000   0.2054
  -6.800  -0.4826   0.07203   0.06678  -0.0197  1.0000  0.1582  -1.4190   0.0000   0.0000   0.0000   0.2054
  -6.700  -0.4757   0.07074   0.06554  -0.0193  1.0000  0.1596  -1.3952   0.0000   0.0000   0.0000   0.2057
  -6.600  -0.4693   0.06962   0.06447  -0.0189  1.0000  0.1611  -1.3730   0.0000   0.0000   0.0000   0.2061
  -6.500  -0.4635   0.06862   0.06350  -0.0185  1.0000  0.1627  -1.3528   0.0000   0.0000   0.0000   0.2065
  -6.400  -0.4583   0.06770   0.06262  -0.0180  1.0000  0.1643  -1.3346   0.0000   0.0000   0.0000   0.2071
  -6.300  -0.4541   0.06686   0.06181  -0.0176  1.0000  0.1660  -1.3189   0.0000   0.0000   0.0000   0.2079
  -6.200  -0.4510   0.06611   0.06109  -0.0170  1.0000  0.1677  -1.3059   0.0000   0.0000   0.0000   0.2090
  -6.100  -0.4500   0.06547   0.06049  -0.0161  1.0000  0.1694  -1.2964   0.0000   0.0000   0.0000   0.2109
  -6.000  -0.4523   0.06501   0.06005  -0.0148  1.0000  0.1707  -1.2917   0.0000   0.0000   0.0000   0.2141
  -5.900  -0.4584   0.06473   0.05981  -0.0129  1.0000  0.1717  -1.2922   0.0000   0.0000   0.0000   0.2187
  -5.800  -0.4679   0.06462   0.05973  -0.0106  1.0000  0.1723  -1.2973   0.0000   0.0000   0.0000   0.2244
  -5.700  -0.4777   0.06453   0.05967  -0.0083  1.0000  0.1728  -1.3028   0.0000   0.0000   0.0000   0.2297
  -5.600  -0.4801   0.06418   0.05933  -0.0072  0.9991  0.1743  -1.2989   0.0000   0.0000   0.0000   0.2322
  -5.500  -0.4663   0.06337   0.05849  -0.0086  0.9954  0.1780  -1.2753   0.0000   0.0000   0.0000   0.2286
  -5.400  -0.4514   0.06277   0.05787  -0.0102  0.9910  0.1822  -1.2509   0.0000   0.0000   0.0000   0.2246
  -5.300  -0.4347   0.06258   0.05765  -0.0118  0.9862  0.1868  -1.2233   0.0000   0.0000   0.0000   0.2201
  -5.200  -0.4140   0.06334   0.05837  -0.0134  0.9814  0.1922  -1.1862   0.0000   0.0000   0.0000   0.2148
  -5.100  -0.3820   0.06773   0.06272  -0.0147  0.9764  0.1985  -1.1140   0.0000   0.0000   0.0000   0.2088
  -4.900  -0.3968   0.05505   0.04984  -0.0197  0.9657  0.2123  -1.2026   0.0000   0.0000   0.0000   0.1977
  -4.800  -0.3879   0.05222   0.04703  -0.0210  0.9625  0.2184  -1.1882   0.0000   0.0000   0.0000   0.1932
  -4.700  -0.3746   0.05050   0.04535  -0.0223  0.9597  0.2238  -1.1627   0.0000   0.0000   0.0000   0.1879
  -4.600  -0.3590   0.04915   0.04403  -0.0236  0.9570  0.2293  -1.1334   0.0000   0.0000   0.0000   0.1815
  -4.500  -0.3425   0.04795   0.04287  -0.0251  0.9543  0.2348  -1.1034   0.0000   0.0000   0.0000   0.1741
  -4.400  -0.3260   0.04685   0.04178  -0.0266  0.9511  0.2407  -1.0761   0.0000   0.0000   0.0000   0.1657
  -4.300  -0.3164   0.04599   0.04092  -0.0268  0.9460  0.2454  -1.0580   0.0000   0.0000   0.0000   0.1624
  -4.200  -0.3077   0.04517   0.04008  -0.0269  0.9402  0.2500  -1.0422   0.0000   0.0000   0.0000   0.1597
  -4.100  -0.2974   0.04430   0.03920  -0.0274  0.9344  0.2549  -1.0261   0.0000   0.0000   0.0000   0.1552
  -4.000  -0.2860   0.04339   0.03826  -0.0280  0.9289  0.2597  -1.0103   0.0000   0.0000   0.0000   0.1491
  -3.900  -0.2680   0.03459   0.02704  -0.0309  0.9211  0.1057  -1.4230   0.0000   0.0000   0.0000   0.1298
  -3.800  -0.2483   0.03535   0.02778  -0.0319  0.9168  0.1027  -1.3785   0.0000   0.0000   0.0000   0.1164
  -3.700  -0.2324   0.03418   0.02655  -0.0328  0.9130  0.0971  -1.3642   0.0000   0.0000   0.0000   0.1039
  -3.600  -0.2224   0.03165   0.02379  -0.0329  0.9092  0.0929  -1.3879   0.0000   0.0000   0.0000   0.0964
  -3.500  -0.2096   0.02999   0.02189  -0.0332  0.9052  0.0891  -1.3996   0.0000   0.0000   0.0000   0.0858
  -3.400  -0.1957   0.02853   0.02013  -0.0335  0.9008  0.0851  -1.4177   0.0000   0.0000   0.0000   0.0728
  -3.300  -0.1869   0.02747   0.01876  -0.0326  0.8968  0.0818  -1.4385   0.0000   0.0000   0.0000   0.0688
  -3.200  -0.1781   0.02684   0.01790  -0.0318  0.8923  0.0794  -1.4446   0.0000   0.0000   0.0000   0.0645
  -3.100  -0.1689   0.02656   0.01748  -0.0312  0.8871  0.0780  -1.4332   0.0000   0.0000   0.0000   0.0582
  -3.000  -0.1592   0.02641   0.01726  -0.0307  0.8814  0.0770  -1.4121   0.0000   0.0000   0.0000   0.0497
  -2.900  -0.1492   0.02632   0.01712  -0.0304  0.8756  0.0762  -1.3864   0.0000   0.0000   0.0000   0.0387
  -2.800  -0.1387   0.02624   0.01701  -0.0301  0.8700  0.0756  -1.3580   0.0000   0.0000   0.0000   0.0246
  -2.700  -0.1280   0.02615   0.01686  -0.0300  0.8647  0.0750  -1.3287   0.0000   0.0000   0.0000   0.0070
  -2.600  -0.1170   0.02527   0.01591  -0.0300  0.8601  0.0744  -1.3182   0.0000   0.0000   0.0000  -0.0153
  -2.500  -0.1058   0.02460   0.01518  -0.0299  0.8555  0.0739  -1.3026   0.0000   0.0000   0.0000  -0.0431
  -2.400  -0.0943   0.02403   0.01456  -0.0299  0.8510  0.0734  -1.2847   0.0000   0.0000   0.0000  -0.0782
  -2.300  -0.0828   0.02353   0.01401  -0.0299  0.8465  0.0730  -1.2653   0.0000   0.0000   0.0000  -0.1231
  -2.200  -0.0713   0.02308   0.01352  -0.0298  0.8421  0.0725  -1.2450   0.0000   0.0000   0.0000  -0.1822
  -2.100  -0.0600   0.02268   0.01308  -0.0297  0.8378  0.0721  -1.2240   0.0000   0.0000   0.0000  -0.2620
  -2.000  -0.0488   0.02232   0.01269  -0.0296  0.8334  0.0718  -1.2025   0.0000   0.0000   0.0000  -0.3756
  -1.900  -0.0376   0.02199   0.01233  -0.0294  0.8289  0.0714  -1.1803   0.0000   0.0000   0.0000  -0.5559
  -1.800  -0.0266   0.02171   0.01202  -0.0293  0.8243  0.0711  -1.1576   0.0000   0.0000   0.0000  -0.8856
  -1.700  -0.0158   0.02150   0.01178  -0.0291  0.8194  0.0709  -1.1348   0.0000   0.0000   0.0000  -1.6479
  -1.600  -0.0054   0.02137   0.01162  -0.0289  0.8139  0.0706  -1.1120   0.0000   0.0000   0.0000  -5.2814
  -1.500   0.0043   0.02142   0.01165  -0.0288  0.8070  0.0705  -1.0898   0.0000   0.0000   0.0000   7.0894
  -1.400   0.0123   0.02170   0.01191  -0.0286  0.7996  0.0703  -1.0695   0.0000   0.0000   0.0000   2.6340
  -1.300   0.0217   0.02147   0.01166  -0.0282  0.7978  0.0702  -1.0467   0.0000   0.0000   0.0000   1.5853
  -1.200   0.0310   0.02127   0.01143  -0.0278  0.7956  0.0702  -1.0237   0.0000   0.0000   0.0000   1.1710
  -1.100   0.0402   0.02110   0.01123  -0.0274  0.7931  0.0702  -1.0005   0.0000   0.0000   0.0000   0.9486
  -1.000   0.0493   0.02096   0.01106  -0.0270  0.7901  0.0703  -0.9772   0.0000   0.0000   0.0000   0.8103
  -0.900   0.0587   0.02084   0.01090  -0.0267  0.7868  0.0704  -0.9535   0.0000   0.0000   0.0000   0.7147
  -0.800   0.0681   0.02075   0.01077  -0.0263  0.7831  0.0706  -0.9295   0.0000   0.0000   0.0000   0.6448
  -0.700   0.0777   0.02067   0.01066  -0.0260  0.7792  0.0709  -0.9053   0.0000   0.0000   0.0000   0.5918
  -0.600   0.0873   0.02062   0.01056  -0.0257  0.7752  0.0713  -0.8809   0.0000   0.0000   0.0000   0.5503
  -0.500   0.0970   0.02057   0.01048  -0.0254  0.7709  0.0718  -0.8564   0.0000   0.0000   0.0000   0.5169
  -0.400   0.1071   0.02054   0.01040  -0.0252  0.7666  0.0725  -0.8313   0.0000   0.0000   0.0000   0.4893
  -0.300   0.1172   0.02050   0.01033  -0.0250  0.7624  0.0734  -0.8063   0.0000   0.0000   0.0000   0.4663
  -0.200   0.1274   0.02048   0.01027  -0.0247  0.7581  0.0746  -0.7814   0.0000   0.0000   0.0000   0.4469
  -0.100   0.1376   0.02043   0.01024  -0.0245  0.7540  0.0778  -0.7589   0.0000   0.0000   0.0000   0.4301
   0.000   0.1478   0.02035   0.01019  -0.0242  0.7500  0.0846  -0.7361   0.0000   0.0000   0.0000   0.4157
   0.100   0.1580   0.02024   0.01017  -0.0240  0.7462  0.0984  -0.7123   0.0000   0.0000   0.0000   0.4033
   0.200   0.1551   0.01789   0.01023  -0.0217  0.7433  0.6713  -0.7021   0.0000   0.0000   0.0000   0.3914
   0.400   0.3151   0.01834   0.01120  -0.0456  0.7381  0.9874  -0.6624   0.0000   0.0000   0.0000   0.3946
   0.500   0.3360   0.01837   0.01115  -0.0475  0.7344  0.9939  -0.6777   0.0000   0.0000   0.0000   0.3912
   0.600   0.3596   0.01840   0.01111  -0.0500  0.7303  1.0000  -0.6948   0.0000   0.0000   0.0000   0.3886
   0.700   0.3683   0.01846   0.01111  -0.0495  0.7258  1.0000  -0.7044   0.0000   0.0000   0.0000   0.3838
   0.800   0.3771   0.01857   0.01117  -0.0490  0.7207  1.0000  -0.7146   0.0000   0.0000   0.0000   0.3793
   0.900   0.3859   0.01879   0.01133  -0.0487  0.7145  1.0000  -0.7247   0.0000   0.0000   0.0000   0.3753
   1.000   0.3949   0.01935   0.01187  -0.0487  0.7059  1.0000  -0.7339   0.0000   0.0000   0.0000   0.3725
   1.100   0.4039   0.01996   0.01247  -0.0490  0.6991  1.0000  -0.7430   0.0000   0.0000   0.0000   0.3703
   1.200   0.4132   0.01989   0.01238  -0.0487  0.6974  1.0000  -0.7539   0.0000   0.0000   0.0000   0.3667
   1.300   0.4225   0.01984   0.01232  -0.0484  0.6954  1.0000  -0.7647   0.0000   0.0000   0.0000   0.3633
   1.400   0.4318   0.01983   0.01230  -0.0482  0.6931  1.0000  -0.7754   0.0000   0.0000   0.0000   0.3602
   1.500   0.4412   0.01987   0.01232  -0.0480  0.6907  1.0000  -0.7860   0.0000   0.0000   0.0000   0.3574
   1.600   0.4505   0.01992   0.01237  -0.0478  0.6881  1.0000  -0.7965   0.0000   0.0000   0.0000   0.3546
   1.700   0.4597   0.01997   0.01242  -0.0477  0.6852  1.0000  -0.8070   0.0000   0.0000   0.0000   0.3520
   1.800   0.4688   0.02004   0.01249  -0.0475  0.6819  1.0000  -0.8174   0.0000   0.0000   0.0000   0.3495
   1.900   0.4778   0.02011   0.01256  -0.0473  0.6783  1.0000  -0.8278   0.0000   0.0000   0.0000   0.3470
   2.000   0.4868   0.02019   0.01263  -0.0470  0.6745  1.0000  -0.8381   0.0000   0.0000   0.0000   0.3446
   2.100   0.4957   0.02026   0.01270  -0.0467  0.6705  1.0000  -0.8484   0.0000   0.0000   0.0000   0.3422
   2.200   0.5046   0.02033   0.01277  -0.0464  0.6663  1.0000  -0.8587   0.0000   0.0000   0.0000   0.3398
   2.300   0.5134   0.02040   0.01283  -0.0461  0.6620  1.0000  -0.8690   0.0000   0.0000   0.0000   0.3375
   2.400   0.5222   0.02046   0.01288  -0.0457  0.6576  1.0000  -0.8794   0.0000   0.0000   0.0000   0.3352
   2.500   0.5310   0.02052   0.01292  -0.0453  0.6532  1.0000  -0.8898   0.0000   0.0000   0.0000   0.3329
   2.600   0.5398   0.02056   0.01296  -0.0449  0.6489  1.0000  -0.9165   0.0000   0.0000   0.0000   0.3306
   2.700   0.5486   0.02060   0.01299  -0.0444  0.6447  1.0000  -0.9486   0.0000   0.0000   0.0000   0.3283
   2.800   0.5574   0.02063   0.01301  -0.0439  0.6406  1.0000  -0.9811   0.0000   0.0000   0.0000   0.3260
   2.900   0.5662   0.02066   0.01302  -0.0434  0.6365  1.0000  -1.0139   0.0000   0.0000   0.0000   0.3238
   3.000   0.5750   0.02070   0.01304  -0.0429  0.6325  1.0000  -1.0470   0.0000   0.0000   0.0000   0.3216
   3.100   0.5837   0.02073   0.01305  -0.0423  0.6283  1.0000  -1.0803   0.0000   0.0000   0.0000   0.3195
   3.200   0.5924   0.02079   0.01308  -0.0417  0.6238  1.0000  -1.1138   0.0000   0.0000   0.0000   0.3173
   3.300   0.6009   0.02094   0.01320  -0.0412  0.6186  1.0000  -1.1471   0.0000   0.0000   0.0000   0.3153
   3.400   0.6089   0.02137   0.01361  -0.0407  0.6116  1.0000  -1.1787   0.0000   0.0000   0.0000   0.3136
   3.500   0.6127   0.02312   0.01538  -0.0408  0.5996  1.0000  -1.1986   0.0000   0.0000   0.0000   0.3132
   3.600   0.6218   0.02301   0.01528  -0.0404  0.5982  1.0000  -1.2337   0.0000   0.0000   0.0000   0.3115
   3.700   0.6307   0.02293   0.01521  -0.0400  0.5965  1.0000  -1.2687   0.0000   0.0000   0.0000   0.3098
   3.800   0.6395   0.02290   0.01519  -0.0396  0.5945  1.0000  -1.3036   0.0000   0.0000   0.0000   0.3083
   3.900   0.6481   0.02292   0.01522  -0.0393  0.5923  1.0000  -1.3381   0.0000   0.0000   0.0000   0.3068
   4.000   0.6566   0.02300   0.01532  -0.0390  0.5900  1.0000  -1.3723   0.0000   0.0000   0.0000   0.3055
   4.100   0.6650   0.02311   0.01545  -0.0386  0.5874  1.0000  -1.4064   0.0000   0.0000   0.0000   0.3041
   4.200   0.6733   0.02323   0.01560  -0.0383  0.5846  1.0000  -1.4406   0.0000   0.0000   0.0000   0.3028
   4.300   0.6814   0.02336   0.01575  -0.0380  0.5816  1.0000  -1.4747   0.0000   0.0000   0.0000   0.3016
   4.400   0.6896   0.02344   0.01585  -0.0375  0.5780  1.0000  -1.5094   0.0000   0.0000   0.0000   0.3002
   4.500   0.6979   0.02343   0.01585  -0.0370  0.5737  1.0000  -1.5453   0.0000   0.0000   0.0000   0.2987
   4.600   0.7066   0.02334   0.01576  -0.0364  0.5688  1.0000  -1.5824   0.0000   0.0000   0.0000   0.2971
   4.700   0.7155   0.02314   0.01557  -0.0357  0.5633  1.0000  -1.6212   0.0000   0.0000   0.0000   0.2954
   4.800   0.7250   0.02284   0.01525  -0.0350  0.5573  1.0000  -1.6619   0.0000   0.0000   0.0000   0.2936
   4.900   0.7348   0.02243   0.01482  -0.0341  0.5510  1.0000  -1.7044   0.0000   0.0000   0.0000   0.2916
   5.000   0.7451   0.02194   0.01428  -0.0332  0.5443  1.0000  -1.7487   0.0000   0.0000   0.0000   0.2897
   5.100   0.7554   0.02141   0.01370  -0.0323  0.5375  1.0000  -1.7938   0.0000   0.0000   0.0000   0.2877
   5.200   0.7656   0.02092   0.01313  -0.0313  0.5304  1.0000  -1.8390   0.0000   0.0000   0.0000   0.2858
   5.300   0.7756   0.02058   0.01268  -0.0304  0.5223  1.0000  -1.8835   0.0000   0.0000   0.0000   0.2840
   5.400   0.7849   0.02059   0.01260  -0.0298  0.5122  1.0000  -1.9250   0.0000   0.0000   0.0000   0.2825
   5.500   0.7919   0.02135   0.01334  -0.0294  0.4997  1.0000  -1.9583   0.0000   0.0000   0.0000   0.2816
   5.600   0.8014   0.02095   0.01295  -0.0288  0.4972  1.0000  -2.0015   0.0000   0.0000   0.0000   0.2803
   5.700   0.8105   0.02067   0.01267  -0.0282  0.4940  1.0000  -2.0438   0.0000   0.0000   0.0000   0.2791
   5.800   0.8195   0.02049   0.01252  -0.0277  0.4901  1.0000  -2.0852   0.0000   0.0000   0.0000   0.2780
   5.900   0.8284   0.02039   0.01244  -0.0272  0.4858  1.0000  -2.1260   0.0000   0.0000   0.0000   0.2769
   6.000   0.8373   0.02030   0.01238  -0.0268  0.4807  1.0000  -2.1670   0.0000   0.0000   0.0000   0.2759
   6.100   0.8462   0.02021   0.01231  -0.0263  0.4748  1.0000  -2.2082   0.0000   0.0000   0.0000   0.2748
   6.200   0.8552   0.02012   0.01223  -0.0258  0.4684  1.0000  -2.2498   0.0000   0.0000   0.0000   0.2738
   6.300   0.8642   0.02003   0.01215  -0.0253  0.4618  1.0000  -2.2916   0.0000   0.0000   0.0000   0.2728
   6.400   0.8732   0.01994   0.01207  -0.0247  0.4550  1.0000  -2.3336   0.0000   0.0000   0.0000   0.2718
   6.500   0.8824   0.01987   0.01199  -0.0242  0.4482  1.0000  -2.3757   0.0000   0.0000   0.0000   0.2708
   6.600   0.8916   0.01980   0.01189  -0.0237  0.4412  1.0000  -2.4181   0.0000   0.0000   0.0000   0.2698
   6.700   0.9008   0.01973   0.01175  -0.0231  0.4334  1.0000  -2.4606   0.0000   0.0000   0.0000   0.2687
   6.800   0.9098   0.01967   0.01160  -0.0225  0.4240  1.0000  -2.5028   0.0000   0.0000   0.0000   0.2677
   6.900   0.9184   0.01973   0.01157  -0.0219  0.4118  1.0000  -2.5436   0.0000   0.0000   0.0000   0.2667
   7.000   0.9270   0.01999   0.01177  -0.0215  0.3994  1.0000  -2.5822   0.0000   0.0000   0.0000   0.2658
   7.100   0.9351   0.01994   0.01180  -0.0210  0.3961  1.0000  -2.6214   0.0000   0.0000   0.0000   0.2650
   7.200   0.9432   0.01992   0.01184  -0.0204  0.3909  1.0000  -2.6597   0.0000   0.0000   0.0000   0.2641
   7.300   0.9512   0.01990   0.01189  -0.0199  0.3829  1.0000  -2.6973   0.0000   0.0000   0.0000   0.2632
   7.400   0.9590   0.01990   0.01192  -0.0193  0.3718  1.0000  -2.7338   0.0000   0.0000   0.0000   0.2622
   7.500   0.9665   0.01991   0.01190  -0.0186  0.3570  1.0000  -2.7682   0.0000   0.0000   0.0000   0.2612
   7.600   0.9730   0.01996   0.01179  -0.0176  0.3365  1.0000  -2.7992   0.0000   0.0000   0.0000   0.2600
   7.700   0.9768   0.02016   0.01172  -0.0163  0.3075  1.0000  -2.8215   0.0000   0.0000   0.0000   0.2583
   7.800   0.9811   0.02047   0.01194  -0.0151  0.2739  1.0000  -2.8345   0.0000   0.0000   0.0000   0.2570
   7.900   0.9758   0.02138   0.01224  -0.0128  0.2074  1.0000  -2.8270   0.0000   0.0000   0.0000   0.2545
   8.000   0.9679   0.02268   0.01299  -0.0104  0.1539  1.0000  -2.8102   0.0000   0.0000   0.0000   0.2519
   8.100   0.9639   0.02374   0.01374  -0.0084  0.1278  1.0000  -2.7937   0.0000   0.0000   0.0000   0.2497
   8.200   0.9613   0.02467   0.01446  -0.0065  0.1132  1.0000  -2.7823   0.0000   0.0000   0.0000   0.2476
   8.300   0.9591   0.02554   0.01530  -0.0044  0.1031  1.0000  -2.7641   0.0000   0.0000   0.0000   0.2454
   8.400   0.9607   0.02617   0.01593  -0.0029  0.0990  1.0000  -2.7627   0.0000   0.0000   0.0000   0.2436
   8.500   0.9651   0.02659   0.01640  -0.0018  0.0972  1.0000  -2.7772   0.0000   0.0000   0.0000   0.2424
   8.600   0.9690   0.02705   0.01689  -0.0008  0.0955  1.0000  -2.7918   0.0000   0.0000   0.0000   0.2411
   8.700   0.9730   0.02751   0.01739   0.0003  0.0940  1.0000  -2.8071   0.0000   0.0000   0.0000   0.2399
   8.800   0.9770   0.02798   0.01788   0.0013  0.0928  1.0000  -2.8229   0.0000   0.0000   0.0000   0.2387
   8.900   0.9813   0.02845   0.01839   0.0023  0.0916  1.0000  -2.8396   0.0000   0.0000   0.0000   0.2376
   9.000   0.9858   0.02894   0.01890   0.0033  0.0906  1.0000  -2.8572   0.0000   0.0000   0.0000   0.2365
   9.100   0.9909   0.02943   0.01942   0.0041  0.0896  1.0000  -2.8760   0.0000   0.0000   0.0000   0.2355
   9.200   0.9961   0.02991   0.01992   0.0050  0.0886  1.0000  -2.8971   0.0000   0.0000   0.0000   0.2345
   9.300   1.0007   0.03039   0.02041   0.0058  0.0873  1.0000  -2.9205   0.0000   0.0000   0.0000   0.2336
   9.400   1.0042   0.03087   0.02089   0.0067  0.0859  1.0000  -2.9448   0.0000   0.0000   0.0000   0.2326
   9.500   1.0071   0.03135   0.02137   0.0076  0.0843  1.0000  -2.9704   0.0000   0.0000   0.0000   0.2316
   9.600   1.0091   0.03187   0.02187   0.0086  0.0826  1.0000  -2.9957   0.0000   0.0000   0.0000   0.2304
   9.700   1.0105   0.03246   0.02242   0.0096  0.0808  1.0000  -3.0189   0.0000   0.0000   0.0000   0.2293
   9.800   1.0131   0.03320   0.02312   0.0105  0.0786  1.0000  -3.0404   0.0000   0.0000   0.0000   0.2282
   9.900   1.0196   0.03448   0.02441   0.0109  0.0755  1.0000  -3.0562   0.0000   0.0000   0.0000   0.2278
  10.000   1.0228   0.03493   0.02486   0.0117  0.0743  1.0000  -3.0846   0.0000   0.0000   0.0000   0.2269
  10.500   0.9977   0.03924   0.02961   0.0186  0.0479  1.0000  -3.3585   0.0000   0.0000   0.0000   0.2188
  10.600   0.9997   0.03984   0.03025   0.0193  0.0457  1.0000  -3.4215   0.0000   0.0000   0.0000   0.2180
  10.700   1.0025   0.04057   0.03102   0.0199  0.0438  1.0000  -3.4767   0.0000   0.0000   0.0000   0.2172
  10.800   1.0057   0.04135   0.03185   0.0205  0.0421  1.0000  -3.5281   0.0000   0.0000   0.0000   0.2165
  10.900   1.0091   0.04217   0.03272   0.0212  0.0407  1.0000  -3.5769   0.0000   0.0000   0.0000   0.2158
  11.000   1.0126   0.04302   0.03361   0.0218  0.0395  1.0000  -3.6235   0.0000   0.0000   0.0000   0.2151
  11.100   1.0157   0.04389   0.03453   0.0223  0.0385  1.0000  -3.6666   0.0000   0.0000   0.0000   0.2144
  11.200   1.0186   0.04479   0.03548   0.0229  0.0376  1.0000  -3.7072   0.0000   0.0000   0.0000   0.2138
  11.300   1.0214   0.04572   0.03645   0.0234  0.0369  1.0000  -3.7462   0.0000   0.0000   0.0000   0.2132
  11.400   1.0242   0.04666   0.03745   0.0239  0.0363  1.0000  -3.7833   0.0000   0.0000   0.0000   0.2126
  11.500   1.0265   0.04763   0.03847   0.0244  0.0358  1.0000  -3.8180   0.0000   0.0000   0.0000   0.2120
  11.600   1.0283   0.04863   0.03953   0.0249  0.0353  1.0000  -3.8492   0.0000   0.0000   0.0000   0.2114
  11.700   1.0297   0.04967   0.04063   0.0254  0.0349  1.0000  -3.8778   0.0000   0.0000   0.0000   0.2108
  11.800   1.0305   0.05075   0.04179   0.0258  0.0346  1.0000  -3.9028   0.0000   0.0000   0.0000   0.2102
  11.900   1.0309   0.05187   0.04298   0.0262  0.0343  1.0000  -3.9256   0.0000   0.0000   0.0000   0.2096
  12.000   1.0310   0.05304   0.04422   0.0266  0.0341  1.0000  -3.9459   0.0000   0.0000   0.0000   0.2090
  12.100   1.0307   0.05426   0.04552   0.0270  0.0339  1.0000  -3.9637   0.0000   0.0000   0.0000   0.2085
  12.200   1.0300   0.05553   0.04688   0.0273  0.0337  1.0000  -3.9785   0.0000   0.0000   0.0000   0.2080
  12.300   1.0286   0.05687   0.04830   0.0276  0.0336  1.0000  -3.9898   0.0000   0.0000   0.0000   0.2075
  12.400   1.0262   0.05831   0.04982   0.0278  0.0335  1.0000  -3.9958   0.0000   0.0000   0.0000   0.2071
  12.500   1.0233   0.05981   0.05142   0.0279  0.0335  1.0000  -3.9988   0.0000   0.0000   0.0000   0.2067
  12.600   1.0201   0.06137   0.05307   0.0280  0.0334  1.0000  -3.9994   0.0000   0.0000   0.0000   0.2063
  12.700   1.0166   0.06299   0.05478   0.0280  0.0334  1.0000  -3.9975   0.0000   0.0000   0.0000   0.2060
  12.800   1.0126   0.06468   0.05657   0.0280  0.0334  1.0000  -3.9925   0.0000   0.0000   0.0000   0.2058
  12.900   1.0080   0.06645   0.05843   0.0278  0.0335  1.0000  -3.9837   0.0000   0.0000   0.0000   0.2055
  13.000   1.0027   0.06830   0.06039   0.0276  0.0335  1.0000  -3.9712   0.0000   0.0000   0.0000   0.2054
  13.100   0.9964   0.07028   0.06247   0.0273  0.0336  1.0000  -3.9534   0.0000   0.0000   0.0000   0.2054
  13.200   0.9887   0.07242   0.06471   0.0267  0.0337  1.0000  -3.9289   0.0000   0.0000   0.0000   0.2055
  13.300   0.9811   0.07460   0.06699   0.0261  0.0338  1.0000  -3.9030   0.0000   0.0000   0.0000   0.2057
  13.400   0.9734   0.07682   0.06930   0.0255  0.0340  1.0000  -3.8751   0.0000   0.0000   0.0000   0.2059
  13.500   0.9653   0.07914   0.07172   0.0248  0.0341  1.0000  -3.8440   0.0000   0.0000   0.0000   0.2062
  13.600   0.9567   0.08160   0.07428   0.0239  0.0343  1.0000  -3.8089   0.0000   0.0000   0.0000   0.2067
  13.700   0.9473   0.08425   0.07703   0.0229  0.0345  1.0000  -3.7680   0.0000   0.0000   0.0000   0.2073
  13.800   0.9360   0.08726   0.08013   0.0214  0.0347  1.0000  -3.7163   0.0000   0.0000   0.0000   0.2084
  13.900   0.9252   0.09033   0.08330   0.0199  0.0349  1.0000  -3.6637   0.0000   0.0000   0.0000   0.2095
  14.000   0.9147   0.09351   0.08657   0.0183  0.0351  1.0000  -3.6084   0.0000   0.0000   0.0000   0.2108
  14.100   0.9039   0.09688   0.09003   0.0166  0.0354  1.0000  -3.5478   0.0000   0.0000   0.0000   0.2123
  14.200   0.8924   0.10051   0.09375   0.0147  0.0357  1.0000  -3.4787   0.0000   0.0000   0.0000   0.2140
  14.300   0.8775   0.10501   0.09834   0.0119  0.0361  1.0000  -3.3840   0.0000   0.0000   0.0000   0.2167
  14.400   0.8630   0.10968   0.10310   0.0092  0.0366  1.0000  -3.2811   0.0000   0.0000   0.0000   0.2195
  14.500   0.8483   0.11466   0.10817   0.0063  0.0372  1.0000  -3.1660   0.0000   0.0000   0.0000   0.2226
  14.600   0.8312   0.12060   0.11418   0.0028  0.0380  1.0000  -3.0188   0.0000   0.0000   0.0000   0.2267
  14.700   0.8154   0.12667   0.12031  -0.0007  0.0390  1.0000  -2.8645   0.0000   0.0000   0.0000   0.2310
  14.800   0.8041   0.13176   0.12544  -0.0034  0.0398  1.0000  -2.7394   0.0000   0.0000   0.0000   0.2344
  14.900   0.7953   0.13646   0.13016  -0.0058  0.0406  1.0000  -2.6268   0.0000   0.0000   0.0000   0.2374
  15.000   0.7889   0.14059   0.13430  -0.0077  0.0413  1.0000  -2.5331   0.0000   0.0000   0.0000   0.2400
  15.100   0.7841   0.14420   0.13792  -0.0094  0.0418  1.0000  -2.4573   0.0000   0.0000   0.0000   0.2421
  15.200   0.7803   0.14746   0.14118  -0.0109  0.0423  1.0000  -2.3938   0.0000   0.0000   0.0000   0.2440
  15.300   0.7771   0.15050   0.14421  -0.0122  0.0427  1.0000  -2.3383   0.0000   0.0000   0.0000   0.2458
  15.400   0.7745   0.15336   0.14706  -0.0135  0.0430  1.0000  -2.2886   0.0000   0.0000   0.0000   0.2474
  15.500   0.7723   0.15605   0.14976  -0.0147  0.0434  1.0000  -2.2434   0.0000   0.0000   0.0000   0.2490
  15.600   0.7704   0.15864   0.15233  -0.0159  0.0437  1.0000  -2.2016   0.0000   0.0000   0.0000   0.2505
  15.700   0.7688   0.16115   0.15484  -0.0170  0.0441  1.0000  -2.1628   0.0000   0.0000   0.0000   0.2519
  15.800   0.7675   0.16362   0.15730  -0.0180  0.0445  1.0000  -2.1264   0.0000   0.0000   0.0000   0.2532
  15.900   0.7663   0.16607   0.15974  -0.0191  0.0449  1.0000  -2.0922   0.0000   0.0000   0.0000   0.2545
  16.000   0.7654   0.16850   0.16217  -0.0200  0.0453  1.0000  -2.0602   0.0000   0.0000   0.0000   0.2557
  16.100   0.7646   0.17094   0.16460  -0.0209  0.0459  1.0000  -2.0301   0.0000   0.0000   0.0000   0.2568
  16.200   0.7638   0.17339   0.16705  -0.0218  0.0465  1.0000  -2.0022   0.0000   0.0000   0.0000   0.2578
  16.300   0.7632   0.17591   0.16955  -0.0225  0.0473  1.0000  -1.9761   0.0000   0.0000   0.0000   0.2587
  16.600   0.7687   0.18951   0.18296  -0.0241  0.0741  1.0000  -1.7366   0.0000   0.0000   0.0000   0.2609
  16.700   0.7675   0.19086   0.18431  -0.0261  0.0731  1.0000  -1.7015   0.0000   0.0000   0.0000   0.2633
  16.800   0.7695   0.19294   0.18645  -0.0281  0.0792  1.0000  -1.6384   0.0000   0.0000   0.0000   0.2659
  16.900   0.7686   0.19540   0.18890  -0.0294  0.0796  1.0000  -1.6048   0.0000   0.0000   0.0000   0.2675
  17.000   0.7686   0.19763   0.19113  -0.0304  0.0797  1.0000  -1.5826   0.0000   0.0000   0.0000   0.2688
  17.100   0.7691   0.19973   0.19323  -0.0313  0.0798  1.0000  -1.5663   0.0000   0.0000   0.0000   0.2698
  17.200   0.7701   0.20178   0.19528  -0.0321  0.0798  1.0000  -1.5541   0.0000   0.0000   0.0000   0.2706
  17.300   0.7713   0.20378   0.19728  -0.0328  0.0797  1.0000  -1.5451   0.0000   0.0000   0.0000   0.2714
  18.000   0.7857   0.22048   0.21415  -0.0362  0.0777  1.0000  -1.5618   0.0000   0.0000   0.0000   0.2741
  18.100   0.7903   0.22299   0.21665  -0.0360  0.0771  1.0000  -1.5855   0.0000   0.0000   0.0000   0.2735
  18.200   0.7958   0.22625   0.21991  -0.0356  0.0764  1.0000  -1.6159   0.0000   0.0000   0.0000   0.2725
  18.300   0.7947   0.23529   0.22890  -0.0354  0.0750  1.0000  -1.5891   0.0000   0.0000   0.0000   0.2724
  18.400   0.7959   0.23722   0.23083  -0.0363  0.0749  1.0000  -1.5809   0.0000   0.0000   0.0000   0.2733
  18.500   0.7972   0.23911   0.23271  -0.0371  0.0749  1.0000  -1.5727   0.0000   0.0000   0.0000   0.2742
  18.600   0.7984   0.24094   0.23454  -0.0380  0.0748  1.0000  -1.5643   0.0000   0.0000   0.0000   0.2751
  18.700   0.7995   0.24272   0.23631  -0.0389  0.0747  1.0000  -1.5560   0.0000   0.0000   0.0000   0.2759
  18.800   0.8007   0.24445   0.23803  -0.0398  0.0747  1.0000  -1.5475   0.0000   0.0000   0.0000   0.2768
  18.900   0.8018   0.24611   0.23968  -0.0407  0.0746  1.0000  -1.5389   0.0000   0.0000   0.0000   0.2777
  19.000   0.8029   0.24769   0.24127  -0.0416  0.0745  1.0000  -1.5301   0.0000   0.0000   0.0000   0.2787
  19.100   0.8034   0.24909   0.24266  -0.0426  0.0743  1.0000  -1.5180   0.0000   0.0000   0.0000   0.2797
  19.200   0.8031   0.25027   0.24383  -0.0438  0.0742  1.0000  -1.5012   0.0000   0.0000   0.0000   0.2810
  19.300   0.8027   0.25128   0.24484  -0.0450  0.0739  1.0000  -1.4827   0.0000   0.0000   0.0000   0.2824
  19.400   0.8017   0.25202   0.24556  -0.0463  0.0736  1.0000  -1.4612   0.0000   0.0000   0.0000   0.2840
  19.500   0.7994   0.25232   0.24586  -0.0479  0.0731  1.0000  -1.4315   0.0000   0.0000   0.0000   0.2860
  19.600   0.7971   0.25265   0.24618  -0.0497  0.0723  1.0000  -1.3989   0.0000   0.0000   0.0000   0.2882
  19.700   0.7961   0.25350   0.24703  -0.0514  0.0712  1.0000  -1.3715   0.0000   0.0000   0.0000   0.2901
  19.800   0.7965   0.25492   0.24844  -0.0526  0.0700  1.0000  -1.3545   0.0000   0.0000   0.0000   0.2915
  19.900   0.7975   0.25659   0.25011  -0.0536  0.0689  1.0000  -1.3444   0.0000   0.0000   0.0000   0.2925
  20.000   0.7989   0.25837   0.25189  -0.0545  0.0678  1.0000  -1.3379   0.0000   0.0000   0.0000   0.2934
  20.100   0.8003   0.26019   0.25371  -0.0552  0.0669  1.0000  -1.3335   0.0000   0.0000   0.0000   0.2940
  20.200   0.8019   0.26203   0.25555  -0.0560  0.0660  1.0000  -1.3306   0.0000   0.0000   0.0000   0.2947
  20.300   0.8035   0.26388   0.25740  -0.0567  0.0651  1.0000  -1.3288   0.0000   0.0000   0.0000   0.2952
  20.400   0.8052   0.26573   0.25925  -0.0573  0.0643  1.0000  -1.3278   0.0000   0.0000   0.0000   0.2957
  20.500   0.8069   0.26758   0.26110  -0.0580  0.0635  1.0000  -1.3276   0.0000   0.0000   0.0000   0.2962
  20.600   0.8086   0.26944   0.26295  -0.0586  0.0627  1.0000  -1.3281   0.0000   0.0000   0.0000   0.2967
  20.700   0.8103   0.27129   0.26481  -0.0592  0.0619  1.0000  -1.3291   0.0000   0.0000   0.0000   0.2971
  20.800   0.8120   0.27313   0.26665  -0.0598  0.0612  1.0000  -1.3308   0.0000   0.0000   0.0000   0.2975
  20.900   0.8138   0.27498   0.26850  -0.0603  0.0605  1.0000  -1.3331   0.0000   0.0000   0.0000   0.2979
  21.000   0.8156   0.27682   0.27034  -0.0609  0.0599  1.0000  -1.3360   0.0000   0.0000   0.0000   0.2982
  21.100   0.8174   0.27866   0.27218  -0.0614  0.0592  1.0000  -1.3395   0.0000   0.0000   0.0000   0.2985
  21.200   0.8192   0.28050   0.27402  -0.0619  0.0586  1.0000  -1.3438   0.0000   0.0000   0.0000   0.2988
  21.300   0.8210   0.28233   0.27586  -0.0624  0.0580  1.0000  -1.3487   0.0000   0.0000   0.0000   0.2990
  21.400   0.8228   0.28417   0.27769  -0.0628  0.0574  1.0000  -1.3545   0.0000   0.0000   0.0000   0.2993
  21.500   0.8247   0.28600   0.27953  -0.0632  0.0568  1.0000  -1.3611   0.0000   0.0000   0.0000   0.2994
  21.600   0.8266   0.28785   0.28138  -0.0636  0.0563  1.0000  -1.3686   0.0000   0.0000   0.0000   0.2996
  21.700   0.8286   0.28970   0.28323  -0.0640  0.0557  1.0000  -1.3772   0.0000   0.0000   0.0000   0.2997
  21.800   0.8305   0.29157   0.28511  -0.0643  0.0552  1.0000  -1.3868   0.0000   0.0000   0.0000   0.2997
  21.900   0.8326   0.29347   0.28701  -0.0646  0.0547  1.0000  -1.3978   0.0000   0.0000   0.0000   0.2997
  22.000   0.8348   0.29541   0.28895  -0.0649  0.0542  1.0000  -1.4101   0.0000   0.0000   0.0000   0.2996
  22.100   0.8370   0.29741   0.29096  -0.0650  0.0538  1.0000  -1.4241   0.0000   0.0000   0.0000   0.2995
  22.200   0.8395   0.29951   0.29306  -0.0652  0.0533  1.0000  -1.4400   0.0000   0.0000   0.0000   0.2992
  22.300   0.8422   0.30176   0.29531  -0.0652  0.0529  1.0000  -1.4583   0.0000   0.0000   0.0000   0.2989
  22.400   0.8452   0.30425   0.29781  -0.0651  0.0524  1.0000  -1.4796   0.0000   0.0000   0.0000   0.2984
  22.500   0.8489   0.30716   0.30073  -0.0649  0.0520  1.0000  -1.5047   0.0000   0.0000   0.0000   0.2977
  22.600   0.8537   0.31097   0.30455  -0.0645  0.0515  1.0000  -1.5360   0.0000   0.0000   0.0000   0.2966
  22.700   0.8605   0.31776   0.31136  -0.0637  0.0508  1.0000  -1.5725   0.0000   0.0000   0.0000   0.2951
  22.800   0.8573   0.32714   0.32068  -0.0642  0.0499  1.0000  -1.5158   0.0000   0.0000   0.0000   0.2960
  22.900   0.8571   0.32851   0.32205  -0.0649  0.0499  1.0000  -1.5061   0.0000   0.0000   0.0000   0.2967
  23.000   0.8570   0.32982   0.32337  -0.0656  0.0498  1.0000  -1.4963   0.0000   0.0000   0.0000   0.2974
  23.100   0.8567   0.33106   0.32461  -0.0663  0.0497  1.0000  -1.4865   0.0000   0.0000   0.0000   0.2981
  23.200   0.8565   0.33222   0.32578  -0.0671  0.0497  1.0000  -1.4766   0.0000   0.0000   0.0000   0.2988
  23.300   0.8559   0.33323   0.32679  -0.0678  0.0495  1.0000  -1.4660   0.0000   0.0000   0.0000   0.2995
  23.400   0.8544   0.33393   0.32750  -0.0686  0.0494  1.0000  -1.4499   0.0000   0.0000   0.0000   0.3004
  23.500   0.8519   0.33432   0.32789  -0.0695  0.0492  1.0000  -1.4295   0.0000   0.0000   0.0000   0.3015
  23.600   0.8491   0.33453   0.32811  -0.0704  0.0490  1.0000  -1.4067   0.0000   0.0000   0.0000   0.3026
  23.700   0.8462   0.33462   0.32820  -0.0714  0.0488  1.0000  -1.3823   0.0000   0.0000   0.0000   0.3039
  23.800   0.8436   0.33465   0.32824  -0.0725  0.0483  1.0000  -1.3559   0.0000   0.0000   0.0000   0.3053
  23.900   0.8415   0.33482   0.32842  -0.0737  0.0477  1.0000  -1.3280   0.0000   0.0000   0.0000   0.3068
  24.000   0.8403   0.33554   0.32914  -0.0749  0.0467  1.0000  -1.3032   0.0000   0.0000   0.0000   0.3082
  24.100   0.8398   0.33683   0.33044  -0.0758  0.0456  1.0000  -1.2858   0.0000   0.0000   0.0000   0.3091
  24.200   0.8393   0.33837   0.33199  -0.0764  0.0445  1.0000  -1.2741   0.0000   0.0000   0.0000   0.3098
  24.300   0.8386   0.33996   0.33360  -0.0768  0.0434  1.0000  -1.2653   0.0000   0.0000   0.0000   0.3103
  24.400   0.8377   0.34155   0.33519  -0.0772  0.0424  1.0000  -1.2581   0.0000   0.0000   0.0000   0.3107
  24.500   0.8366   0.34308   0.33674  -0.0775  0.0415  1.0000  -1.2518   0.0000   0.0000   0.0000   0.3110
  24.600   0.8351   0.34454   0.33821  -0.0777  0.0406  1.0000  -1.2458   0.0000   0.0000   0.0000   0.3113
  24.700   0.8333   0.34590   0.33959  -0.0778  0.0398  1.0000  -1.2399   0.0000   0.0000   0.0000   0.3116
  24.800   0.8310   0.34713   0.34084  -0.0778  0.0390  1.0000  -1.2337   0.0000   0.0000   0.0000   0.3118
  24.900   0.8282   0.34820   0.34192  -0.0777  0.0382  1.0000  -1.2268   0.0000   0.0000   0.0000   0.3120
  25.000   0.7931   0.34112   0.33495  -0.0725  0.0384  1.0000  -1.1545   0.0000   0.0000   0.0000   0.3105
  25.100   0.7809   0.33903   0.33289  -0.0709  0.0379  1.0000  -1.1289   0.0000   0.0000   0.0000   0.3102
  25.200   0.7734   0.33805   0.33195  -0.0701  0.0373  1.0000  -1.1130   0.0000   0.0000   0.0000   0.3101
  25.300   0.7676   0.33746   0.33139  -0.0695  0.0367  1.0000  -1.1010   0.0000   0.0000   0.0000   0.3100
  25.400   0.7628   0.33708   0.33103  -0.0690  0.0361  1.0000  -1.0913   0.0000   0.0000   0.0000   0.3101
  25.500   0.7586   0.33684   0.33081  -0.0687  0.0355  1.0000  -1.0834   0.0000   0.0000   0.0000   0.3101
  25.600   0.7549   0.33669   0.33068  -0.0684  0.0349  1.0000  -1.0769   0.0000   0.0000   0.0000   0.3102
  25.700   0.7517   0.33660   0.33061  -0.0682  0.0343  1.0000  -1.0716   0.0000   0.0000   0.0000   0.3103
  25.800   0.7482   0.33671   0.33091  -0.0680  0.0348  1.0000  -1.0550   0.0000   0.0000   0.0000   0.3105
  25.900   0.7454   0.33678   0.33103  -0.0679  0.0346  1.0000  -1.0465   0.0000   0.0000   0.0000   0.3106
  26.000   0.7429   0.33686   0.33114  -0.0678  0.0342  1.0000  -1.0407   0.0000   0.0000   0.0000   0.3108
  26.100   0.7405   0.33696   0.33126  -0.0677  0.0337  1.0000  -1.0362   0.0000   0.0000   0.0000   0.3109
  26.200   0.7383   0.33708   0.33140  -0.0676  0.0333  1.0000  -1.0327   0.0000   0.0000   0.0000   0.3110
  26.300   0.7362   0.33721   0.33156  -0.0676  0.0328  1.0000  -1.0300   0.0000   0.0000   0.0000   0.3112
  26.400   0.7344   0.33736   0.33173  -0.0675  0.0324  1.0000  -1.0281   0.0000   0.0000   0.0000   0.3113
  26.500   0.7326   0.33752   0.33191  -0.0675  0.0319  1.0000  -1.0271   0.0000   0.0000   0.0000   0.3114
  26.600   0.7310   0.33770   0.33210  -0.0675  0.0315  1.0000  -1.0268   0.0000   0.0000   0.0000   0.3115
  26.700   0.7294   0.33788   0.33230  -0.0675  0.0310  1.0000  -1.0274   0.0000   0.0000   0.0000   0.3116
  26.800   0.7280   0.33807   0.33251  -0.0675  0.0306  1.0000  -1.0289   0.0000   0.0000   0.0000   0.3117
  26.900   0.7267   0.33826   0.33272  -0.0674  0.0302  1.0000  -1.0312   0.0000   0.0000   0.0000   0.3118
  27.000   0.7255   0.33847   0.33294  -0.0674  0.0298  1.0000  -1.0345   0.0000   0.0000   0.0000   0.3119
  27.100   0.7244   0.33868   0.33317  -0.0674  0.0294  1.0000  -1.0387   0.0000   0.0000   0.0000   0.3119
  27.200   0.7234   0.33891   0.33342  -0.0674  0.0290  1.0000  -1.0441   0.0000   0.0000   0.0000   0.3119
  27.300   0.7225   0.33917   0.33369  -0.0673  0.0287  1.0000  -1.0505   0.0000   0.0000   0.0000   0.3118
  27.400   0.7217   0.33946   0.33400  -0.0673  0.0283  1.0000  -1.0582   0.0000   0.0000   0.0000   0.3118
  27.500   0.7210   0.33980   0.33436  -0.0672  0.0280  1.0000  -1.0672   0.0000   0.0000   0.0000   0.3117
  27.600   0.7206   0.34024   0.33481  -0.0671  0.0276  1.0000  -1.0778   0.0000   0.0000   0.0000   0.3115
  27.700   0.7203   0.34082   0.33540  -0.0670  0.0273  1.0000  -1.0902   0.0000   0.0000   0.0000   0.3112
  27.800   0.7204   0.34164   0.33624  -0.0668  0.0270  1.0000  -1.1047   0.0000   0.0000   0.0000   0.3109
  27.900   0.7210   0.34294   0.33755  -0.0666  0.0266  1.0000  -1.1217   0.0000   0.0000   0.0000   0.3104
  28.000   0.7228   0.34536   0.33999  -0.0663  0.0262  1.0000  -1.1422   0.0000   0.0000   0.0000   0.3097
  28.500   0.7163   0.35719   0.35183  -0.0669  0.0249  1.0000  -1.0437   0.0000   0.0000   0.0000   0.3113
  28.600   0.7149   0.35716   0.35181  -0.0671  0.0249  1.0000  -1.0358   0.0000   0.0000   0.0000   0.3118
  28.700   0.7135   0.35708   0.35175  -0.0674  0.0248  1.0000  -1.0278   0.0000   0.0000   0.0000   0.3122
  28.800   0.7121   0.35700   0.35169  -0.0676  0.0248  1.0000  -1.0199   0.0000   0.0000   0.0000   0.3127
  28.900   0.7107   0.35693   0.35163  -0.0679  0.0248  1.0000  -1.0123   0.0000   0.0000   0.0000   0.3131
  29.000   0.7095   0.35686   0.35158  -0.0681  0.0247  1.0000  -1.0049   0.0000   0.0000   0.0000   0.3136
  29.100   0.7082   0.35679   0.35152  -0.0684  0.0247  1.0000  -0.9977   0.0000   0.0000   0.0000   0.3140
  29.200   0.7069   0.35665   0.35140  -0.0687  0.0247  1.0000  -0.9900   0.0000   0.0000   0.0000   0.3145
  29.300   0.7057   0.35651   0.35127  -0.0690  0.0246  1.0000  -0.9826   0.0000   0.0000   0.0000   0.3150
  29.400   0.7045   0.35638   0.35115  -0.0693  0.0246  1.0000  -0.9753   0.0000   0.0000   0.0000   0.3155
  29.500   0.7033   0.35624   0.35103  -0.0696  0.0245  1.0000  -0.9682   0.0000   0.0000   0.0000   0.3160
  29.600   0.7021   0.35602   0.35082  -0.0700  0.0245  1.0000  -0.9604   0.0000   0.0000   0.0000   0.3165
  29.700   0.7007   0.35568   0.35049  -0.0703  0.0244  1.0000  -0.9511   0.0000   0.0000   0.0000   0.3171
  29.800   0.6994   0.35534   0.35017  -0.0707  0.0243  1.0000  -0.9419   0.0000   0.0000   0.0000   0.3177
  29.900   0.6981   0.35502   0.34987  -0.0711  0.0242  1.0000  -0.9328   0.0000   0.0000   0.0000   0.3184
  30.000   0.6970   0.35472   0.34958  -0.0715  0.0241  1.0000  -0.9237   0.0000   0.0000   0.0000   0.3190


