xflr5 v6.61

 Calculated polar for: NACA6409 9%

 1 1 Reynolds number fixed          Mach number fixed         

 xtrf =   1.000 (top)        1.000 (bottom)
 Mach =   0.000     Re =     0.450 e 6     Ncrit =   9.000

  alpha     CL        CD       CDp       Cm    Top Xtr Bot Xtr   Cpmin    Chinge    XCp    
 ------- -------- --------- --------- -------- ------- ------- -------- --------- ---------
 -10.000  -0.2320   0.11849   0.11601  -0.0491  0.9928  0.0148  -1.3720   0.0000   0.0000   0.0000   0.0239
  -9.900  -0.2256   0.11675   0.11427  -0.0507  0.9921  0.0148  -1.3759   0.0000   0.0000   0.0000   0.0104
  -9.800  -0.2191   0.11500   0.11252  -0.0523  0.9914  0.0148  -1.3801   0.0000   0.0000   0.0000  -0.0042
  -9.700  -0.2126   0.11325   0.11077  -0.0540  0.9908  0.0148  -1.3844   0.0000   0.0000   0.0000  -0.0198
  -9.600  -0.2060   0.11150   0.10902  -0.0557  0.9902  0.0148  -1.3890   0.0000   0.0000   0.0000  -0.0366
  -9.500  -0.1994   0.10975   0.10726  -0.0574  0.9896  0.0148  -1.3939   0.0000   0.0000   0.0000  -0.0546
  -9.400  -0.1934   0.10806   0.10557  -0.0589  0.9888  0.0148  -1.3992   0.0000   0.0000   0.0000  -0.0716
  -9.300  -0.1886   0.10648   0.10398  -0.0600  0.9873  0.0148  -1.4052   0.0000   0.0000   0.0000  -0.0858
  -9.200  -0.1832   0.10485   0.10235  -0.0613  0.9859  0.0148  -1.4114   0.0000   0.0000   0.0000  -0.1026
  -9.100  -0.1776   0.10319   0.10069  -0.0627  0.9846  0.0148  -1.4180   0.0000   0.0000   0.0000  -0.1216
  -9.000  -0.1717   0.10153   0.09902  -0.0642  0.9835  0.0148  -1.4250   0.0000   0.0000   0.0000  -0.1428
  -8.900  -0.1658   0.09976   0.09717  -0.0656  0.9824  0.0148  -1.4362   0.0000   0.0000   0.0000  -0.1653
  -8.800  -0.1599   0.09794   0.09534  -0.0672  0.9814  0.0147  -1.4486   0.0000   0.0000   0.0000  -0.1900
  -8.700  -0.1542   0.09594   0.09334  -0.0687  0.9805  0.0146  -1.4682   0.0000   0.0000   0.0000  -0.2164
  -8.600  -0.1533   0.09260   0.09000  -0.0702  0.9796  0.0140  -1.5628   0.0000   0.0000   0.0000  -0.2288
  -8.500  -0.1493   0.09019   0.08759  -0.0721  0.9787  0.0135  -1.6159   0.0000   0.0000   0.0000  -0.2542
  -8.400  -0.1436   0.08813   0.08553  -0.0741  0.9779  0.0132  -1.6494   0.0000   0.0000   0.0000  -0.2881
  -8.300  -0.1373   0.08615   0.08354  -0.0762  0.9772  0.0130  -1.6795   0.0000   0.0000   0.0000  -0.3282
  -8.200  -0.1307   0.08418   0.08157  -0.0785  0.9765  0.0128  -1.7095   0.0000   0.0000   0.0000  -0.3748
  -8.100  -0.1277   0.08263   0.08003  -0.0795  0.9739  0.0127  -1.7372   0.0000   0.0000   0.0000  -0.3974
  -8.000  -0.1249   0.08108   0.07848  -0.0806  0.9707  0.0126  -1.7659   0.0000   0.0000   0.0000  -0.4200
  -7.900  -0.1201   0.07930   0.07670  -0.0823  0.9684  0.0126  -1.7981   0.0000   0.0000   0.0000  -0.4614
  -7.800  -0.1144   0.07740   0.07481  -0.0845  0.9663  0.0126  -1.8330   0.0000   0.0000   0.0000  -0.5153
  -7.700  -0.1080   0.07542   0.07283  -0.0869  0.9645  0.0127  -1.8689   0.0000   0.0000   0.0000  -0.5831
  -7.600  -0.1007   0.07338   0.07079  -0.0896  0.9629  0.0130  -1.9023   0.0000   0.0000   0.0000  -0.6694
  -7.200  -0.0590   0.06411   0.06152  -0.1059  0.9577  0.0158  -2.0172   0.0000   0.0000   0.0000  -1.5956
  -7.100  -0.0624   0.06290   0.06032  -0.1057  0.9517  0.0164  -2.0311   0.0000   0.0000   0.0000  -1.4898
  -7.000  -0.0548   0.06268   0.06010  -0.1062  0.9494  0.0173  -1.9114   0.0000   0.0000   0.0000  -1.7410
  -6.900  -0.0447   0.06327   0.06070  -0.1056  0.9482  0.0183  -1.7273   0.0000   0.0000   0.0000  -2.1747
  -6.800  -0.0343   0.06367   0.06110  -0.1053  0.9470  0.0198  -1.5640   0.0000   0.0000   0.0000  -2.8976
  -6.700  -0.0239   0.06331   0.06075  -0.1063  0.9452  0.0219  -1.4626   0.0000   0.0000   0.0000  -4.3158
  -6.600   0.0010   0.06467   0.06209  -0.1101  0.9434  0.0292  -1.3339   0.0000   0.0000   0.0000  117.4576
  -6.500   0.0126   0.06324   0.06065  -0.1129  0.9412  0.0295  -1.3244   0.0000   0.0000   0.0000   9.4089
  -6.400   0.0242   0.06171   0.05910  -0.1158  0.9392  0.0296  -1.3242   0.0000   0.0000   0.0000   5.1397
  -6.300   0.0365   0.06008   0.05745  -0.1188  0.9373  0.0297  -1.3263   0.0000   0.0000   0.0000   3.5769
  -6.200   0.0490   0.05839   0.05575  -0.1219  0.9354  0.0298  -1.3300   0.0000   0.0000   0.0000   2.7875
  -6.100   0.0570   0.05701   0.05436  -0.1237  0.9323  0.0298  -1.3365   0.0000   0.0000   0.0000   2.4614
  -6.000   0.0615   0.05586   0.05320  -0.1244  0.9279  0.0298  -1.3445   0.0000   0.0000   0.0000   2.3105
  -5.900   0.0690   0.05448   0.05180  -0.1259  0.9239  0.0299  -1.3524   0.0000   0.0000   0.0000   2.1097
  -5.800   0.0778   0.05298   0.05028  -0.1277  0.9204  0.0299  -1.3607   0.0000   0.0000   0.0000   1.9201
  -5.700   0.0876   0.05141   0.04869  -0.1297  0.9172  0.0299  -1.3695   0.0000   0.0000   0.0000   1.7570
  -5.600   0.0984   0.04976   0.04700  -0.1319  0.9143  0.0300  -1.3791   0.0000   0.0000   0.0000   1.6135
  -5.500   0.1100   0.04803   0.04524  -0.1342  0.9116  0.0300  -1.3895   0.0000   0.0000   0.0000   1.4899
  -5.400   0.1223   0.04626   0.04342  -0.1367  0.9088  0.0300  -1.4011   0.0000   0.0000   0.0000   1.3853
  -5.300   0.1341   0.04452   0.04163  -0.1389  0.9058  0.0300  -1.4141   0.0000   0.0000   0.0000   1.3017
  -5.200   0.1407   0.04313   0.04021  -0.1397  0.9021  0.0300  -1.4279   0.0000   0.0000   0.0000   1.2577
  -4.500   0.2073   0.02420   0.02034  -0.1529  0.8770  0.0313  -1.8961   0.0000   0.0000   0.0000   0.9970
  -4.400   0.2182   0.02222   0.01816  -0.1540  0.8737  0.0317  -1.9293   0.0000   0.0000   0.0000   0.9645
  -4.300   0.2264   0.02084   0.01663  -0.1541  0.8712  0.0320  -1.9418   0.0000   0.0000   0.0000   0.9390
  -4.200   0.2351   0.01974   0.01540  -0.1541  0.8685  0.0322  -1.9413   0.0000   0.0000   0.0000   0.9133
  -4.100   0.2444   0.01886   0.01441  -0.1540  0.8655  0.0322  -1.9316   0.0000   0.0000   0.0000   0.8875
  -4.000   0.2543   0.01819   0.01363  -0.1539  0.8624  0.0320  -1.9130   0.0000   0.0000   0.0000   0.8621
  -3.900   0.2646   0.01772   0.01308  -0.1537  0.8592  0.0316  -1.8832   0.0000   0.0000   0.0000   0.8375
  -3.600   0.2974   0.01601   0.01111  -0.1536  0.8498  0.0293  -1.8222   0.0000   0.0000   0.0000   0.7718
  -3.500   0.3080   0.01445   0.00929  -0.1537  0.8467  0.0289  -1.8656   0.0000   0.0000   0.0000   0.7541
  -3.400   0.3192   0.01346   0.00809  -0.1537  0.8436  0.0287  -1.8751   0.0000   0.0000   0.0000   0.7365
  -3.300   0.3307   0.01268   0.00714  -0.1538  0.8401  0.0286  -1.8727   0.0000   0.0000   0.0000   0.7196
  -3.200   0.3422   0.01206   0.00637  -0.1538  0.8366  0.0287  -1.8621   0.0000   0.0000   0.0000   0.7037
  -3.100   0.3520   0.01158   0.00580  -0.1534  0.8343  0.0289  -1.8465   0.0000   0.0000   0.0000   0.6900
  -3.000   0.3620   0.01120   0.00536  -0.1531  0.8316  0.0293  -1.8237   0.0000   0.0000   0.0000   0.6768
  -2.900   0.3716   0.01022   0.00428  -0.1526  0.8285  0.0441  -1.9343   0.0000   0.0000   0.0000   0.6644
  -2.800   0.3822   0.01027   0.00433  -0.1525  0.8251  0.0468  -1.8661   0.0000   0.0000   0.0000   0.6523
  -2.700   0.3930   0.01026   0.00431  -0.1524  0.8215  0.0481  -1.7976   0.0000   0.0000   0.0000   0.6408
  -2.600   0.4039   0.01022   0.00424  -0.1523  0.8178  0.0489  -1.7300   0.0000   0.0000   0.0000   0.6299
  -2.500   0.4150   0.01014   0.00413  -0.1522  0.8140  0.0494  -1.6641   0.0000   0.0000   0.0000   0.6194
  -2.400   0.4261   0.01002   0.00396  -0.1521  0.8102  0.0497  -1.6007   0.0000   0.0000   0.0000   0.6095
  -2.300   0.4371   0.00980   0.00367  -0.1520  0.8063  0.0499  -1.5418   0.0000   0.0000   0.0000   0.6000
  -2.200   0.4479   0.00936   0.00304  -0.1518  0.8022  0.0499  -1.4875   0.0000   0.0000   0.0000   0.5910
  -2.100   0.4592   0.00907   0.00274  -0.1518  0.7974  0.0634  -1.4463   0.0000   0.0000   0.0000   0.5825
  -2.000   0.4697   0.00903   0.00271  -0.1516  0.7946  0.0686  -1.3843   0.0000   0.0000   0.0000   0.5746
  -1.900   0.4800   0.00900   0.00268  -0.1514  0.7917  0.0721  -1.3224   0.0000   0.0000   0.0000   0.5671
  -1.800   0.4904   0.00899   0.00266  -0.1513  0.7884  0.0740  -1.2596   0.0000   0.0000   0.0000   0.5599
  -1.700   0.5008   0.00888   0.00255  -0.1511  0.7846  0.0806  -1.2032   0.0000   0.0000   0.0000   0.5529
  -1.600   0.5114   0.00880   0.00250  -0.1509  0.7804  0.0888  -1.1442   0.0000   0.0000   0.0000   0.5463
  -1.500   0.5220   0.00876   0.00246  -0.1508  0.7761  0.0948  -1.0837   0.0000   0.0000   0.0000   0.5399
  -1.400   0.5329   0.00874   0.00242  -0.1507  0.7716  0.0996  -1.0231   0.0000   0.0000   0.0000   0.5336
  -1.300   0.5437   0.00875   0.00238  -0.1506  0.7669  0.1028  -0.9622   0.0000   0.0000   0.0000   0.5277
  -1.200   0.5544   0.00869   0.00232  -0.1505  0.7619  0.1130  -0.9051   0.0000   0.0000   0.0000   0.5219
  -1.100   0.5653   0.00867   0.00232  -0.1504  0.7563  0.1239  -0.8466   0.0000   0.0000   0.0000   0.5165
  -1.000   0.5761   0.00867   0.00232  -0.1504  0.7517  0.1321  -0.7948   0.0000   0.0000   0.0000   0.5113
  -0.900   0.5866   0.00868   0.00232  -0.1502  0.7489  0.1363  -0.8018   0.0000   0.0000   0.0000   0.5062
  -0.800   0.5968   0.00858   0.00229  -0.1500  0.7454  0.1526  -0.8092   0.0000   0.0000   0.0000   0.5014
  -0.700   0.6072   0.00854   0.00230  -0.1499  0.7412  0.1634  -0.8173   0.0000   0.0000   0.0000   0.4967
  -0.600   0.6177   0.00854   0.00228  -0.1497  0.7366  0.1708  -0.8254   0.0000   0.0000   0.0000   0.4921
  -0.500   0.6282   0.00851   0.00225  -0.1496  0.7314  0.1825  -0.8335   0.0000   0.0000   0.0000   0.4877
  -0.400   0.6386   0.00847   0.00223  -0.1494  0.7258  0.1963  -0.8416   0.0000   0.0000   0.0000   0.4835
  -0.300   0.6489   0.00847   0.00222  -0.1492  0.7198  0.2067  -0.8496   0.0000   0.0000   0.0000   0.4793
  -0.200   0.6591   0.00851   0.00220  -0.1490  0.7129  0.2144  -0.8576   0.0000   0.0000   0.0000   0.4753
  -0.100   0.6696   0.00850   0.00220  -0.1489  0.7057  0.2324  -0.8657   0.0000   0.0000   0.0000   0.4714
   0.000   0.6799   0.00846   0.00221  -0.1487  0.7027  0.2459  -0.8737   0.0000   0.0000   0.0000   0.4677
   0.100   0.6903   0.00845   0.00221  -0.1485  0.6987  0.2559  -0.8818   0.0000   0.0000   0.0000   0.4641
   0.200   0.7005   0.00840   0.00221  -0.1484  0.6940  0.2762  -0.8898   0.0000   0.0000   0.0000   0.4606
   0.300   0.7108   0.00838   0.00222  -0.1482  0.6889  0.2930  -0.8978   0.0000   0.0000   0.0000   0.4572
   0.400   0.7211   0.00837   0.00222  -0.1480  0.6836  0.3122  -0.9058   0.0000   0.0000   0.0000   0.4538
   0.500   0.7311   0.00834   0.00223  -0.1478  0.6779  0.3366  -0.9137   0.0000   0.0000   0.0000   0.4506
   0.600   0.7409   0.00831   0.00224  -0.1476  0.6718  0.3692  -0.9215   0.0000   0.0000   0.0000   0.4475
   0.700   0.7501   0.00821   0.00227  -0.1473  0.6650  0.4389  -0.9289   0.0000   0.0000   0.0000   0.4446
   0.900   0.7763   0.00723   0.00241  -0.1482  0.6547  1.0000  -0.9485   0.0000   0.0000   0.0000   0.4389
   1.000   0.7868   0.00726   0.00242  -0.1480  0.6515  1.0000  -0.9566   0.0000   0.0000   0.0000   0.4360
   1.100   0.7972   0.00730   0.00243  -0.1478  0.6475  1.0000  -0.9647   0.0000   0.0000   0.0000   0.4333
   1.200   0.8076   0.00734   0.00244  -0.1477  0.6430  1.0000  -0.9728   0.0000   0.0000   0.0000   0.4306
   1.300   0.8178   0.00739   0.00246  -0.1475  0.6381  1.0000  -0.9808   0.0000   0.0000   0.0000   0.4279
   1.400   0.8280   0.00745   0.00247  -0.1473  0.6328  1.0000  -0.9888   0.0000   0.0000   0.0000   0.4253
   1.500   0.8379   0.00752   0.00249  -0.1470  0.6274  1.0000  -0.9972   0.0000   0.0000   0.0000   0.4228
   1.600   0.8476   0.00760   0.00256  -0.1467  0.6214  1.0000  -1.0062   0.0000   0.0000   0.0000   0.4203
   1.700   0.8572   0.00770   0.00259  -0.1464  0.6143  1.0000  -1.0151   0.0000   0.0000   0.0000   0.4179
   1.800   0.8675   0.00781   0.00264  -0.1462  0.6064  1.0000  -1.0242   0.0000   0.0000   0.0000   0.4156
   1.900   0.8780   0.00784   0.00266  -0.1461  0.6043  1.0000  -1.0337   0.0000   0.0000   0.0000   0.4133
   2.000   0.8884   0.00787   0.00269  -0.1460  0.6017  1.0000  -1.0432   0.0000   0.0000   0.0000   0.4111
   2.100   0.8988   0.00791   0.00272  -0.1458  0.5984  1.0000  -1.0527   0.0000   0.0000   0.0000   0.4089
   2.200   0.9091   0.00796   0.00275  -0.1456  0.5947  1.0000  -1.0621   0.0000   0.0000   0.0000   0.4068
   2.300   0.9193   0.00802   0.00278  -0.1455  0.5906  1.0000  -1.0714   0.0000   0.0000   0.0000   0.4047
   2.400   0.9295   0.00808   0.00281  -0.1453  0.5864  1.0000  -1.0808   0.0000   0.0000   0.0000   0.4027
   2.500   0.9395   0.00815   0.00284  -0.1451  0.5821  1.0000  -1.0901   0.0000   0.0000   0.0000   0.4007
   2.600   0.9495   0.00822   0.00288  -0.1448  0.5778  1.0000  -1.0993   0.0000   0.0000   0.0000   0.3987
   2.700   0.9592   0.00831   0.00293  -0.1446  0.5733  1.0000  -1.1083   0.0000   0.0000   0.0000   0.3968
   2.800   0.9689   0.00841   0.00298  -0.1443  0.5683  1.0000  -1.1173   0.0000   0.0000   0.0000   0.3949
   2.900   0.9788   0.00851   0.00304  -0.1441  0.5628  1.0000  -1.1264   0.0000   0.0000   0.0000   0.3930
   3.000   0.9892   0.00863   0.00312  -0.1440  0.5571  1.0000  -1.1357   0.0000   0.0000   0.0000   0.3913
   3.100   1.0000   0.00872   0.00318  -0.1439  0.5536  1.0000  -1.1452   0.0000   0.0000   0.0000   0.3895
   3.200   1.0104   0.00875   0.00323  -0.1438  0.5526  1.0000  -1.1548   0.0000   0.0000   0.0000   0.3878
   3.300   1.0209   0.00879   0.00328  -0.1437  0.5512  1.0000  -1.1650   0.0000   0.0000   0.0000   0.3861
   3.400   1.0314   0.00884   0.00333  -0.1436  0.5497  1.0000  -1.1761   0.0000   0.0000   0.0000   0.3845
   3.500   1.0418   0.00888   0.00339  -0.1435  0.5480  1.0000  -1.1871   0.0000   0.0000   0.0000   0.3829
   3.600   1.0522   0.00893   0.00344  -0.1433  0.5460  1.0000  -1.1982   0.0000   0.0000   0.0000   0.3813
   3.700   1.0625   0.00898   0.00350  -0.1432  0.5437  1.0000  -1.2093   0.0000   0.0000   0.0000   0.3797
   3.800   1.0728   0.00903   0.00355  -0.1431  0.5411  1.0000  -1.2203   0.0000   0.0000   0.0000   0.3781
   3.900   1.0829   0.00909   0.00361  -0.1429  0.5382  1.0000  -1.2313   0.0000   0.0000   0.0000   0.3766
   4.000   1.0930   0.00916   0.00367  -0.1427  0.5352  1.0000  -1.2423   0.0000   0.0000   0.0000   0.3751
   4.100   1.1031   0.00923   0.00372  -0.1425  0.5322  1.0000  -1.2532   0.0000   0.0000   0.0000   0.3736
   4.200   1.1130   0.00931   0.00379  -0.1423  0.5292  1.0000  -1.2641   0.0000   0.0000   0.0000   0.3722
   4.300   1.1229   0.00939   0.00386  -0.1421  0.5263  1.0000  -1.2820   0.0000   0.0000   0.0000   0.3707
   4.400   1.1327   0.00948   0.00393  -0.1419  0.5233  1.0000  -1.3264   0.0000   0.0000   0.0000   0.3693
   4.500   1.1424   0.00957   0.00401  -0.1416  0.5200  1.0000  -1.3709   0.0000   0.0000   0.0000   0.3679
   4.600   1.1522   0.00968   0.00410  -0.1414  0.5164  1.0000  -1.4160   0.0000   0.0000   0.0000   0.3665
   4.700   1.1622   0.00980   0.00420  -0.1412  0.5125  1.0000  -1.4620   0.0000   0.0000   0.0000   0.3652
   4.800   1.1726   0.00993   0.00431  -0.1411  0.5077  1.0000  -1.5092   0.0000   0.0000   0.0000   0.3639
   4.900   1.1835   0.01010   0.00446  -0.1412  0.5014  1.0000  -1.5602   0.0000   0.0000   0.0000   0.3627
   5.000   1.1930   0.01010   0.00449  -0.1409  0.4999  1.0000  -1.6302   0.0000   0.0000   0.0000   0.3614
   5.100   1.2023   0.01010   0.00451  -0.1405  0.4976  1.0000  -1.7006   0.0000   0.0000   0.0000   0.3600
   5.200   1.2115   0.01010   0.00453  -0.1401  0.4941  1.0000  -1.7719   0.0000   0.0000   0.0000   0.3587
   5.300   1.2208   0.01013   0.00456  -0.1397  0.4891  1.0000  -1.8439   0.0000   0.0000   0.0000   0.3574
   5.400   1.2320   0.01024   0.00491  -0.1398  0.4911  1.0000  -1.9511   0.0000   0.0000   0.0000   0.3563
   5.500   1.2405   0.01027   0.00492  -0.1393  0.4834  1.0000  -2.0272   0.0000   0.0000   0.0000   0.3549
   5.600   1.2489   0.01036   0.00497  -0.1388  0.4765  1.0000  -2.1023   0.0000   0.0000   0.0000   0.3536
   5.700   1.2566   0.01048   0.00504  -0.1381  0.4688  1.0000  -2.1744   0.0000   0.0000   0.0000   0.3523
   5.800   1.2641   0.01065   0.00514  -0.1375  0.4598  1.0000  -2.2457   0.0000   0.0000   0.0000   0.3510
   5.900   1.2728   0.01083   0.00527  -0.1370  0.4502  1.0000  -2.3216   0.0000   0.0000   0.0000   0.3498
   6.000   1.2824   0.01088   0.00535  -0.1368  0.4471  1.0000  -2.4023   0.0000   0.0000   0.0000   0.3486
   6.100   1.2922   0.01091   0.00541  -0.1366  0.4453  1.0000  -2.4843   0.0000   0.0000   0.0000   0.3475
   6.200   1.3021   0.01095   0.00549  -0.1364  0.4430  1.0000  -2.5672   0.0000   0.0000   0.0000   0.3464
   6.300   1.3118   0.01100   0.00557  -0.1361  0.4402  1.0000  -2.6504   0.0000   0.0000   0.0000   0.3453
   6.400   1.3214   0.01106   0.00565  -0.1359  0.4366  1.0000  -2.7337   0.0000   0.0000   0.0000   0.3442
   6.500   1.3307   0.01113   0.00574  -0.1355  0.4322  1.0000  -2.8169   0.0000   0.0000   0.0000   0.3431
   6.600   1.3397   0.01122   0.00582  -0.1352  0.4269  1.0000  -2.8994   0.0000   0.0000   0.0000   0.3420
   6.700   1.3481   0.01133   0.00592  -0.1347  0.4207  1.0000  -2.9805   0.0000   0.0000   0.0000   0.3409
   6.800   1.3558   0.01148   0.00603  -0.1341  0.4137  1.0000  -3.0592   0.0000   0.0000   0.0000   0.3397
   6.900   1.3627   0.01164   0.00615  -0.1333  0.4055  1.0000  -3.1352   0.0000   0.0000   0.0000   0.3385
   7.000   1.3698   0.01182   0.00630  -0.1326  0.3962  1.0000  -3.2126   0.0000   0.0000   0.0000   0.3374
   7.100   1.3794   0.01188   0.00640  -0.1324  0.3929  1.0000  -3.3009   0.0000   0.0000   0.0000   0.3364
   7.200   1.3885   0.01196   0.00650  -0.1320  0.3873  1.0000  -3.3881   0.0000   0.0000   0.0000   0.3354
   7.300   1.3966   0.01209   0.00661  -0.1315  0.3779  1.0000  -3.4717   0.0000   0.0000   0.0000   0.3343
   7.400   1.4025   0.01229   0.00674  -0.1306  0.3638  1.0000  -3.5467   0.0000   0.0000   0.0000   0.3331
   7.500   1.4053   0.01262   0.00694  -0.1291  0.3450  1.0000  -3.6081   0.0000   0.0000   0.0000   0.3317
   7.600   1.4109   0.01286   0.00712  -0.1282  0.3275  1.0000  -3.6823   0.0000   0.0000   0.0000   0.3305
   7.700   1.4103   0.01333   0.00738  -0.1261  0.2997  1.0000  -3.7297   0.0000   0.0000   0.0000   0.3290
   7.800   1.4112   0.01377   0.00768  -0.1244  0.2724  1.0000  -3.7830   0.0000   0.0000   0.0000   0.3275
   7.900   1.4089   0.01440   0.00808  -0.1221  0.2401  1.0000  -3.8224   0.0000   0.0000   0.0000   0.3260
   8.000   1.4063   0.01508   0.00853  -0.1199  0.2080  1.0000  -3.8596   0.0000   0.0000   0.0000   0.3244
   8.100   1.4048   0.01573   0.00901  -0.1179  0.1773  1.0000  -3.9015   0.0000   0.0000   0.0000   0.3229
   8.200   1.4022   0.01646   0.00952  -0.1158  0.1470  1.0000  -3.9381   0.0000   0.0000   0.0000   0.3215
   8.300   1.3990   0.01722   0.01008  -0.1136  0.1193  1.0000  -3.9715   0.0000   0.0000   0.0000   0.3200
   8.400   1.3977   0.01789   0.01060  -0.1117  0.0981  1.0000  -4.0128   0.0000   0.0000   0.0000   0.3186
   8.500   1.3975   0.01849   0.01109  -0.1101  0.0804  1.0000  -4.0587   0.0000   0.0000   0.0000   0.3172
   8.600   1.3972   0.01910   0.01159  -0.1084  0.0675  1.0000  -4.1035   0.0000   0.0000   0.0000   0.3159
   8.700   1.3995   0.01957   0.01203  -0.1071  0.0570  1.0000  -4.1578   0.0000   0.0000   0.0000   0.3147
   8.800   1.4014   0.02005   0.01247  -0.1058  0.0516  1.0000  -4.2114   0.0000   0.0000   0.0000   0.3135
   8.900   1.4013   0.02065   0.01299  -0.1042  0.0447  1.0000  -4.2507   0.0000   0.0000   0.0000   0.3122
   9.000   1.3986   0.02146   0.01385  -0.1021  0.0369  1.0000  -4.2556   0.0000   0.0000   0.0000   0.3107
   9.100   1.4054   0.02165   0.01406  -0.1016  0.0362  1.0000  -4.3393   0.0000   0.0000   0.0000   0.3099
   9.200   1.4115   0.02189   0.01433  -0.1010  0.0348  1.0000  -4.4173   0.0000   0.0000   0.0000   0.3090
   9.300   1.4160   0.02224   0.01468  -0.1002  0.0320  1.0000  -4.4821   0.0000   0.0000   0.0000   0.3080
   9.500   1.3957   0.02498   0.01750  -0.0944  0.0171  1.0000  -4.2538   0.0000   0.0000   0.0000   0.3046
   9.600   1.3966   0.02559   0.01817  -0.0931  0.0167  1.0000  -4.2847   0.0000   0.0000   0.0000   0.3035
   9.700   1.3973   0.02621   0.01884  -0.0919  0.0163  1.0000  -4.3169   0.0000   0.0000   0.0000   0.3024
   9.800   1.3983   0.02683   0.01952  -0.0907  0.0160  1.0000  -4.3520   0.0000   0.0000   0.0000   0.3013
   9.900   1.3996   0.02746   0.02020  -0.0897  0.0157  1.0000  -4.3899   0.0000   0.0000   0.0000   0.3003
  10.000   1.4010   0.02810   0.02088  -0.0886  0.0154  1.0000  -4.4301   0.0000   0.0000   0.0000   0.2994
  10.100   1.4020   0.02878   0.02160  -0.0876  0.0151  1.0000  -4.4702   0.0000   0.0000   0.0000   0.2984
  10.200   1.4029   0.02948   0.02234  -0.0866  0.0149  1.0000  -4.5110   0.0000   0.0000   0.0000   0.2975
  10.500   1.3879   0.03331   0.02662  -0.0817  0.0159  1.0000  -4.4088   0.0000   0.0000   0.0000   0.2941
  10.600   1.3859   0.03438   0.02776  -0.0805  0.0160  1.0000  -4.4104   0.0000   0.0000   0.0000   0.2932
  10.700   1.3853   0.03535   0.02879  -0.0795  0.0160  1.0000  -4.4257   0.0000   0.0000   0.0000   0.2923
  10.800   1.3853   0.03628   0.02979  -0.0785  0.0160  1.0000  -4.4455   0.0000   0.0000   0.0000   0.2914
  10.900   1.3857   0.03720   0.03076  -0.0776  0.0160  1.0000  -4.4679   0.0000   0.0000   0.0000   0.2905
  11.000   1.3864   0.03809   0.03171  -0.0767  0.0160  1.0000  -4.4925   0.0000   0.0000   0.0000   0.2897
  11.100   1.3875   0.03897   0.03264  -0.0758  0.0160  1.0000  -4.5190   0.0000   0.0000   0.0000   0.2889
  11.200   1.3887   0.03985   0.03358  -0.0750  0.0160  1.0000  -4.5469   0.0000   0.0000   0.0000   0.2880
  11.300   1.3900   0.04073   0.03451  -0.0742  0.0160  1.0000  -4.5766   0.0000   0.0000   0.0000   0.2873
  11.400   1.3915   0.04158   0.03542  -0.0734  0.0160  1.0000  -4.6086   0.0000   0.0000   0.0000   0.2865
  11.500   1.3931   0.04240   0.03628  -0.0727  0.0159  1.0000  -4.6427   0.0000   0.0000   0.0000   0.2857
  11.600   1.3950   0.04319   0.03713  -0.0719  0.0158  1.0000  -4.6796   0.0000   0.0000   0.0000   0.2849
  11.700   1.3972   0.04398   0.03796  -0.0713  0.0157  1.0000  -4.7199   0.0000   0.0000   0.0000   0.2842
  11.800   1.3997   0.04476   0.03879  -0.0707  0.0156  1.0000  -4.7632   0.0000   0.0000   0.0000   0.2835
  11.900   1.4023   0.04553   0.03961  -0.0701  0.0154  1.0000  -4.8093   0.0000   0.0000   0.0000   0.2828
  12.000   1.4051   0.04631   0.04043  -0.0695  0.0152  1.0000  -4.8577   0.0000   0.0000   0.0000   0.2821
  12.100   1.4078   0.04710   0.04126  -0.0690  0.0150  1.0000  -4.9078   0.0000   0.0000   0.0000   0.2815
  12.200   1.4106   0.04789   0.04209  -0.0685  0.0148  1.0000  -4.9592   0.0000   0.0000   0.0000   0.2809
  12.300   1.4133   0.04869   0.04294  -0.0680  0.0146  1.0000  -5.0111   0.0000   0.0000   0.0000   0.2802
  12.400   1.4159   0.04951   0.04381  -0.0676  0.0144  1.0000  -5.0627   0.0000   0.0000   0.0000   0.2796
  12.500   1.4183   0.05038   0.04471  -0.0671  0.0142  1.0000  -5.1125   0.0000   0.0000   0.0000   0.2791
  12.600   1.4203   0.05130   0.04569  -0.0667  0.0141  1.0000  -5.1583   0.0000   0.0000   0.0000   0.2785
  12.700   1.4222   0.05227   0.04671  -0.0662  0.0140  1.0000  -5.2001   0.0000   0.0000   0.0000   0.2779
  12.800   1.4241   0.05329   0.04780  -0.0657  0.0139  1.0000  -5.2362   0.0000   0.0000   0.0000   0.2773
  12.900   1.4261   0.05437   0.04894  -0.0652  0.0139  1.0000  -5.2669   0.0000   0.0000   0.0000   0.2767
  13.000   1.4279   0.05547   0.05012  -0.0647  0.0139  1.0000  -5.2966   0.0000   0.0000   0.0000   0.2761
  13.100   1.4295   0.05661   0.05133  -0.0642  0.0139  1.0000  -5.3254   0.0000   0.0000   0.0000   0.2755
  13.200   1.4308   0.05779   0.05257  -0.0637  0.0139  1.0000  -5.3530   0.0000   0.0000   0.0000   0.2750
  13.300   1.4318   0.05899   0.05385  -0.0633  0.0139  1.0000  -5.3794   0.0000   0.0000   0.0000   0.2745
  13.400   1.4325   0.06023   0.05516  -0.0629  0.0138  1.0000  -5.4047   0.0000   0.0000   0.0000   0.2740
  13.500   1.4329   0.06150   0.05650  -0.0625  0.0138  1.0000  -5.4287   0.0000   0.0000   0.0000   0.2735
  13.600   1.4331   0.06280   0.05787  -0.0621  0.0138  1.0000  -5.4515   0.0000   0.0000   0.0000   0.2730
  13.700   1.4329   0.06412   0.05927  -0.0618  0.0138  1.0000  -5.4729   0.0000   0.0000   0.0000   0.2726
  13.800   1.4323   0.06548   0.06071  -0.0614  0.0138  1.0000  -5.4929   0.0000   0.0000   0.0000   0.2722
  13.900   1.4310   0.06692   0.06221  -0.0612  0.0138  1.0000  -5.5094   0.0000   0.0000   0.0000   0.2719
  14.000   1.4288   0.06843   0.06380  -0.0610  0.0137  1.0000  -5.5220   0.0000   0.0000   0.0000   0.2716
  14.100   1.4265   0.06996   0.06541  -0.0608  0.0137  1.0000  -5.5339   0.0000   0.0000   0.0000   0.2714
  14.200   1.4242   0.07150   0.06702  -0.0607  0.0137  1.0000  -5.5456   0.0000   0.0000   0.0000   0.2712
  14.300   1.4218   0.07304   0.06863  -0.0606  0.0137  1.0000  -5.5568   0.0000   0.0000   0.0000   0.2710
  14.400   1.4192   0.07460   0.07027  -0.0606  0.0136  1.0000  -5.5669   0.0000   0.0000   0.0000   0.2709
  14.500   1.4165   0.07619   0.07193  -0.0606  0.0136  1.0000  -5.5758   0.0000   0.0000   0.0000   0.2708
  14.600   1.4131   0.07785   0.07366  -0.0607  0.0136  1.0000  -5.5813   0.0000   0.0000   0.0000   0.2707
  14.700   1.4085   0.07963   0.07552  -0.0609  0.0136  1.0000  -5.5805   0.0000   0.0000   0.0000   0.2708
  14.800   1.4041   0.08141   0.07737  -0.0611  0.0136  1.0000  -5.5802   0.0000   0.0000   0.0000   0.2709
  14.900   1.4000   0.08317   0.07920  -0.0614  0.0135  1.0000  -5.5807   0.0000   0.0000   0.0000   0.2710
  15.000   1.3959   0.08489   0.08099  -0.0617  0.0135  1.0000  -5.5806   0.0000   0.0000   0.0000   0.2712
  15.100   1.3915   0.08656   0.08273  -0.0621  0.0135  1.0000  -5.5788   0.0000   0.0000   0.0000   0.2714
  15.200   1.3863   0.08834   0.08458  -0.0626  0.0135  1.0000  -5.5719   0.0000   0.0000   0.0000   0.2717
  15.300   1.3802   0.09030   0.08662  -0.0632  0.0135  1.0000  -5.5607   0.0000   0.0000   0.0000   0.2722
  15.400   1.3747   0.09224   0.08863  -0.0639  0.0135  1.0000  -5.5604   0.0000   0.0000   0.0000   0.2726
  15.500   1.3696   0.09419   0.09065  -0.0646  0.0134  1.0000  -5.5616   0.0000   0.0000   0.0000   0.2731
  15.600   1.3645   0.09620   0.09273  -0.0653  0.0134  1.0000  -5.5616   0.0000   0.0000   0.0000   0.2736
  15.700   1.3588   0.09835   0.09495  -0.0662  0.0134  1.0000  -5.5557   0.0000   0.0000   0.0000   0.2743
  15.800   1.3515   0.10082   0.09750  -0.0673  0.0134  1.0000  -5.5336   0.0000   0.0000   0.0000   0.2752
  15.900   1.3450   0.10325   0.09999  -0.0684  0.0134  1.0000  -5.5170   0.0000   0.0000   0.0000   0.2760
  16.000   1.3390   0.10567   0.10248  -0.0696  0.0134  1.0000  -5.5025   0.0000   0.0000   0.0000   0.2769
  16.100   1.3328   0.10815   0.10504  -0.0707  0.0135  1.0000  -5.4852   0.0000   0.0000   0.0000   0.2778
  16.200   1.3255   0.11093   0.10788  -0.0722  0.0135  1.0000  -5.4546   0.0000   0.0000   0.0000   0.2790
  16.300   1.3169   0.11405   0.11107  -0.0739  0.0135  1.0000  -5.4100   0.0000   0.0000   0.0000   0.2805
  16.400   1.3096   0.11702   0.11412  -0.0754  0.0136  1.0000  -5.3738   0.0000   0.0000   0.0000   0.2818
  16.500   1.3024   0.12003   0.11720  -0.0770  0.0136  1.0000  -5.3363   0.0000   0.0000   0.0000   0.2832
  16.600   1.2947   0.12326   0.12050  -0.0788  0.0136  1.0000  -5.2910   0.0000   0.0000   0.0000   0.2847
  16.700   1.2840   0.12728   0.12459  -0.0812  0.0137  1.0000  -5.2107   0.0000   0.0000   0.0000   0.2870
  16.800   1.2748   0.13108   0.12846  -0.0834  0.0138  1.0000  -5.1416   0.0000   0.0000   0.0000   0.2890
  16.900   1.2659   0.13498   0.13243  -0.0856  0.0139  1.0000  -5.0708   0.0000   0.0000   0.0000   0.2911
  17.000   1.2550   0.13955   0.13707  -0.0883  0.0140  1.0000  -4.9715   0.0000   0.0000   0.0000   0.2937
  17.100   1.2422   0.14482   0.14242  -0.0914  0.0142  1.0000  -4.8440   0.0000   0.0000   0.0000   0.2969
  17.200   1.2307   0.15004   0.14771  -0.0944  0.0144  1.0000  -4.7207   0.0000   0.0000   0.0000   0.2999
  17.300   1.2144   0.15701   0.15476  -0.0985  0.0146  1.0000  -4.5257   0.0000   0.0000   0.0000   0.3044
  17.400   1.1985   0.16438   0.16220  -0.1026  0.0149  1.0000  -4.3236   0.0000   0.0000   0.0000   0.3089
  17.500   1.1758   0.17501   0.17290  -0.1082  0.0155  1.0000  -4.0182   0.0000   0.0000   0.0000   0.3156
  17.600   1.1418   0.19277   0.19070  -0.1160  0.0166  1.0000  -3.4251   0.0000   0.0000   0.0000   0.3259
  17.700   1.1288   0.20148   0.19939  -0.1194  0.0172  1.0000  -3.1693   0.0000   0.0000   0.0000   0.3302
  17.800   1.1201   0.20802   0.20592  -0.1218  0.0176  1.0000  -2.9986   0.0000   0.0000   0.0000   0.3333
  18.000   1.0898   0.22611   0.22397  -0.1269  0.0194  1.0000  -2.4562   0.0000   0.0000   0.0000   0.3413
  18.100   1.0890   0.22932   0.22719  -0.1280  0.0194  1.0000  -2.4230   0.0000   0.0000   0.0000   0.3423
  18.200   1.0882   0.23248   0.23034  -0.1290  0.0194  1.0000  -2.3917   0.0000   0.0000   0.0000   0.3432
  18.300   1.0875   0.23559   0.23345  -0.1300  0.0194  1.0000  -2.3621   0.0000   0.0000   0.0000   0.3441
  18.400   1.0868   0.23865   0.23652  -0.1310  0.0194  1.0000  -2.3340   0.0000   0.0000   0.0000   0.3449
  18.500   1.0862   0.24168   0.23955  -0.1320  0.0194  1.0000  -2.3072   0.0000   0.0000   0.0000   0.3458
  18.600   1.0855   0.24467   0.24254  -0.1329  0.0194  1.0000  -2.2889   0.0000   0.0000   0.0000   0.3466
  18.700   1.0849   0.24762   0.24550  -0.1338  0.0194  1.0000  -2.2794   0.0000   0.0000   0.0000   0.3473
  18.800   1.0843   0.25055   0.24843  -0.1347  0.0194  1.0000  -2.2708   0.0000   0.0000   0.0000   0.3481
  18.900   1.0837   0.25345   0.25133  -0.1356  0.0194  1.0000  -2.2628   0.0000   0.0000   0.0000   0.3488
  19.000   1.0830   0.25632   0.25420  -0.1364  0.0194  1.0000  -2.2555   0.0000   0.0000   0.0000   0.3496
  19.100   1.0823   0.25916   0.25705  -0.1373  0.0193  1.0000  -2.2485   0.0000   0.0000   0.0000   0.3503
  19.200   1.0816   0.26197   0.25987  -0.1381  0.0193  1.0000  -2.2418   0.0000   0.0000   0.0000   0.3510
  19.300   1.0808   0.26476   0.26266  -0.1389  0.0193  1.0000  -2.2354   0.0000   0.0000   0.0000   0.3516
  19.400   1.0799   0.26752   0.26542  -0.1396  0.0193  1.0000  -2.2290   0.0000   0.0000   0.0000   0.3523
  19.500   1.0789   0.27024   0.26815  -0.1404  0.0193  1.0000  -2.2225   0.0000   0.0000   0.0000   0.3530
  19.600   1.0779   0.27294   0.27085  -0.1411  0.0193  1.0000  -2.2158   0.0000   0.0000   0.0000   0.3536
  19.700   1.0767   0.27559   0.27351  -0.1418  0.0192  1.0000  -2.2087   0.0000   0.0000   0.0000   0.3543
  19.800   1.0754   0.27820   0.27613  -0.1425  0.0192  1.0000  -2.2010   0.0000   0.0000   0.0000   0.3549
  19.900   1.0740   0.28076   0.27869  -0.1432  0.0192  1.0000  -2.1925   0.0000   0.0000   0.0000   0.3556
  20.000   1.0724   0.28325   0.28119  -0.1438  0.0191  1.0000  -2.1830   0.0000   0.0000   0.0000   0.3562
  20.100   1.0708   0.28565   0.28359  -0.1444  0.0190  1.0000  -2.1727   0.0000   0.0000   0.0000   0.3569
  20.200   1.0693   0.28788   0.28583  -0.1450  0.0189  1.0000  -2.1633   0.0000   0.0000   0.0000   0.3575
  20.300   1.0851   0.28587   0.28382  -0.1461  0.0157  1.0000  -2.3439   0.0000   0.0000   0.0000   0.3562
  20.400   1.0832   0.28837   0.28633  -0.1469  0.0146  1.0000  -2.3285   0.0000   0.0000   0.0000   0.3570
  20.500   1.0816   0.29047   0.28844  -0.1475  0.0135  1.0000  -2.3324   0.0000   0.0000   0.0000   0.3576
  20.600   1.0807   0.29202   0.28999  -0.1480  0.0124  1.0000  -2.3643   0.0000   0.0000   0.0000   0.3579
  20.700   1.0809   0.29296   0.29094  -0.1483  0.0114  1.0000  -2.4290   0.0000   0.0000   0.0000   0.3579
  20.800   1.0826   0.29325   0.29124  -0.1485  0.0106  1.0000  -2.5321   0.0000   0.0000   0.0000   0.3576
  20.900   1.0854   0.29306   0.29106  -0.1486  0.0100  1.0000  -2.6658   0.0000   0.0000   0.0000   0.3569
  21.000   1.0880   0.29287   0.29088  -0.1487  0.0095  1.0000  -2.8020   0.0000   0.0000   0.0000   0.3564
  21.100   1.0882   0.29332   0.29134  -0.1489  0.0091  1.0000  -2.8983   0.0000   0.0000   0.0000   0.3563
  21.200   1.0868   0.29394   0.29197  -0.1492  0.0087  1.0000  -2.9783   0.0000   0.0000   0.0000   0.3563
  21.300   1.0306   0.28814   0.28626  -0.1449  0.0089  1.0000  -2.6750   0.0000   0.0000   0.0000   0.3603
  21.400   1.0232   0.28769   0.28582  -0.1446  0.0084  1.0000  -2.6987   0.0000   0.0000   0.0000   0.3609
  21.500   0.9812   0.28968   0.28781  -0.1441  0.0073  1.0000  -2.1918   0.0000   0.0000   0.0000   0.3672
  21.600   0.9817   0.29017   0.28831  -0.1445  0.0071  1.0000  -2.2461   0.0000   0.0000   0.0000   0.3673
  21.700   0.9808   0.29072   0.28887  -0.1448  0.0069  1.0000  -2.2728   0.0000   0.0000   0.0000   0.3676
  21.800   0.9787   0.29135   0.28951  -0.1450  0.0068  1.0000  -2.2748   0.0000   0.0000   0.0000   0.3680
  21.900   0.9757   0.29209   0.29025  -0.1452  0.0066  1.0000  -2.2526   0.0000   0.0000   0.0000   0.3686
  22.000   0.9718   0.29292   0.29109  -0.1454  0.0064  1.0000  -2.2103   0.0000   0.0000   0.0000   0.3693
  22.100   0.9675   0.29382   0.29200  -0.1456  0.0063  1.0000  -2.1556   0.0000   0.0000   0.0000   0.3701
  22.200   0.9631   0.29475   0.29294  -0.1458  0.0062  1.0000  -2.0954   0.0000   0.0000   0.0000   0.3709
  22.300   0.9587   0.29569   0.29389  -0.1460  0.0062  1.0000  -2.0346   0.0000   0.0000   0.0000   0.3717
  22.400   0.9545   0.29663   0.29483  -0.1462  0.0062  1.0000  -1.9751   0.0000   0.0000   0.0000   0.3725
  22.500   0.9504   0.29757   0.29577  -0.1464  0.0063  1.0000  -1.9171   0.0000   0.0000   0.0000   0.3733
  22.600   0.9464   0.29850   0.29671  -0.1466  0.0064  1.0000  -1.8598   0.0000   0.0000   0.0000   0.3741
  22.700   0.9423   0.29943   0.29766  -0.1468  0.0065  1.0000  -1.8004   0.0000   0.0000   0.0000   0.3749
  22.800   0.9376   0.30040   0.29863  -0.1469  0.0067  1.0000  -1.7294   0.0000   0.0000   0.0000   0.3758
  22.900   0.9269   0.30163   0.29987  -0.1464  0.0073  1.0000  -1.5496   0.0000   0.0000   0.0000   0.3772
  23.000   0.9245   0.30247   0.30071  -0.1466  0.0073  1.0000  -1.5207   0.0000   0.0000   0.0000   0.3777
  23.100   0.9224   0.30330   0.30154  -0.1468  0.0074  1.0000  -1.4977   0.0000   0.0000   0.0000   0.3782
  23.200   0.9205   0.30412   0.30238  -0.1470  0.0074  1.0000  -1.4773   0.0000   0.0000   0.0000   0.3786
  23.300   0.9188   0.30495   0.30321  -0.1473  0.0074  1.0000  -1.4585   0.0000   0.0000   0.0000   0.3790
  23.400   0.9171   0.30578   0.30404  -0.1475  0.0074  1.0000  -1.4410   0.0000   0.0000   0.0000   0.3794
  23.500   0.9156   0.30660   0.30487  -0.1478  0.0074  1.0000  -1.4244   0.0000   0.0000   0.0000   0.3799
  23.600   0.9142   0.30743   0.30571  -0.1481  0.0074  1.0000  -1.4086   0.0000   0.0000   0.0000   0.3803
  23.700   0.9128   0.30826   0.30654  -0.1483  0.0074  1.0000  -1.3934   0.0000   0.0000   0.0000   0.3806
  23.800   0.9115   0.30909   0.30737  -0.1486  0.0074  1.0000  -1.3789   0.0000   0.0000   0.0000   0.3810
  23.900   0.9103   0.30992   0.30821  -0.1489  0.0074  1.0000  -1.3649   0.0000   0.0000   0.0000   0.3814
  24.000   0.9091   0.31074   0.30904  -0.1492  0.0074  1.0000  -1.3513   0.0000   0.0000   0.0000   0.3818
  24.100   0.9080   0.31157   0.30988  -0.1495  0.0074  1.0000  -1.3382   0.0000   0.0000   0.0000   0.3821
  24.200   0.9069   0.31240   0.31071  -0.1498  0.0074  1.0000  -1.3256   0.0000   0.0000   0.0000   0.3825
  24.300   0.9059   0.31323   0.31155  -0.1501  0.0074  1.0000  -1.3132   0.0000   0.0000   0.0000   0.3828
  24.400   0.9049   0.31406   0.31238  -0.1504  0.0074  1.0000  -1.3013   0.0000   0.0000   0.0000   0.3832
  24.500   0.9039   0.31489   0.31322  -0.1507  0.0074  1.0000  -1.2897   0.0000   0.0000   0.0000   0.3835
  24.600   0.9030   0.31572   0.31405  -0.1510  0.0074  1.0000  -1.2784   0.0000   0.0000   0.0000   0.3839
  24.700   0.9021   0.31655   0.31489  -0.1513  0.0074  1.0000  -1.2674   0.0000   0.0000   0.0000   0.3842
  24.800   0.9013   0.31738   0.31572  -0.1516  0.0074  1.0000  -1.2566   0.0000   0.0000   0.0000   0.3845
  24.900   0.9005   0.31821   0.31656  -0.1519  0.0074  1.0000  -1.2462   0.0000   0.0000   0.0000   0.3848
  25.000   0.8997   0.31904   0.31739  -0.1522  0.0074  1.0000  -1.2360   0.0000   0.0000   0.0000   0.3851
  25.100   0.8990   0.31987   0.31822  -0.1525  0.0074  1.0000  -1.2260   0.0000   0.0000   0.0000   0.3855
  25.200   0.8982   0.32069   0.31906  -0.1528  0.0074  1.0000  -1.2162   0.0000   0.0000   0.0000   0.3858
  25.300   0.8975   0.32152   0.31989  -0.1532  0.0074  1.0000  -1.2066   0.0000   0.0000   0.0000   0.3861
  25.400   0.8968   0.32235   0.32072  -0.1535  0.0074  1.0000  -1.1972   0.0000   0.0000   0.0000   0.3864
  25.500   0.8962   0.32318   0.32155  -0.1538  0.0074  1.0000  -1.1879   0.0000   0.0000   0.0000   0.3867
  25.600   0.8955   0.32400   0.32239  -0.1541  0.0074  1.0000  -1.1789   0.0000   0.0000   0.0000   0.3870
  25.700   0.8949   0.32483   0.32322  -0.1545  0.0074  1.0000  -1.1701   0.0000   0.0000   0.0000   0.3873
  25.800   0.8943   0.32566   0.32405  -0.1548  0.0074  1.0000  -1.1614   0.0000   0.0000   0.0000   0.3876
  25.900   0.8937   0.32648   0.32488  -0.1551  0.0074  1.0000  -1.1530   0.0000   0.0000   0.0000   0.3878
  26.000   0.8932   0.32731   0.32571  -0.1554  0.0074  1.0000  -1.1447   0.0000   0.0000   0.0000   0.3881
  26.100   0.8926   0.32813   0.32654  -0.1558  0.0074  1.0000  -1.1365   0.0000   0.0000   0.0000   0.3884
  26.200   0.8921   0.32895   0.32737  -0.1561  0.0074  1.0000  -1.1286   0.0000   0.0000   0.0000   0.3887
  26.300   0.8916   0.32978   0.32820  -0.1564  0.0074  1.0000  -1.1207   0.0000   0.0000   0.0000   0.3889
  26.400   0.8911   0.33060   0.32902  -0.1568  0.0074  1.0000  -1.1131   0.0000   0.0000   0.0000   0.3892
  26.500   0.8906   0.33142   0.32985  -0.1571  0.0073  1.0000  -1.1055   0.0000   0.0000   0.0000   0.3895
  26.600   0.8901   0.33224   0.33068  -0.1575  0.0073  1.0000  -1.0981   0.0000   0.0000   0.0000   0.3898
  26.700   0.8896   0.33306   0.33150  -0.1578  0.0073  1.0000  -1.0909   0.0000   0.0000   0.0000   0.3900
  26.800   0.8892   0.33388   0.33233  -0.1581  0.0073  1.0000  -1.0837   0.0000   0.0000   0.0000   0.3903
  26.900   0.8888   0.33470   0.33315  -0.1585  0.0073  1.0000  -1.0767   0.0000   0.0000   0.0000   0.3905


