xflr5 v6.61

 Calculated polar for: NACA65-015

 1 1 Reynolds number fixed          Mach number fixed         

 xtrf =   1.000 (top)        1.000 (bottom)
 Mach =   0.000     Re =     0.450 e 6     Ncrit =   9.000

  alpha     CL        CD       CDp       Cm    Top Xtr Bot Xtr   Cpmin    Chinge    XCp    
 ------- -------- --------- --------- -------- ------- ------- -------- --------- ---------
 -10.000  -0.9250   0.02607   0.01975  -0.0205  1.0000  0.0244  -4.8767   0.0000   0.0000   0.0000   0.2160
  -9.900  -0.9144   0.02563   0.01926  -0.0208  0.9882  0.0246  -4.7968   0.0000   0.0000   0.0000   0.2156
  -9.800  -0.9016   0.02519   0.01876  -0.0215  0.9781  0.0248  -4.7072   0.0000   0.0000   0.0000   0.2145
  -9.700  -0.8897   0.02482   0.01831  -0.0220  0.9700  0.0249  -4.6197   0.0000   0.0000   0.0000   0.2137
  -9.600  -0.8799   0.02452   0.01795  -0.0221  0.9617  0.0251  -4.5389   0.0000   0.0000   0.0000   0.2135
  -9.500  -0.8656   0.02355   0.01696  -0.0226  0.9600  0.0255  -4.4718   0.0000   0.0000   0.0000   0.2125
  -9.400  -0.8548   0.02290   0.01631  -0.0226  0.9552  0.0258  -4.4091   0.0000   0.0000   0.0000   0.2123
  -9.300  -0.8471   0.02249   0.01590  -0.0221  0.9483  0.0261  -4.3472   0.0000   0.0000   0.0000   0.2127
  -9.200  -0.8409   0.02218   0.01557  -0.0215  0.9414  0.0264  -4.2863   0.0000   0.0000   0.0000   0.2134
  -9.100  -0.8351   0.02192   0.01529  -0.0207  0.9348  0.0267  -4.2256   0.0000   0.0000   0.0000   0.2142
  -9.000  -0.8294   0.02168   0.01502  -0.0199  0.9289  0.0270  -4.1649   0.0000   0.0000   0.0000   0.2151
  -8.900  -0.8236   0.02144   0.01476  -0.0192  0.9235  0.0274  -4.1048   0.0000   0.0000   0.0000   0.2160
  -8.800  -0.8172   0.02120   0.01449  -0.0186  0.9181  0.0278  -4.0436   0.0000   0.0000   0.0000   0.2167
  -8.700  -0.8109   0.02096   0.01422  -0.0179  0.9135  0.0281  -3.9844   0.0000   0.0000   0.0000   0.2175
  -8.600  -0.8042   0.02071   0.01394  -0.0173  0.9088  0.0285  -3.9247   0.0000   0.0000   0.0000   0.2181
  -8.500  -0.7976   0.02045   0.01364  -0.0166  0.9046  0.0289  -3.8664   0.0000   0.0000   0.0000   0.2189
  -8.400  -0.7907   0.02019   0.01334  -0.0161  0.9003  0.0292  -3.8085   0.0000   0.0000   0.0000   0.2195
  -8.300  -0.7841   0.01993   0.01304  -0.0154  0.8966  0.0295  -3.7523   0.0000   0.0000   0.0000   0.2203
  -8.200  -0.7771   0.01966   0.01274  -0.0149  0.8925  0.0297  -3.6949   0.0000   0.0000   0.0000   0.2209
  -8.100  -0.7706   0.01943   0.01247  -0.0142  0.8891  0.0300  -3.6390   0.0000   0.0000   0.0000   0.2217
  -8.000  -0.7636   0.01920   0.01220  -0.0137  0.8852  0.0302  -3.5811   0.0000   0.0000   0.0000   0.2224
  -7.900  -0.7568   0.01900   0.01196  -0.0130  0.8816  0.0304  -3.5232   0.0000   0.0000   0.0000   0.2231
  -7.800  -0.7502   0.01878   0.01171  -0.0124  0.8785  0.0306  -3.4668   0.0000   0.0000   0.0000   0.2240
  -7.700  -0.7459   0.01825   0.01117  -0.0115  0.8744  0.0310  -3.4264   0.0000   0.0000   0.0000   0.2252
  -7.600  -0.7409   0.01786   0.01076  -0.0107  0.8711  0.0314  -3.3780   0.0000   0.0000   0.0000   0.2263
  -7.500  -0.7349   0.01754   0.01042  -0.0100  0.8680  0.0318  -3.3235   0.0000   0.0000   0.0000   0.2272
  -7.400  -0.7279   0.01726   0.01014  -0.0095  0.8643  0.0322  -3.2648   0.0000   0.0000   0.0000   0.2278
  -7.300  -0.7209   0.01702   0.00987  -0.0090  0.8612  0.0327  -3.2055   0.0000   0.0000   0.0000   0.2285
  -7.200  -0.7137   0.01679   0.00961  -0.0085  0.8585  0.0331  -3.1458   0.0000   0.0000   0.0000   0.2292
  -7.100  -0.7058   0.01656   0.00937  -0.0081  0.8550  0.0337  -3.0848   0.0000   0.0000   0.0000   0.2297
  -7.000  -0.6981   0.01634   0.00913  -0.0077  0.8520  0.0342  -3.0249   0.0000   0.0000   0.0000   0.2303
  -6.900  -0.6904   0.01614   0.00889  -0.0072  0.8495  0.0348  -2.9655   0.0000   0.0000   0.0000   0.2310
  -6.800  -0.6822   0.01594   0.00867  -0.0069  0.8466  0.0353  -2.9050   0.0000   0.0000   0.0000   0.2314
  -6.700  -0.6735   0.01576   0.00846  -0.0066  0.8436  0.0360  -2.8429   0.0000   0.0000   0.0000   0.2318
  -6.600  -0.6648   0.01560   0.00827  -0.0063  0.8409  0.0365  -2.7858   0.0000   0.0000   0.0000   0.2323
  -6.500  -0.6590   0.01522   0.00788  -0.0056  0.8386  0.0376  -2.7454   0.0000   0.0000   0.0000   0.2333
  -6.400  -0.6509   0.01498   0.00765  -0.0052  0.8358  0.0386  -2.6936   0.0000   0.0000   0.0000   0.2338
  -6.300  -0.6421   0.01480   0.00745  -0.0050  0.8329  0.0397  -2.6397   0.0000   0.0000   0.0000   0.2342
  -6.200  -0.6333   0.01462   0.00726  -0.0047  0.8304  0.0408  -2.5871   0.0000   0.0000   0.0000   0.2346
  -6.100  -0.6244   0.01446   0.00707  -0.0044  0.8282  0.0419  -2.5354   0.0000   0.0000   0.0000   0.2351
  -6.000  -0.6155   0.01429   0.00686  -0.0041  0.8258  0.0430  -2.4852   0.0000   0.0000   0.0000   0.2355
  -5.900  -0.6074   0.01401   0.00659  -0.0038  0.8229  0.0448  -2.4375   0.0000   0.0000   0.0000   0.2361
  -5.800  -0.5985   0.01382   0.00640  -0.0035  0.8202  0.0467  -2.3856   0.0000   0.0000   0.0000   0.2365
  -5.700  -0.5893   0.01367   0.00621  -0.0033  0.8180  0.0489  -2.3340   0.0000   0.0000   0.0000   0.2369
  -5.600  -0.5809   0.01345   0.00600  -0.0029  0.8160  0.0521  -2.2857   0.0000   0.0000   0.0000   0.2375
  -5.500  -0.5717   0.01325   0.00581  -0.0027  0.8133  0.0567  -2.2353   0.0000   0.0000   0.0000   0.2379
  -5.400  -0.5634   0.01297   0.00559  -0.0024  0.8106  0.0656  -2.1882   0.0000   0.0000   0.0000   0.2385
  -5.300  -0.5564   0.01258   0.00534  -0.0019  0.8082  0.0870  -2.1445   0.0000   0.0000   0.0000   0.2393
  -5.200  -0.5512   0.01203   0.00502  -0.0013  0.8060  0.1324  -2.1049   0.0000   0.0000   0.0000   0.2406
  -5.000  -0.5416   0.01082   0.00440   0.0000  0.8015  0.2537  -2.0246   0.0000   0.0000   0.0000   0.2431
  -4.900  -0.5371   0.01017   0.00407   0.0007  0.7989  0.3234  -1.9844   0.0000   0.0000   0.0000   0.2445
  -4.800  -0.5332   0.00948   0.00375   0.0015  0.7966  0.3995  -1.9452   0.0000   0.0000   0.0000   0.2461
  -4.700  -0.5280   0.00898   0.00357   0.0023  0.7945  0.4720  -1.9019   0.0000   0.0000   0.0000   0.2477
  -4.600  -0.5198   0.00877   0.00351   0.0027  0.7928  0.5138  -1.8502   0.0000   0.0000   0.0000   0.2488
  -4.500  -0.5100   0.00867   0.00348   0.0029  0.7906  0.5380  -1.7943   0.0000   0.0000   0.0000   0.2493
  -4.400  -0.4995   0.00862   0.00346   0.0030  0.7883  0.5547  -1.7374   0.0000   0.0000   0.0000   0.2496
  -4.300  -0.4888   0.00859   0.00344   0.0031  0.7861  0.5669  -1.6870   0.0000   0.0000   0.0000   0.2500
  -4.200  -0.4779   0.00858   0.00341   0.0031  0.7841  0.5770  -1.6363   0.0000   0.0000   0.0000   0.2502
  -4.100  -0.4671   0.00856   0.00339   0.0031  0.7823  0.5849  -1.5861   0.0000   0.0000   0.0000   0.2506
  -4.000  -0.4561   0.00856   0.00335   0.0032  0.7806  0.5919  -1.5358   0.0000   0.0000   0.0000   0.2508
  -3.900  -0.4450   0.00855   0.00335   0.0031  0.7785  0.5979  -1.4857   0.0000   0.0000   0.0000   0.2510
  -3.800  -0.4337   0.00855   0.00332   0.0031  0.7764  0.6044  -1.4356   0.0000   0.0000   0.0000   0.2511
  -3.700  -0.4227   0.00854   0.00332   0.0031  0.7743  0.6096  -1.3862   0.0000   0.0000   0.0000   0.2513
  -3.600  -0.4115   0.00854   0.00331   0.0031  0.7725  0.6152  -1.3371   0.0000   0.0000   0.0000   0.2515
  -3.500  -0.4003   0.00855   0.00328   0.0030  0.7708  0.6205  -1.2883   0.0000   0.0000   0.0000   0.2517
  -3.400  -0.3893   0.00856   0.00329   0.0031  0.7693  0.6259  -1.2402   0.0000   0.0000   0.0000   0.2521
  -3.300  -0.3783   0.00861   0.00329   0.0031  0.7678  0.6337  -1.1926   0.0000   0.0000   0.0000   0.2525
  -3.200  -0.3674   0.00864   0.00337   0.0032  0.7657  0.6412  -1.1452   0.0000   0.0000   0.0000   0.2530
  -3.100  -0.3565   0.00870   0.00343   0.0033  0.7637  0.6497  -1.0985   0.0000   0.0000   0.0000   0.2536
  -3.000  -0.3456   0.00877   0.00352   0.0034  0.7617  0.6570  -1.0520   0.0000   0.0000   0.0000   0.2543
  -2.900  -0.3347   0.00883   0.00355   0.0035  0.7599  0.6633  -1.0062   0.0000   0.0000   0.0000   0.2549
  -2.800  -0.3235   0.00886   0.00361   0.0036  0.7583  0.6675  -0.9602   0.0000   0.0000   0.0000   0.2555
  -2.700  -0.3122   0.00890   0.00362   0.0036  0.7567  0.6712  -0.9149   0.0000   0.0000   0.0000   0.2560
  -2.600  -0.3010   0.00893   0.00360   0.0035  0.7553  0.6744  -0.8702   0.0000   0.0000   0.0000   0.2563
  -2.500  -0.2895   0.00892   0.00359   0.0034  0.7533  0.6769  -0.8257   0.0000   0.0000   0.0000   0.2564
  -2.400  -0.2780   0.00891   0.00359   0.0033  0.7514  0.6789  -0.7815   0.0000   0.0000   0.0000   0.2566
  -2.300  -0.2664   0.00891   0.00359   0.0032  0.7496  0.6809  -0.7377   0.0000   0.0000   0.0000   0.2568
  -2.200  -0.2549   0.00891   0.00358   0.0031  0.7479  0.6829  -0.6965   0.0000   0.0000   0.0000   0.2570
  -2.100  -0.2434   0.00891   0.00356   0.0030  0.7464  0.6849  -0.6588   0.0000   0.0000   0.0000   0.2572
  -2.000  -0.2319   0.00891   0.00353   0.0029  0.7449  0.6867  -0.6216   0.0000   0.0000   0.0000   0.2573
  -1.900  -0.2205   0.00891   0.00349   0.0028  0.7435  0.6884  -0.5849   0.0000   0.0000   0.0000   0.2575
  -1.800  -0.2089   0.00891   0.00345   0.0026  0.7420  0.6899  -0.5484   0.0000   0.0000   0.0000   0.2575
  -1.700  -0.1973   0.00888   0.00344   0.0025  0.7402  0.6911  -0.5360   0.0000   0.0000   0.0000   0.2574
  -1.600  -0.1857   0.00886   0.00342   0.0023  0.7383  0.6923  -0.5302   0.0000   0.0000   0.0000   0.2575
  -1.500  -0.1740   0.00885   0.00341   0.0022  0.7366  0.6935  -0.5244   0.0000   0.0000   0.0000   0.2575
  -1.400  -0.1624   0.00884   0.00339   0.0020  0.7350  0.6948  -0.5188   0.0000   0.0000   0.0000   0.2576
  -1.300  -0.1509   0.00883   0.00337   0.0019  0.7335  0.6962  -0.5133   0.0000   0.0000   0.0000   0.2577
  -1.200  -0.1393   0.00883   0.00335   0.0018  0.7321  0.6976  -0.5078   0.0000   0.0000   0.0000   0.2579
  -1.100  -0.1277   0.00883   0.00333   0.0017  0.7309  0.6992  -0.5023   0.0000   0.0000   0.0000   0.2580
  -1.000  -0.1162   0.00884   0.00331   0.0015  0.7297  0.7008  -0.4969   0.0000   0.0000   0.0000   0.2581
  -0.900  -0.1045   0.00883   0.00329   0.0013  0.7280  0.7023  -0.4915   0.0000   0.0000   0.0000   0.2577
  -0.800  -0.0928   0.00882   0.00328   0.0011  0.7263  0.7037  -0.4861   0.0000   0.0000   0.0000   0.2573
  -0.700  -0.0812   0.00880   0.00327   0.0010  0.7247  0.7048  -0.4808   0.0000   0.0000   0.0000   0.2573
  -0.600  -0.0696   0.00879   0.00327   0.0009  0.7231  0.7059  -0.4754   0.0000   0.0000   0.0000   0.2574
  -0.500  -0.0580   0.00878   0.00326   0.0007  0.7215  0.7072  -0.4701   0.0000   0.0000   0.0000   0.2576
  -0.400  -0.0464   0.00878   0.00326   0.0006  0.7201  0.7086  -0.4647   0.0000   0.0000   0.0000   0.2581
  -0.300  -0.0349   0.00878   0.00325   0.0005  0.7188  0.7101  -0.4594   0.0000   0.0000   0.0000   0.2588
  -0.200  -0.0233   0.00879   0.00324   0.0003  0.7176  0.7116  -0.4541   0.0000   0.0000   0.0000   0.2600
  -0.100  -0.0117   0.00881   0.00324   0.0002  0.7164  0.7132  -0.4489   0.0000   0.0000   0.0000   0.2621
   0.000   0.0000   0.00880   0.00324  -0.0000  0.7148  0.7148  -0.4436   0.0000   0.0000   0.0000   0.5401
   0.100   0.0117   0.00881   0.00324  -0.0002  0.7132  0.7164  -0.4489   0.0000   0.0000   0.0000   0.2621
   0.200   0.0233   0.00879   0.00324  -0.0003  0.7116  0.7176  -0.4541   0.0000   0.0000   0.0000   0.2600
   0.300   0.0349   0.00878   0.00325  -0.0005  0.7101  0.7188  -0.4594   0.0000   0.0000   0.0000   0.2588
   0.400   0.0464   0.00878   0.00326  -0.0006  0.7086  0.7201  -0.4647   0.0000   0.0000   0.0000   0.2581
   0.500   0.0580   0.00878   0.00326  -0.0007  0.7072  0.7215  -0.4701   0.0000   0.0000   0.0000   0.2576
   0.600   0.0696   0.00879   0.00327  -0.0009  0.7059  0.7231  -0.4754   0.0000   0.0000   0.0000   0.2574
   0.700   0.0812   0.00880   0.00327  -0.0010  0.7048  0.7247  -0.4808   0.0000   0.0000   0.0000   0.2573
   0.800   0.0928   0.00882   0.00328  -0.0011  0.7037  0.7263  -0.4861   0.0000   0.0000   0.0000   0.2573
   0.900   0.1045   0.00883   0.00329  -0.0013  0.7023  0.7280  -0.4915   0.0000   0.0000   0.0000   0.2577
   1.000   0.1162   0.00884   0.00331  -0.0015  0.7008  0.7297  -0.4969   0.0000   0.0000   0.0000   0.2581
   1.100   0.1277   0.00883   0.00333  -0.0017  0.6992  0.7309  -0.5023   0.0000   0.0000   0.0000   0.2580
   1.200   0.1393   0.00883   0.00335  -0.0018  0.6976  0.7321  -0.5078   0.0000   0.0000   0.0000   0.2579
   1.300   0.1509   0.00883   0.00337  -0.0019  0.6962  0.7335  -0.5133   0.0000   0.0000   0.0000   0.2577
   1.400   0.1624   0.00884   0.00339  -0.0020  0.6948  0.7350  -0.5188   0.0000   0.0000   0.0000   0.2576
   1.500   0.1740   0.00885   0.00341  -0.0022  0.6935  0.7366  -0.5244   0.0000   0.0000   0.0000   0.2575
   1.600   0.1857   0.00886   0.00342  -0.0023  0.6923  0.7383  -0.5302   0.0000   0.0000   0.0000   0.2575
   1.700   0.1973   0.00888   0.00344  -0.0025  0.6911  0.7402  -0.5360   0.0000   0.0000   0.0000   0.2574
   1.800   0.2089   0.00891   0.00345  -0.0026  0.6899  0.7420  -0.5484   0.0000   0.0000   0.0000   0.2575
   1.900   0.2205   0.00891   0.00349  -0.0028  0.6884  0.7435  -0.5849   0.0000   0.0000   0.0000   0.2575
   2.000   0.2319   0.00891   0.00353  -0.0029  0.6867  0.7449  -0.6216   0.0000   0.0000   0.0000   0.2573
   2.100   0.2434   0.00891   0.00356  -0.0030  0.6849  0.7464  -0.6588   0.0000   0.0000   0.0000   0.2572
   2.200   0.2549   0.00891   0.00358  -0.0031  0.6829  0.7479  -0.6965   0.0000   0.0000   0.0000   0.2570
   2.300   0.2664   0.00891   0.00359  -0.0032  0.6809  0.7496  -0.7377   0.0000   0.0000   0.0000   0.2568
   2.400   0.2780   0.00891   0.00359  -0.0033  0.6789  0.7514  -0.7815   0.0000   0.0000   0.0000   0.2566
   2.500   0.2895   0.00892   0.00359  -0.0034  0.6769  0.7533  -0.8257   0.0000   0.0000   0.0000   0.2564
   2.600   0.3010   0.00893   0.00360  -0.0035  0.6744  0.7553  -0.8702   0.0000   0.0000   0.0000   0.2563
   2.700   0.3122   0.00890   0.00362  -0.0036  0.6712  0.7567  -0.9149   0.0000   0.0000   0.0000   0.2560
   2.800   0.3235   0.00886   0.00361  -0.0036  0.6675  0.7582  -0.9602   0.0000   0.0000   0.0000   0.2555
   2.900   0.3347   0.00883   0.00355  -0.0035  0.6633  0.7599  -1.0062   0.0000   0.0000   0.0000   0.2549
   3.000   0.3456   0.00877   0.00352  -0.0034  0.6570  0.7617  -1.0520   0.0000   0.0000   0.0000   0.2543
   3.100   0.3565   0.00870   0.00343  -0.0033  0.6497  0.7637  -1.0985   0.0000   0.0000   0.0000   0.2536
   3.200   0.3674   0.00864   0.00337  -0.0032  0.6412  0.7657  -1.1452   0.0000   0.0000   0.0000   0.2530
   3.300   0.3783   0.00861   0.00329  -0.0031  0.6337  0.7678  -1.1926   0.0000   0.0000   0.0000   0.2525
   3.400   0.3893   0.00856   0.00329  -0.0031  0.6259  0.7693  -1.2402   0.0000   0.0000   0.0000   0.2521
   3.500   0.4003   0.00855   0.00328  -0.0030  0.6205  0.7708  -1.2883   0.0000   0.0000   0.0000   0.2517
   3.600   0.4115   0.00854   0.00331  -0.0031  0.6152  0.7725  -1.3371   0.0000   0.0000   0.0000   0.2515
   3.700   0.4227   0.00854   0.00332  -0.0031  0.6096  0.7743  -1.3862   0.0000   0.0000   0.0000   0.2513
   3.800   0.4337   0.00855   0.00332  -0.0031  0.6044  0.7764  -1.4356   0.0000   0.0000   0.0000   0.2511
   3.900   0.4450   0.00855   0.00335  -0.0031  0.5979  0.7785  -1.4857   0.0000   0.0000   0.0000   0.2510
   4.000   0.4561   0.00856   0.00335  -0.0032  0.5919  0.7806  -1.5358   0.0000   0.0000   0.0000   0.2508
   4.100   0.4671   0.00856   0.00339  -0.0031  0.5849  0.7823  -1.5861   0.0000   0.0000   0.0000   0.2506
   4.200   0.4779   0.00858   0.00341  -0.0031  0.5770  0.7841  -1.6363   0.0000   0.0000   0.0000   0.2502
   4.300   0.4888   0.00859   0.00344  -0.0031  0.5669  0.7861  -1.6870   0.0000   0.0000   0.0000   0.2500
   4.400   0.4995   0.00862   0.00346  -0.0030  0.5547  0.7883  -1.7374   0.0000   0.0000   0.0000   0.2496
   4.500   0.5100   0.00867   0.00348  -0.0029  0.5380  0.7906  -1.7943   0.0000   0.0000   0.0000   0.2493
   4.600   0.5198   0.00877   0.00351  -0.0027  0.5138  0.7928  -1.8502   0.0000   0.0000   0.0000   0.2488
   4.700   0.5280   0.00898   0.00357  -0.0023  0.4720  0.7945  -1.9019   0.0000   0.0000   0.0000   0.2477
   4.800   0.5332   0.00948   0.00375  -0.0015  0.3995  0.7966  -1.9453   0.0000   0.0000   0.0000   0.2461
   4.900   0.5371   0.01017   0.00407  -0.0007  0.3233  0.7989  -1.9844   0.0000   0.0000   0.0000   0.2445
   5.000   0.5416   0.01082   0.00440  -0.0000  0.2537  0.8015  -2.0246   0.0000   0.0000   0.0000   0.2431
   5.200   0.5513   0.01204   0.00502   0.0012  0.1324  0.8060  -2.1049   0.0000   0.0000   0.0000   0.2406
   5.300   0.5564   0.01258   0.00534   0.0019  0.0870  0.8082  -2.1446   0.0000   0.0000   0.0000   0.2394
   5.400   0.5634   0.01297   0.00559   0.0024  0.0656  0.8106  -2.1883   0.0000   0.0000   0.0000   0.2385
   5.500   0.5717   0.01325   0.00581   0.0027  0.0567  0.8133  -2.2353   0.0000   0.0000   0.0000   0.2379
   5.600   0.5809   0.01345   0.00600   0.0029  0.0521  0.8160  -2.2857   0.0000   0.0000   0.0000   0.2375
   5.700   0.5893   0.01367   0.00621   0.0033  0.0489  0.8180  -2.3341   0.0000   0.0000   0.0000   0.2369
   5.800   0.5985   0.01382   0.00640   0.0035  0.0467  0.8202  -2.3856   0.0000   0.0000   0.0000   0.2365
   5.900   0.6074   0.01401   0.00659   0.0038  0.0448  0.8228  -2.4376   0.0000   0.0000   0.0000   0.2361
   6.000   0.6155   0.01429   0.00686   0.0041  0.0430  0.8258  -2.4853   0.0000   0.0000   0.0000   0.2355
   6.100   0.6244   0.01446   0.00706   0.0044  0.0419  0.8282  -2.5355   0.0000   0.0000   0.0000   0.2351
   6.200   0.6333   0.01462   0.00726   0.0047  0.0408  0.8304  -2.5872   0.0000   0.0000   0.0000   0.2346
   6.300   0.6422   0.01480   0.00745   0.0050  0.0397  0.8329  -2.6398   0.0000   0.0000   0.0000   0.2342
   6.400   0.6509   0.01498   0.00764   0.0052  0.0386  0.8358  -2.6937   0.0000   0.0000   0.0000   0.2339
   6.500   0.6590   0.01522   0.00788   0.0056  0.0376  0.8386  -2.7455   0.0000   0.0000   0.0000   0.2334
   6.600   0.6649   0.01560   0.00827   0.0062  0.0365  0.8409  -2.7858   0.0000   0.0000   0.0000   0.2323
   6.700   0.6735   0.01576   0.00846   0.0066  0.0360  0.8436  -2.8431   0.0000   0.0000   0.0000   0.2319
   6.800   0.6822   0.01594   0.00867   0.0068  0.0353  0.8466  -2.9052   0.0000   0.0000   0.0000   0.2315
   6.900   0.6905   0.01614   0.00889   0.0072  0.0348  0.8495  -2.9657   0.0000   0.0000   0.0000   0.2310
   7.000   0.6982   0.01634   0.00913   0.0077  0.0342  0.8520  -3.0251   0.0000   0.0000   0.0000   0.2303
   7.100   0.7059   0.01656   0.00937   0.0081  0.0337  0.8550  -3.0851   0.0000   0.0000   0.0000   0.2297
   7.200   0.7138   0.01679   0.00961   0.0085  0.0331  0.8585  -3.1461   0.0000   0.0000   0.0000   0.2293
   7.300   0.7210   0.01702   0.00987   0.0090  0.0327  0.8612  -3.2058   0.0000   0.0000   0.0000   0.2286
   7.400   0.7280   0.01726   0.01013   0.0095  0.0322  0.8643  -3.2651   0.0000   0.0000   0.0000   0.2278
   7.500   0.7349   0.01754   0.01042   0.0100  0.0318  0.8680  -3.3238   0.0000   0.0000   0.0000   0.2272
   7.600   0.7410   0.01786   0.01076   0.0107  0.0314  0.8711  -3.3783   0.0000   0.0000   0.0000   0.2263
   7.700   0.7460   0.01825   0.01117   0.0115  0.0310  0.8745  -3.4267   0.0000   0.0000   0.0000   0.2252
   7.800   0.7503   0.01879   0.01171   0.0123  0.0306  0.8785  -3.4671   0.0000   0.0000   0.0000   0.2240
   7.900   0.7569   0.01900   0.01196   0.0130  0.0304  0.8815  -3.5237   0.0000   0.0000   0.0000   0.2232
   8.000   0.7638   0.01920   0.01220   0.0136  0.0302  0.8852  -3.5816   0.0000   0.0000   0.0000   0.2224
   8.100   0.7708   0.01943   0.01247   0.0142  0.0300  0.8890  -3.6395   0.0000   0.0000   0.0000   0.2218
   8.200   0.7772   0.01966   0.01274   0.0149  0.0297  0.8925  -3.6955   0.0000   0.0000   0.0000   0.2209
   8.300   0.7843   0.01993   0.01304   0.0154  0.0295  0.8966  -3.7529   0.0000   0.0000   0.0000   0.2203
   8.400   0.7909   0.02019   0.01334   0.0160  0.0292  0.9003  -3.8091   0.0000   0.0000   0.0000   0.2196
   8.500   0.7978   0.02045   0.01364   0.0166  0.0289  0.9046  -3.8670   0.0000   0.0000   0.0000   0.2189
   8.600   0.8044   0.02071   0.01393   0.0172  0.0285  0.9088  -3.9253   0.0000   0.0000   0.0000   0.2182
   8.700   0.8111   0.02096   0.01422   0.0178  0.0281  0.9135  -3.9852   0.0000   0.0000   0.0000   0.2175
   8.800   0.8174   0.02120   0.01449   0.0185  0.0278  0.9181  -4.0444   0.0000   0.0000   0.0000   0.2167
   8.900   0.8238   0.02144   0.01476   0.0191  0.0274  0.9235  -4.1057   0.0000   0.0000   0.0000   0.2160
   9.000   0.8296   0.02168   0.01502   0.0199  0.0270  0.9289  -4.1658   0.0000   0.0000   0.0000   0.2151
   9.100   0.8353   0.02192   0.01529   0.0207  0.0267  0.9348  -4.2265   0.0000   0.0000   0.0000   0.2143
   9.200   0.8411   0.02218   0.01557   0.0214  0.0264  0.9414  -4.2873   0.0000   0.0000   0.0000   0.2134
   9.300   0.8474   0.02250   0.01590   0.0221  0.0261  0.9483  -4.3482   0.0000   0.0000   0.0000   0.2127
   9.400   0.8551   0.02290   0.01631   0.0225  0.0258  0.9552  -4.4101   0.0000   0.0000   0.0000   0.2123
   9.500   0.8659   0.02356   0.01697   0.0225  0.0254  0.9599  -4.4727   0.0000   0.0000   0.0000   0.2126
   9.600   0.8801   0.02452   0.01795   0.0220  0.0251  0.9617  -4.5398   0.0000   0.0000   0.0000   0.2135
   9.700   0.8900   0.02482   0.01831   0.0219  0.0249  0.9700  -4.6207   0.0000   0.0000   0.0000   0.2138
   9.800   0.9018   0.02519   0.01876   0.0214  0.0248  0.9781  -4.7082   0.0000   0.0000   0.0000   0.2146
   9.900   0.9146   0.02563   0.01926   0.0207  0.0246  0.9881  -4.7979   0.0000   0.0000   0.0000   0.2156
  10.000   0.9252   0.02607   0.01975   0.0204  0.0244  1.0000  -4.8778   0.0000   0.0000   0.0000   0.2161
  10.100   0.9347   0.02654   0.02027   0.0204  0.0242  1.0000  -4.9525   0.0000   0.0000   0.0000   0.2163
  10.200   0.9441   0.02704   0.02083   0.0203  0.0240  1.0000  -5.0260   0.0000   0.0000   0.0000   0.2164
  10.300   0.9533   0.02757   0.02141   0.0203  0.0238  1.0000  -5.0981   0.0000   0.0000   0.0000   0.2165
  10.400   0.9622   0.02813   0.02202   0.0203  0.0236  1.0000  -5.1685   0.0000   0.0000   0.0000   0.2166
  10.500   0.9708   0.02871   0.02266   0.0204  0.0234  1.0000  -5.2371   0.0000   0.0000   0.0000   0.2166
  10.600   0.9791   0.02931   0.02333   0.0205  0.0232  1.0000  -5.3036   0.0000   0.0000   0.0000   0.2166
  10.700   0.9870   0.02993   0.02401   0.0206  0.0230  1.0000  -5.3680   0.0000   0.0000   0.0000   0.2165
  10.800   0.9944   0.03057   0.02472   0.0208  0.0229  1.0000  -5.4303   0.0000   0.0000   0.0000   0.2164
  10.900   1.0014   0.03123   0.02545   0.0210  0.0227  1.0000  -5.4903   0.0000   0.0000   0.0000   0.2162
  11.000   1.0080   0.03191   0.02620   0.0213  0.0225  1.0000  -5.5482   0.0000   0.0000   0.0000   0.2159
  11.100   1.0140   0.03257   0.02692   0.0216  0.0224  1.0000  -5.6060   0.0000   0.0000   0.0000   0.2156
  11.200   1.0196   0.03317   0.02758   0.0220  0.0222  1.0000  -5.6666   0.0000   0.0000   0.0000   0.2152
  11.300   1.0249   0.03373   0.02817   0.0223  0.0220  1.0000  -5.7310   0.0000   0.0000   0.0000   0.2149
  11.400   1.0303   0.03423   0.02870   0.0227  0.0218  1.0000  -5.8005   0.0000   0.0000   0.0000   0.2145
  11.500   1.0359   0.03468   0.02917   0.0230  0.0216  1.0000  -5.8763   0.0000   0.0000   0.0000   0.2142
  11.600   1.0411   0.03515   0.02965   0.0233  0.0214  1.0000  -5.9509   0.0000   0.0000   0.0000   0.2139
  11.700   1.0455   0.03567   0.03019   0.0237  0.0212  1.0000  -6.0205   0.0000   0.0000   0.0000   0.2134
  11.800   1.0499   0.03623   0.03078   0.0241  0.0210  1.0000  -6.0905   0.0000   0.0000   0.0000   0.2130
  11.900   1.0543   0.03690   0.03147   0.0244  0.0208  1.0000  -6.1581   0.0000   0.0000   0.0000   0.2127
  12.000   1.0583   0.03781   0.03241   0.0247  0.0206  1.0000  -6.2157   0.0000   0.0000   0.0000   0.2123
  12.100   1.0611   0.03923   0.03391   0.0250  0.0204  1.0000  -6.2460   0.0000   0.0000   0.0000   0.2119
  12.200   1.0602   0.04124   0.03606   0.0256  0.0202  1.0000  -6.2312   0.0000   0.0000   0.0000   0.2113
  12.300   1.0570   0.04311   0.03807   0.0264  0.0201  1.0000  -6.2059   0.0000   0.0000   0.0000   0.2103
  12.400   1.0533   0.04466   0.03973   0.0272  0.0201  1.0000  -6.1901   0.0000   0.0000   0.0000   0.2093
  12.500   1.0504   0.04536   0.04052   0.0280  0.0201  1.0000  -6.2086   0.0000   0.0000   0.0000   0.2083
  12.600   1.0474   0.04624   0.04149   0.0287  0.0200  1.0000  -6.2214   0.0000   0.0000   0.0000   0.2073
  12.700   1.0442   0.04723   0.04257   0.0294  0.0200  1.0000  -6.2292   0.0000   0.0000   0.0000   0.2065
  12.800   1.0406   0.04833   0.04376   0.0300  0.0200  1.0000  -6.2325   0.0000   0.0000   0.0000   0.2056
  12.900   1.0365   0.04953   0.04505   0.0305  0.0199  1.0000  -6.2313   0.0000   0.0000   0.0000   0.2048
  13.000   1.0319   0.05081   0.04643   0.0309  0.0199  1.0000  -6.2261   0.0000   0.0000   0.0000   0.2040
  13.100   1.0269   0.05217   0.04788   0.0313  0.0199  1.0000  -6.2169   0.0000   0.0000   0.0000   0.2033
  13.200   1.0214   0.05362   0.04942   0.0316  0.0199  1.0000  -6.2041   0.0000   0.0000   0.0000   0.2026
  13.300   1.0155   0.05516   0.05105   0.0319  0.0199  1.0000  -6.1877   0.0000   0.0000   0.0000   0.2020
  13.400   1.0091   0.05678   0.05276   0.0320  0.0199  1.0000  -6.1679   0.0000   0.0000   0.0000   0.2015
  13.500   1.0023   0.05849   0.05455   0.0321  0.0199  1.0000  -6.1447   0.0000   0.0000   0.0000   0.2010
  13.600   0.9952   0.06031   0.05645   0.0320  0.0199  1.0000  -6.1180   0.0000   0.0000   0.0000   0.2006
  13.700   0.9877   0.06224   0.05846   0.0319  0.0199  1.0000  -6.0874   0.0000   0.0000   0.0000   0.2002
  13.800   0.9798   0.06431   0.06061   0.0317  0.0200  1.0000  -6.0517   0.0000   0.0000   0.0000   0.2000
  14.300   0.9502   0.07386   0.07046   0.0295  0.0202  1.0000  -5.9490   0.0000   0.0000   0.0000   0.2002
  14.400   0.9436   0.07578   0.07245   0.0287  0.0202  1.0000  -5.9303   0.0000   0.0000   0.0000   0.2006
  14.500   0.9367   0.07780   0.07454   0.0278  0.0203  1.0000  -5.9087   0.0000   0.0000   0.0000   0.2010
  14.600   0.9294   0.07994   0.07674   0.0268  0.0203  1.0000  -5.8822   0.0000   0.0000   0.0000   0.2017
  14.700   0.9215   0.08223   0.07911   0.0256  0.0204  1.0000  -5.8473   0.0000   0.0000   0.0000   0.2025
  14.800   0.9118   0.08494   0.08191   0.0240  0.0205  1.0000  -5.7896   0.0000   0.0000   0.0000   0.2036
  20.700   0.8085   0.24925   0.24679  -0.0706  0.0163  1.0000  -2.1317   0.0000   0.0000   0.0000   0.3101
  20.800   0.8121   0.25038   0.24793  -0.0713  0.0162  1.0000  -2.1568   0.0000   0.0000   0.0000   0.3104
  20.900   0.8157   0.25150   0.24905  -0.0720  0.0161  1.0000  -2.1862   0.0000   0.0000   0.0000   0.3107
  21.000   0.8194   0.25257   0.25013  -0.0727  0.0160  1.0000  -2.2205   0.0000   0.0000   0.0000   0.3108
  21.100   0.8233   0.25363   0.25119  -0.0732  0.0159  1.0000  -2.2607   0.0000   0.0000   0.0000   0.3109
  21.200   0.8275   0.25469   0.25226  -0.0736  0.0158  1.0000  -2.3087   0.0000   0.0000   0.0000   0.3107
  21.300   0.8322   0.25583   0.25340  -0.0738  0.0157  1.0000  -2.3691   0.0000   0.0000   0.0000   0.3102
  21.400   0.8369   0.25791   0.25548  -0.0736  0.0156  1.0000  -2.4273   0.0000   0.0000   0.0000   0.3093
  21.500   0.8396   0.25952   0.25709  -0.0748  0.0155  1.0000  -2.4043   0.0000   0.0000   0.0000   0.3102
  21.600   0.8421   0.26112   0.25869  -0.0760  0.0155  1.0000  -2.3710   0.0000   0.0000   0.0000   0.3113
  21.700   0.8445   0.26270   0.26027  -0.0773  0.0155  1.0000  -2.3371   0.0000   0.0000   0.0000   0.3124
  21.800   0.8469   0.26427   0.26184  -0.0787  0.0155  1.0000  -2.3010   0.0000   0.0000   0.0000   0.3135
  21.900   0.8490   0.26584   0.26340  -0.0801  0.0155  1.0000  -2.2566   0.0000   0.0000   0.0000   0.3148
  22.000   0.8511   0.26743   0.26499  -0.0816  0.0154  1.0000  -2.2093   0.0000   0.0000   0.0000   0.3162
  22.100   0.8533   0.26908   0.26663  -0.0832  0.0154  1.0000  -2.1642   0.0000   0.0000   0.0000   0.3176
  22.200   0.8556   0.27081   0.26837  -0.0848  0.0153  1.0000  -2.1078   0.0000   0.0000   0.0000   0.3191
  22.300   0.8584   0.27277   0.27032  -0.0865  0.0150  1.0000  -2.0400   0.0000   0.0000   0.0000   0.3206
  22.400   0.8617   0.27444   0.27200  -0.0877  0.0146  1.0000  -2.0091   0.0000   0.0000   0.0000   0.3215
  22.500   0.8650   0.27592   0.27347  -0.0888  0.0143  1.0000  -2.0002   0.0000   0.0000   0.0000   0.3221
  22.600   0.8683   0.27729   0.27484  -0.0898  0.0140  1.0000  -1.9980   0.0000   0.0000   0.0000   0.3227
  22.700   0.8716   0.27866   0.27621  -0.0908  0.0138  1.0000  -1.9989   0.0000   0.0000   0.0000   0.3233
  22.800   0.8749   0.27999   0.27755  -0.0917  0.0136  1.0000  -2.0019   0.0000   0.0000   0.0000   0.3238
  22.900   0.8782   0.28130   0.27886  -0.0927  0.0134  1.0000  -2.0066   0.0000   0.0000   0.0000   0.3243
  23.000   0.8815   0.28258   0.28014  -0.0937  0.0132  1.0000  -2.0128   0.0000   0.0000   0.0000   0.3248
  23.100   0.8848   0.28384   0.28140  -0.0946  0.0130  1.0000  -2.0203   0.0000   0.0000   0.0000   0.3253
  23.200   0.8882   0.28508   0.28264  -0.0956  0.0128  1.0000  -2.0293   0.0000   0.0000   0.0000   0.3257
  23.300   0.8915   0.28629   0.28386  -0.0965  0.0127  1.0000  -2.0398   0.0000   0.0000   0.0000   0.3262
  23.400   0.8948   0.28749   0.28505  -0.0975  0.0126  1.0000  -2.0518   0.0000   0.0000   0.0000   0.3266
  23.500   0.8981   0.28866   0.28623  -0.0984  0.0124  1.0000  -2.0654   0.0000   0.0000   0.0000   0.3270
  23.600   0.9014   0.28981   0.28738  -0.0993  0.0123  1.0000  -2.0807   0.0000   0.0000   0.0000   0.3274
  23.700   0.9047   0.29095   0.28852  -0.1002  0.0122  1.0000  -2.0978   0.0000   0.0000   0.0000   0.3277
  23.800   0.9081   0.29206   0.28964  -0.1011  0.0121  1.0000  -2.1169   0.0000   0.0000   0.0000   0.3281
  23.900   0.9114   0.29315   0.29073  -0.1020  0.0120  1.0000  -2.1381   0.0000   0.0000   0.0000   0.3284
  24.000   0.9147   0.29424   0.29182  -0.1028  0.0120  1.0000  -2.1616   0.0000   0.0000   0.0000   0.3287
  24.100   0.9180   0.29535   0.29294  -0.1036  0.0119  1.0000  -2.1877   0.0000   0.0000   0.0000   0.3289
  24.200   0.9214   0.29643   0.29402  -0.1044  0.0118  1.0000  -2.2166   0.0000   0.0000   0.0000   0.3291
  24.300   0.9248   0.29752   0.29512  -0.1051  0.0118  1.0000  -2.2489   0.0000   0.0000   0.0000   0.3292
  24.400   0.9283   0.29866   0.29626  -0.1058  0.0117  1.0000  -2.2861   0.0000   0.0000   0.0000   0.3292
  24.500   0.9320   0.29991   0.29751  -0.1063  0.0116  1.0000  -2.3305   0.0000   0.0000   0.0000   0.3290
  24.600   0.9363   0.30156   0.29916  -0.1064  0.0116  1.0000  -2.3896   0.0000   0.0000   0.0000   0.3284
  24.700   0.9401   0.30372   0.30132  -0.1069  0.0115  1.0000  -2.4026   0.0000   0.0000   0.0000   0.3283
  24.800   0.9428   0.30505   0.30265  -0.1081  0.0115  1.0000  -2.3763   0.0000   0.0000   0.0000   0.3291
  24.900   0.9453   0.30636   0.30396  -0.1095  0.0115  1.0000  -2.3433   0.0000   0.0000   0.0000   0.3300
  25.000   0.9478   0.30768   0.30528  -0.1108  0.0115  1.0000  -2.3062   0.0000   0.0000   0.0000   0.3309
  25.100   0.9504   0.30897   0.30656  -0.1122  0.0115  1.0000  -2.2698   0.0000   0.0000   0.0000   0.3318
  25.200   0.9531   0.31027   0.30786  -0.1136  0.0114  1.0000  -2.2427   0.0000   0.0000   0.0000   0.3327
  25.300   0.9559   0.31159   0.30919  -0.1149  0.0114  1.0000  -2.2208   0.0000   0.0000   0.0000   0.3335
  25.400   0.9588   0.31292   0.31052  -0.1162  0.0114  1.0000  -2.1979   0.0000   0.0000   0.0000   0.3343
  25.500   0.9617   0.31427   0.31186  -0.1175  0.0114  1.0000  -2.1735   0.0000   0.0000   0.0000   0.3350
  25.600   0.9647   0.31566   0.31326  -0.1188  0.0113  1.0000  -2.1466   0.0000   0.0000   0.0000   0.3358
  25.700   0.9678   0.31707   0.31467  -0.1201  0.0113  1.0000  -2.1165   0.0000   0.0000   0.0000   0.3366
  25.800   0.9711   0.31856   0.31616  -0.1214  0.0112  1.0000  -2.0836   0.0000   0.0000   0.0000   0.3373
  25.900   0.9745   0.32000   0.31760  -0.1226  0.0110  1.0000  -2.0546   0.0000   0.0000   0.0000   0.3380
  26.000   0.9779   0.32146   0.31907  -0.1238  0.0107  1.0000  -2.0383   0.0000   0.0000   0.0000   0.3385
  26.100   0.9812   0.32280   0.32040  -0.1248  0.0105  1.0000  -2.0317   0.0000   0.0000   0.0000   0.3389
  26.200   0.9844   0.32401   0.32162  -0.1259  0.0103  1.0000  -2.0296   0.0000   0.0000   0.0000   0.3393
  26.300   0.9875   0.32529   0.32290  -0.1269  0.0101  1.0000  -2.0299   0.0000   0.0000   0.0000   0.3397
  26.400   0.9907   0.32653   0.32414  -0.1279  0.0100  1.0000  -2.0319   0.0000   0.0000   0.0000   0.3401
  26.500   0.9938   0.32775   0.32536  -0.1289  0.0098  1.0000  -2.0350   0.0000   0.0000   0.0000   0.3405
  26.600   0.9969   0.32894   0.32655  -0.1300  0.0096  1.0000  -2.0391   0.0000   0.0000   0.0000   0.3408
  26.700   1.0000   0.33012   0.32773  -0.1310  0.0095  1.0000  -2.0441   0.0000   0.0000   0.0000   0.3412
  26.800   1.0031   0.33128   0.32889  -0.1320  0.0094  1.0000  -2.0499   0.0000   0.0000   0.0000   0.3416
  26.900   1.0062   0.33242   0.33004  -0.1330  0.0092  1.0000  -2.0567   0.0000   0.0000   0.0000   0.3419
  27.000   1.0093   0.33353   0.33116  -0.1341  0.0091  1.0000  -2.0645   0.0000   0.0000   0.0000   0.3423
  27.100   1.0123   0.33464   0.33226  -0.1351  0.0090  1.0000  -2.0737   0.0000   0.0000   0.0000   0.3426
  27.200   1.0154   0.33572   0.33334  -0.1361  0.0089  1.0000  -2.0845   0.0000   0.0000   0.0000   0.3429
  27.300   1.0184   0.33678   0.33441  -0.1371  0.0088  1.0000  -2.0969   0.0000   0.0000   0.0000   0.3432
  27.400   1.0214   0.33781   0.33544  -0.1381  0.0087  1.0000  -2.1112   0.0000   0.0000   0.0000   0.3435
  27.500   1.0243   0.33882   0.33646  -0.1391  0.0086  1.0000  -2.1273   0.0000   0.0000   0.0000   0.3438
  27.600   1.0273   0.33990   0.33754  -0.1401  0.0085  1.0000  -2.1453   0.0000   0.0000   0.0000   0.3441
  27.700   1.0302   0.34089   0.33853  -0.1410  0.0085  1.0000  -2.1654   0.0000   0.0000   0.0000   0.3444
  27.800   1.0331   0.34186   0.33951  -0.1420  0.0084  1.0000  -2.1878   0.0000   0.0000   0.0000   0.3446
  27.900   1.0360   0.34283   0.34048  -0.1429  0.0083  1.0000  -2.2124   0.0000   0.0000   0.0000   0.3448
  28.000   1.0388   0.34380   0.34145  -0.1438  0.0083  1.0000  -2.2394   0.0000   0.0000   0.0000   0.3450
  28.100   1.0417   0.34478   0.34244  -0.1447  0.0082  1.0000  -2.2690   0.0000   0.0000   0.0000   0.3452
  28.200   1.0446   0.34582   0.34348  -0.1455  0.0082  1.0000  -2.3015   0.0000   0.0000   0.0000   0.3452
  28.300   1.0475   0.34696   0.34463  -0.1462  0.0081  1.0000  -2.3379   0.0000   0.0000   0.0000   0.3452
  28.400   1.0505   0.34838   0.34605  -0.1467  0.0081  1.0000  -2.3805   0.0000   0.0000   0.0000   0.3450


