xflr5 v6.61

 Calculated polar for: NACA65413a=0.8

 1 1 Reynolds number fixed          Mach number fixed         

 xtrf =   1.000 (top)        1.000 (bottom)
 Mach =   0.000     Re =     1.000 e 6     Ncrit =   9.000

  alpha     CL        CD       CDp       Cm    Top Xtr Bot Xtr   Cpmin    Chinge    XCp    
 ------- -------- --------- --------- -------- ------- ------- -------- --------- ---------
 -10.000  -0.3910   0.06231   0.06025  -0.0852  0.9097  0.0185  -3.0604   0.0000   0.0000   0.0000   0.0175
  -9.900  -0.3989   0.06020   0.05808  -0.0866  0.9066  0.0185  -3.1146   0.0000   0.0000   0.0000   0.0190
  -9.800  -0.4065   0.05827   0.05611  -0.0877  0.9040  0.0185  -3.1610   0.0000   0.0000   0.0000   0.0208
  -9.700  -0.4139   0.05653   0.05433  -0.0885  0.9012  0.0185  -3.2004   0.0000   0.0000   0.0000   0.0231
  -9.600  -0.4213   0.05497   0.05273  -0.0890  0.8981  0.0185  -3.2343   0.0000   0.0000   0.0000   0.0261
  -9.500  -0.4288   0.05359   0.05130  -0.0892  0.8949  0.0185  -3.2634   0.0000   0.0000   0.0000   0.0298
  -9.400  -0.4364   0.05238   0.05004  -0.0889  0.8916  0.0185  -3.2882   0.0000   0.0000   0.0000   0.0344
  -9.300  -0.4438   0.05135   0.04894  -0.0882  0.8881  0.0185  -3.3084   0.0000   0.0000   0.0000   0.0397
  -9.200  -0.4487   0.05019   0.04773  -0.0878  0.8858  0.0185  -3.3219   0.0000   0.0000   0.0000   0.0432
  -9.100  -0.4517   0.04890   0.04638  -0.0876  0.8834  0.0185  -3.3292   0.0000   0.0000   0.0000   0.0451
  -9.000  -0.4538   0.04762   0.04504  -0.0873  0.8810  0.0185  -3.3320   0.0000   0.0000   0.0000   0.0467
  -8.900  -0.4550   0.04636   0.04371  -0.0871  0.8785  0.0185  -3.3305   0.0000   0.0000   0.0000   0.0480
  -8.800  -0.4556   0.04513   0.04240  -0.0868  0.8762  0.0185  -3.3248   0.0000   0.0000   0.0000   0.0490
  -8.700  -0.4554   0.04391   0.04111  -0.0865  0.8739  0.0186  -3.3154   0.0000   0.0000   0.0000   0.0497
  -8.600  -0.4546   0.04272   0.03983  -0.0862  0.8717  0.0186  -3.3025   0.0000   0.0000   0.0000   0.0502
  -8.500  -0.4531   0.04156   0.03857  -0.0859  0.8693  0.0186  -3.2860   0.0000   0.0000   0.0000   0.0503
  -7.500  -0.4358   0.02228   0.01786  -0.0819  0.8489  0.0173  -3.5765   0.0000   0.0000   0.0000   0.0525
  -7.400  -0.4300   0.02059   0.01599  -0.0815  0.8470  0.0170  -3.6272   0.0000   0.0000   0.0000   0.0510
  -7.300  -0.4225   0.01931   0.01457  -0.0812  0.8456  0.0167  -3.6462   0.0000   0.0000   0.0000   0.0482
  -7.200  -0.4142   0.01823   0.01337  -0.0809  0.8440  0.0165  -3.6500   0.0000   0.0000   0.0000   0.0449
  -7.100  -0.4053   0.01730   0.01233  -0.0807  0.8423  0.0164  -3.6437   0.0000   0.0000   0.0000   0.0412
  -7.000  -0.3962   0.01647   0.01142  -0.0805  0.8405  0.0162  -3.6295   0.0000   0.0000   0.0000   0.0370
  -6.900  -0.3869   0.01574   0.01060  -0.0803  0.8387  0.0161  -3.6089   0.0000   0.0000   0.0000   0.0325
  -6.800  -0.3774   0.01507   0.00987  -0.0802  0.8368  0.0160  -3.5830   0.0000   0.0000   0.0000   0.0278
  -6.700  -0.3679   0.01448   0.00921  -0.0800  0.8349  0.0160  -3.5524   0.0000   0.0000   0.0000   0.0227
  -6.600  -0.3583   0.01395   0.00862  -0.0798  0.8330  0.0159  -3.5179   0.0000   0.0000   0.0000   0.0174
  -6.500  -0.3487   0.01347   0.00808  -0.0796  0.8311  0.0160  -3.4801   0.0000   0.0000   0.0000   0.0117
  -6.400  -0.3391   0.01304   0.00760  -0.0794  0.8290  0.0160  -3.4391   0.0000   0.0000   0.0000   0.0058
  -6.300  -0.3294   0.01267   0.00718  -0.0793  0.8267  0.0161  -3.3943   0.0000   0.0000   0.0000  -0.0007
  -6.200  -0.3195   0.01233   0.00677  -0.0791  0.8248  0.0162  -3.3463   0.0000   0.0000   0.0000  -0.0079
  -6.100  -0.3094   0.01199   0.00640  -0.0791  0.8231  0.0163  -3.2972   0.0000   0.0000   0.0000  -0.0157
  -6.000  -0.2993   0.01169   0.00607  -0.0790  0.8212  0.0165  -3.2452   0.0000   0.0000   0.0000  -0.0241
  -5.900  -0.2890   0.01143   0.00579  -0.0789  0.8191  0.0168  -3.1895   0.0000   0.0000   0.0000  -0.0334
  -5.800  -0.2786   0.01122   0.00556  -0.0789  0.8168  0.0171  -3.1287   0.0000   0.0000   0.0000  -0.0437
  -5.700  -0.2679   0.01107   0.00539  -0.0789  0.8144  0.0174  -3.0617   0.0000   0.0000   0.0000  -0.0551
  -5.600  -0.2570   0.01098   0.00528  -0.0789  0.8121  0.0177  -2.9880   0.0000   0.0000   0.0000  -0.0678
  -5.500  -0.2459   0.01093   0.00521  -0.0790  0.8098  0.0180  -2.9090   0.0000   0.0000   0.0000  -0.0820
  -5.400  -0.2347   0.01092   0.00519  -0.0790  0.8076  0.0182  -2.8262   0.0000   0.0000   0.0000  -0.0979
  -5.300  -0.2234   0.01094   0.00520  -0.0791  0.8052  0.0183  -2.7412   0.0000   0.0000   0.0000  -0.1156
  -5.100  -0.2046   0.01012   0.00429  -0.0788  0.8010  0.0211  -2.6591   0.0000   0.0000   0.0000  -0.1471
  -5.000  -0.1938   0.00998   0.00416  -0.0789  0.7992  0.0219  -2.5865   0.0000   0.0000   0.0000  -0.1694
  -4.900  -0.1827   0.00988   0.00406  -0.0790  0.7972  0.0224  -2.5109   0.0000   0.0000   0.0000  -0.1948
  -4.800  -0.1717   0.00979   0.00396  -0.0791  0.7950  0.0229  -2.4355   0.0000   0.0000   0.0000  -0.2234
  -4.700  -0.1607   0.00969   0.00386  -0.0791  0.7928  0.0233  -2.3613   0.0000   0.0000   0.0000  -0.2559
  -4.600  -0.1497   0.00960   0.00376  -0.0792  0.7905  0.0237  -2.2883   0.0000   0.0000   0.0000  -0.2930
  -4.500  -0.1387   0.00950   0.00365  -0.0792  0.7883  0.0241  -2.2167   0.0000   0.0000   0.0000  -0.3358
  -4.400  -0.1278   0.00941   0.00353  -0.0793  0.7859  0.0244  -2.1461   0.0000   0.0000   0.0000  -0.3857
  -4.300  -0.1169   0.00932   0.00341  -0.0793  0.7835  0.0247  -2.0766   0.0000   0.0000   0.0000  -0.4448
  -4.200  -0.1060   0.00923   0.00330  -0.0793  0.7809  0.0250  -2.0079   0.0000   0.0000   0.0000  -0.5161
  -4.100  -0.0950   0.00915   0.00318  -0.0794  0.7782  0.0253  -1.9397   0.0000   0.0000   0.0000  -0.6043
  -4.000  -0.0839   0.00903   0.00302  -0.0794  0.7768  0.0254  -1.8703   0.0000   0.0000   0.0000  -0.7179
  -3.900  -0.0727   0.00893   0.00292  -0.0795  0.7752  0.0256  -1.8034   0.0000   0.0000   0.0000  -0.8673
  -3.800  -0.0615   0.00884   0.00281  -0.0796  0.7734  0.0259  -1.7372   0.0000   0.0000   0.0000  -1.0712
  -3.700  -0.0503   0.00875   0.00271  -0.0797  0.7714  0.0261  -1.6718   0.0000   0.0000   0.0000  -1.3656
  -3.600  -0.0391   0.00867   0.00262  -0.0798  0.7693  0.0264  -1.6071   0.0000   0.0000   0.0000  -1.8280
  -3.500  -0.0279   0.00859   0.00252  -0.0798  0.7671  0.0267  -1.5431   0.0000   0.0000   0.0000  -2.6604
  -3.400  -0.0168   0.00852   0.00243  -0.0799  0.7650  0.0270  -1.4799   0.0000   0.0000   0.0000  -4.6018
  -3.300  -0.0056   0.00845   0.00234  -0.0800  0.7627  0.0273  -1.4173   0.0000   0.0000   0.0000  -14.2766
  -3.200   0.0056   0.00839   0.00225  -0.0800  0.7603  0.0276  -1.3554   0.0000   0.0000   0.0000  14.9041
  -3.100   0.0167   0.00834   0.00218  -0.0801  0.7577  0.0280  -1.3011   0.0000   0.0000   0.0000   5.1235
  -3.000   0.0279   0.00830   0.00211  -0.0802  0.7549  0.0284  -1.2596   0.0000   0.0000   0.0000   3.1715
  -2.900   0.0392   0.00825   0.00205  -0.0802  0.7526  0.0287  -1.2174   0.0000   0.0000   0.0000   2.3296
  -2.800   0.0503   0.00807   0.00187  -0.0803  0.7512  0.0353  -1.2117   0.0000   0.0000   0.0000   1.8691
  -2.700   0.0615   0.00798   0.00180  -0.0804  0.7496  0.0414  -1.1763   0.0000   0.0000   0.0000   1.5735
  -2.600   0.0725   0.00780   0.00173  -0.0805  0.7478  0.0642  -1.1387   0.0000   0.0000   0.0000   1.3744
  -2.500   0.0830   0.00752   0.00164  -0.0806  0.7459  0.1147  -1.0979   0.0000   0.0000   0.0000   1.2333
  -2.400   0.0931   0.00717   0.00154  -0.0807  0.7439  0.1904  -1.0572   0.0000   0.0000   0.0000   1.1273
  -2.300   0.1028   0.00671   0.00142  -0.0809  0.7420  0.2901  -1.0170   0.0000   0.0000   0.0000   1.0455
  -2.200   0.1122   0.00619   0.00129  -0.0810  0.7399  0.4084  -0.9772   0.0000   0.0000   0.0000   0.9799
  -2.100   0.1220   0.00583   0.00124  -0.0811  0.7379  0.5025  -0.9356   0.0000   0.0000   0.0000   0.9210
  -2.000   0.1329   0.00573   0.00125  -0.0811  0.7358  0.5401  -0.8914   0.0000   0.0000   0.0000   0.8661
  -1.900   0.1442   0.00571   0.00124  -0.0812  0.7337  0.5568  -0.8461   0.0000   0.0000   0.0000   0.8180
  -1.800   0.1554   0.00568   0.00123  -0.0813  0.7313  0.5686  -0.7983   0.0000   0.0000   0.0000   0.7771
  -1.700   0.1667   0.00569   0.00123  -0.0813  0.7287  0.5798  -0.7545   0.0000   0.0000   0.0000   0.7415
  -1.600   0.1783   0.00570   0.00123  -0.0815  0.7266  0.5866  -0.7109   0.0000   0.0000   0.0000   0.7101
  -1.500   0.1897   0.00567   0.00123  -0.0816  0.7256  0.5953  -0.6678   0.0000   0.0000   0.0000   0.6826
  -1.400   0.2013   0.00565   0.00124  -0.0817  0.7244  0.6035  -0.6251   0.0000   0.0000   0.0000   0.6582
  -1.300   0.2129   0.00565   0.00124  -0.0818  0.7230  0.6107  -0.5826   0.0000   0.0000   0.0000   0.6363
  -1.200   0.2244   0.00564   0.00125  -0.0819  0.7216  0.6191  -0.5764   0.0000   0.0000   0.0000   0.6168
  -1.100   0.2357   0.00562   0.00128  -0.0820  0.7200  0.6313  -0.5816   0.0000   0.0000   0.0000   0.5992
  -1.000   0.2472   0.00564   0.00130  -0.0821  0.7182  0.6410  -0.5871   0.0000   0.0000   0.0000   0.5831
  -0.900   0.2585   0.00564   0.00132  -0.0821  0.7164  0.6503  -0.5927   0.0000   0.0000   0.0000   0.5686
  -0.800   0.2698   0.00564   0.00135  -0.0822  0.7144  0.6590  -0.5983   0.0000   0.0000   0.0000   0.5552
  -0.700   0.2812   0.00567   0.00138  -0.0822  0.7125  0.6655  -0.6039   0.0000   0.0000   0.0000   0.5428
  -0.600   0.2927   0.00571   0.00140  -0.0823  0.7104  0.6694  -0.6096   0.0000   0.0000   0.0000   0.5315
  -0.500   0.3042   0.00575   0.00141  -0.0824  0.7083  0.6715  -0.6152   0.0000   0.0000   0.0000   0.5210
  -0.400   0.3155   0.00574   0.00140  -0.0825  0.7061  0.6753  -0.6208   0.0000   0.0000   0.0000   0.5114
  -0.300   0.3269   0.00575   0.00140  -0.0826  0.7037  0.6779  -0.6264   0.0000   0.0000   0.0000   0.5024
  -0.200   0.3383   0.00577   0.00141  -0.0827  0.7012  0.6799  -0.6319   0.0000   0.0000   0.0000   0.4940
  -0.100   0.3499   0.00578   0.00142  -0.0828  0.6995  0.6816  -0.6375   0.0000   0.0000   0.0000   0.4862
   0.000   0.3615   0.00577   0.00143  -0.0830  0.6987  0.6833  -0.6432   0.0000   0.0000   0.0000   0.4788
   0.100   0.3731   0.00577   0.00143  -0.0831  0.6976  0.6849  -0.6489   0.0000   0.0000   0.0000   0.4720
   0.200   0.3847   0.00577   0.00144  -0.0833  0.6965  0.6866  -0.6546   0.0000   0.0000   0.0000   0.4655
   0.300   0.3963   0.00578   0.00145  -0.0834  0.6952  0.6884  -0.6603   0.0000   0.0000   0.0000   0.4594
   0.400   0.4079   0.00578   0.00146  -0.0836  0.6939  0.6901  -0.6660   0.0000   0.0000   0.0000   0.4536
   0.500   0.4195   0.00579   0.00147  -0.0837  0.6925  0.6918  -0.6716   0.0000   0.0000   0.0000   0.4482
   0.600   0.4311   0.00580   0.00148  -0.0838  0.6910  0.6933  -0.6773   0.0000   0.0000   0.0000   0.4430
   0.700   0.4427   0.00581   0.00148  -0.0840  0.6894  0.6948  -0.6830   0.0000   0.0000   0.0000   0.4381
   0.800   0.4542   0.00583   0.00149  -0.0841  0.6877  0.6961  -0.6887   0.0000   0.0000   0.0000   0.4335
   0.900   0.4658   0.00585   0.00150  -0.0842  0.6859  0.6972  -0.6946   0.0000   0.0000   0.0000   0.4291
   1.000   0.4773   0.00587   0.00151  -0.0843  0.6841  0.6983  -0.7007   0.0000   0.0000   0.0000   0.4249
   1.100   0.4887   0.00588   0.00152  -0.0845  0.6822  0.6997  -0.7068   0.0000   0.0000   0.0000   0.4209
   1.200   0.5001   0.00589   0.00152  -0.0846  0.6802  0.7022  -0.7127   0.0000   0.0000   0.0000   0.4170
   1.300   0.5114   0.00590   0.00154  -0.0847  0.6781  0.7044  -0.7187   0.0000   0.0000   0.0000   0.4134
   1.400   0.5227   0.00593   0.00156  -0.0848  0.6759  0.7065  -0.7247   0.0000   0.0000   0.0000   0.4099
   1.500   0.5341   0.00596   0.00159  -0.0849  0.6736  0.7084  -0.7306   0.0000   0.0000   0.0000   0.4066
   1.600   0.5456   0.00598   0.00162  -0.0850  0.6719  0.7102  -0.7366   0.0000   0.0000   0.0000   0.4034
   1.700   0.5572   0.00598   0.00164  -0.0851  0.6711  0.7121  -0.7427   0.0000   0.0000   0.0000   0.4003
   1.800   0.5687   0.00598   0.00168  -0.0852  0.6701  0.7141  -0.7488   0.0000   0.0000   0.0000   0.3973
   1.900   0.5802   0.00599   0.00170  -0.0854  0.6688  0.7161  -0.7549   0.0000   0.0000   0.0000   0.3945
   2.000   0.5917   0.00599   0.00172  -0.0855  0.6672  0.7179  -0.7610   0.0000   0.0000   0.0000   0.3917
   2.100   0.6032   0.00600   0.00173  -0.0856  0.6653  0.7197  -0.7671   0.0000   0.0000   0.0000   0.3891
   2.200   0.6146   0.00601   0.00175  -0.0857  0.6631  0.7214  -0.7732   0.0000   0.0000   0.0000   0.3865
   2.300   0.6260   0.00602   0.00176  -0.0858  0.6605  0.7230  -0.7794   0.0000   0.0000   0.0000   0.3840
   2.400   0.6374   0.00605   0.00177  -0.0859  0.6577  0.7243  -0.7974   0.0000   0.0000   0.0000   0.3816
   2.500   0.6487   0.00607   0.00179  -0.0860  0.6548  0.7255  -0.8398   0.0000   0.0000   0.0000   0.3793
   2.600   0.6597   0.00609   0.00180  -0.0860  0.6515  0.7279  -0.8822   0.0000   0.0000   0.0000   0.3771
   2.700   0.6707   0.00613   0.00183  -0.0860  0.6474  0.7304  -0.9248   0.0000   0.0000   0.0000   0.3749
   2.800   0.6818   0.00616   0.00186  -0.0861  0.6433  0.7327  -0.9682   0.0000   0.0000   0.0000   0.3728
   2.900   0.6931   0.00614   0.00188  -0.0861  0.6409  0.7348  -1.0126   0.0000   0.0000   0.0000   0.3707
   3.000   0.7043   0.00613   0.00188  -0.0862  0.6359  0.7369  -1.0573   0.0000   0.0000   0.0000   0.3687
   3.100   0.7149   0.00616   0.00188  -0.0861  0.6268  0.7390  -1.1013   0.0000   0.0000   0.0000   0.3667
   3.200   0.7248   0.00625   0.00190  -0.0859  0.6150  0.7410  -1.1441   0.0000   0.0000   0.0000   0.3647
   3.300   0.7360   0.00625   0.00192  -0.0860  0.6086  0.7431  -1.1903   0.0000   0.0000   0.0000   0.3628
   3.400   0.7468   0.00629   0.00194  -0.0859  0.5992  0.7450  -1.2357   0.0000   0.0000   0.0000   0.3610
   3.500   0.7567   0.00639   0.00197  -0.0858  0.5881  0.7469  -1.2800   0.0000   0.0000   0.0000   0.3592
   3.600   0.7676   0.00643   0.00201  -0.0858  0.5801  0.7486  -1.3265   0.0000   0.0000   0.0000   0.3575
   3.700   0.7784   0.00648   0.00204  -0.0858  0.5710  0.7502  -1.3747   0.0000   0.0000   0.0000   0.3558
   3.900   0.7990   0.00663   0.00217  -0.0856  0.5538  0.7548  -1.4954   0.0000   0.0000   0.0000   0.3526
   4.000   0.8098   0.00666   0.00221  -0.0856  0.5458  0.7576  -1.5588   0.0000   0.0000   0.0000   0.3511
   4.100   0.8195   0.00677   0.00227  -0.0854  0.5312  0.7602  -1.6184   0.0000   0.0000   0.0000   0.3495
   4.200   0.8291   0.00688   0.00234  -0.0852  0.5159  0.7627  -1.6783   0.0000   0.0000   0.0000   0.3479
   4.300   0.8374   0.00708   0.00244  -0.0847  0.4908  0.7653  -1.7348   0.0000   0.0000   0.0000   0.3463
   4.400   0.8446   0.00737   0.00257  -0.0842  0.4558  0.7678  -1.7884   0.0000   0.0000   0.0000   0.3446
   4.500   0.8499   0.00781   0.00279  -0.0833  0.4080  0.7703  -1.8364   0.0000   0.0000   0.0000   0.3429
   4.600   0.8549   0.00828   0.00302  -0.0824  0.3600  0.7726  -1.8838   0.0000   0.0000   0.0000   0.3411
   4.700   0.8596   0.00877   0.00328  -0.0814  0.3142  0.7747  -1.9304   0.0000   0.0000   0.0000   0.3394
   4.800   0.8648   0.00921   0.00351  -0.0806  0.2711  0.7765  -1.9787   0.0000   0.0000   0.0000   0.3378
   4.900   0.8697   0.00965   0.00375  -0.0797  0.2307  0.7794  -2.0261   0.0000   0.0000   0.0000   0.3361
   5.000   0.8749   0.01004   0.00398  -0.0788  0.1935  0.7825  -2.0747   0.0000   0.0000   0.0000   0.3345
   5.100   0.8798   0.01044   0.00422  -0.0779  0.1590  0.7854  -2.1229   0.0000   0.0000   0.0000   0.3328
   5.200   0.8853   0.01080   0.00444  -0.0771  0.1285  0.7883  -2.1728   0.0000   0.0000   0.0000   0.3313
   5.300   0.8903   0.01119   0.00468  -0.0762  0.0993  0.7913  -2.2213   0.0000   0.0000   0.0000   0.3297
   5.400   0.8963   0.01151   0.00488  -0.0754  0.0763  0.7942  -2.2729   0.0000   0.0000   0.0000   0.3281
   5.500   0.9022   0.01184   0.00510  -0.0747  0.0563  0.7970  -2.3244   0.0000   0.0000   0.0000   0.3266
   5.600   0.9088   0.01211   0.00529  -0.0740  0.0432  0.7995  -2.3780   0.0000   0.0000   0.0000   0.3252
   5.800   0.9244   0.01247   0.00561  -0.0730  0.0322  0.8058  -2.4914   0.0000   0.0000   0.0000   0.3225
   5.900   0.9315   0.01268   0.00581  -0.0723  0.0279  0.8093  -2.5410   0.0000   0.0000   0.0000   0.3211
   6.000   0.9392   0.01285   0.00602  -0.0718  0.0260  0.8129  -2.5914   0.0000   0.0000   0.0000   0.3198
   6.100   0.9480   0.01295   0.00613  -0.0715  0.0258  0.8165  -2.6559   0.0000   0.0000   0.0000   0.3186
   6.200   0.9568   0.01305   0.00625  -0.0711  0.0255  0.8201  -2.7201   0.0000   0.0000   0.0000   0.3174
   6.300   0.9654   0.01317   0.00638  -0.0708  0.0251  0.8236  -2.7841   0.0000   0.0000   0.0000   0.3163
   6.400   0.9736   0.01327   0.00652  -0.0703  0.0247  0.8282  -2.8469   0.0000   0.0000   0.0000   0.3151
   6.500   0.9813   0.01337   0.00665  -0.0698  0.0243  0.8334  -2.9082   0.0000   0.0000   0.0000   0.3139
   6.600   0.9886   0.01348   0.00679  -0.0691  0.0238  0.8392  -2.9684   0.0000   0.0000   0.0000   0.3126
   6.700   0.9957   0.01359   0.00693  -0.0685  0.0233  0.8454  -3.0282   0.0000   0.0000   0.0000   0.3113
   6.800   1.0023   0.01369   0.00708  -0.0677  0.0228  0.8540  -3.0867   0.0000   0.0000   0.0000   0.3100
   6.900   1.0087   0.01381   0.00729  -0.0669  0.0222  0.8649  -3.1426   0.0000   0.0000   0.0000   0.3087
   7.000   1.0142   0.01392   0.00745  -0.0659  0.0216  0.8817  -3.2177   0.0000   0.0000   0.0000   0.3072
   7.100   1.0172   0.01396   0.00762  -0.0644  0.0209  0.9211  -3.2818   0.0000   0.0000   0.0000   0.3054
   7.200   1.0279   0.01415   0.00787  -0.0646  0.0195  1.0000  -3.3754   0.0000   0.0000   0.0000   0.3048
   7.300   1.0287   0.01469   0.00846  -0.0629  0.0173  1.0000  -3.4037   0.0000   0.0000   0.0000   0.3030
   7.400   1.0289   0.01526   0.00912  -0.0612  0.0165  1.0000  -3.4310   0.0000   0.0000   0.0000   0.3012
   7.500   1.0361   0.01545   0.00932  -0.0607  0.0165  1.0000  -3.5134   0.0000   0.0000   0.0000   0.3002
   7.600   1.0432   0.01565   0.00953  -0.0602  0.0164  1.0000  -3.5956   0.0000   0.0000   0.0000   0.2992
   7.700   1.0504   0.01584   0.00972  -0.0597  0.0163  1.0000  -3.6807   0.0000   0.0000   0.0000   0.2982
   7.800   1.0579   0.01602   0.00990  -0.0593  0.0162  1.0000  -3.7689   0.0000   0.0000   0.0000   0.2973
   7.900   1.0656   0.01618   0.01007  -0.0589  0.0161  1.0000  -3.8596   0.0000   0.0000   0.0000   0.2963
   8.000   1.0733   0.01635   0.01024  -0.0585  0.0159  1.0000  -3.9521   0.0000   0.0000   0.0000   0.2955
   8.100   1.0810   0.01651   0.01041  -0.0581  0.0157  1.0000  -4.0453   0.0000   0.0000   0.0000   0.2946
   8.200   1.0885   0.01669   0.01059  -0.0577  0.0155  1.0000  -4.1386   0.0000   0.0000   0.0000   0.2937
   8.300   1.0960   0.01687   0.01077  -0.0572  0.0153  1.0000  -4.2320   0.0000   0.0000   0.0000   0.2928
   8.400   1.1033   0.01706   0.01097  -0.0568  0.0151  1.0000  -4.3254   0.0000   0.0000   0.0000   0.2920
   8.500   1.1105   0.01726   0.01117  -0.0564  0.0148  1.0000  -4.4188   0.0000   0.0000   0.0000   0.2911
   8.600   1.1176   0.01746   0.01139  -0.0559  0.0146  1.0000  -4.5122   0.0000   0.0000   0.0000   0.2902
   8.700   1.1245   0.01768   0.01162  -0.0554  0.0144  1.0000  -4.6050   0.0000   0.0000   0.0000   0.2894
   8.800   1.1313   0.01791   0.01186  -0.0550  0.0141  1.0000  -4.6973   0.0000   0.0000   0.0000   0.2885
   8.900   1.1379   0.01816   0.01211  -0.0544  0.0139  1.0000  -4.7891   0.0000   0.0000   0.0000   0.2876
   9.000   1.1443   0.01841   0.01238  -0.0539  0.0137  1.0000  -4.8803   0.0000   0.0000   0.0000   0.2868
   9.100   1.1506   0.01867   0.01265  -0.0534  0.0135  1.0000  -4.9708   0.0000   0.0000   0.0000   0.2859
   9.200   1.1567   0.01895   0.01295  -0.0528  0.0134  1.0000  -5.0600   0.0000   0.0000   0.0000   0.2850
   9.300   1.1624   0.01926   0.01328  -0.0522  0.0133  1.0000  -5.1466   0.0000   0.0000   0.0000   0.2842
   9.400   1.1677   0.01959   0.01364  -0.0516  0.0132  1.0000  -5.2302   0.0000   0.0000   0.0000   0.2832
   9.500   1.1728   0.01995   0.01401  -0.0509  0.0131  1.0000  -5.3124   0.0000   0.0000   0.0000   0.2823
   9.600   1.1765   0.02042   0.01456  -0.0500  0.0131  1.0000  -5.3743   0.0000   0.0000   0.0000   0.2813
   9.700   1.1816   0.02079   0.01495  -0.0494  0.0131  1.0000  -5.4556   0.0000   0.0000   0.0000   0.2804
   9.800   1.1869   0.02114   0.01533  -0.0487  0.0130  1.0000  -5.5406   0.0000   0.0000   0.0000   0.2796
   9.900   1.1919   0.02152   0.01573  -0.0481  0.0129  1.0000  -5.6245   0.0000   0.0000   0.0000   0.2787
  10.000   1.1968   0.02190   0.01614  -0.0474  0.0128  1.0000  -5.7073   0.0000   0.0000   0.0000   0.2779
  10.100   1.2017   0.02229   0.01655  -0.0468  0.0127  1.0000  -5.7914   0.0000   0.0000   0.0000   0.2770
  10.200   1.2068   0.02268   0.01697  -0.0462  0.0126  1.0000  -5.8770   0.0000   0.0000   0.0000   0.2762
  10.300   1.2120   0.02307   0.01738  -0.0456  0.0126  1.0000  -5.9638   0.0000   0.0000   0.0000   0.2754
  10.400   1.2172   0.02346   0.01779  -0.0451  0.0125  1.0000  -6.0516   0.0000   0.0000   0.0000   0.2747
  10.500   1.2222   0.02386   0.01822  -0.0445  0.0124  1.0000  -6.1392   0.0000   0.0000   0.0000   0.2739
  10.600   1.2272   0.02426   0.01864  -0.0439  0.0123  1.0000  -6.2275   0.0000   0.0000   0.0000   0.2731
  10.700   1.2323   0.02466   0.01907  -0.0434  0.0122  1.0000  -6.3171   0.0000   0.0000   0.0000   0.2724
  10.800   1.2376   0.02506   0.01949  -0.0429  0.0121  1.0000  -6.4085   0.0000   0.0000   0.0000   0.2717
  10.900   1.2429   0.02545   0.01990  -0.0424  0.0120  1.0000  -6.5014   0.0000   0.0000   0.0000   0.2710
  11.000   1.2483   0.02584   0.02031  -0.0419  0.0119  1.0000  -6.5958   0.0000   0.0000   0.0000   0.2703
  11.100   1.2537   0.02622   0.02071  -0.0414  0.0118  1.0000  -6.6913   0.0000   0.0000   0.0000   0.2696
  11.200   1.2589   0.02662   0.02113  -0.0409  0.0117  1.0000  -6.7867   0.0000   0.0000   0.0000   0.2689
  11.300   1.2640   0.02702   0.02155  -0.0404  0.0116  1.0000  -6.8823   0.0000   0.0000   0.0000   0.2682
  11.400   1.2692   0.02743   0.02197  -0.0400  0.0114  1.0000  -6.9787   0.0000   0.0000   0.0000   0.2676
  11.500   1.2743   0.02783   0.02240  -0.0395  0.0113  1.0000  -7.0760   0.0000   0.0000   0.0000   0.2669
  11.600   1.2795   0.02825   0.02283  -0.0391  0.0112  1.0000  -7.1739   0.0000   0.0000   0.0000   0.2663
  11.700   1.2846   0.02867   0.02328  -0.0387  0.0110  1.0000  -7.2712   0.0000   0.0000   0.0000   0.2657
  11.800   1.2895   0.02912   0.02374  -0.0382  0.0109  1.0000  -7.3668   0.0000   0.0000   0.0000   0.2650
  11.900   1.2939   0.02961   0.02426  -0.0377  0.0107  1.0000  -7.4586   0.0000   0.0000   0.0000   0.2644
  12.000   1.2977   0.03016   0.02483  -0.0372  0.0105  1.0000  -7.5527   0.0000   0.0000   0.0000   0.2637
  12.100   1.3009   0.03077   0.02547  -0.0366  0.0103  1.0000  -7.6504   0.0000   0.0000   0.0000   0.2631
  12.200   1.3033   0.03148   0.02623  -0.0360  0.0101  1.0000  -7.7379   0.0000   0.0000   0.0000   0.2623
  12.300   1.3035   0.03246   0.02730  -0.0351  0.0097  1.0000  -7.7938   0.0000   0.0000   0.0000   0.2615
  12.400   1.2949   0.03476   0.02977  -0.0333  0.0089  1.0000  -7.7224   0.0000   0.0000   0.0000   0.2602
  12.500   1.3010   0.03499   0.03003  -0.0331  0.0089  1.0000  -7.8580   0.0000   0.0000   0.0000   0.2597
  12.600   1.3070   0.03526   0.03031  -0.0329  0.0089  1.0000  -7.9954   0.0000   0.0000   0.0000   0.2592
  12.700   1.3127   0.03556   0.03062  -0.0326  0.0088  1.0000  -8.1307   0.0000   0.0000   0.0000   0.2588
  12.800   1.3182   0.03589   0.03095  -0.0324  0.0088  1.0000  -8.2660   0.0000   0.0000   0.0000   0.2583
  12.900   1.3239   0.03621   0.03128  -0.0322  0.0087  1.0000  -8.4037   0.0000   0.0000   0.0000   0.2579
  13.000   1.3299   0.03652   0.03161  -0.0321  0.0087  1.0000  -8.5440   0.0000   0.0000   0.0000   0.2575
  13.100   1.3359   0.03683   0.03193  -0.0319  0.0086  1.0000  -8.6863   0.0000   0.0000   0.0000   0.2571
  13.200   1.3420   0.03715   0.03225  -0.0317  0.0086  1.0000  -8.8302   0.0000   0.0000   0.0000   0.2566
  13.300   1.3480   0.03748   0.03259  -0.0316  0.0085  1.0000  -8.9732   0.0000   0.0000   0.0000   0.2562
  13.400   1.3536   0.03786   0.03297  -0.0314  0.0084  1.0000  -9.1131   0.0000   0.0000   0.0000   0.2558
  13.500   1.3591   0.03824   0.03337  -0.0312  0.0083  1.0000  -9.2530   0.0000   0.0000   0.0000   0.2554
  13.600   1.3647   0.03863   0.03377  -0.0311  0.0082  1.0000  -9.3940   0.0000   0.0000   0.0000   0.2550
  13.700   1.3704   0.03902   0.03418  -0.0309  0.0081  1.0000  -9.5358   0.0000   0.0000   0.0000   0.2546
  13.800   1.3760   0.03943   0.03460  -0.0307  0.0080  1.0000  -9.6774   0.0000   0.0000   0.0000   0.2542
  13.900   1.3815   0.03985   0.03504  -0.0306  0.0078  1.0000  -9.8176   0.0000   0.0000   0.0000   0.2538
  14.000   1.3868   0.04031   0.03551  -0.0304  0.0076  1.0000  -9.9551   0.0000   0.0000   0.0000   0.2534
  14.100   1.3913   0.04084   0.03606  -0.0302  0.0075  1.0000  -10.0852   0.0000   0.0000   0.0000   0.2530
  14.200   1.3954   0.04142   0.03666  -0.0300  0.0073  1.0000  -10.2097   0.0000   0.0000   0.0000   0.2526
  14.300   1.3992   0.04204   0.03730  -0.0298  0.0071  1.0000  -10.3319   0.0000   0.0000   0.0000   0.2521
  14.400   1.4030   0.04267   0.03795  -0.0295  0.0069  1.0000  -10.4526   0.0000   0.0000   0.0000   0.2517
  14.500   1.4066   0.04332   0.03863  -0.0293  0.0068  1.0000  -10.5721   0.0000   0.0000   0.0000   0.2513
  14.600   1.4102   0.04399   0.03932  -0.0291  0.0066  1.0000  -10.6903   0.0000   0.0000   0.0000   0.2509
  14.700   1.4135   0.04468   0.04004  -0.0289  0.0065  1.0000  -10.8072   0.0000   0.0000   0.0000   0.2505
  14.800   1.4162   0.04544   0.04083  -0.0287  0.0063  1.0000  -10.9178   0.0000   0.0000   0.0000   0.2501
  14.900   1.4185   0.04624   0.04166  -0.0284  0.0062  1.0000  -11.0247   0.0000   0.0000   0.0000   0.2497
  15.000   1.4204   0.04708   0.04256  -0.0282  0.0061  1.0000  -11.1283   0.0000   0.0000   0.0000   0.2493
  15.100   1.4228   0.04788   0.04338  -0.0280  0.0060  1.0000  -11.2383   0.0000   0.0000   0.0000   0.2489
  15.200   1.4255   0.04867   0.04420  -0.0279  0.0059  1.0000  -11.3506   0.0000   0.0000   0.0000   0.2486
  15.300   1.4281   0.04947   0.04503  -0.0277  0.0058  1.0000  -11.4636   0.0000   0.0000   0.0000   0.2482
  15.400   1.4304   0.05032   0.04591  -0.0276  0.0057  1.0000  -11.5731   0.0000   0.0000   0.0000   0.2479
  15.500   1.4320   0.05126   0.04688  -0.0274  0.0057  1.0000  -11.6758   0.0000   0.0000   0.0000   0.2476
  15.600   1.4337   0.05220   0.04785  -0.0273  0.0056  1.0000  -11.7791   0.0000   0.0000   0.0000   0.2473
  15.700   1.4356   0.05313   0.04881  -0.0273  0.0055  1.0000  -11.8851   0.0000   0.0000   0.0000   0.2470
  15.800   1.4375   0.05405   0.04976  -0.0272  0.0054  1.0000  -11.9921   0.0000   0.0000   0.0000   0.2467
  15.900   1.4395   0.05499   0.05073  -0.0271  0.0054  1.0000  -12.0992   0.0000   0.0000   0.0000   0.2464
  16.000   1.4410   0.05599   0.05176  -0.0271  0.0053  1.0000  -12.2013   0.0000   0.0000   0.0000   0.2461
  16.100   1.4415   0.05712   0.05293  -0.0271  0.0052  1.0000  -12.2920   0.0000   0.0000   0.0000   0.2459
  16.200   1.4420   0.05826   0.05410  -0.0271  0.0052  1.0000  -12.3831   0.0000   0.0000   0.0000   0.2456
  16.300   1.4428   0.05939   0.05526  -0.0271  0.0051  1.0000  -12.4762   0.0000   0.0000   0.0000   0.2454
  16.400   1.4435   0.06053   0.05644  -0.0271  0.0050  1.0000  -12.5677   0.0000   0.0000   0.0000   0.2452
  16.500   1.4440   0.06171   0.05766  -0.0272  0.0049  1.0000  -12.6553   0.0000   0.0000   0.0000   0.2450
  16.600   1.4431   0.06308   0.05907  -0.0273  0.0049  1.0000  -12.7276   0.0000   0.0000   0.0000   0.2449
  16.700   1.4417   0.06455   0.06059  -0.0274  0.0048  1.0000  -12.7920   0.0000   0.0000   0.0000   0.2447
  16.800   1.4405   0.06600   0.06209  -0.0276  0.0048  1.0000  -12.8572   0.0000   0.0000   0.0000   0.2446
  16.900   1.4391   0.06748   0.06362  -0.0277  0.0047  1.0000  -12.9190   0.0000   0.0000   0.0000   0.2445
  17.000   1.4373   0.06904   0.06523  -0.0279  0.0046  1.0000  -12.9742   0.0000   0.0000   0.0000   0.2445
  17.100   1.4337   0.07086   0.06712  -0.0283  0.0046  1.0000  -13.0073   0.0000   0.0000   0.0000   0.2445
  17.200   1.4300   0.07271   0.06902  -0.0286  0.0045  1.0000  -13.0371   0.0000   0.0000   0.0000   0.2445
  17.300   1.4263   0.07457   0.07094  -0.0289  0.0045  1.0000  -13.0659   0.0000   0.0000   0.0000   0.2446
  17.400   1.4223   0.07653   0.07297  -0.0293  0.0044  1.0000  -13.0870   0.0000   0.0000   0.0000   0.2447
  17.500   1.4165   0.07880   0.07531  -0.0300  0.0043  1.0000  -13.0869   0.0000   0.0000   0.0000   0.2450
  17.600   1.4110   0.08108   0.07766  -0.0306  0.0043  1.0000  -13.0867   0.0000   0.0000   0.0000   0.2453
  17.700   1.4054   0.08341   0.08006  -0.0312  0.0042  1.0000  -13.0817   0.0000   0.0000   0.0000   0.2456
  17.800   1.3984   0.08601   0.08274  -0.0321  0.0042  1.0000  -13.0594   0.0000   0.0000   0.0000   0.2460
  17.900   1.3913   0.08869   0.08550  -0.0330  0.0042  1.0000  -13.0316   0.0000   0.0000   0.0000   0.2466
  18.000   1.3841   0.09141   0.08830  -0.0340  0.0041  1.0000  -12.9993   0.0000   0.0000   0.0000   0.2472
  18.100   1.3758   0.09441   0.09137  -0.0352  0.0041  1.0000  -12.9523   0.0000   0.0000   0.0000   0.2480
  18.200   1.3677   0.09742   0.09446  -0.0364  0.0041  1.0000  -12.9022   0.0000   0.0000   0.0000   0.2488
  18.300   1.3591   0.10056   0.09769  -0.0378  0.0040  1.0000  -12.8442   0.0000   0.0000   0.0000   0.2497
  18.400   1.3503   0.10383   0.10104  -0.0394  0.0040  1.0000  -12.7800   0.0000   0.0000   0.0000   0.2508
  18.500   1.3414   0.10715   0.10443  -0.0410  0.0040  1.0000  -12.7111   0.0000   0.0000   0.0000   0.2519
  18.600   1.3324   0.11061   0.10797  -0.0427  0.0040  1.0000  -12.6371   0.0000   0.0000   0.0000   0.2533
  18.700   1.3234   0.11409   0.11153  -0.0445  0.0040  1.0000  -12.5588   0.0000   0.0000   0.0000   0.2546
  18.800   1.3143   0.11762   0.11513  -0.0465  0.0039  1.0000  -12.4787   0.0000   0.0000   0.0000   0.2561
  18.900   1.3054   0.12118   0.11876  -0.0485  0.0039  1.0000  -12.3952   0.0000   0.0000   0.0000   0.2576
  19.000   1.2965   0.12480   0.12245  -0.0505  0.0039  1.0000  -12.3094   0.0000   0.0000   0.0000   0.2593
  19.100   1.2878   0.12851   0.12622  -0.0527  0.0039  1.0000  -12.2206   0.0000   0.0000   0.0000   0.2610
  19.200   1.2793   0.13223   0.13001  -0.0549  0.0039  1.0000  -12.1281   0.0000   0.0000   0.0000   0.2628
  19.300   1.2708   0.13605   0.13389  -0.0572  0.0040  1.0000  -12.0331   0.0000   0.0000   0.0000   0.2646
  19.400   1.2624   0.13986   0.13776  -0.0595  0.0040  1.0000  -11.9331   0.0000   0.0000   0.0000   0.2666
  19.500   1.2541   0.14377   0.14173  -0.0618  0.0040  1.0000  -11.8287   0.0000   0.0000   0.0000   0.2686
  19.600   1.2458   0.14773   0.14574  -0.0643  0.0040  1.0000  -11.7180   0.0000   0.0000   0.0000   0.2707
  19.700   1.2375   0.15173   0.14980  -0.0667  0.0040  1.0000  -11.6000   0.0000   0.0000   0.0000   0.2728
  19.800   1.2289   0.15591   0.15403  -0.0693  0.0041  1.0000  -11.4694   0.0000   0.0000   0.0000   0.2751
  19.900   1.2201   0.16019   0.15837  -0.0719  0.0041  1.0000  -11.3258   0.0000   0.0000   0.0000   0.2775
  20.000   1.2108   0.16463   0.16286  -0.0746  0.0041  1.0000  -11.1645   0.0000   0.0000   0.0000   0.2801
  20.100   1.2003   0.16954   0.16783  -0.0776  0.0042  1.0000  -10.9645   0.0000   0.0000   0.0000   0.2830
  20.200   1.1875   0.17519   0.17354  -0.0809  0.0043  1.0000  -10.6976   0.0000   0.0000   0.0000   0.2865


