xflr5 v6.61

 Calculated polar for: NACA M6 AIRFOIL

 1 1 Reynolds number fixed          Mach number fixed         

 xtrf =   1.000 (top)        1.000 (bottom)
 Mach =   0.000     Re =     0.400 e 6     Ncrit =   9.000

  alpha     CL        CD       CDp       Cm    Top Xtr Bot Xtr   Cpmin    Chinge    XCp    
 ------- -------- --------- --------- -------- ------- ------- -------- --------- ---------
 -10.000  -0.4926   0.10999   0.10711  -0.0031  1.0000  0.0496  -1.6041   0.0000   0.0000   0.0000   0.2353
  -9.900  -0.4915   0.10840   0.10552  -0.0040  1.0000  0.0497  -1.6147   0.0000   0.0000   0.0000   0.2335
  -9.800  -0.4905   0.10678   0.10391  -0.0050  1.0000  0.0497  -1.6260   0.0000   0.0000   0.0000   0.2317
  -9.700  -0.4896   0.10514   0.10228  -0.0060  1.0000  0.0497  -1.6382   0.0000   0.0000   0.0000   0.2297
  -9.600  -0.4889   0.10347   0.10062  -0.0070  1.0000  0.0497  -1.6513   0.0000   0.0000   0.0000   0.2276
  -9.500  -0.4884   0.10177   0.09892  -0.0082  1.0000  0.0497  -1.6657   0.0000   0.0000   0.0000   0.2254
  -9.400  -0.4882   0.10002   0.09717  -0.0094  1.0000  0.0498  -1.6815   0.0000   0.0000   0.0000   0.2230
  -9.300  -0.4883   0.09820   0.09536  -0.0108  1.0000  0.0498  -1.6992   0.0000   0.0000   0.0000   0.2204
  -9.200  -0.4886   0.09627   0.09344  -0.0124  1.0000  0.0498  -1.7196   0.0000   0.0000   0.0000   0.2173
  -9.100  -0.4893   0.09414   0.09132  -0.0144  1.0000  0.0498  -1.7442   0.0000   0.0000   0.0000   0.2133
  -9.000  -0.4907   0.09182   0.08899  -0.0168  1.0000  0.0498  -1.7740   0.0000   0.0000   0.0000   0.2087
  -8.900  -0.4926   0.08971   0.08687  -0.0187  1.0000  0.0498  -1.8013   0.0000   0.0000   0.0000   0.2052
  -8.800  -0.4949   0.08781   0.08496  -0.0200  1.0000  0.0498  -1.8259   0.0000   0.0000   0.0000   0.2030
  -8.700  -0.4979   0.08602   0.08315  -0.0209  1.0000  0.0499  -1.8499   0.0000   0.0000   0.0000   0.2015
  -8.600  -0.5014   0.08440   0.08151  -0.0214  1.0000  0.0499  -1.8715   0.0000   0.0000   0.0000   0.2009
  -8.500  -0.5044   0.08281   0.07991  -0.0217  1.0000  0.0499  -1.8918   0.0000   0.0000   0.0000   0.2007
  -8.400  -0.5068   0.08125   0.07832  -0.0220  1.0000  0.0499  -1.9104   0.0000   0.0000   0.0000   0.2006
  -8.300  -0.5083   0.07967   0.07672  -0.0223  1.0000  0.0499  -1.9272   0.0000   0.0000   0.0000   0.2002
  -8.200  -0.5092   0.07811   0.07513  -0.0226  1.0000  0.0499  -1.9418   0.0000   0.0000   0.0000   0.1998
  -8.100  -0.5096   0.07656   0.07355  -0.0228  1.0000  0.0499  -1.9552   0.0000   0.0000   0.0000   0.1995
  -8.000  -0.5097   0.07502   0.07198  -0.0230  1.0000  0.0499  -1.9673   0.0000   0.0000   0.0000   0.1992
  -7.900  -0.5093   0.07349   0.07042  -0.0231  1.0000  0.0499  -1.9783   0.0000   0.0000   0.0000   0.1989
  -7.800  -0.5086   0.07198   0.06888  -0.0232  1.0000  0.0499  -1.9882   0.0000   0.0000   0.0000   0.1987
  -7.700  -0.5074   0.07050   0.06736  -0.0233  1.0000  0.0500  -1.9968   0.0000   0.0000   0.0000   0.1986
  -7.600  -0.5059   0.06905   0.06587  -0.0233  1.0000  0.0500  -2.0038   0.0000   0.0000   0.0000   0.1984
  -7.500  -0.5585   0.05572   0.05226  -0.0231  1.0000  0.0524  -2.3725   0.0000   0.0000   0.0000   0.2031
  -7.400  -0.5565   0.05411   0.05063  -0.0229  1.0000  0.0528  -2.3660   0.0000   0.0000   0.0000   0.2034
  -7.300  -0.5522   0.05276   0.04926  -0.0229  0.9947  0.0533  -2.3500   0.0000   0.0000   0.0000   0.2032
  -7.200  -0.5447   0.05145   0.04791  -0.0235  0.9828  0.0537  -2.3258   0.0000   0.0000   0.0000   0.2016
  -7.100  -0.5361   0.05022   0.04665  -0.0241  0.9728  0.0541  -2.2981   0.0000   0.0000   0.0000   0.1998
  -7.000  -0.5266   0.04907   0.04547  -0.0249  0.9634  0.0545  -2.2670   0.0000   0.0000   0.0000   0.1975
  -6.800  -0.5082   0.04723   0.04359  -0.0258  0.9447  0.0553  -2.1979   0.0000   0.0000   0.0000   0.1942
  -6.700  -0.5020   0.04646   0.04279  -0.0255  0.9354  0.0556  -2.1694   0.0000   0.0000   0.0000   0.1943
  -6.600  -0.4960   0.04572   0.04202  -0.0251  0.9259  0.0560  -2.1414   0.0000   0.0000   0.0000   0.1945
  -6.500  -0.4902   0.04501   0.04126  -0.0246  0.9163  0.0564  -2.1143   0.0000   0.0000   0.0000   0.1950
  -6.400  -0.4845   0.04432   0.04052  -0.0240  0.9060  0.0568  -2.0879   0.0000   0.0000   0.0000   0.1956
  -6.300  -0.4782   0.04360   0.03976  -0.0236  0.8987  0.0572  -2.0608   0.0000   0.0000   0.0000   0.1958
  -6.200  -0.4717   0.04287   0.03900  -0.0233  0.8950  0.0577  -2.0340   0.0000   0.0000   0.0000   0.1959
  -6.100  -0.4652   0.04214   0.03824  -0.0229  0.8903  0.0582  -2.0077   0.0000   0.0000   0.0000   0.1960
  -6.000  -0.4586   0.04142   0.03748  -0.0226  0.8845  0.0588  -1.9820   0.0000   0.0000   0.0000   0.1962
  -5.900  -0.4520   0.04071   0.03673  -0.0222  0.8779  0.0594  -1.9570   0.0000   0.0000   0.0000   0.1964
  -5.800  -0.4454   0.04000   0.03597  -0.0217  0.8706  0.0601  -1.9326   0.0000   0.0000   0.0000   0.1967
  -5.700  -0.4387   0.03930   0.03521  -0.0213  0.8627  0.0609  -1.9090   0.0000   0.0000   0.0000   0.1970
  -5.600  -0.4320   0.03861   0.03445  -0.0208  0.8542  0.0617  -1.8861   0.0000   0.0000   0.0000   0.1974
  -5.500  -0.4253   0.03793   0.03370  -0.0202  0.8448  0.0626  -1.8642   0.0000   0.0000   0.0000   0.1979
  -5.400  -0.4185   0.03726   0.03296  -0.0197  0.8341  0.0636  -1.8429   0.0000   0.0000   0.0000   0.1984
  -5.300  -0.4112   0.03661   0.03222  -0.0193  0.8213  0.0648  -1.8218   0.0000   0.0000   0.0000   0.1987
  -5.200  -0.4032   0.03599   0.03151  -0.0190  0.8079  0.0661  -1.8007   0.0000   0.0000   0.0000   0.1985
  -5.100  -0.3946   0.03542   0.03086  -0.0187  0.7995  0.0677  -1.7791   0.0000   0.0000   0.0000   0.1981
  -5.000  -0.3855   0.03497   0.03035  -0.0184  0.7978  0.0694  -1.7562   0.0000   0.0000   0.0000   0.1978
  -4.900  -0.3753   0.03490   0.03021  -0.0181  0.7956  0.0712  -1.7275   0.0000   0.0000   0.0000   0.1972
  -4.800  -0.3632   0.03552   0.03079  -0.0179  0.7928  0.0730  -1.6851   0.0000   0.0000   0.0000   0.1962
  -4.700  -0.3501   0.03663   0.03186  -0.0177  0.7894  0.0742  -1.6330   0.0000   0.0000   0.0000   0.1949
  -4.600  -0.3395   0.03694   0.03213  -0.0174  0.7859  0.0746  -1.5966   0.0000   0.0000   0.0000   0.1942
  -4.500  -0.3301   0.03675   0.03187  -0.0171  0.7821  0.0748  -1.5698   0.0000   0.0000   0.0000   0.1937
  -4.400  -0.3391   0.03000   0.02480  -0.0158  0.7795  0.0784  -1.6755   0.0000   0.0000   0.0000   0.1987
  -4.300  -0.3313   0.02909   0.02388  -0.0156  0.7753  0.0796  -1.6442   0.0000   0.0000   0.0000   0.1982
  -4.200  -0.3223   0.02853   0.02332  -0.0155  0.7706  0.0806  -1.6069   0.0000   0.0000   0.0000   0.1973
  -4.100  -0.3130   0.02808   0.02289  -0.0154  0.7657  0.0816  -1.5676   0.0000   0.0000   0.0000   0.1963
  -4.000  -0.3036   0.02771   0.02252  -0.0153  0.7604  0.0826  -1.5287   0.0000   0.0000   0.0000   0.1952
  -3.900  -0.2942   0.02739   0.02220  -0.0151  0.7548  0.0838  -1.4904   0.0000   0.0000   0.0000   0.1942
  -3.800  -0.2847   0.02713   0.02192  -0.0149  0.7488  0.0852  -1.4529   0.0000   0.0000   0.0000   0.1932
  -3.700  -0.2751   0.02691   0.02168  -0.0147  0.7419  0.0867  -1.4162   0.0000   0.0000   0.0000   0.1921
  -3.600  -0.2652   0.02676   0.02149  -0.0146  0.7341  0.0885  -1.3799   0.0000   0.0000   0.0000   0.1907
  -3.500  -0.2548   0.02670   0.02140  -0.0145  0.7254  0.0906  -1.3434   0.0000   0.0000   0.0000   0.1888
  -3.400  -0.2438   0.02680   0.02147  -0.0144  0.7164  0.0928  -1.3056   0.0000   0.0000   0.0000   0.1864
  -3.300  -0.2319   0.02714   0.02182  -0.0145  0.7074  0.0952  -1.2647   0.0000   0.0000   0.0000   0.1830
  -3.200  -0.2188   0.02792   0.02261  -0.0146  0.6999  0.0974  -1.2173   0.0000   0.0000   0.0000   0.1786
  -3.100  -0.2049   0.02919   0.02392  -0.0147  0.6993  0.0990  -1.1622   0.0000   0.0000   0.0000   0.1738
  -3.000  -0.2088   0.02369   0.01807  -0.0136  0.6988  0.1082  -1.2273   0.0000   0.0000   0.0000   0.1801
  -2.900  -0.1999   0.02289   0.01732  -0.0136  0.6981  0.1114  -1.1966   0.0000   0.0000   0.0000   0.1775
  -2.800  -0.1904   0.02242   0.01687  -0.0135  0.6973  0.1141  -1.1628   0.0000   0.0000   0.0000   0.1745
  -2.700  -0.1807   0.02204   0.01652  -0.0134  0.6963  0.1168  -1.1287   0.0000   0.0000   0.0000   0.1710
  -2.600  -0.1707   0.02169   0.01621  -0.0134  0.6952  0.1197  -1.0945   0.0000   0.0000   0.0000   0.1668
  -2.500  -0.1606   0.02137   0.01592  -0.0133  0.6939  0.1230  -1.0615   0.0000   0.0000   0.0000   0.1622
  -2.400  -0.1504   0.02108   0.01565  -0.0133  0.6925  0.1268  -1.0297   0.0000   0.0000   0.0000   0.1570
  -2.300  -0.1401   0.02083   0.01541  -0.0132  0.6909  0.1310  -0.9993   0.0000   0.0000   0.0000   0.1510
  -2.200  -0.1294   0.02065   0.01523  -0.0131  0.6892  0.1356  -0.9696   0.0000   0.0000   0.0000   0.1438
  -2.100  -0.1184   0.02060   0.01518  -0.0130  0.6873  0.1403  -0.9395   0.0000   0.0000   0.0000   0.1349
  -2.000  -0.1066   0.02086   0.01545  -0.0130  0.6853  0.1445  -0.9063   0.0000   0.0000   0.0000   0.1230
  -1.900  -0.0923   0.02237   0.01703  -0.0130  0.6828  0.1487  -0.8558   0.0000   0.0000   0.0000   0.1032
  -1.800  -0.0906   0.01862   0.01310  -0.0125  0.6812  0.1614  -0.8713   0.0000   0.0000   0.0000   0.1058
  -1.700  -0.0810   0.01814   0.01270  -0.0124  0.6788  0.1658  -0.8426   0.0000   0.0000   0.0000   0.0906
  -1.600  -0.0710   0.01783   0.01244  -0.0123  0.6763  0.1699  -0.8137   0.0000   0.0000   0.0000   0.0705
  -1.400  -0.0325   0.01401   0.00705  -0.0098  0.6724  0.0696  -1.0484   0.0000   0.0000   0.0000  -0.0702
  -1.300  -0.0206   0.01301   0.00579  -0.0090  0.6695  0.0589  -1.0918   0.0000   0.0000   0.0000  -0.2164
  -1.200  -0.0095   0.01283   0.00552  -0.0087  0.6657  0.0555  -1.0758   0.0000   0.0000   0.0000  -0.7271
  -1.100   0.0013   0.01275   0.00540  -0.0086  0.6612  0.0540  -1.0453   0.0000   0.0000   0.0000   7.2193
  -1.000   0.0121   0.01271   0.00532  -0.0085  0.6560  0.0528  -1.0121   0.0000   0.0000   0.0000   0.9913
  -0.900   0.0228   0.01269   0.00526  -0.0083  0.6500  0.0518  -0.9777   0.0000   0.0000   0.0000   0.6350
  -0.800   0.0335   0.01269   0.00523  -0.0082  0.6428  0.0510  -0.9429   0.0000   0.0000   0.0000   0.5069
  -0.600   0.0534   0.01225   0.00464  -0.0076  0.6251  0.0491  -0.9020   0.0000   0.0000   0.0000   0.3982
  -0.500   0.0632   0.01201   0.00434  -0.0072  0.6152  0.0483  -0.8843   0.0000   0.0000   0.0000   0.3696
  -0.400   0.0734   0.01187   0.00415  -0.0070  0.6054  0.0475  -0.8627   0.0000   0.0000   0.0000   0.3497
  -0.300   0.0837   0.01172   0.00396  -0.0069  0.5997  0.0468  -0.8391   0.0000   0.0000   0.0000   0.3347
  -0.200   0.0941   0.01153   0.00374  -0.0066  0.5988  0.0460  -0.8140   0.0000   0.0000   0.0000   0.3225
  -0.100   0.1046   0.01136   0.00355  -0.0064  0.5976  0.0453  -0.7879   0.0000   0.0000   0.0000   0.3130
   0.000   0.1152   0.01122   0.00338  -0.0063  0.5959  0.0446  -0.7609   0.0000   0.0000   0.0000   0.3054
   0.100   0.1259   0.01109   0.00324  -0.0061  0.5935  0.0439  -0.7332   0.0000   0.0000   0.0000   0.2993
   0.200   0.1366   0.01099   0.00311  -0.0060  0.5904  0.0432  -0.7051   0.0000   0.0000   0.0000   0.2942
   0.300   0.1473   0.01089   0.00299  -0.0059  0.5865  0.0426  -0.6766   0.0000   0.0000   0.0000   0.2900
   0.400   0.1580   0.01082   0.00289  -0.0058  0.5816  0.0420  -0.6477   0.0000   0.0000   0.0000   0.2864
   0.500   0.1688   0.01077   0.00280  -0.0057  0.5761  0.0415  -0.6184   0.0000   0.0000   0.0000   0.2833
   0.600   0.1796   0.01073   0.00273  -0.0057  0.5704  0.0410  -0.6205   0.0000   0.0000   0.0000   0.2807
   0.700   0.1911   0.01070   0.00281  -0.0058  0.5755  0.0407  -0.6302   0.0000   0.0000   0.0000   0.2793
   0.800   0.2021   0.01067   0.00274  -0.0058  0.5727  0.0403  -0.6400   0.0000   0.0000   0.0000   0.2775
   0.900   0.2131   0.01064   0.00268  -0.0058  0.5692  0.0400  -0.6498   0.0000   0.0000   0.0000   0.2758
   1.000   0.2240   0.01062   0.00261  -0.0058  0.5654  0.0396  -0.6596   0.0000   0.0000   0.0000   0.2743
   1.100   0.2350   0.01061   0.00255  -0.0058  0.5613  0.0393  -0.6695   0.0000   0.0000   0.0000   0.2730
   1.200   0.2459   0.01060   0.00249  -0.0058  0.5572  0.0390  -0.6793   0.0000   0.0000   0.0000   0.2717
   1.300   0.2568   0.01060   0.00243  -0.0058  0.5530  0.0388  -0.6892   0.0000   0.0000   0.0000   0.2706
   1.400   0.2677   0.01060   0.00239  -0.0058  0.5489  0.0385  -0.6993   0.0000   0.0000   0.0000   0.2696
   1.500   0.2785   0.01061   0.00234  -0.0058  0.5447  0.0383  -0.7111   0.0000   0.0000   0.0000   0.2686
   1.600   0.2894   0.01061   0.00230  -0.0058  0.5403  0.0382  -0.7229   0.0000   0.0000   0.0000   0.2678
   1.700   0.3002   0.01062   0.00227  -0.0058  0.5356  0.0380  -0.7347   0.0000   0.0000   0.0000   0.2669
   1.800   0.3111   0.01063   0.00225  -0.0058  0.5306  0.0380  -0.7466   0.0000   0.0000   0.0000   0.2662
   1.900   0.3219   0.01065   0.00223  -0.0058  0.5252  0.0380  -0.7584   0.0000   0.0000   0.0000   0.2655
   2.000   0.3329   0.01067   0.00222  -0.0059  0.5198  0.0380  -0.7703   0.0000   0.0000   0.0000   0.2650
   2.100   0.3438   0.01069   0.00221  -0.0059  0.5145  0.0381  -0.7823   0.0000   0.0000   0.0000   0.2644
   2.200   0.3548   0.01072   0.00222  -0.0060  0.5095  0.0384  -0.7943   0.0000   0.0000   0.0000   0.2640
   2.300   0.3659   0.01075   0.00223  -0.0060  0.5045  0.0389  -0.8063   0.0000   0.0000   0.0000   0.2636
   2.400   0.3771   0.01082   0.00222  -0.0061  0.4999  0.0402  -0.8185   0.0000   0.0000   0.0000   0.2633
   2.500   0.3884   0.01082   0.00220  -0.0062  0.4994  0.0434  -0.8310   0.0000   0.0000   0.0000   0.2629
   2.600   0.3993   0.01076   0.00226  -0.0062  0.4987  0.0457  -0.8432   0.0000   0.0000   0.0000   0.2625
   2.700   0.4103   0.01072   0.00238  -0.0062  0.4976  0.0497  -0.8556   0.0000   0.0000   0.0000   0.2620
   2.900   0.4098   0.00818   0.00253  -0.0017  0.4956  0.8936  -0.8660   0.0000   0.0000   0.0000   0.2508
   3.000   0.4368   0.00834   0.00278  -0.0050  0.4926  0.9296  -0.8894   0.0000   0.0000   0.0000   0.2579
   3.100   0.4489   0.00843   0.00288  -0.0051  0.4898  0.9411  -0.9269   0.0000   0.0000   0.0000   0.2578
   3.200   0.4567   0.00849   0.00294  -0.0043  0.4868  0.9476  -0.9580   0.0000   0.0000   0.0000   0.2557
   3.300   0.4695   0.00856   0.00300  -0.0047  0.4825  0.9522  -0.9976   0.0000   0.0000   0.0000   0.2562
   3.400   0.4891   0.00864   0.00306  -0.0066  0.4766  0.9562  -1.0485   0.0000   0.0000   0.0000   0.2596
   3.500   0.5074   0.00873   0.00311  -0.0082  0.4697  0.9594  -1.0980   0.0000   0.0000   0.0000   0.2623
   3.600   0.5245   0.00881   0.00315  -0.0096  0.4617  0.9622  -1.1461   0.0000   0.0000   0.0000   0.2643
   3.700   0.5408   0.00891   0.00318  -0.0108  0.4530  0.9649  -1.1932   0.0000   0.0000   0.0000   0.2659
   3.800   0.5564   0.00901   0.00322  -0.0119  0.4441  0.9675  -1.2397   0.0000   0.0000   0.0000   0.2673
   3.900   0.5719   0.00911   0.00327  -0.0130  0.4349  0.9701  -1.2864   0.0000   0.0000   0.0000   0.2685
   4.000   0.5977   0.00932   0.00342  -0.0162  0.4224  0.9776  -1.3518   0.0000   0.0000   0.0000   0.2727
   4.100   0.6586   0.00983   0.00386  -0.0265  0.4012  0.9965  -1.4823   0.0000   0.0000   0.0000   0.2858
   4.200   0.6863   0.00993   0.00397  -0.0300  0.3984  1.0000  -1.5540   0.0000   0.0000   0.0000   0.2892
   4.300   0.6965   0.00994   0.00399  -0.0300  0.3970  1.0000  -1.5935   0.0000   0.0000   0.0000   0.2884
   4.400   0.7067   0.00996   0.00401  -0.0299  0.3951  1.0000  -1.6333   0.0000   0.0000   0.0000   0.2876
   4.500   0.7168   0.00998   0.00403  -0.0299  0.3928  1.0000  -1.6732   0.0000   0.0000   0.0000   0.2868
   4.600   0.7269   0.01001   0.00406  -0.0298  0.3899  1.0000  -1.7133   0.0000   0.0000   0.0000   0.2861
   4.700   0.7370   0.01003   0.00408  -0.0298  0.3859  1.0000  -1.7536   0.0000   0.0000   0.0000   0.2853
   4.800   0.7469   0.01007   0.00410  -0.0297  0.3805  1.0000  -1.7939   0.0000   0.0000   0.0000   0.2846
   4.900   0.7568   0.01013   0.00412  -0.0296  0.3725  1.0000  -1.8341   0.0000   0.0000   0.0000   0.2839
   5.000   0.7664   0.01022   0.00413  -0.0295  0.3599  1.0000  -1.8742   0.0000   0.0000   0.0000   0.2832
   5.100   0.7758   0.01037   0.00416  -0.0294  0.3426  1.0000  -1.9138   0.0000   0.0000   0.0000   0.2824
   5.200   0.7848   0.01055   0.00422  -0.0293  0.3216  1.0000  -1.9527   0.0000   0.0000   0.0000   0.2817
   5.300   0.7941   0.01067   0.00427  -0.0291  0.2999  1.0000  -1.9919   0.0000   0.0000   0.0000   0.2810
   5.400   0.8036   0.01075   0.00432  -0.0290  0.2931  1.0000  -2.0314   0.0000   0.0000   0.0000   0.2803
   5.500   0.8128   0.01087   0.00438  -0.0288  0.2827  1.0000  -2.0701   0.0000   0.0000   0.0000   0.2796
   5.600   0.8213   0.01114   0.00447  -0.0286  0.2589  1.0000  -2.1066   0.0000   0.0000   0.0000   0.2789
   5.700   0.8285   0.01164   0.00467  -0.0284  0.2090  1.0000  -2.1389   0.0000   0.0000   0.0000   0.2782
   5.800   0.8352   0.01218   0.00493  -0.0281  0.1701  1.0000  -2.1667   0.0000   0.0000   0.0000   0.2775
   5.900   0.8385   0.01327   0.00550  -0.0276  0.1017  1.0000  -2.1844   0.0000   0.0000   0.0000   0.2766
   6.000   0.8433   0.01391   0.00589  -0.0269  0.0659  1.0000  -2.2040   0.0000   0.0000   0.0000   0.2755
   6.100   0.8500   0.01421   0.00611  -0.0263  0.0541  1.0000  -2.2291   0.0000   0.0000   0.0000   0.2744
   6.200   0.8578   0.01434   0.00626  -0.0258  0.0494  1.0000  -2.2560   0.0000   0.0000   0.0000   0.2735
   6.300   0.8657   0.01446   0.00640  -0.0253  0.0484  1.0000  -2.2874   0.0000   0.0000   0.0000   0.2725
   6.400   0.8737   0.01458   0.00654  -0.0249  0.0477  1.0000  -2.3195   0.0000   0.0000   0.0000   0.2716
   6.500   0.8818   0.01471   0.00669  -0.0244  0.0471  1.0000  -2.3523   0.0000   0.0000   0.0000   0.2708
   6.600   0.8899   0.01484   0.00684  -0.0240  0.0466  1.0000  -2.3855   0.0000   0.0000   0.0000   0.2699
   6.700   0.8980   0.01498   0.00699  -0.0235  0.0462  1.0000  -2.4190   0.0000   0.0000   0.0000   0.2691
   6.800   0.9062   0.01512   0.00715  -0.0231  0.0458  1.0000  -2.4540   0.0000   0.0000   0.0000   0.2682
   6.900   0.9142   0.01527   0.00731  -0.0227  0.0452  1.0000  -2.4905   0.0000   0.0000   0.0000   0.2674
   7.000   0.9223   0.01541   0.00747  -0.0223  0.0445  1.0000  -2.5284   0.0000   0.0000   0.0000   0.2666
   7.100   0.9302   0.01557   0.00762  -0.0218  0.0437  1.0000  -2.5671   0.0000   0.0000   0.0000   0.2658
   7.200   0.9381   0.01573   0.00779  -0.0214  0.0429  1.0000  -2.6064   0.0000   0.0000   0.0000   0.2651
   7.300   0.9458   0.01590   0.00796  -0.0209  0.0421  1.0000  -2.6457   0.0000   0.0000   0.0000   0.2643
   7.400   0.9534   0.01607   0.00814  -0.0204  0.0414  1.0000  -2.6849   0.0000   0.0000   0.0000   0.2634
   7.500   0.9609   0.01625   0.00832  -0.0199  0.0407  1.0000  -2.7235   0.0000   0.0000   0.0000   0.2626
   7.600   0.9683   0.01643   0.00851  -0.0194  0.0402  1.0000  -2.7611   0.0000   0.0000   0.0000   0.2618
   7.700   0.9755   0.01661   0.00871  -0.0188  0.0399  1.0000  -2.7975   0.0000   0.0000   0.0000   0.2609
   7.800   0.9826   0.01680   0.00892  -0.0182  0.0396  1.0000  -2.8338   0.0000   0.0000   0.0000   0.2601
   7.900   0.9896   0.01699   0.00913  -0.0176  0.0393  1.0000  -2.8699   0.0000   0.0000   0.0000   0.2592
   8.000   0.9965   0.01719   0.00934  -0.0170  0.0391  1.0000  -2.9060   0.0000   0.0000   0.0000   0.2583
   8.100   1.0032   0.01738   0.00956  -0.0163  0.0388  1.0000  -2.9421   0.0000   0.0000   0.0000   0.2574
   8.200   1.0097   0.01758   0.00978  -0.0156  0.0385  1.0000  -2.9781   0.0000   0.0000   0.0000   0.2565
   8.300   1.0161   0.01779   0.01000  -0.0149  0.0382  1.0000  -3.0140   0.0000   0.0000   0.0000   0.2556
   8.400   1.0223   0.01800   0.01023  -0.0142  0.0379  1.0000  -3.0497   0.0000   0.0000   0.0000   0.2547
   8.500   1.0284   0.01821   0.01046  -0.0134  0.0376  1.0000  -3.0853   0.0000   0.0000   0.0000   0.2537
   8.600   1.0343   0.01843   0.01069  -0.0127  0.0373  1.0000  -3.1209   0.0000   0.0000   0.0000   0.2527
   8.700   1.0401   0.01866   0.01093  -0.0119  0.0370  1.0000  -3.1564   0.0000   0.0000   0.0000   0.2518
   8.800   1.0456   0.01889   0.01118  -0.0110  0.0367  1.0000  -3.1916   0.0000   0.0000   0.0000   0.2508
   8.900   1.0511   0.01912   0.01144  -0.0102  0.0364  1.0000  -3.2267   0.0000   0.0000   0.0000   0.2498
   9.000   1.0563   0.01936   0.01169  -0.0093  0.0361  1.0000  -3.2617   0.0000   0.0000   0.0000   0.2488
   9.100   1.0614   0.01961   0.01196  -0.0084  0.0358  1.0000  -3.2965   0.0000   0.0000   0.0000   0.2478
   9.200   1.0663   0.01986   0.01223  -0.0075  0.0355  1.0000  -3.3309   0.0000   0.0000   0.0000   0.2467
   9.300   1.0710   0.02011   0.01250  -0.0066  0.0351  1.0000  -3.3651   0.0000   0.0000   0.0000   0.2457
   9.500   1.0927   0.01985   0.01226  -0.0072  0.0193  1.0000  -3.8845   0.0000   0.0000   0.0000   0.2458
   9.600   1.0981   0.02005   0.01242  -0.0064  0.0180  1.0000  -3.9784   0.0000   0.0000   0.0000   0.2449
   9.700   1.1023   0.02033   0.01265  -0.0054  0.0170  1.0000  -4.0573   0.0000   0.0000   0.0000   0.2438
   9.800   1.1056   0.02066   0.01296  -0.0043  0.0162  1.0000  -4.1251   0.0000   0.0000   0.0000   0.2427
   9.900   1.1081   0.02101   0.01333  -0.0031  0.0156  1.0000  -4.1842   0.0000   0.0000   0.0000   0.2414
  10.000   1.1099   0.02139   0.01373  -0.0017  0.0151  1.0000  -4.2365   0.0000   0.0000   0.0000   0.2400
  10.100   1.1110   0.02180   0.01418  -0.0003  0.0146  1.0000  -4.2840   0.0000   0.0000   0.0000   0.2385
  10.200   1.1109   0.02223   0.01465   0.0014  0.0143  1.0000  -4.3245   0.0000   0.0000   0.0000   0.2369
  10.300   1.1094   0.02268   0.01514   0.0032  0.0141  1.0000  -4.3586   0.0000   0.0000   0.0000   0.2351
  10.400   1.1079   0.02318   0.01568   0.0049  0.0138  1.0000  -4.3911   0.0000   0.0000   0.0000   0.2334
  10.500   1.1067   0.02374   0.01630   0.0064  0.0136  1.0000  -4.4232   0.0000   0.0000   0.0000   0.2318
  10.600   1.1053   0.02437   0.01698   0.0078  0.0135  1.0000  -4.4531   0.0000   0.0000   0.0000   0.2304
  10.700   1.1036   0.02505   0.01771   0.0090  0.0133  1.0000  -4.4807   0.0000   0.0000   0.0000   0.2290
  10.800   1.1026   0.02576   0.01849   0.0102  0.0132  1.0000  -4.5098   0.0000   0.0000   0.0000   0.2278
  10.900   1.1020   0.02652   0.01930   0.0112  0.0131  1.0000  -4.5394   0.0000   0.0000   0.0000   0.2267
  11.000   1.1016   0.02732   0.02015   0.0121  0.0130  1.0000  -4.5686   0.0000   0.0000   0.0000   0.2257
  11.100   1.1012   0.02816   0.02105   0.0129  0.0129  1.0000  -4.5970   0.0000   0.0000   0.0000   0.2247
  11.200   1.1000   0.02910   0.02205   0.0137  0.0128  1.0000  -4.6215   0.0000   0.0000   0.0000   0.2238
  11.300   1.0989   0.03007   0.02308   0.0143  0.0128  1.0000  -4.6456   0.0000   0.0000   0.0000   0.2230
  11.400   1.0984   0.03102   0.02408   0.0150  0.0127  1.0000  -4.6717   0.0000   0.0000   0.0000   0.2222
  11.500   1.0983   0.03196   0.02508   0.0156  0.0127  1.0000  -4.6989   0.0000   0.0000   0.0000   0.2215
  11.600   1.0984   0.03289   0.02607   0.0162  0.0127  1.0000  -4.7269   0.0000   0.0000   0.0000   0.2207
  11.700   1.0986   0.03382   0.02705   0.0168  0.0126  1.0000  -4.7556   0.0000   0.0000   0.0000   0.2200
  11.800   1.0991   0.03475   0.02803   0.0174  0.0126  1.0000  -4.7852   0.0000   0.0000   0.0000   0.2193
  11.900   1.0996   0.03568   0.02901   0.0179  0.0126  1.0000  -4.8155   0.0000   0.0000   0.0000   0.2186
  12.000   1.1001   0.03662   0.03000   0.0184  0.0127  1.0000  -4.8461   0.0000   0.0000   0.0000   0.2180
  12.100   1.0996   0.03764   0.03108   0.0188  0.0127  1.0000  -4.8724   0.0000   0.0000   0.0000   0.2174
  12.200   1.0990   0.03867   0.03215   0.0192  0.0127  1.0000  -4.8992   0.0000   0.0000   0.0000   0.2169
  12.300   1.0993   0.03963   0.03317   0.0196  0.0127  1.0000  -4.9302   0.0000   0.0000   0.0000   0.2163
  12.400   1.1001   0.04057   0.03414   0.0199  0.0128  1.0000  -4.9643   0.0000   0.0000   0.0000   0.2158
  12.500   1.1014   0.04148   0.03510   0.0203  0.0128  1.0000  -5.0009   0.0000   0.0000   0.0000   0.2153
  12.600   1.1029   0.04237   0.03603   0.0206  0.0129  1.0000  -5.0395   0.0000   0.0000   0.0000   0.2149
  12.700   1.1046   0.04326   0.03696   0.0208  0.0129  1.0000  -5.0797   0.0000   0.0000   0.0000   0.2145
  12.800   1.1064   0.04414   0.03788   0.0211  0.0130  1.0000  -5.1213   0.0000   0.0000   0.0000   0.2141
  12.900   1.1083   0.04501   0.03879   0.0213  0.0131  1.0000  -5.1639   0.0000   0.0000   0.0000   0.2137
  13.000   1.1103   0.04589   0.03971   0.0215  0.0131  1.0000  -5.2072   0.0000   0.0000   0.0000   0.2134
  13.100   1.1122   0.04678   0.04064   0.0217  0.0132  1.0000  -5.2508   0.0000   0.0000   0.0000   0.2131
  13.200   1.1140   0.04768   0.04158   0.0218  0.0133  1.0000  -5.2943   0.0000   0.0000   0.0000   0.2128
  13.300   1.1157   0.04861   0.04254   0.0219  0.0134  1.0000  -5.3372   0.0000   0.0000   0.0000   0.2125
  13.400   1.1172   0.04956   0.04353   0.0220  0.0136  1.0000  -5.3789   0.0000   0.0000   0.0000   0.2123
  13.500   1.1167   0.05076   0.04478   0.0219  0.0137  1.0000  -5.4095   0.0000   0.0000   0.0000   0.2121
  13.600   1.1151   0.05213   0.04620   0.0217  0.0138  1.0000  -5.4327   0.0000   0.0000   0.0000   0.2121
  13.700   1.1151   0.05329   0.04741   0.0216  0.0139  1.0000  -5.4648   0.0000   0.0000   0.0000   0.2119
  13.800   1.1157   0.05439   0.04855   0.0216  0.0141  1.0000  -5.4992   0.0000   0.0000   0.0000   0.2117
  13.900   1.1165   0.05548   0.04969   0.0216  0.0143  1.0000  -5.5322   0.0000   0.0000   0.0000   0.2115
  14.000   1.1170   0.05662   0.05089   0.0217  0.0145  1.0000  -5.5604   0.0000   0.0000   0.0000   0.2112
  14.100   1.1166   0.05788   0.05223   0.0218  0.0148  1.0000  -5.5767   0.0000   0.0000   0.0000   0.2109
  14.200   1.1138   0.05953   0.05401   0.0221  0.0152  1.0000  -5.5588   0.0000   0.0000   0.0000   0.2104
  14.300   1.0945   0.06375   0.05861   0.0229  0.0164  1.0000  -5.3437   0.0000   0.0000   0.0000   0.2091
  14.400   1.0712   0.06835   0.06350   0.0230  0.0173  1.0000  -5.1328   0.0000   0.0000   0.0000   0.2084
  14.500   1.0551   0.07190   0.06721   0.0224  0.0177  1.0000  -5.0180   0.0000   0.0000   0.0000   0.2085
  14.600   1.0446   0.07468   0.07007   0.0210  0.0177  1.0000  -4.9794   0.0000   0.0000   0.0000   0.2093
  14.700   1.0318   0.07801   0.07351   0.0198  0.0179  1.0000  -4.9039   0.0000   0.0000   0.0000   0.2100
  14.800   1.0178   0.08172   0.07735   0.0186  0.0182  1.0000  -4.8070   0.0000   0.0000   0.0000   0.2107
  14.900   1.0045   0.08543   0.08118   0.0172  0.0185  1.0000  -4.7136   0.0000   0.0000   0.0000   0.2116
  15.000   0.9923   0.08900   0.08485   0.0158  0.0188  1.0000  -4.6346   0.0000   0.0000   0.0000   0.2126
  15.100   0.9813   0.09244   0.08838   0.0141  0.0189  1.0000  -4.5706   0.0000   0.0000   0.0000   0.2139
  15.200   0.9731   0.09558   0.09156   0.0120  0.0187  1.0000  -4.5476   0.0000   0.0000   0.0000   0.2158
  15.300   0.9629   0.09914   0.09519   0.0100  0.0188  1.0000  -4.4884   0.0000   0.0000   0.0000   0.2174
  15.400   0.9515   0.10295   0.09908   0.0082  0.0189  1.0000  -4.4079   0.0000   0.0000   0.0000   0.2190
  15.500   0.9402   0.10681   0.10302   0.0063  0.0191  1.0000  -4.3251   0.0000   0.0000   0.0000   0.2207
  15.600   0.9293   0.11077   0.10705   0.0043  0.0192  1.0000  -4.2449   0.0000   0.0000   0.0000   0.2227
  15.700   0.9190   0.11469   0.11105   0.0020  0.0192  1.0000  -4.1729   0.0000   0.0000   0.0000   0.2249
  15.800   0.9109   0.11842   0.11481  -0.0005  0.0190  1.0000  -4.1323   0.0000   0.0000   0.0000   0.2275
  15.900   0.9007   0.12255   0.11899  -0.0029  0.0189  1.0000  -4.0551   0.0000   0.0000   0.0000   0.2301
  16.000   0.8889   0.12711   0.12361  -0.0054  0.0190  1.0000  -3.9468   0.0000   0.0000   0.0000   0.2328
  16.100   0.8759   0.13216   0.12872  -0.0080  0.0192  1.0000  -3.8169   0.0000   0.0000   0.0000   0.2358
  16.200   0.8622   0.13779   0.13442  -0.0110  0.0191  1.0000  -3.6721   0.0000   0.0000   0.0000   0.2395
  16.300   0.8433   0.14539   0.14207  -0.0148  0.0192  1.0000  -3.4380   0.0000   0.0000   0.0000   0.2445
  16.400   0.8075   0.15875   0.15546  -0.0203  0.0205  1.0000  -2.8827   0.0000   0.0000   0.0000   0.2528
  16.500   0.7905   0.16600   0.16271  -0.0233  0.0218  1.0000  -2.5965   0.0000   0.0000   0.0000   0.2574
  16.600   0.7529   0.17956   0.17630  -0.0274  0.0249  1.0000  -1.9995   0.0000   0.0000   0.0000   0.2650
  16.700   0.7523   0.18218   0.17892  -0.0282  0.0250  1.0000  -1.9638   0.0000   0.0000   0.0000   0.2660
  16.800   0.7524   0.18466   0.18139  -0.0290  0.0250  1.0000  -1.9362   0.0000   0.0000   0.0000   0.2670
  16.900   0.7527   0.18707   0.18380  -0.0298  0.0250  1.0000  -1.9124   0.0000   0.0000   0.0000   0.2679
  17.000   0.7533   0.18945   0.18617  -0.0306  0.0250  1.0000  -1.8910   0.0000   0.0000   0.0000   0.2689
  18.100   0.7961   0.20261   0.19932  -0.0368  0.0280  1.0000  -2.1261   0.0000   0.0000   0.0000   0.2726
  18.200   0.7972   0.20474   0.20145  -0.0376  0.0280  1.0000  -2.1118   0.0000   0.0000   0.0000   0.2734
  18.300   0.7983   0.20686   0.20357  -0.0384  0.0279  1.0000  -2.0983   0.0000   0.0000   0.0000   0.2742
  18.400   0.7995   0.20898   0.20569  -0.0391  0.0279  1.0000  -2.0854   0.0000   0.0000   0.0000   0.2750
  18.500   0.8007   0.21110   0.20780  -0.0399  0.0278  1.0000  -2.0730   0.0000   0.0000   0.0000   0.2757
  18.600   0.8021   0.21308   0.20979  -0.0406  0.0277  1.0000  -2.0679   0.0000   0.0000   0.0000   0.2764
  18.700   0.8027   0.21494   0.21164  -0.0409  0.0269  1.0000  -2.0812   0.0000   0.0000   0.0000   0.2765
  18.800   0.7776   0.22917   0.22584  -0.0442  0.0250  1.0000  -1.6694   0.0000   0.0000   0.0000   0.2829
  18.900   0.7792   0.23117   0.22784  -0.0450  0.0249  1.0000  -1.6617   0.0000   0.0000   0.0000   0.2837
  19.000   0.7809   0.23316   0.22982  -0.0458  0.0249  1.0000  -1.6548   0.0000   0.0000   0.0000   0.2845
  19.100   0.7826   0.23512   0.23178  -0.0466  0.0249  1.0000  -1.6485   0.0000   0.0000   0.0000   0.2852
  19.200   0.7844   0.23705   0.23372  -0.0474  0.0249  1.0000  -1.6431   0.0000   0.0000   0.0000   0.2860
  19.300   0.7862   0.23896   0.23562  -0.0482  0.0248  1.0000  -1.6386   0.0000   0.0000   0.0000   0.2867
  19.400   0.7881   0.24083   0.23749  -0.0490  0.0248  1.0000  -1.6351   0.0000   0.0000   0.0000   0.2874
  19.500   0.7900   0.24266   0.23932  -0.0497  0.0247  1.0000  -1.6328   0.0000   0.0000   0.0000   0.2880
  19.600   0.7921   0.24444   0.24109  -0.0505  0.0247  1.0000  -1.6321   0.0000   0.0000   0.0000   0.2887
  19.700   0.7943   0.24613   0.24278  -0.0513  0.0246  1.0000  -1.6334   0.0000   0.0000   0.0000   0.2893
  19.800   0.7966   0.24768   0.24434  -0.0520  0.0245  1.0000  -1.6379   0.0000   0.0000   0.0000   0.2900
  19.900   0.7994   0.24901   0.24566  -0.0528  0.0243  1.0000  -1.6483   0.0000   0.0000   0.0000   0.2905
  20.000   0.8032   0.24983   0.24647  -0.0536  0.0239  1.0000  -1.6722   0.0000   0.0000   0.0000   0.2910
  20.100   0.8092   0.24971   0.24636  -0.0545  0.0230  1.0000  -1.7204   0.0000   0.0000   0.0000   0.2913
  20.200   0.8138   0.25038   0.24703  -0.0557  0.0214  1.0000  -1.7396   0.0000   0.0000   0.0000   0.2922
  20.300   0.8168   0.25191   0.24855  -0.0567  0.0199  1.0000  -1.7451   0.0000   0.0000   0.0000   0.2931
  20.400   0.8193   0.25349   0.25013  -0.0575  0.0188  1.0000  -1.7580   0.0000   0.0000   0.0000   0.2937
  20.500   0.8217   0.25498   0.25162  -0.0582  0.0179  1.0000  -1.7786   0.0000   0.0000   0.0000   0.2942
  20.600   0.8242   0.25635   0.25299  -0.0588  0.0171  1.0000  -1.8056   0.0000   0.0000   0.0000   0.2945
  20.700   0.8268   0.25762   0.25426  -0.0594  0.0165  1.0000  -1.8387   0.0000   0.0000   0.0000   0.2947
  20.800   0.8294   0.25879   0.25542  -0.0599  0.0159  1.0000  -1.8773   0.0000   0.0000   0.0000   0.2949
  20.900   0.8322   0.25986   0.25649  -0.0604  0.0155  1.0000  -1.9210   0.0000   0.0000   0.0000   0.2950
  21.000   0.8351   0.26085   0.25748  -0.0608  0.0151  1.0000  -1.9697   0.0000   0.0000   0.0000   0.2949
  21.100   0.8382   0.26176   0.25839  -0.0611  0.0148  1.0000  -2.0233   0.0000   0.0000   0.0000   0.2948
  21.200   0.8414   0.26260   0.25922  -0.0614  0.0145  1.0000  -2.0819   0.0000   0.0000   0.0000   0.2946
  21.300   0.8446   0.26342   0.26003  -0.0617  0.0142  1.0000  -2.1431   0.0000   0.0000   0.0000   0.2944
  21.400   0.8478   0.26424   0.26086  -0.0619  0.0140  1.0000  -2.2055   0.0000   0.0000   0.0000   0.2941
  21.500   0.8497   0.26554   0.26216  -0.0623  0.0136  1.0000  -2.2471   0.0000   0.0000   0.0000   0.2941
  21.600   0.8340   0.27662   0.27320  -0.0635  0.0124  1.0000  -1.8883   0.0000   0.0000   0.0000   0.2975
  21.700   0.8351   0.27892   0.27551  -0.0643  0.0124  1.0000  -1.8715   0.0000   0.0000   0.0000   0.2981
  21.800   0.8362   0.28121   0.27780  -0.0650  0.0124  1.0000  -1.8554   0.0000   0.0000   0.0000   0.2987
  21.900   0.8373   0.28349   0.28008  -0.0657  0.0124  1.0000  -1.8400   0.0000   0.0000   0.0000   0.2993
  22.000   0.8385   0.28576   0.28235  -0.0664  0.0124  1.0000  -1.8252   0.0000   0.0000   0.0000   0.2999
  22.100   0.8396   0.28801   0.28461  -0.0671  0.0123  1.0000  -1.8111   0.0000   0.0000   0.0000   0.3005
  22.200   0.8407   0.29026   0.28685  -0.0678  0.0123  1.0000  -1.7974   0.0000   0.0000   0.0000   0.3011
  22.300   0.8418   0.29249   0.28909  -0.0685  0.0123  1.0000  -1.7843   0.0000   0.0000   0.0000   0.3016
  22.400   0.8428   0.29472   0.29132  -0.0691  0.0123  1.0000  -1.7714   0.0000   0.0000   0.0000   0.3022
  22.500   0.8438   0.29693   0.29354  -0.0698  0.0123  1.0000  -1.7590   0.0000   0.0000   0.0000   0.3027
  22.600   0.8449   0.29914   0.29574  -0.0704  0.0123  1.0000  -1.7470   0.0000   0.0000   0.0000   0.3032
  22.700   0.8458   0.30134   0.29794  -0.0710  0.0122  1.0000  -1.7353   0.0000   0.0000   0.0000   0.3037
  22.800   0.8468   0.30353   0.30014  -0.0717  0.0122  1.0000  -1.7239   0.0000   0.0000   0.0000   0.3042
  22.900   0.8477   0.30571   0.30232  -0.0723  0.0122  1.0000  -1.7128   0.0000   0.0000   0.0000   0.3047
  23.000   0.8486   0.30788   0.30450  -0.0729  0.0122  1.0000  -1.7017   0.0000   0.0000   0.0000   0.3052
  23.100   0.8494   0.31004   0.30667  -0.0735  0.0122  1.0000  -1.6909   0.0000   0.0000   0.0000   0.3057
  23.200   0.8502   0.31220   0.30882  -0.0741  0.0121  1.0000  -1.6803   0.0000   0.0000   0.0000   0.3062
  23.300   0.8510   0.31435   0.31097  -0.0747  0.0121  1.0000  -1.6700   0.0000   0.0000   0.0000   0.3066
  23.400   0.8517   0.31648   0.31311  -0.0752  0.0121  1.0000  -1.6598   0.0000   0.0000   0.0000   0.3071
  23.500   0.8523   0.31861   0.31524  -0.0758  0.0121  1.0000  -1.6498   0.0000   0.0000   0.0000   0.3075
  23.600   0.8529   0.32072   0.31736  -0.0763  0.0121  1.0000  -1.6399   0.0000   0.0000   0.0000   0.3079
  23.700   0.8535   0.32283   0.31947  -0.0768  0.0120  1.0000  -1.6301   0.0000   0.0000   0.0000   0.3083
  23.800   0.8539   0.32492   0.32157  -0.0774  0.0120  1.0000  -1.6200   0.0000   0.0000   0.0000   0.3088
  23.900   0.8543   0.32700   0.32366  -0.0779  0.0120  1.0000  -1.6098   0.0000   0.0000   0.0000   0.3092
  24.000   0.8545   0.32907   0.32573  -0.0784  0.0120  1.0000  -1.5996   0.0000   0.0000   0.0000   0.3096
  24.100   0.8547   0.33112   0.32778  -0.0788  0.0120  1.0000  -1.5895   0.0000   0.0000   0.0000   0.3100
  24.200   0.8549   0.33315   0.32982  -0.0793  0.0119  1.0000  -1.5795   0.0000   0.0000   0.0000   0.3104
  24.300   0.8549   0.33516   0.33183  -0.0797  0.0119  1.0000  -1.5694   0.0000   0.0000   0.0000   0.3108
  24.400   0.8548   0.33715   0.33382  -0.0802  0.0119  1.0000  -1.5594   0.0000   0.0000   0.0000   0.3111
  24.500   0.8546   0.33912   0.33580  -0.0806  0.0119  1.0000  -1.5488   0.0000   0.0000   0.0000   0.3115
  24.600   0.8542   0.34107   0.33775  -0.0810  0.0119  1.0000  -1.5372   0.0000   0.0000   0.0000   0.3119
  24.700   0.8541   0.34280   0.33960  -0.0812  0.0119  1.0000  -1.5375   0.0000   0.0000   0.0000   0.3120
  24.800   0.8534   0.34465   0.34146  -0.0815  0.0119  1.0000  -1.5273   0.0000   0.0000   0.0000   0.3123
  24.900   0.8526   0.34647   0.34329  -0.0818  0.0119  1.0000  -1.5164   0.0000   0.0000   0.0000   0.3127
  25.000   0.8515   0.34823   0.34507  -0.0821  0.0118  1.0000  -1.5049   0.0000   0.0000   0.0000   0.3130
  25.100   0.8502   0.34994   0.34679  -0.0823  0.0118  1.0000  -1.4930   0.0000   0.0000   0.0000   0.3133
  25.200   0.8486   0.35157   0.34843  -0.0825  0.0118  1.0000  -1.4805   0.0000   0.0000   0.0000   0.3136
  25.300   0.8467   0.35311   0.34998  -0.0826  0.0118  1.0000  -1.4675   0.0000   0.0000   0.0000   0.3139
  25.400   0.8443   0.35453   0.35141  -0.0826  0.0118  1.0000  -1.4537   0.0000   0.0000   0.0000   0.3141
  25.500   0.8413   0.35578   0.35267  -0.0826  0.0118  1.0000  -1.4389   0.0000   0.0000   0.0000   0.3143


