xflr5 v6.61

 Calculated polar for: NACA65-012

 1 1 Reynolds number fixed          Mach number fixed         

 xtrf =   1.000 (top)        1.000 (bottom)
 Mach =   0.000     Re =     0.625 e 6     Ncrit =   9.000

  alpha     CL        CD       CDp       Cm    Top Xtr Bot Xtr   Cpmin    Chinge    XCp    
 ------- -------- --------- --------- -------- ------- ------- -------- --------- ---------
 -10.000  -0.9572   0.03406   0.02967  -0.0138  1.0000  0.0135  -6.3387   0.0000   0.0000   0.0000   0.2261
  -9.900  -0.9523   0.03346   0.02896  -0.0132  1.0000  0.0135  -6.2766   0.0000   0.0000   0.0000   0.2267
  -9.800  -0.9510   0.03181   0.02714  -0.0124  1.0000  0.0136  -6.2901   0.0000   0.0000   0.0000   0.2276
  -9.700  -0.9505   0.02957   0.02468  -0.0116  1.0000  0.0137  -6.3407   0.0000   0.0000   0.0000   0.2286
  -9.600  -0.9481   0.02749   0.02242  -0.0109  1.0000  0.0139  -6.3624   0.0000   0.0000   0.0000   0.2293
  -9.500  -0.9418   0.02650   0.02135  -0.0106  1.0000  0.0141  -6.2901   0.0000   0.0000   0.0000   0.2297
  -9.400  -0.9342   0.02599   0.02082  -0.0105  1.0000  0.0143  -6.1814   0.0000   0.0000   0.0000   0.2299
  -9.300  -0.9260   0.02565   0.02046  -0.0103  1.0000  0.0145  -6.0625   0.0000   0.0000   0.0000   0.2300
  -9.200  -0.9176   0.02535   0.02014  -0.0102  1.0000  0.0147  -5.9435   0.0000   0.0000   0.0000   0.2302
  -9.100  -0.9090   0.02507   0.01984  -0.0101  1.0000  0.0150  -5.8248   0.0000   0.0000   0.0000   0.2303
  -9.000  -0.9002   0.02476   0.01951  -0.0100  1.0000  0.0152  -5.7098   0.0000   0.0000   0.0000   0.2304
  -8.900  -0.8915   0.02435   0.01907  -0.0099  1.0000  0.0155  -5.6068   0.0000   0.0000   0.0000   0.2305
  -8.800  -0.8828   0.02384   0.01849  -0.0098  1.0000  0.0157  -5.5163   0.0000   0.0000   0.0000   0.2307
  -8.700  -0.8740   0.02323   0.01780  -0.0096  1.0000  0.0160  -5.4366   0.0000   0.0000   0.0000   0.2308
  -8.600  -0.8651   0.02261   0.01711  -0.0095  1.0000  0.0162  -5.3582   0.0000   0.0000   0.0000   0.2310
  -8.500  -0.8560   0.02203   0.01646  -0.0093  1.0000  0.0165  -5.2772   0.0000   0.0000   0.0000   0.2311
  -8.400  -0.8467   0.02150   0.01586  -0.0092  1.0000  0.0167  -5.1930   0.0000   0.0000   0.0000   0.2312
  -8.300  -0.8361   0.02099   0.01528  -0.0094  0.9955  0.0170  -5.1001   0.0000   0.0000   0.0000   0.2310
  -8.200  -0.8230   0.02050   0.01472  -0.0100  0.9885  0.0172  -4.9930   0.0000   0.0000   0.0000   0.2301
  -8.100  -0.8100   0.02009   0.01424  -0.0106  0.9832  0.0174  -4.8818   0.0000   0.0000   0.0000   0.2293
  -8.000  -0.7972   0.01975   0.01384  -0.0111  0.9780  0.0176  -4.7686   0.0000   0.0000   0.0000   0.2285
  -7.900  -0.7851   0.01951   0.01353  -0.0115  0.9726  0.0178  -4.6547   0.0000   0.0000   0.0000   0.2279
  -7.800  -0.7749   0.01865   0.01261  -0.0115  0.9676  0.0180  -4.5814   0.0000   0.0000   0.0000   0.2277
  -7.700  -0.7663   0.01779   0.01171  -0.0113  0.9622  0.0184  -4.5303   0.0000   0.0000   0.0000   0.2280
  -7.600  -0.7580   0.01734   0.01125  -0.0109  0.9563  0.0186  -4.4565   0.0000   0.0000   0.0000   0.2284
  -7.500  -0.7501   0.01704   0.01093  -0.0104  0.9506  0.0189  -4.3770   0.0000   0.0000   0.0000   0.2290
  -7.400  -0.7424   0.01679   0.01066  -0.0098  0.9453  0.0192  -4.2966   0.0000   0.0000   0.0000   0.2297
  -7.300  -0.7345   0.01656   0.01041  -0.0093  0.9400  0.0195  -4.2156   0.0000   0.0000   0.0000   0.2304
  -7.200  -0.7264   0.01634   0.01016  -0.0088  0.9351  0.0198  -4.1354   0.0000   0.0000   0.0000   0.2310
  -7.100  -0.7184   0.01612   0.00991  -0.0083  0.9307  0.0201  -4.0574   0.0000   0.0000   0.0000   0.2317
  -7.000  -0.7098   0.01591   0.00967  -0.0079  0.9260  0.0205  -3.9766   0.0000   0.0000   0.0000   0.2323
  -6.900  -0.7013   0.01572   0.00946  -0.0074  0.9220  0.0209  -3.8949   0.0000   0.0000   0.0000   0.2328
  -6.800  -0.6924   0.01555   0.00925  -0.0071  0.9177  0.0214  -3.8125   0.0000   0.0000   0.0000   0.2333
  -6.700  -0.6835   0.01539   0.00905  -0.0067  0.9140  0.0218  -3.7308   0.0000   0.0000   0.0000   0.2338
  -6.600  -0.6741   0.01525   0.00888  -0.0064  0.9099  0.0222  -3.6473   0.0000   0.0000   0.0000   0.2342
  -6.500  -0.6648   0.01514   0.00871  -0.0061  0.9067  0.0224  -3.5641   0.0000   0.0000   0.0000   0.2346
  -6.400  -0.6565   0.01476   0.00830  -0.0057  0.9026  0.0228  -3.4975   0.0000   0.0000   0.0000   0.2352
  -6.300  -0.6497   0.01425   0.00777  -0.0051  0.8991  0.0232  -3.4401   0.0000   0.0000   0.0000   0.2362
  -6.200  -0.6414   0.01393   0.00744  -0.0047  0.8954  0.0236  -3.3661   0.0000   0.0000   0.0000   0.2367
  -6.100  -0.6325   0.01370   0.00719  -0.0044  0.8918  0.0240  -3.2868   0.0000   0.0000   0.0000   0.2372
  -6.000  -0.6236   0.01350   0.00697  -0.0040  0.8888  0.0244  -3.2068   0.0000   0.0000   0.0000   0.2377
  -5.900  -0.6141   0.01331   0.00677  -0.0038  0.8850  0.0249  -3.1251   0.0000   0.0000   0.0000   0.2380
  -5.800  -0.6047   0.01313   0.00656  -0.0036  0.8817  0.0253  -3.0453   0.0000   0.0000   0.0000   0.2384
  -5.700  -0.5954   0.01295   0.00636  -0.0033  0.8788  0.0258  -2.9665   0.0000   0.0000   0.0000   0.2388
  -5.600  -0.5856   0.01278   0.00617  -0.0032  0.8752  0.0263  -2.8872   0.0000   0.0000   0.0000   0.2391
  -5.500  -0.5759   0.01262   0.00598  -0.0029  0.8720  0.0268  -2.8088   0.0000   0.0000   0.0000   0.2395
  -5.400  -0.5662   0.01248   0.00580  -0.0027  0.8693  0.0273  -2.7303   0.0000   0.0000   0.0000   0.2398
  -5.300  -0.5559   0.01236   0.00564  -0.0026  0.8660  0.0277  -2.6491   0.0000   0.0000   0.0000   0.2400
  -5.200  -0.5475   0.01201   0.00528  -0.0023  0.8628  0.0287  -2.5832   0.0000   0.0000   0.0000   0.2406
  -5.100  -0.5380   0.01182   0.00507  -0.0021  0.8602  0.0296  -2.5163   0.0000   0.0000   0.0000   0.2410
  -5.000  -0.5278   0.01168   0.00493  -0.0020  0.8572  0.0305  -2.4479   0.0000   0.0000   0.0000   0.2412
  -4.900  -0.5176   0.01155   0.00479  -0.0019  0.8541  0.0315  -2.3812   0.0000   0.0000   0.0000   0.2413
  -4.800  -0.5074   0.01143   0.00464  -0.0018  0.8514  0.0324  -2.3165   0.0000   0.0000   0.0000   0.2416
  -4.700  -0.4972   0.01132   0.00450  -0.0016  0.8489  0.0332  -2.2523   0.0000   0.0000   0.0000   0.2418
  -4.600  -0.4874   0.01110   0.00427  -0.0015  0.8457  0.0345  -2.1938   0.0000   0.0000   0.0000   0.2421
  -4.500  -0.4773   0.01093   0.00411  -0.0014  0.8427  0.0360  -2.1303   0.0000   0.0000   0.0000   0.2423
  -4.400  -0.4670   0.01082   0.00397  -0.0013  0.8401  0.0376  -2.0662   0.0000   0.0000   0.0000   0.2426
  -4.300  -0.4565   0.01072   0.00384  -0.0012  0.8376  0.0393  -2.0027   0.0000   0.0000   0.0000   0.2428
  -4.200  -0.4464   0.01053   0.00368  -0.0011  0.8345  0.0424  -1.9421   0.0000   0.0000   0.0000   0.2430
  -4.100  -0.4360   0.01039   0.00353  -0.0010  0.8316  0.0464  -1.8801   0.0000   0.0000   0.0000   0.2432
  -4.000  -0.4262   0.01020   0.00337  -0.0008  0.8292  0.0547  -1.8208   0.0000   0.0000   0.0000   0.2435
  -3.900  -0.4170   0.00989   0.00319  -0.0007  0.8268  0.0817  -1.7641   0.0000   0.0000   0.0000   0.2440
  -3.800  -0.4094   0.00934   0.00295  -0.0004  0.8237  0.1507  -1.7115   0.0000   0.0000   0.0000   0.2446
  -3.700  -0.4023   0.00871   0.00270  -0.0001  0.8209  0.2381  -1.6601   0.0000   0.0000   0.0000   0.2454
  -3.600  -0.3958   0.00803   0.00243   0.0003  0.8184  0.3366  -1.6095   0.0000   0.0000   0.0000   0.2464
  -3.500  -0.3895   0.00735   0.00218   0.0007  0.8161  0.4426  -1.5670   0.0000   0.0000   0.0000   0.2477
  -3.400  -0.3812   0.00696   0.00209   0.0010  0.8131  0.5148  -1.5180   0.0000   0.0000   0.0000   0.2485
  -3.300  -0.3711   0.00682   0.00205   0.0011  0.8104  0.5492  -1.4646   0.0000   0.0000   0.0000   0.2490
  -3.200  -0.3607   0.00673   0.00202   0.0012  0.8079  0.5700  -1.4102   0.0000   0.0000   0.0000   0.2494
  -3.100  -0.3499   0.00669   0.00199   0.0013  0.8058  0.5851  -1.3556   0.0000   0.0000   0.0000   0.2498
  -3.000  -0.3390   0.00665   0.00197   0.0013  0.8034  0.5969  -1.3008   0.0000   0.0000   0.0000   0.2500
  -2.900  -0.3278   0.00663   0.00195   0.0013  0.8007  0.6070  -1.2458   0.0000   0.0000   0.0000   0.2500
  -2.800  -0.3167   0.00659   0.00192   0.0013  0.7983  0.6159  -1.1917   0.0000   0.0000   0.0000   0.2502
  -2.700  -0.3056   0.00657   0.00190   0.0013  0.7960  0.6240  -1.1380   0.0000   0.0000   0.0000   0.2504
  -2.600  -0.2946   0.00656   0.00188   0.0013  0.7941  0.6320  -1.0850   0.0000   0.0000   0.0000   0.2506
  -2.500  -0.2834   0.00655   0.00186   0.0013  0.7919  0.6386  -1.0323   0.0000   0.0000   0.0000   0.2508
  -2.400  -0.2721   0.00654   0.00186   0.0012  0.7893  0.6471  -0.9800   0.0000   0.0000   0.0000   0.2509
  -2.300  -0.2612   0.00652   0.00187   0.0013  0.7869  0.6573  -0.9289   0.0000   0.0000   0.0000   0.2513
  -2.200  -0.2503   0.00653   0.00189   0.0014  0.7846  0.6683  -0.8783   0.0000   0.0000   0.0000   0.2519
  -2.100  -0.2394   0.00655   0.00191   0.0015  0.7826  0.6790  -0.8284   0.0000   0.0000   0.0000   0.2526
  -2.000  -0.2285   0.00658   0.00194   0.0016  0.7806  0.6879  -0.7790   0.0000   0.0000   0.0000   0.2533
  -1.900  -0.2174   0.00658   0.00196   0.0016  0.7781  0.6941  -0.7334   0.0000   0.0000   0.0000   0.2538
  -1.800  -0.2061   0.00659   0.00197   0.0016  0.7757  0.6994  -0.6911   0.0000   0.0000   0.0000   0.2542
  -1.700  -0.1947   0.00661   0.00195   0.0015  0.7735  0.7037  -0.6491   0.0000   0.0000   0.0000   0.2543
  -1.600  -0.1835   0.00659   0.00194   0.0015  0.7715  0.7064  -0.6079   0.0000   0.0000   0.0000   0.2547
  -1.500  -0.1722   0.00659   0.00193   0.0015  0.7696  0.7090  -0.5672   0.0000   0.0000   0.0000   0.2551
  -1.400  -0.1608   0.00659   0.00192   0.0014  0.7676  0.7117  -0.5267   0.0000   0.0000   0.0000   0.2553
  -1.300  -0.1493   0.00659   0.00191   0.0013  0.7652  0.7142  -0.4866   0.0000   0.0000   0.0000   0.2552
  -1.200  -0.1377   0.00659   0.00189   0.0011  0.7629  0.7164  -0.4470   0.0000   0.0000   0.0000   0.2550
  -1.100  -0.1262   0.00658   0.00187   0.0011  0.7607  0.7182  -0.4080   0.0000   0.0000   0.0000   0.2551
  -1.000  -0.1149   0.00656   0.00186   0.0010  0.7588  0.7199  -0.3977   0.0000   0.0000   0.0000   0.2554
  -0.900  -0.1035   0.00657   0.00185   0.0009  0.7570  0.7217  -0.3925   0.0000   0.0000   0.0000   0.2557
  -0.800  -0.0920   0.00657   0.00184   0.0008  0.7551  0.7235  -0.3875   0.0000   0.0000   0.0000   0.2558
  -0.700  -0.0804   0.00656   0.00183   0.0007  0.7529  0.7255  -0.3823   0.0000   0.0000   0.0000   0.2555
  -0.600  -0.0689   0.00656   0.00182   0.0006  0.7507  0.7276  -0.3773   0.0000   0.0000   0.0000   0.2552
  -0.500  -0.0573   0.00656   0.00181   0.0005  0.7486  0.7296  -0.3722   0.0000   0.0000   0.0000   0.2548
  -0.400  -0.0459   0.00655   0.00180   0.0004  0.7467  0.7314  -0.3671   0.0000   0.0000   0.0000   0.2548
  -0.300  -0.0345   0.00655   0.00179   0.0003  0.7449  0.7331  -0.3621   0.0000   0.0000   0.0000   0.2558
  -0.200  -0.0231   0.00655   0.00179   0.0002  0.7432  0.7349  -0.3570   0.0000   0.0000   0.0000   0.2574
  -0.100  -0.0116   0.00655   0.00180   0.0001  0.7410  0.7368  -0.3519   0.0000   0.0000   0.0000   0.2572
   0.000   0.0000   0.00654   0.00180   0.0000  0.7389  0.7389  -0.3468   0.0000   0.0000   0.0000   0.0256
   0.100   0.0116   0.00655   0.00180  -0.0001  0.7368  0.7410  -0.3519   0.0000   0.0000   0.0000   0.2572
   0.200   0.0231   0.00655   0.00179  -0.0002  0.7349  0.7432  -0.3570   0.0000   0.0000   0.0000   0.2574
   0.300   0.0345   0.00655   0.00179  -0.0003  0.7331  0.7449  -0.3621   0.0000   0.0000   0.0000   0.2558
   0.400   0.0459   0.00655   0.00180  -0.0004  0.7314  0.7467  -0.3671   0.0000   0.0000   0.0000   0.2548
   0.500   0.0573   0.00656   0.00181  -0.0005  0.7296  0.7486  -0.3722   0.0000   0.0000   0.0000   0.2548
   0.600   0.0689   0.00656   0.00182  -0.0006  0.7276  0.7507  -0.3773   0.0000   0.0000   0.0000   0.2552
   0.700   0.0804   0.00656   0.00183  -0.0007  0.7255  0.7529  -0.3823   0.0000   0.0000   0.0000   0.2555
   0.800   0.0920   0.00657   0.00184  -0.0008  0.7235  0.7551  -0.3875   0.0000   0.0000   0.0000   0.2558
   0.900   0.1035   0.00657   0.00185  -0.0009  0.7217  0.7570  -0.3925   0.0000   0.0000   0.0000   0.2557
   1.000   0.1149   0.00656   0.00186  -0.0010  0.7199  0.7588  -0.3977   0.0000   0.0000   0.0000   0.2554
   1.100   0.1262   0.00658   0.00187  -0.0011  0.7182  0.7607  -0.4080   0.0000   0.0000   0.0000   0.2551
   1.200   0.1377   0.00659   0.00189  -0.0011  0.7164  0.7629  -0.4470   0.0000   0.0000   0.0000   0.2550
   1.300   0.1493   0.00659   0.00191  -0.0013  0.7142  0.7652  -0.4866   0.0000   0.0000   0.0000   0.2552
   1.400   0.1608   0.00659   0.00192  -0.0014  0.7117  0.7676  -0.5267   0.0000   0.0000   0.0000   0.2553
   1.500   0.1722   0.00659   0.00193  -0.0015  0.7090  0.7696  -0.5672   0.0000   0.0000   0.0000   0.2551
   1.600   0.1835   0.00659   0.00194  -0.0015  0.7064  0.7715  -0.6079   0.0000   0.0000   0.0000   0.2547
   1.700   0.1947   0.00661   0.00195  -0.0015  0.7037  0.7735  -0.6491   0.0000   0.0000   0.0000   0.2543
   1.800   0.2061   0.00659   0.00197  -0.0016  0.6994  0.7757  -0.6911   0.0000   0.0000   0.0000   0.2542
   1.900   0.2174   0.00658   0.00196  -0.0016  0.6941  0.7781  -0.7334   0.0000   0.0000   0.0000   0.2538
   2.000   0.2285   0.00658   0.00194  -0.0016  0.6879  0.7806  -0.7790   0.0000   0.0000   0.0000   0.2533
   2.100   0.2394   0.00655   0.00191  -0.0015  0.6790  0.7826  -0.8284   0.0000   0.0000   0.0000   0.2526
   2.200   0.2503   0.00653   0.00189  -0.0014  0.6683  0.7846  -0.8783   0.0000   0.0000   0.0000   0.2519
   2.300   0.2612   0.00652   0.00187  -0.0013  0.6573  0.7869  -0.9289   0.0000   0.0000   0.0000   0.2513
   2.400   0.2721   0.00654   0.00186  -0.0012  0.6471  0.7893  -0.9800   0.0000   0.0000   0.0000   0.2509
   2.500   0.2834   0.00655   0.00186  -0.0013  0.6386  0.7919  -1.0323   0.0000   0.0000   0.0000   0.2508
   2.600   0.2946   0.00656   0.00188  -0.0013  0.6320  0.7941  -1.0850   0.0000   0.0000   0.0000   0.2506
   2.700   0.3056   0.00657   0.00190  -0.0013  0.6240  0.7960  -1.1380   0.0000   0.0000   0.0000   0.2504
   2.800   0.3167   0.00659   0.00192  -0.0013  0.6159  0.7983  -1.1917   0.0000   0.0000   0.0000   0.2502
   2.900   0.3278   0.00663   0.00195  -0.0013  0.6070  0.8007  -1.2458   0.0000   0.0000   0.0000   0.2500
   3.000   0.3390   0.00665   0.00197  -0.0013  0.5969  0.8034  -1.3008   0.0000   0.0000   0.0000   0.2500
   3.100   0.3499   0.00669   0.00199  -0.0013  0.5851  0.8058  -1.3556   0.0000   0.0000   0.0000   0.2498
   3.200   0.3607   0.00673   0.00202  -0.0012  0.5700  0.8079  -1.4102   0.0000   0.0000   0.0000   0.2494
   3.300   0.3711   0.00682   0.00205  -0.0011  0.5492  0.8104  -1.4646   0.0000   0.0000   0.0000   0.2490
   3.400   0.3812   0.00696   0.00209  -0.0010  0.5148  0.8131  -1.5181   0.0000   0.0000   0.0000   0.2485
   3.500   0.3896   0.00735   0.00218  -0.0007  0.4426  0.8161  -1.5670   0.0000   0.0000   0.0000   0.2477
   3.600   0.3958   0.00803   0.00243  -0.0003  0.3366  0.8184  -1.6096   0.0000   0.0000   0.0000   0.2464
   3.700   0.4023   0.00871   0.00270   0.0001  0.2381  0.8209  -1.6601   0.0000   0.0000   0.0000   0.2454
   3.800   0.4094   0.00934   0.00295   0.0004  0.1507  0.8237  -1.7115   0.0000   0.0000   0.0000   0.2446
   3.900   0.4171   0.00989   0.00319   0.0007  0.0817  0.8268  -1.7641   0.0000   0.0000   0.0000   0.2440
   4.000   0.4262   0.01020   0.00337   0.0008  0.0547  0.8292  -1.8208   0.0000   0.0000   0.0000   0.2435
   4.100   0.4360   0.01039   0.00353   0.0010  0.0464  0.8317  -1.8801   0.0000   0.0000   0.0000   0.2432
   4.200   0.4464   0.01053   0.00368   0.0011  0.0424  0.8345  -1.9422   0.0000   0.0000   0.0000   0.2430
   4.300   0.4565   0.01072   0.00384   0.0012  0.0393  0.8376  -2.0027   0.0000   0.0000   0.0000   0.2428
   4.400   0.4670   0.01082   0.00397   0.0013  0.0376  0.8401  -2.0662   0.0000   0.0000   0.0000   0.2426
   4.500   0.4773   0.01093   0.00411   0.0014  0.0360  0.8427  -2.1303   0.0000   0.0000   0.0000   0.2423
   4.600   0.4874   0.01110   0.00427   0.0015  0.0345  0.8457  -2.1939   0.0000   0.0000   0.0000   0.2421
   4.700   0.4972   0.01132   0.00450   0.0016  0.0332  0.8489  -2.2523   0.0000   0.0000   0.0000   0.2418
   4.800   0.5074   0.01143   0.00464   0.0018  0.0324  0.8514  -2.3165   0.0000   0.0000   0.0000   0.2416
   4.900   0.5176   0.01155   0.00479   0.0019  0.0315  0.8541  -2.3813   0.0000   0.0000   0.0000   0.2413
   5.000   0.5279   0.01168   0.00493   0.0020  0.0305  0.8572  -2.4479   0.0000   0.0000   0.0000   0.2412
   5.100   0.5380   0.01182   0.00507   0.0021  0.0296  0.8602  -2.5163   0.0000   0.0000   0.0000   0.2410
   5.200   0.5475   0.01201   0.00528   0.0023  0.0287  0.8628  -2.5833   0.0000   0.0000   0.0000   0.2406
   5.300   0.5559   0.01236   0.00564   0.0026  0.0277  0.8659  -2.6491   0.0000   0.0000   0.0000   0.2400
   5.400   0.5662   0.01248   0.00580   0.0027  0.0273  0.8693  -2.7304   0.0000   0.0000   0.0000   0.2398
   5.500   0.5759   0.01262   0.00598   0.0029  0.0268  0.8720  -2.8089   0.0000   0.0000   0.0000   0.2395
   5.600   0.5856   0.01278   0.00617   0.0031  0.0263  0.8752  -2.8872   0.0000   0.0000   0.0000   0.2391
   5.700   0.5954   0.01295   0.00636   0.0033  0.0258  0.8788  -2.9666   0.0000   0.0000   0.0000   0.2388
   5.800   0.6047   0.01313   0.00656   0.0036  0.0253  0.8817  -3.0454   0.0000   0.0000   0.0000   0.2384
   5.900   0.6141   0.01331   0.00677   0.0038  0.0249  0.8850  -3.1252   0.0000   0.0000   0.0000   0.2380
   6.000   0.6236   0.01350   0.00697   0.0040  0.0244  0.8888  -3.2069   0.0000   0.0000   0.0000   0.2377
   6.100   0.6325   0.01370   0.00719   0.0044  0.0240  0.8918  -3.2868   0.0000   0.0000   0.0000   0.2372
   6.200   0.6414   0.01393   0.00744   0.0047  0.0236  0.8954  -3.3662   0.0000   0.0000   0.0000   0.2367
   6.300   0.6497   0.01425   0.00777   0.0050  0.0232  0.8991  -3.4402   0.0000   0.0000   0.0000   0.2362
   6.400   0.6565   0.01476   0.00830   0.0057  0.0228  0.9026  -3.4976   0.0000   0.0000   0.0000   0.2352
   6.500   0.6648   0.01514   0.00871   0.0061  0.0224  0.9067  -3.5642   0.0000   0.0000   0.0000   0.2346
   6.600   0.6741   0.01525   0.00888   0.0064  0.0222  0.9099  -3.6474   0.0000   0.0000   0.0000   0.2342
   6.700   0.6835   0.01539   0.00905   0.0067  0.0218  0.9139  -3.7309   0.0000   0.0000   0.0000   0.2338
   6.800   0.6924   0.01555   0.00925   0.0071  0.0214  0.9177  -3.8126   0.0000   0.0000   0.0000   0.2333
   6.900   0.7013   0.01572   0.00946   0.0074  0.0209  0.9219  -3.8950   0.0000   0.0000   0.0000   0.2328
   7.000   0.7099   0.01591   0.00967   0.0079  0.0205  0.9260  -3.9767   0.0000   0.0000   0.0000   0.2323
   7.100   0.7184   0.01612   0.00991   0.0083  0.0201  0.9308  -4.0575   0.0000   0.0000   0.0000   0.2317
   7.200   0.7264   0.01634   0.01016   0.0088  0.0198  0.9351  -4.1356   0.0000   0.0000   0.0000   0.2310
   7.300   0.7345   0.01656   0.01041   0.0093  0.0195  0.9400  -4.2158   0.0000   0.0000   0.0000   0.2304
   7.400   0.7425   0.01679   0.01066   0.0098  0.0192  0.9453  -4.2967   0.0000   0.0000   0.0000   0.2297
   7.500   0.7502   0.01704   0.01093   0.0104  0.0189  0.9506  -4.3772   0.0000   0.0000   0.0000   0.2290
   7.600   0.7581   0.01734   0.01125   0.0109  0.0186  0.9563  -4.4567   0.0000   0.0000   0.0000   0.2284
   7.700   0.7663   0.01779   0.01171   0.0113  0.0184  0.9622  -4.5305   0.0000   0.0000   0.0000   0.2280
   7.800   0.7749   0.01865   0.01261   0.0115  0.0180  0.9676  -4.5815   0.0000   0.0000   0.0000   0.2278
   7.900   0.7851   0.01951   0.01353   0.0115  0.0178  0.9727  -4.6550   0.0000   0.0000   0.0000   0.2279
   8.000   0.7973   0.01975   0.01384   0.0111  0.0176  0.9780  -4.7689   0.0000   0.0000   0.0000   0.2285
   8.100   0.8100   0.02009   0.01424   0.0106  0.0174  0.9832  -4.8821   0.0000   0.0000   0.0000   0.2293
   8.200   0.8231   0.02050   0.01472   0.0100  0.0172  0.9885  -4.9933   0.0000   0.0000   0.0000   0.2302
   8.300   0.8361   0.02099   0.01528   0.0094  0.0170  0.9956  -5.1004   0.0000   0.0000   0.0000   0.2310
   8.400   0.8467   0.02150   0.01586   0.0092  0.0167  1.0000  -5.1932   0.0000   0.0000   0.0000   0.2312
   8.500   0.8560   0.02203   0.01646   0.0093  0.0165  1.0000  -5.2774   0.0000   0.0000   0.0000   0.2311
   8.600   0.8652   0.02261   0.01711   0.0094  0.0162  1.0000  -5.3585   0.0000   0.0000   0.0000   0.2310
   8.700   0.8741   0.02323   0.01780   0.0096  0.0160  1.0000  -5.4368   0.0000   0.0000   0.0000   0.2308
   8.800   0.8828   0.02384   0.01849   0.0098  0.0157  1.0000  -5.5166   0.0000   0.0000   0.0000   0.2307
   8.900   0.8915   0.02435   0.01907   0.0099  0.0155  1.0000  -5.6071   0.0000   0.0000   0.0000   0.2305
   9.000   0.9003   0.02476   0.01951   0.0100  0.0152  1.0000  -5.7101   0.0000   0.0000   0.0000   0.2304
   9.100   0.9091   0.02507   0.01984   0.0101  0.0150  1.0000  -5.8252   0.0000   0.0000   0.0000   0.2303
   9.200   0.9177   0.02535   0.02014   0.0102  0.0147  1.0000  -5.9439   0.0000   0.0000   0.0000   0.2302
   9.300   0.9261   0.02565   0.02046   0.0103  0.0145  1.0000  -6.0630   0.0000   0.0000   0.0000   0.2300
   9.400   0.9343   0.02599   0.02082   0.0104  0.0143  1.0000  -6.1819   0.0000   0.0000   0.0000   0.2299
   9.500   0.9419   0.02650   0.02136   0.0106  0.0141  1.0000  -6.2906   0.0000   0.0000   0.0000   0.2297
   9.600   0.9481   0.02750   0.02242   0.0109  0.0139  1.0000  -6.3625   0.0000   0.0000   0.0000   0.2294
   9.700   0.9505   0.02958   0.02469   0.0116  0.0137  1.0000  -6.3405   0.0000   0.0000   0.0000   0.2286
   9.800   0.9510   0.03182   0.02715   0.0124  0.0136  1.0000  -6.2899   0.0000   0.0000   0.0000   0.2276
   9.900   0.9524   0.03346   0.02896   0.0132  0.0135  1.0000  -6.2773   0.0000   0.0000   0.0000   0.2268
  10.000   0.9573   0.03406   0.02968   0.0138  0.0135  1.0000  -6.3391   0.0000   0.0000   0.0000   0.2261
  10.100   0.9605   0.03503   0.03077   0.0144  0.0134  1.0000  -6.3728   0.0000   0.0000   0.0000   0.2254
  10.200   0.9625   0.03618   0.03206   0.0151  0.0134  1.0000  -6.3892   0.0000   0.0000   0.0000   0.2246
  10.300   0.9631   0.03749   0.03350   0.0159  0.0133  1.0000  -6.3912   0.0000   0.0000   0.0000   0.2237
  10.400   0.9625   0.03890   0.03506   0.0168  0.0133  1.0000  -6.3807   0.0000   0.0000   0.0000   0.2227
  10.500   0.9606   0.04041   0.03670   0.0177  0.0133  1.0000  -6.3595   0.0000   0.0000   0.0000   0.2216
  10.600   0.9574   0.04197   0.03839   0.0187  0.0133  1.0000  -6.3304   0.0000   0.0000   0.0000   0.2204
  10.700   0.9526   0.04347   0.04001   0.0199  0.0133  1.0000  -6.2965   0.0000   0.0000   0.0000   0.2190
  10.800   0.9464   0.04492   0.04156   0.0211  0.0133  1.0000  -6.2600   0.0000   0.0000   0.0000   0.2174
  10.900   0.9394   0.04642   0.04315   0.0222  0.0134  1.0000  -6.2206   0.0000   0.0000   0.0000   0.2159
  11.000   0.9316   0.04800   0.04483   0.0232  0.0134  1.0000  -6.1776   0.0000   0.0000   0.0000   0.2146
  11.300   0.9074   0.05411   0.05132   0.0253  0.0143  1.0000  -5.8414   0.0000   0.0000   0.0000   0.2112
  11.400   0.9034   0.05530   0.05255   0.0254  0.0142  1.0000  -5.8557   0.0000   0.0000   0.0000   0.2108
  11.500   0.8993   0.05655   0.05385   0.0254  0.0142  1.0000  -5.8684   0.0000   0.0000   0.0000   0.2105
  11.600   0.8950   0.05785   0.05520   0.0253  0.0142  1.0000  -5.8801   0.0000   0.0000   0.0000   0.2103
  11.700   0.8906   0.05917   0.05655   0.0251  0.0141  1.0000  -5.8979   0.0000   0.0000   0.0000   0.2102
  11.800   0.8861   0.06054   0.05796   0.0247  0.0140  1.0000  -5.9166   0.0000   0.0000   0.0000   0.2103
  11.900   0.8819   0.06192   0.05937   0.0242  0.0140  1.0000  -5.9433   0.0000   0.0000   0.0000   0.2105
  20.500   0.8569   0.25906   0.25700  -0.0850  0.0096  1.0000  -2.1745   0.0000   0.0000   0.0000   0.3273
  20.600   0.8600   0.26063   0.25857  -0.0863  0.0096  1.0000  -2.1376   0.0000   0.0000   0.0000   0.3283
  20.700   0.8633   0.26224   0.26017  -0.0875  0.0095  1.0000  -2.1002   0.0000   0.0000   0.0000   0.3292
  20.800   0.8668   0.26391   0.26185  -0.0887  0.0094  1.0000  -2.0558   0.0000   0.0000   0.0000   0.3301
  20.900   0.8704   0.26556   0.26349  -0.0898  0.0092  1.0000  -2.0172   0.0000   0.0000   0.0000   0.3308
  21.000   0.8739   0.26708   0.26502  -0.0908  0.0089  1.0000  -1.9986   0.0000   0.0000   0.0000   0.3314
  21.100   0.8774   0.26850   0.26644  -0.0918  0.0087  1.0000  -1.9897   0.0000   0.0000   0.0000   0.3319
  21.200   0.8807   0.26993   0.26787  -0.0927  0.0085  1.0000  -1.9849   0.0000   0.0000   0.0000   0.3324
  21.300   0.8841   0.27133   0.26927  -0.0937  0.0083  1.0000  -1.9825   0.0000   0.0000   0.0000   0.3329
  21.400   0.8875   0.27270   0.27065  -0.0946  0.0082  1.0000  -1.9817   0.0000   0.0000   0.0000   0.3334
  21.500   0.8908   0.27405   0.27200  -0.0956  0.0080  1.0000  -1.9823   0.0000   0.0000   0.0000   0.3339
  21.600   0.8942   0.27539   0.27334  -0.0965  0.0079  1.0000  -1.9842   0.0000   0.0000   0.0000   0.3344
  21.700   0.8975   0.27671   0.27466  -0.0975  0.0077  1.0000  -1.9874   0.0000   0.0000   0.0000   0.3348
  21.800   0.9009   0.27801   0.27596  -0.0984  0.0076  1.0000  -1.9921   0.0000   0.0000   0.0000   0.3353
  21.900   0.9042   0.27929   0.27725  -0.0993  0.0075  1.0000  -1.9982   0.0000   0.0000   0.0000   0.3357
  22.000   0.9075   0.28056   0.27852  -0.1003  0.0074  1.0000  -2.0059   0.0000   0.0000   0.0000   0.3362
  22.100   0.9109   0.28181   0.27977  -0.1012  0.0073  1.0000  -2.0152   0.0000   0.0000   0.0000   0.3366
  22.200   0.9142   0.28305   0.28101  -0.1021  0.0072  1.0000  -2.0292   0.0000   0.0000   0.0000   0.3370
  22.300   0.9175   0.28426   0.28222  -0.1031  0.0071  1.0000  -2.0498   0.0000   0.0000   0.0000   0.3374
  22.400   0.9208   0.28546   0.28343  -0.1040  0.0071  1.0000  -2.0720   0.0000   0.0000   0.0000   0.3378
  22.500   0.9241   0.28665   0.28461  -0.1049  0.0070  1.0000  -2.0962   0.0000   0.0000   0.0000   0.3382
  22.600   0.9273   0.28781   0.28578  -0.1058  0.0069  1.0000  -2.1223   0.0000   0.0000   0.0000   0.3385
  22.700   0.9306   0.28897   0.28693  -0.1066  0.0069  1.0000  -2.1504   0.0000   0.0000   0.0000   0.3388
  22.800   0.9338   0.29011   0.28808  -0.1075  0.0068  1.0000  -2.1808   0.0000   0.0000   0.0000   0.3391
  22.900   0.9370   0.29130   0.28927  -0.1083  0.0068  1.0000  -2.2138   0.0000   0.0000   0.0000   0.3394
  23.000   0.9402   0.29246   0.29043  -0.1091  0.0067  1.0000  -2.2499   0.0000   0.0000   0.0000   0.3396
  23.100   0.9435   0.29366   0.29164  -0.1098  0.0067  1.0000  -2.2903   0.0000   0.0000   0.0000   0.3397
  23.200   0.9468   0.29501   0.29299  -0.1103  0.0066  1.0000  -2.3387   0.0000   0.0000   0.0000   0.3397
  24.200   0.9783   0.30965   0.30763  -0.1206  0.0065  1.0000  -2.2595   0.0000   0.0000   0.0000   0.3444
  24.300   0.9815   0.31098   0.30897  -0.1217  0.0065  1.0000  -2.2443   0.0000   0.0000   0.0000   0.3450
  24.400   0.9847   0.31232   0.31031  -0.1228  0.0065  1.0000  -2.2278   0.0000   0.0000   0.0000   0.3456
  24.500   0.9879   0.31366   0.31164  -0.1240  0.0065  1.0000  -2.2099   0.0000   0.0000   0.0000   0.3462
  24.600   0.9912   0.31500   0.31299  -0.1252  0.0065  1.0000  -2.1912   0.0000   0.0000   0.0000   0.3467
  24.700   0.9945   0.31635   0.31433  -0.1263  0.0064  1.0000  -2.1725   0.0000   0.0000   0.0000   0.3473
  24.800   0.9978   0.31771   0.31570  -0.1274  0.0064  1.0000  -2.1551   0.0000   0.0000   0.0000   0.3478
  24.900   1.0011   0.31907   0.31706  -0.1286  0.0064  1.0000  -2.1366   0.0000   0.0000   0.0000   0.3483
  25.000   1.0046   0.32045   0.31844  -0.1297  0.0064  1.0000  -2.1158   0.0000   0.0000   0.0000   0.3488
  25.100   1.0080   0.32185   0.31985  -0.1308  0.0063  1.0000  -2.0922   0.0000   0.0000   0.0000   0.3492
  25.200   1.0116   0.32328   0.32127  -0.1319  0.0062  1.0000  -2.0661   0.0000   0.0000   0.0000   0.3497
  25.300   1.0152   0.32464   0.32264  -0.1330  0.0061  1.0000  -2.0414   0.0000   0.0000   0.0000   0.3501
  25.400   1.0186   0.32606   0.32405  -0.1340  0.0059  1.0000  -2.0244   0.0000   0.0000   0.0000   0.3504
  25.500   1.0220   0.32739   0.32539  -0.1350  0.0058  1.0000  -2.0145   0.0000   0.0000   0.0000   0.3508
  25.600   1.0252   0.32862   0.32662  -0.1360  0.0056  1.0000  -2.0087   0.0000   0.0000   0.0000   0.3512
  25.700   1.0284   0.32992   0.32792  -0.1370  0.0055  1.0000  -2.0051   0.0000   0.0000   0.0000   0.3515
  25.800   1.0316   0.33119   0.32919  -0.1380  0.0053  1.0000  -2.0031   0.0000   0.0000   0.0000   0.3519
  25.900   1.0348   0.33243   0.33044  -0.1391  0.0052  1.0000  -2.0024   0.0000   0.0000   0.0000   0.3522
  26.000   1.0379   0.33365   0.33166  -0.1401  0.0051  1.0000  -2.0027   0.0000   0.0000   0.0000   0.3526
  26.100   1.0410   0.33486   0.33287  -0.1411  0.0050  1.0000  -2.0041   0.0000   0.0000   0.0000   0.3529
  26.200   1.0441   0.33605   0.33407  -0.1421  0.0049  1.0000  -2.0065   0.0000   0.0000   0.0000   0.3532
  26.300   1.0472   0.33724   0.33525  -0.1431  0.0048  1.0000  -2.0101   0.0000   0.0000   0.0000   0.3536
  26.400   1.0503   0.33840   0.33642  -0.1442  0.0047  1.0000  -2.0147   0.0000   0.0000   0.0000   0.3539
  26.500   1.0533   0.33956   0.33758  -0.1452  0.0046  1.0000  -2.0204   0.0000   0.0000   0.0000   0.3542
  26.600   1.0564   0.34070   0.33872  -0.1462  0.0046  1.0000  -2.0273   0.0000   0.0000   0.0000   0.3545
  26.700   1.0594   0.34183   0.33985  -0.1472  0.0045  1.0000  -2.0355   0.0000   0.0000   0.0000   0.3549
  26.800   1.0624   0.34294   0.34097  -0.1482  0.0045  1.0000  -2.0449   0.0000   0.0000   0.0000   0.3552
  26.900   1.0653   0.34404   0.34207  -0.1493  0.0044  1.0000  -2.0556   0.0000   0.0000   0.0000   0.3555
  27.000   1.0683   0.34512   0.34316  -0.1503  0.0044  1.0000  -2.0676   0.0000   0.0000   0.0000   0.3558
  27.100   1.0712   0.34620   0.34424  -0.1513  0.0043  1.0000  -2.0811   0.0000   0.0000   0.0000   0.3561
  27.200   1.0741   0.34726   0.34530  -0.1523  0.0043  1.0000  -2.0960   0.0000   0.0000   0.0000   0.3564
  27.300   1.0769   0.34831   0.34635  -0.1533  0.0042  1.0000  -2.1124   0.0000   0.0000   0.0000   0.3567
  27.400   1.0797   0.34942   0.34747  -0.1543  0.0042  1.0000  -2.1304   0.0000   0.0000   0.0000   0.3570
  27.500   1.0825   0.35046   0.34851  -0.1553  0.0042  1.0000  -2.1511   0.0000   0.0000   0.0000   0.3572
  27.600   1.0853   0.35150   0.34955  -0.1563  0.0041  1.0000  -2.1785   0.0000   0.0000   0.0000   0.3575
  27.700   1.0880   0.35255   0.35060  -0.1572  0.0041  1.0000  -2.2076   0.0000   0.0000   0.0000   0.3577
  27.800   1.0906   0.35362   0.35168  -0.1581  0.0041  1.0000  -2.2386   0.0000   0.0000   0.0000   0.3579
  27.900   1.0933   0.35476   0.35282  -0.1590  0.0040  1.0000  -2.2723   0.0000   0.0000   0.0000   0.3581
  28.000   1.0958   0.35615   0.35422  -0.1597  0.0040  1.0000  -2.3113   0.0000   0.0000   0.0000   0.3581


