xflr5 v6.61

 Calculated polar for: NACA 23012  12%

 1 1 Reynolds number fixed          Mach number fixed         

 xtrf =   1.000 (top)        1.000 (bottom)
 Mach =   0.000     Re =     0.500 e 6     Ncrit =   9.000

  alpha     CL        CD       CDp       Cm    Top Xtr Bot Xtr   Cpmin    Chinge    XCp    
 ------- -------- --------- --------- -------- ------- ------- -------- --------- ---------
 -10.000  -0.5584   0.08009   0.07758  -0.0279  1.0000  0.0309  -2.6142   0.0000   0.0000   0.0000   0.1911
  -9.900  -0.5654   0.07767   0.07513  -0.0299  1.0000  0.0309  -2.6598   0.0000   0.0000   0.0000   0.1883
  -9.800  -0.5727   0.07557   0.07299  -0.0315  1.0000  0.0309  -2.6989   0.0000   0.0000   0.0000   0.1865
  -9.700  -0.5798   0.07366   0.07104  -0.0326  1.0000  0.0309  -2.7319   0.0000   0.0000   0.0000   0.1854
  -9.600  -0.5867   0.07194   0.06929  -0.0333  1.0000  0.0309  -2.7593   0.0000   0.0000   0.0000   0.1851
  -9.500  -0.5935   0.07043   0.06774  -0.0335  1.0000  0.0309  -2.7818   0.0000   0.0000   0.0000   0.1856
  -9.400  -0.6001   0.06905   0.06633  -0.0332  1.0000  0.0309  -2.8000   0.0000   0.0000   0.0000   0.1868
  -9.300  -0.6063   0.06778   0.06501  -0.0327  1.0000  0.0309  -2.8142   0.0000   0.0000   0.0000   0.1885
  -9.200  -0.6110   0.06645   0.06364  -0.0322  1.0000  0.0309  -2.8235   0.0000   0.0000   0.0000   0.1898
  -9.100  -0.6144   0.06507   0.06221  -0.0319  1.0000  0.0309  -2.8283   0.0000   0.0000   0.0000   0.1907
  -9.000  -0.6171   0.06370   0.06079  -0.0315  1.0000  0.0309  -2.8298   0.0000   0.0000   0.0000   0.1917
  -8.900  -0.6192   0.06235   0.05939  -0.0310  1.0000  0.0309  -2.8282   0.0000   0.0000   0.0000   0.1927
  -8.800  -0.6208   0.06103   0.05801  -0.0306  1.0000  0.0310  -2.8238   0.0000   0.0000   0.0000   0.1937
  -8.700  -0.6219   0.05972   0.05665  -0.0300  1.0000  0.0310  -2.8169   0.0000   0.0000   0.0000   0.1948
  -8.600  -0.6225   0.05843   0.05531  -0.0294  1.0000  0.0310  -2.8076   0.0000   0.0000   0.0000   0.1958
  -8.500  -0.6228   0.05717   0.05399  -0.0288  1.0000  0.0310  -2.7962   0.0000   0.0000   0.0000   0.1970
  -8.400  -0.6759   0.04679   0.04316  -0.0255  1.0000  0.0320  -3.2237   0.0000   0.0000   0.0000   0.2055
  -8.300  -0.6830   0.04418   0.04043  -0.0241  1.0000  0.0324  -3.2657   0.0000   0.0000   0.0000   0.2081
  -8.200  -0.6850   0.04243   0.03859  -0.0228  1.0000  0.0328  -3.2650   0.0000   0.0000   0.0000   0.2101
  -8.100  -0.6846   0.04107   0.03717  -0.0217  1.0000  0.0331  -3.2446   0.0000   0.0000   0.0000   0.2117
  -8.000  -0.6830   0.03996   0.03600  -0.0207  1.0000  0.0333  -3.2129   0.0000   0.0000   0.0000   0.2133
  -7.900  -0.6806   0.03900   0.03501  -0.0197  1.0000  0.0336  -3.1743   0.0000   0.0000   0.0000   0.2147
  -7.800  -0.6776   0.03816   0.03412  -0.0187  1.0000  0.0338  -3.1315   0.0000   0.0000   0.0000   0.2162
  -7.700  -0.6744   0.03739   0.03331  -0.0176  1.0000  0.0341  -3.0861   0.0000   0.0000   0.0000   0.2176
  -7.600  -0.6710   0.03667   0.03256  -0.0166  1.0000  0.0343  -3.0395   0.0000   0.0000   0.0000   0.2190
  -7.500  -0.6674   0.03599   0.03184  -0.0156  1.0000  0.0345  -3.0026   0.0000   0.0000   0.0000   0.2205
  -7.400  -0.6638   0.03533   0.03114  -0.0146  1.0000  0.0348  -2.9734   0.0000   0.0000   0.0000   0.2220
  -7.300  -0.6600   0.03469   0.03047  -0.0135  1.0000  0.0350  -2.9437   0.0000   0.0000   0.0000   0.2236
  -7.200  -0.6558   0.03422   0.02997  -0.0125  1.0000  0.0353  -2.9034   0.0000   0.0000   0.0000   0.2250
  -7.100  -0.6507   0.03393   0.02968  -0.0117  1.0000  0.0358  -2.8496   0.0000   0.0000   0.0000   0.2262
  -7.000  -0.6450   0.03373   0.02950  -0.0110  1.0000  0.0363  -2.7898   0.0000   0.0000   0.0000   0.2272
  -6.900  -0.6394   0.03353   0.02932  -0.0102  1.0000  0.0369  -2.7317   0.0000   0.0000   0.0000   0.2283
  -6.800  -0.6340   0.03332   0.02911  -0.0095  1.0000  0.0375  -2.6772   0.0000   0.0000   0.0000   0.2295
  -6.700  -0.6288   0.03307   0.02886  -0.0086  1.0000  0.0382  -2.6270   0.0000   0.0000   0.0000   0.2308
  -6.600  -0.6232   0.03278   0.02856  -0.0079  1.0000  0.0389  -2.5793   0.0000   0.0000   0.0000   0.2320
  -6.500  -0.6098   0.03234   0.02809  -0.0087  0.9990  0.0401  -2.5150   0.0000   0.0000   0.0000   0.2304
  -6.400  -0.5963   0.03183   0.02754  -0.0095  0.9981  0.0413  -2.4582   0.0000   0.0000   0.0000   0.2288
  -5.900  -0.5347   0.02250   0.01711  -0.0096  0.9920  0.0295  -2.7255   0.0000   0.0000   0.0000   0.2264
  -5.800  -0.5228   0.02082   0.01527  -0.0099  0.9910  0.0290  -2.7447   0.0000   0.0000   0.0000   0.2255
  -5.700  -0.5097   0.01957   0.01389  -0.0103  0.9902  0.0287  -2.7422   0.0000   0.0000   0.0000   0.2241
  -5.600  -0.4959   0.01851   0.01273  -0.0109  0.9894  0.0284  -2.7299   0.0000   0.0000   0.0000   0.2225
  -5.500  -0.4829   0.01761   0.01175  -0.0112  0.9881  0.0282  -2.7124   0.0000   0.0000   0.0000   0.2212
  -5.400  -0.4701   0.01682   0.01089  -0.0115  0.9864  0.0281  -2.6913   0.0000   0.0000   0.0000   0.2200
  -5.300  -0.4569   0.01610   0.01011  -0.0118  0.9847  0.0281  -2.6670   0.0000   0.0000   0.0000   0.2184
  -5.200  -0.4435   0.01539   0.00926  -0.0122  0.9832  0.0282  -2.6556   0.0000   0.0000   0.0000   0.2168
  -5.100  -0.4300   0.01478   0.00860  -0.0127  0.9819  0.0283  -2.6258   0.0000   0.0000   0.0000   0.2149
  -5.000  -0.4163   0.01424   0.00801  -0.0131  0.9806  0.0285  -2.5930   0.0000   0.0000   0.0000   0.2127
  -4.900  -0.4021   0.01375   0.00748  -0.0137  0.9794  0.0288  -2.5565   0.0000   0.0000   0.0000   0.2101
  -4.800  -0.3873   0.01333   0.00703  -0.0145  0.9782  0.0292  -2.5151   0.0000   0.0000   0.0000   0.2069
  -4.700  -0.3718   0.01301   0.00669  -0.0153  0.9772  0.0298  -2.4654   0.0000   0.0000   0.0000   0.2030
  -4.600  -0.3555   0.01284   0.00652  -0.0164  0.9763  0.0304  -2.4031   0.0000   0.0000   0.0000   0.1981
  -4.500  -0.3466   0.01188   0.00553  -0.0160  0.9731  0.0389  -2.4386   0.0000   0.0000   0.0000   0.1981
  -4.400  -0.3336   0.01183   0.00552  -0.0163  0.9699  0.0411  -2.3692   0.0000   0.0000   0.0000   0.1953
  -4.300  -0.3199   0.01176   0.00546  -0.0168  0.9671  0.0429  -2.2993   0.0000   0.0000   0.0000   0.1916
  -4.200  -0.3055   0.01166   0.00537  -0.0175  0.9641  0.0444  -2.2288   0.0000   0.0000   0.0000   0.1870
  -4.100  -0.2907   0.01154   0.00525  -0.0181  0.9610  0.0456  -2.1581   0.0000   0.0000   0.0000   0.1816
  -4.000  -0.2753   0.01141   0.00512  -0.0189  0.9579  0.0466  -2.0867   0.0000   0.0000   0.0000   0.1752
  -3.900  -0.2647   0.01131   0.00501  -0.0187  0.9518  0.0473  -2.0284   0.0000   0.0000   0.0000   0.1733
  -3.800  -0.2538   0.01120   0.00489  -0.0185  0.9453  0.0479  -1.9698   0.0000   0.0000   0.0000   0.1710
  -3.700  -0.2414   0.01109   0.00477  -0.0187  0.9397  0.0485  -1.9075   0.0000   0.0000   0.0000   0.1666
  -3.600  -0.2287   0.01099   0.00465  -0.0189  0.9350  0.0489  -1.8449   0.0000   0.0000   0.0000   0.1613
  -3.500  -0.2181   0.01090   0.00456  -0.0186  0.9293  0.0493  -1.7884   0.0000   0.0000   0.0000   0.1583
  -3.400  -0.2079   0.01082   0.00447  -0.0183  0.9225  0.0495  -1.7334   0.0000   0.0000   0.0000   0.1556
  -3.300  -0.1971   0.01074   0.00438  -0.0181  0.9159  0.0498  -1.6771   0.0000   0.0000   0.0000   0.1516
  -3.200  -0.1875   0.01040   0.00397  -0.0177  0.9097  0.0516  -1.6385   0.0000   0.0000   0.0000   0.1492
  -3.100  -0.1778   0.01006   0.00356  -0.0172  0.9041  0.0566  -1.6023   0.0000   0.0000   0.0000   0.1466
  -3.000  -0.1681   0.00990   0.00343  -0.0168  0.8975  0.0614  -1.5542   0.0000   0.0000   0.0000   0.1431
  -2.900  -0.1578   0.00979   0.00335  -0.0166  0.8903  0.0654  -1.5018   0.0000   0.0000   0.0000   0.1382
  -2.800  -0.1473   0.00972   0.00325  -0.0163  0.8829  0.0688  -1.4491   0.0000   0.0000   0.0000   0.1323
  -2.700  -0.1366   0.00966   0.00317  -0.0161  0.8757  0.0711  -1.3960   0.0000   0.0000   0.0000   0.1251
  -2.600  -0.1258   0.00962   0.00311  -0.0159  0.8689  0.0724  -1.3423   0.0000   0.0000   0.0000   0.1163
  -2.500  -0.1158   0.00946   0.00292  -0.0156  0.8613  0.0797  -1.2979   0.0000   0.0000   0.0000   0.1081
  -2.400  -0.1058   0.00931   0.00281  -0.0152  0.8528  0.0889  -1.2502   0.0000   0.0000   0.0000   0.0982
  -2.300  -0.0956   0.00921   0.00271  -0.0149  0.8441  0.0967  -1.2005   0.0000   0.0000   0.0000   0.0855
  -2.100  -0.0781   0.00855   0.00242  -0.0141  0.8272  0.2072  -1.1116   0.0000   0.0000   0.0000   0.0605
  -2.000  -0.0734   0.00772   0.00226  -0.0133  0.8175  0.3773  -1.0765   0.0000   0.0000   0.0000   0.0605
  -1.900  -0.0654   0.00743   0.00219  -0.0127  0.8064  0.4472  -1.0324   0.0000   0.0000   0.0000   0.0472
  -1.700  -0.0481   0.00704   0.00211  -0.0116  0.7856  0.5442  -0.9414   0.0000   0.0000   0.0000  -0.0013
  -1.600  -0.0390   0.00690   0.00208  -0.0111  0.7743  0.5799  -0.8953   0.0000   0.0000   0.0000  -0.0457
  -1.500  -0.0295   0.00684   0.00205  -0.0106  0.7622  0.6084  -0.8483   0.0000   0.0000   0.0000  -0.1242
  -1.400  -0.0207   0.00675   0.00204  -0.0100  0.7506  0.6411  -0.8201   0.0000   0.0000   0.0000  -0.2523
  -1.300  -0.0113   0.00663   0.00200  -0.0095  0.7428  0.6743  -0.7959   0.0000   0.0000   0.0000  -0.6237
  -1.200  -0.0012   0.00658   0.00200  -0.0092  0.7330  0.6977  -0.7636   0.0000   0.0000   0.0000  -7.4406
  -1.100   0.0080   0.00652   0.00200  -0.0086  0.7222  0.7232  -0.7325   0.0000   0.0000   0.0000   1.3507
  -1.000   0.0176   0.00651   0.00199  -0.0081  0.7107  0.7462  -0.7013   0.0000   0.0000   0.0000   0.7217
  -0.900   0.0272   0.00648   0.00200  -0.0076  0.7010  0.7663  -0.6702   0.0000   0.0000   0.0000   0.5356
  -0.800   0.0375   0.00646   0.00201  -0.0073  0.6923  0.7838  -0.6385   0.0000   0.0000   0.0000   0.4471
  -0.700   0.0480   0.00647   0.00201  -0.0070  0.6818  0.7958  -0.6068   0.0000   0.0000   0.0000   0.3976
  -0.600   0.0579   0.00647   0.00201  -0.0066  0.6702  0.8084  -0.5958   0.0000   0.0000   0.0000   0.3640
  -0.500   0.0678   0.00652   0.00202  -0.0062  0.6576  0.8203  -0.6079   0.0000   0.0000   0.0000   0.3406
  -0.400   0.0785   0.00653   0.00202  -0.0060  0.6493  0.8306  -0.6206   0.0000   0.0000   0.0000   0.3250
  -0.300   0.0890   0.00654   0.00203  -0.0057  0.6398  0.8400  -0.6333   0.0000   0.0000   0.0000   0.3127
  -0.200   0.0993   0.00656   0.00205  -0.0054  0.6286  0.8506  -0.6458   0.0000   0.0000   0.0000   0.3021
  -0.100   0.1093   0.00662   0.00206  -0.0050  0.6163  0.8614  -0.6581   0.0000   0.0000   0.0000   0.2933
   0.000   0.1191   0.00669   0.00207  -0.0046  0.6040  0.8716  -0.6704   0.0000   0.0000   0.0000   0.2860
   0.100   0.1299   0.00670   0.00211  -0.0043  0.5963  0.8822  -0.6833   0.0000   0.0000   0.0000   0.2803
   0.200   0.1402   0.00674   0.00214  -0.0039  0.5862  0.8926  -0.6960   0.0000   0.0000   0.0000   0.2752
   0.300   0.1497   0.00681   0.00216  -0.0034  0.5748  0.9028  -0.7088   0.0000   0.0000   0.0000   0.2699
   0.400   0.1602   0.00690   0.00220  -0.0031  0.5617  0.9118  -0.7244   0.0000   0.0000   0.0000   0.2661
   0.500   0.1708   0.00698   0.00226  -0.0027  0.5508  0.9215  -0.7402   0.0000   0.0000   0.0000   0.2628
   0.600   0.1800   0.00704   0.00230  -0.0021  0.5429  0.9310  -0.7549   0.0000   0.0000   0.0000   0.2585
   0.700   0.1920   0.00711   0.00234  -0.0021  0.5321  0.9369  -0.7718   0.0000   0.0000   0.0000   0.2576
   0.800   0.2044   0.00721   0.00237  -0.0023  0.5192  0.9413  -0.7892   0.0000   0.0000   0.0000   0.2576
   0.900   0.2158   0.00733   0.00241  -0.0023  0.5037  0.9454  -0.8057   0.0000   0.0000   0.0000   0.2568
   1.000   0.2274   0.00739   0.00244  -0.0022  0.4946  0.9498  -0.8224   0.0000   0.0000   0.0000   0.2562
   1.100   0.2375   0.00746   0.00246  -0.0019  0.4837  0.9548  -0.8381   0.0000   0.0000   0.0000   0.2544
   1.200   0.2496   0.00756   0.00248  -0.0021  0.4691  0.9581  -0.8554   0.0000   0.0000   0.0000   0.2545
   1.300   0.2634   0.00770   0.00252  -0.0026  0.4507  0.9603  -0.8741   0.0000   0.0000   0.0000   0.2561
   1.400   0.2779   0.00777   0.00256  -0.0033  0.4411  0.9624  -0.8935   0.0000   0.0000   0.0000   0.2579
   1.500   0.2922   0.00786   0.00259  -0.0039  0.4295  0.9646  -0.9127   0.0000   0.0000   0.0000   0.2595
   1.600   0.3058   0.00797   0.00263  -0.0045  0.4162  0.9669  -0.9315   0.0000   0.0000   0.0000   0.2605
   1.700   0.3189   0.00810   0.00267  -0.0049  0.4005  0.9693  -0.9499   0.0000   0.0000   0.0000   0.2612
   1.800   0.3320   0.00816   0.00270  -0.0053  0.3922  0.9718  -0.9683   0.0000   0.0000   0.0000   0.2617
   1.900   0.3433   0.00823   0.00274  -0.0053  0.3835  0.9751  -0.9854   0.0000   0.0000   0.0000   0.2612
   2.000   0.3588   0.00834   0.00277  -0.0063  0.3714  0.9762  -1.0060   0.0000   0.0000   0.0000   0.2631
   2.100   0.3747   0.00848   0.00282  -0.0073  0.3563  0.9772  -1.0269   0.0000   0.0000   0.0000   0.2652
   2.200   0.3907   0.00857   0.00287  -0.0084  0.3446  0.9782  -1.0481   0.0000   0.0000   0.0000   0.2671
   2.300   0.4066   0.00864   0.00294  -0.0095  0.3373  0.9794  -1.0694   0.0000   0.0000   0.0000   0.2687
   2.400   0.4220   0.00874   0.00298  -0.0104  0.3282  0.9807  -1.0902   0.0000   0.0000   0.0000   0.2701
   2.500   0.4367   0.00885   0.00301  -0.0112  0.3180  0.9821  -1.1105   0.0000   0.0000   0.0000   0.2711
   2.600   0.4509   0.00898   0.00306  -0.0120  0.3053  0.9837  -1.1302   0.0000   0.0000   0.0000   0.2718
   2.700   0.4650   0.00906   0.00312  -0.0126  0.2970  0.9853  -1.1498   0.0000   0.0000   0.0000   0.2724
   2.800   0.4791   0.00911   0.00316  -0.0133  0.2938  0.9871  -1.1698   0.0000   0.0000   0.0000   0.2728
   2.900   0.4926   0.00918   0.00320  -0.0138  0.2896  0.9891  -1.1909   0.0000   0.0000   0.0000   0.2730
   3.000   0.5084   0.00925   0.00324  -0.0148  0.2843  0.9899  -1.2175   0.0000   0.0000   0.0000   0.2742
   3.100   0.5241   0.00934   0.00327  -0.0159  0.2787  0.9909  -1.2439   0.0000   0.0000   0.0000   0.2752
   3.200   0.5395   0.00944   0.00331  -0.0168  0.2725  0.9920  -1.2701   0.0000   0.0000   0.0000   0.2761
   3.300   0.5545   0.00955   0.00336  -0.0177  0.2647  0.9933  -1.2959   0.0000   0.0000   0.0000   0.2768
   3.400   0.5690   0.00968   0.00345  -0.0185  0.2559  0.9945  -1.3209   0.0000   0.0000   0.0000   0.2773
   3.500   0.5835   0.00977   0.00353  -0.0193  0.2510  0.9957  -1.3463   0.0000   0.0000   0.0000   0.2778
   3.600   0.5982   0.00979   0.00355  -0.0201  0.2498  0.9969  -1.3727   0.0000   0.0000   0.0000   0.2782
   3.700   0.6133   0.00982   0.00358  -0.0210  0.2482  0.9978  -1.3996   0.0000   0.0000   0.0000   0.2788
   3.800   0.6288   0.00985   0.00362  -0.0220  0.2462  0.9987  -1.4269   0.0000   0.0000   0.0000   0.2794
   3.900   0.6443   0.00990   0.00366  -0.0230  0.2439  0.9997  -1.4543   0.0000   0.0000   0.0000   0.2800
   4.000   0.6551   0.00994   0.00370  -0.0230  0.2415  1.0000  -1.4766   0.0000   0.0000   0.0000   0.2793
   4.100   0.6643   0.01000   0.00373  -0.0226  0.2391  1.0000  -1.4972   0.0000   0.0000   0.0000   0.2782
   4.200   0.6734   0.01005   0.00378  -0.0223  0.2366  1.0000  -1.5179   0.0000   0.0000   0.0000   0.2772
   4.300   0.6825   0.01012   0.00382  -0.0220  0.2338  1.0000  -1.5385   0.0000   0.0000   0.0000   0.2761
   4.400   0.6916   0.01019   0.00387  -0.0216  0.2310  1.0000  -1.5591   0.0000   0.0000   0.0000   0.2751
   4.500   0.7005   0.01027   0.00392  -0.0212  0.2279  1.0000  -1.5825   0.0000   0.0000   0.0000   0.2741
   4.600   0.7094   0.01037   0.00399  -0.0208  0.2244  1.0000  -1.6080   0.0000   0.0000   0.0000   0.2731
   4.700   0.7182   0.01047   0.00407  -0.0204  0.2204  1.0000  -1.6333   0.0000   0.0000   0.0000   0.2720
   4.800   0.7268   0.01060   0.00419  -0.0200  0.2162  1.0000  -1.6582   0.0000   0.0000   0.0000   0.2710
   4.900   0.7353   0.01075   0.00433  -0.0195  0.2119  1.0000  -1.6827   0.0000   0.0000   0.0000   0.2699
   5.000   0.7436   0.01094   0.00453  -0.0190  0.2079  1.0000  -1.7068   0.0000   0.0000   0.0000   0.2689
   5.100   0.7528   0.01099   0.00459  -0.0187  0.2073  1.0000  -1.7334   0.0000   0.0000   0.0000   0.2680
   5.200   0.7621   0.01103   0.00463  -0.0183  0.2069  1.0000  -1.7605   0.0000   0.0000   0.0000   0.2671
   5.300   0.7713   0.01107   0.00468  -0.0180  0.2064  1.0000  -1.7877   0.0000   0.0000   0.0000   0.2663
   5.400   0.7806   0.01111   0.00473  -0.0176  0.2059  1.0000  -1.8150   0.0000   0.0000   0.0000   0.2654
   5.500   0.7899   0.01114   0.00477  -0.0173  0.2052  1.0000  -1.8426   0.0000   0.0000   0.0000   0.2646
   5.600   0.7992   0.01118   0.00481  -0.0169  0.2044  1.0000  -1.8704   0.0000   0.0000   0.0000   0.2638
   5.700   0.8087   0.01119   0.00494  -0.0166  0.2029  1.0000  -1.8950   0.0000   0.0000   0.0000   0.2631
   5.800   0.8181   0.01122   0.00498  -0.0163  0.2013  1.0000  -1.9210   0.0000   0.0000   0.0000   0.2623
   5.900   0.8273   0.01128   0.00505  -0.0159  0.1999  1.0000  -1.9566   0.0000   0.0000   0.0000   0.2616
   6.000   0.8365   0.01134   0.00511  -0.0156  0.1984  1.0000  -1.9935   0.0000   0.0000   0.0000   0.2608
   6.100   0.8457   0.01140   0.00519  -0.0152  0.1967  1.0000  -2.0302   0.0000   0.0000   0.0000   0.2601
   6.200   0.8548   0.01147   0.00526  -0.0148  0.1949  1.0000  -2.0668   0.0000   0.0000   0.0000   0.2594
   6.300   0.8639   0.01155   0.00533  -0.0144  0.1930  1.0000  -2.1034   0.0000   0.0000   0.0000   0.2586
   6.400   0.8730   0.01163   0.00541  -0.0141  0.1909  1.0000  -2.1400   0.0000   0.0000   0.0000   0.2579
   6.500   0.8820   0.01172   0.00548  -0.0137  0.1887  1.0000  -2.1766   0.0000   0.0000   0.0000   0.2572
   6.600   0.8909   0.01182   0.00556  -0.0133  0.1864  1.0000  -2.2132   0.0000   0.0000   0.0000   0.2565
   6.700   0.8998   0.01193   0.00565  -0.0129  0.1838  1.0000  -2.2498   0.0000   0.0000   0.0000   0.2558
   6.800   0.9084   0.01205   0.00576  -0.0125  0.1805  1.0000  -2.2859   0.0000   0.0000   0.0000   0.2550
   6.900   0.9168   0.01222   0.00590  -0.0120  0.1763  1.0000  -2.3288   0.0000   0.0000   0.0000   0.2543
   7.000   0.9248   0.01244   0.00611  -0.0114  0.1713  1.0000  -2.3745   0.0000   0.0000   0.0000   0.2535
   7.100   0.9322   0.01275   0.00644  -0.0108  0.1662  1.0000  -2.4183   0.0000   0.0000   0.0000   0.2526
   7.200   0.9421   0.01274   0.00644  -0.0106  0.1658  1.0000  -2.4717   0.0000   0.0000   0.0000   0.2521
   7.300   0.9520   0.01275   0.00645  -0.0103  0.1653  1.0000  -2.5255   0.0000   0.0000   0.0000   0.2516
   7.400   0.9618   0.01276   0.00647  -0.0101  0.1646  1.0000  -2.5796   0.0000   0.0000   0.0000   0.2511
   7.500   0.9717   0.01278   0.00650  -0.0099  0.1638  1.0000  -2.6339   0.0000   0.0000   0.0000   0.2507
   7.600   0.9814   0.01280   0.00654  -0.0096  0.1626  1.0000  -2.6885   0.0000   0.0000   0.0000   0.2502
   7.700   0.9911   0.01284   0.00659  -0.0094  0.1611  1.0000  -2.7432   0.0000   0.0000   0.0000   0.2497
   7.800   1.0007   0.01290   0.00666  -0.0091  0.1595  1.0000  -2.7977   0.0000   0.0000   0.0000   0.2492
   7.900   1.0102   0.01297   0.00674  -0.0088  0.1578  1.0000  -2.8520   0.0000   0.0000   0.0000   0.2487
   8.000   1.0195   0.01305   0.00683  -0.0085  0.1559  1.0000  -2.9064   0.0000   0.0000   0.0000   0.2482
   8.100   1.0289   0.01315   0.00692  -0.0082  0.1539  1.0000  -2.9610   0.0000   0.0000   0.0000   0.2477
   8.200   1.0381   0.01324   0.00701  -0.0079  0.1518  1.0000  -3.0159   0.0000   0.0000   0.0000   0.2472
   8.300   1.0473   0.01335   0.00710  -0.0076  0.1495  1.0000  -3.0709   0.0000   0.0000   0.0000   0.2467
   8.400   1.0565   0.01347   0.00720  -0.0073  0.1470  1.0000  -3.1260   0.0000   0.0000   0.0000   0.2462
   8.500   1.0655   0.01359   0.00730  -0.0070  0.1443  1.0000  -3.1812   0.0000   0.0000   0.0000   0.2457
   8.600   1.0744   0.01373   0.00742  -0.0067  0.1411  1.0000  -3.2360   0.0000   0.0000   0.0000   0.2452
   8.700   1.0831   0.01390   0.00758  -0.0063  0.1375  1.0000  -3.2903   0.0000   0.0000   0.0000   0.2447
   8.800   1.0915   0.01410   0.00778  -0.0059  0.1335  1.0000  -3.3434   0.0000   0.0000   0.0000   0.2441
   8.900   1.0994   0.01436   0.00804  -0.0054  0.1293  1.0000  -3.3950   0.0000   0.0000   0.0000   0.2435
   9.000   1.1084   0.01452   0.00822  -0.0050  0.1274  1.0000  -3.4508   0.0000   0.0000   0.0000   0.2430
   9.100   1.1184   0.01457   0.00830  -0.0049  0.1269  1.0000  -3.5265   0.0000   0.0000   0.0000   0.2427
   9.200   1.1276   0.01472   0.00858  -0.0046  0.1267  1.0000  -3.5932   0.0000   0.0000   0.0000   0.2423
   9.300   1.1377   0.01475   0.00863  -0.0045  0.1260  1.0000  -3.6757   0.0000   0.0000   0.0000   0.2420
   9.400   1.1481   0.01477   0.00866  -0.0044  0.1245  1.0000  -3.7613   0.0000   0.0000   0.0000   0.2417
   9.500   1.1581   0.01482   0.00872  -0.0043  0.1222  1.0000  -3.8466   0.0000   0.0000   0.0000   0.2414
   9.600   1.1676   0.01491   0.00880  -0.0041  0.1192  1.0000  -3.9304   0.0000   0.0000   0.0000   0.2411
   9.700   1.1768   0.01504   0.00890  -0.0038  0.1158  1.0000  -4.0131   0.0000   0.0000   0.0000   0.2407
   9.800   1.1856   0.01520   0.00903  -0.0036  0.1123  1.0000  -4.0949   0.0000   0.0000   0.0000   0.2403
   9.900   1.1942   0.01538   0.00917  -0.0032  0.1088  1.0000  -4.1761   0.0000   0.0000   0.0000   0.2399
  10.000   1.2027   0.01557   0.00933  -0.0029  0.1048  1.0000  -4.2570   0.0000   0.0000   0.0000   0.2394
  10.100   1.2109   0.01579   0.00953  -0.0025  0.1003  1.0000  -4.3371   0.0000   0.0000   0.0000   0.2389
  10.200   1.2189   0.01603   0.00977  -0.0021  0.0956  1.0000  -4.4157   0.0000   0.0000   0.0000   0.2384
  10.300   1.2270   0.01625   0.01001  -0.0017  0.0925  1.0000  -4.4959   0.0000   0.0000   0.0000   0.2379
  10.400   1.2366   0.01636   0.01014  -0.0015  0.0919  1.0000  -4.5847   0.0000   0.0000   0.0000   0.2376
  10.500   1.2459   0.01647   0.01029  -0.0013  0.0910  1.0000  -4.6733   0.0000   0.0000   0.0000   0.2373
  10.600   1.2551   0.01660   0.01044  -0.0011  0.0896  1.0000  -4.7614   0.0000   0.0000   0.0000   0.2369
  10.700   1.2639   0.01676   0.01061  -0.0008  0.0878  1.0000  -4.8488   0.0000   0.0000   0.0000   0.2365
  10.800   1.2725   0.01694   0.01079  -0.0005  0.0855  1.0000  -4.9352   0.0000   0.0000   0.0000   0.2361
  10.900   1.2806   0.01715   0.01099  -0.0002  0.0827  1.0000  -5.0204   0.0000   0.0000   0.0000   0.2357
  11.000   1.2884   0.01739   0.01120   0.0002  0.0795  1.0000  -5.1040   0.0000   0.0000   0.0000   0.2352
  11.100   1.2957   0.01766   0.01143   0.0007  0.0761  1.0000  -5.1860   0.0000   0.0000   0.0000   0.2347
  11.200   1.3028   0.01795   0.01168   0.0011  0.0721  1.0000  -5.2671   0.0000   0.0000   0.0000   0.2342
  11.300   1.3099   0.01824   0.01195   0.0016  0.0674  1.0000  -5.3476   0.0000   0.0000   0.0000   0.2337
  11.400   1.3163   0.01857   0.01231   0.0022  0.0631  1.0000  -5.4238   0.0000   0.0000   0.0000   0.2331
  11.500   1.3245   0.01876   0.01251   0.0026  0.0620  1.0000  -5.5121   0.0000   0.0000   0.0000   0.2327
  11.600   1.3329   0.01893   0.01271   0.0029  0.0612  1.0000  -5.6024   0.0000   0.0000   0.0000   0.2323
  11.700   1.3409   0.01912   0.01294   0.0032  0.0600  1.0000  -5.6909   0.0000   0.0000   0.0000   0.2318
  11.800   1.3483   0.01935   0.01318   0.0036  0.0583  1.0000  -5.7771   0.0000   0.0000   0.0000   0.2314
  11.900   1.3552   0.01962   0.01345   0.0041  0.0562  1.0000  -5.8608   0.0000   0.0000   0.0000   0.2309
  12.000   1.3615   0.01993   0.01375   0.0047  0.0538  1.0000  -5.9414   0.0000   0.0000   0.0000   0.2303
  12.100   1.3669   0.02030   0.01408   0.0053  0.0511  1.0000  -6.0180   0.0000   0.0000   0.0000   0.2297
  12.200   1.3716   0.02071   0.01445   0.0060  0.0481  1.0000  -6.0905   0.0000   0.0000   0.0000   0.2290
  12.300   1.3759   0.02115   0.01486   0.0068  0.0442  1.0000  -6.1592   0.0000   0.0000   0.0000   0.2283
  12.400   1.3775   0.02168   0.01541   0.0081  0.0394  1.0000  -6.2092   0.0000   0.0000   0.0000   0.2272
  12.600   1.3857   0.02237   0.01624   0.0099  0.0371  1.0000  -6.3549   0.0000   0.0000   0.0000   0.2256
  12.700   1.3914   0.02262   0.01653   0.0105  0.0366  1.0000  -6.4370   0.0000   0.0000   0.0000   0.2250
  12.800   1.3964   0.02291   0.01685   0.0112  0.0358  1.0000  -6.5145   0.0000   0.0000   0.0000   0.2243
  12.900   1.4008   0.02326   0.01723   0.0119  0.0348  1.0000  -6.5873   0.0000   0.0000   0.0000   0.2236
  13.000   1.4043   0.02366   0.01766   0.0127  0.0337  1.0000  -6.6550   0.0000   0.0000   0.0000   0.2229
  13.100   1.4072   0.02411   0.01813   0.0136  0.0326  1.0000  -6.7191   0.0000   0.0000   0.0000   0.2221
  13.200   1.4097   0.02459   0.01863   0.0144  0.0316  1.0000  -6.7803   0.0000   0.0000   0.0000   0.2214
  13.300   1.4116   0.02511   0.01917   0.0153  0.0307  1.0000  -6.8386   0.0000   0.0000   0.0000   0.2206
  13.400   1.4133   0.02565   0.01973   0.0161  0.0299  1.0000  -6.8957   0.0000   0.0000   0.0000   0.2198
  13.500   1.4146   0.02624   0.02034   0.0169  0.0292  1.0000  -6.9508   0.0000   0.0000   0.0000   0.2191
  13.600   1.4158   0.02686   0.02099   0.0176  0.0285  1.0000  -7.0042   0.0000   0.0000   0.0000   0.2184
  13.700   1.4167   0.02752   0.02167   0.0183  0.0278  1.0000  -7.0561   0.0000   0.0000   0.0000   0.2177
  13.800   1.4173   0.02823   0.02241   0.0189  0.0271  1.0000  -7.1053   0.0000   0.0000   0.0000   0.2171
  13.900   1.4178   0.02897   0.02319   0.0195  0.0264  1.0000  -7.1530   0.0000   0.0000   0.0000   0.2165
  14.000   1.4177   0.02978   0.02404   0.0201  0.0258  1.0000  -7.1968   0.0000   0.0000   0.0000   0.2159
  14.100   1.4171   0.03065   0.02496   0.0205  0.0251  1.0000  -7.2367   0.0000   0.0000   0.0000   0.2153
  14.200   1.4159   0.03157   0.02593   0.0210  0.0245  1.0000  -7.2722   0.0000   0.0000   0.0000   0.2147
  14.300   1.4139   0.03259   0.02702   0.0214  0.0239  1.0000  -7.3021   0.0000   0.0000   0.0000   0.2142
  14.400   1.4117   0.03370   0.02819   0.0217  0.0234  1.0000  -7.3296   0.0000   0.0000   0.0000   0.2138
  14.500   1.4084   0.03498   0.02953   0.0218  0.0228  1.0000  -7.3494   0.0000   0.0000   0.0000   0.2134
  14.600   1.4049   0.03634   0.03097   0.0219  0.0223  1.0000  -7.3657   0.0000   0.0000   0.0000   0.2131
  14.700   1.4000   0.03793   0.03264   0.0217  0.0217  1.0000  -7.3722   0.0000   0.0000   0.0000   0.2129
  14.800   1.3945   0.03963   0.03443   0.0215  0.0212  1.0000  -7.3723   0.0000   0.0000   0.0000   0.2128
  14.900   1.3873   0.04162   0.03651   0.0210  0.0207  1.0000  -7.3602   0.0000   0.0000   0.0000   0.2128
  15.000   1.3791   0.04376   0.03875   0.0205  0.0202  1.0000  -7.3382   0.0000   0.0000   0.0000   0.2128
  15.100   1.3691   0.04622   0.04133   0.0197  0.0198  1.0000  -7.3027   0.0000   0.0000   0.0000   0.2130
  15.200   1.3574   0.04889   0.04411   0.0189  0.0193  1.0000  -7.2527   0.0000   0.0000   0.0000   0.2132
  15.300   1.3542   0.05061   0.04586   0.0182  0.0191  1.0000  -7.2713   0.0000   0.0000   0.0000   0.2135
  15.400   1.3591   0.05128   0.04654   0.0178  0.0190  1.0000  -7.3542   0.0000   0.0000   0.0000   0.2136
  15.500   1.3643   0.05192   0.04717   0.0174  0.0189  1.0000  -7.4396   0.0000   0.0000   0.0000   0.2137
  15.600   1.3696   0.05253   0.04778   0.0171  0.0188  1.0000  -7.5266   0.0000   0.0000   0.0000   0.2138
  15.700   1.3746   0.05318   0.04843   0.0167  0.0187  1.0000  -7.6113   0.0000   0.0000   0.0000   0.2138
  15.800   1.3780   0.05405   0.04931   0.0163  0.0185  1.0000  -7.6838   0.0000   0.0000   0.0000   0.2140
  15.900   1.3784   0.05537   0.05066   0.0156  0.0183  1.0000  -7.7322   0.0000   0.0000   0.0000   0.2142
  16.000   1.3789   0.05664   0.05195   0.0150  0.0180  1.0000  -7.7806   0.0000   0.0000   0.0000   0.2144
  16.100   1.3779   0.05802   0.05336   0.0144  0.0177  1.0000  -7.8168   0.0000   0.0000   0.0000   0.2146
  16.200   1.3747   0.05967   0.05505   0.0138  0.0174  1.0000  -7.8345   0.0000   0.0000   0.0000   0.2148
  16.300   1.3667   0.06211   0.05754   0.0127  0.0172  1.0000  -7.8146   0.0000   0.0000   0.0000   0.2154
  16.400   1.3605   0.06425   0.05973   0.0117  0.0169  1.0000  -7.8069   0.0000   0.0000   0.0000   0.2157
  16.500   1.3538   0.06649   0.06202   0.0108  0.0166  1.0000  -7.7933   0.0000   0.0000   0.0000   0.2162
  16.600   1.3435   0.06947   0.06507   0.0093  0.0165  1.0000  -7.7511   0.0000   0.0000   0.0000   0.2169
  16.700   1.3352   0.07207   0.06772   0.0082  0.0163  1.0000  -7.7227   0.0000   0.0000   0.0000   0.2175
  16.800   1.3270   0.07466   0.07036   0.0070  0.0160  1.0000  -7.6933   0.0000   0.0000   0.0000   0.2181
  16.900   1.3158   0.07789   0.07366   0.0054  0.0160  1.0000  -7.6411   0.0000   0.0000   0.0000   0.2190
  17.000   1.3064   0.08078   0.07660   0.0041  0.0159  1.0000  -7.6002   0.0000   0.0000   0.0000   0.2198
  17.100   1.2977   0.08351   0.07938   0.0028  0.0157  1.0000  -7.5636   0.0000   0.0000   0.0000   0.2205
  17.200   1.2884   0.08640   0.08233   0.0015  0.0155  1.0000  -7.5207   0.0000   0.0000   0.0000   0.2214
  17.300   1.2765   0.08984   0.08584  -0.0003  0.0156  1.0000  -7.4576   0.0000   0.0000   0.0000   0.2225
  17.400   1.2675   0.09270   0.08874  -0.0016  0.0154  1.0000  -7.4144   0.0000   0.0000   0.0000   0.2234
  17.500   1.2591   0.09544   0.09153  -0.0030  0.0153  1.0000  -7.3736   0.0000   0.0000   0.0000   0.2242
  17.600   1.2505   0.09823   0.09437  -0.0043  0.0151  1.0000  -7.3303   0.0000   0.0000   0.0000   0.2251
  17.700   1.2386   0.10172   0.09793  -0.0062  0.0151  1.0000  -7.2603   0.0000   0.0000   0.0000   0.2264
  17.800   1.2290   0.10475   0.10100  -0.0077  0.0151  1.0000  -7.2062   0.0000   0.0000   0.0000   0.2275
  17.900   1.2211   0.10744   0.10374  -0.0091  0.0149  1.0000  -7.1628   0.0000   0.0000   0.0000   0.2285
  18.000   1.2137   0.11004   0.10639  -0.0105  0.0147  1.0000  -7.1222   0.0000   0.0000   0.0000   0.2294
  18.100   1.2061   0.11269   0.10908  -0.0118  0.0146  1.0000  -7.0786   0.0000   0.0000   0.0000   0.2304
  18.200   1.1977   0.11548   0.11192  -0.0134  0.0145  1.0000  -7.0274   0.0000   0.0000   0.0000   0.2316
  18.300   1.1843   0.11935   0.11586  -0.0155  0.0146  1.0000  -6.9334   0.0000   0.0000   0.0000   0.2334
  18.400   1.1767   0.12204   0.11859  -0.0170  0.0145  1.0000  -6.8841   0.0000   0.0000   0.0000   0.2345
  18.500   1.1704   0.12446   0.12105  -0.0184  0.0143  1.0000  -6.8444   0.0000   0.0000   0.0000   0.2356
  18.600   1.1646   0.12666   0.12330  -0.0196  0.0142  1.0000  -6.8076   0.0000   0.0000   0.0000   0.2365
  18.700   1.1590   0.12876   0.12544  -0.0209  0.0140  1.0000  -6.7711   0.0000   0.0000   0.0000   0.2375
  18.800   1.1529   0.13095   0.12767  -0.0222  0.0139  1.0000  -6.7296   0.0000   0.0000   0.0000   0.2386
  18.900   1.1460   0.13338   0.13016  -0.0237  0.0138  1.0000  -6.6784   0.0000   0.0000   0.0000   0.2398
  19.000   1.1369   0.13632   0.13316  -0.0255  0.0138  1.0000  -6.6059   0.0000   0.0000   0.0000   0.2414
  19.100   1.1203   0.14100   0.13792  -0.0284  0.0140  1.0000  -6.4608   0.0000   0.0000   0.0000   0.2442
  19.200   1.1141   0.14362   0.14057  -0.0299  0.0139  1.0000  -6.4074   0.0000   0.0000   0.0000   0.2456
  19.300   1.1087   0.14611   0.14312  -0.0313  0.0138  1.0000  -6.3595   0.0000   0.0000   0.0000   0.2468
  19.400   1.1033   0.14866   0.14571  -0.0328  0.0137  1.0000  -6.3099   0.0000   0.0000   0.0000   0.2481
  19.500   1.0974   0.15137   0.14847  -0.0343  0.0136  1.0000  -6.2532   0.0000   0.0000   0.0000   0.2495
  19.600   1.0902   0.15442   0.15158  -0.0361  0.0136  1.0000  -6.1816   0.0000   0.0000   0.0000   0.2512
  19.700   1.0803   0.15823   0.15545  -0.0382  0.0136  1.0000  -6.0778   0.0000   0.0000   0.0000   0.2534
  19.800   1.0536   0.16641   0.16374  -0.0426  0.0138  1.0000  -5.7845   0.0000   0.0000   0.0000   0.2587
  19.900   1.0439   0.17048   0.16786  -0.0447  0.0137  1.0000  -5.6685   0.0000   0.0000   0.0000   0.2610
  20.000   1.0342   0.17469   0.17211  -0.0468  0.0137  1.0000  -5.5447   0.0000   0.0000   0.0000   0.2635
  20.100   1.0202   0.18016   0.17765  -0.0494  0.0137  1.0000  -5.3602   0.0000   0.0000   0.0000   0.2667
  20.300   0.8602   0.24214   0.23965  -0.0683  0.0164  1.0000  -2.4163   0.0000   0.0000   0.0000   0.3029
  20.400   0.8564   0.24634   0.24385  -0.0693  0.0169  1.0000  -2.3051   0.0000   0.0000   0.0000   0.3044
  21.900   0.8386   0.28985   0.28740  -0.0775  0.0191  1.0000  -1.6699   0.0000   0.0000   0.0000   0.3151
  22.000   0.8386   0.29189   0.28944  -0.0779  0.0191  1.0000  -1.6586   0.0000   0.0000   0.0000   0.3156
  22.100   0.8385   0.29391   0.29146  -0.0784  0.0191  1.0000  -1.6474   0.0000   0.0000   0.0000   0.3160
  22.200   0.8383   0.29589   0.29345  -0.0788  0.0191  1.0000  -1.6363   0.0000   0.0000   0.0000   0.3164
  22.300   0.8380   0.29785   0.29542  -0.0792  0.0190  1.0000  -1.6251   0.0000   0.0000   0.0000   0.3168
  22.400   0.8376   0.29978   0.29735  -0.0796  0.0190  1.0000  -1.6140   0.0000   0.0000   0.0000   0.3172
  22.500   0.8371   0.30167   0.29925  -0.0800  0.0190  1.0000  -1.6028   0.0000   0.0000   0.0000   0.3176
  22.600   0.8365   0.30353   0.30111  -0.0803  0.0190  1.0000  -1.5916   0.0000   0.0000   0.0000   0.3179
  22.700   0.8358   0.30534   0.30292  -0.0806  0.0190  1.0000  -1.5802   0.0000   0.0000   0.0000   0.3183
  22.800   0.8349   0.30710   0.30469  -0.0809  0.0190  1.0000  -1.5688   0.0000   0.0000   0.0000   0.3187
  22.900   0.8339   0.30882   0.30641  -0.0812  0.0190  1.0000  -1.5572   0.0000   0.0000   0.0000   0.3190
  23.000   0.8327   0.31047   0.30807  -0.0814  0.0190  1.0000  -1.5454   0.0000   0.0000   0.0000   0.3193
  23.100   0.8313   0.31205   0.30966  -0.0816  0.0190  1.0000  -1.5334   0.0000   0.0000   0.0000   0.3197
  23.200   0.8297   0.31356   0.31117  -0.0818  0.0190  1.0000  -1.5211   0.0000   0.0000   0.0000   0.3200
  23.300   0.8279   0.31497   0.31259  -0.0820  0.0190  1.0000  -1.5085   0.0000   0.0000   0.0000   0.3203
  23.400   0.8258   0.31628   0.31391  -0.0820  0.0190  1.0000  -1.4955   0.0000   0.0000   0.0000   0.3206
  23.500   0.8233   0.31745   0.31509  -0.0821  0.0190  1.0000  -1.4820   0.0000   0.0000   0.0000   0.3209
  23.600   0.8104   0.31564   0.31329  -0.0804  0.0190  1.0000  -1.4469   0.0000   0.0000   0.0000   0.3206
  23.700   0.7927   0.31188   0.30955  -0.0780  0.0190  1.0000  -1.4018   0.0000   0.0000   0.0000   0.3202
  23.800   0.7848   0.31087   0.30856  -0.0772  0.0190  1.0000  -1.3776   0.0000   0.0000   0.0000   0.3202
  23.900   0.7790   0.31040   0.30809  -0.0766  0.0190  1.0000  -1.3577   0.0000   0.0000   0.0000   0.3203
  24.000   0.7743   0.31017   0.30788  -0.0763  0.0190  1.0000  -1.3401   0.0000   0.0000   0.0000   0.3205
  24.100   0.7702   0.31010   0.30781  -0.0760  0.0189  1.0000  -1.3242   0.0000   0.0000   0.0000   0.3207
  24.200   0.7665   0.31013   0.30785  -0.0758  0.0189  1.0000  -1.3094   0.0000   0.0000   0.0000   0.3209
  24.300   0.7633   0.31023   0.30796  -0.0757  0.0189  1.0000  -1.2956   0.0000   0.0000   0.0000   0.3212
  24.400   0.7603   0.31038   0.30811  -0.0757  0.0189  1.0000  -1.2826   0.0000   0.0000   0.0000   0.3214
  24.500   0.7576   0.31056   0.30830  -0.0756  0.0189  1.0000  -1.2702   0.0000   0.0000   0.0000   0.3217
  24.600   0.7551   0.31078   0.30853  -0.0756  0.0189  1.0000  -1.2583   0.0000   0.0000   0.0000   0.3220
  24.700   0.7527   0.31103   0.30879  -0.0756  0.0189  1.0000  -1.2470   0.0000   0.0000   0.0000   0.3223
  24.800   0.7505   0.31131   0.30908  -0.0757  0.0188  1.0000  -1.2359   0.0000   0.0000   0.0000   0.3226
  24.900   0.7484   0.31162   0.30940  -0.0757  0.0188  1.0000  -1.2319   0.0000   0.0000   0.0000   0.3229
  25.000   0.7465   0.31195   0.30973  -0.0758  0.0188  1.0000  -1.2344   0.0000   0.0000   0.0000   0.3232
  25.100   0.7447   0.31229   0.31008  -0.0758  0.0188  1.0000  -1.2372   0.0000   0.0000   0.0000   0.3235
  25.200   0.7429   0.31265   0.31045  -0.0759  0.0188  1.0000  -1.2402   0.0000   0.0000   0.0000   0.3238
  25.300   0.7414   0.31300   0.31084  -0.0761  0.0188  1.0000  -1.2388   0.0000   0.0000   0.0000   0.3241
  25.400   0.7398   0.31338   0.31123  -0.0762  0.0188  1.0000  -1.2412   0.0000   0.0000   0.0000   0.3245
  25.500   0.7384   0.31376   0.31162  -0.0764  0.0187  1.0000  -1.2441   0.0000   0.0000   0.0000   0.3248
  25.600   0.7370   0.31416   0.31202  -0.0765  0.0187  1.0000  -1.2473   0.0000   0.0000   0.0000   0.3251
  25.700   0.7357   0.31456   0.31243  -0.0767  0.0187  1.0000  -1.2506   0.0000   0.0000   0.0000   0.3255
  25.800   0.7345   0.31497   0.31284  -0.0769  0.0187  1.0000  -1.2540   0.0000   0.0000   0.0000   0.3258
  25.900   0.7333   0.31538   0.31326  -0.0770  0.0187  1.0000  -1.2572   0.0000   0.0000   0.0000   0.3261
  26.000   0.7322   0.31580   0.31369  -0.0772  0.0186  1.0000  -1.2604   0.0000   0.0000   0.0000   0.3265
  26.100   0.7311   0.31622   0.31411  -0.0775  0.0186  1.0000  -1.2635   0.0000   0.0000   0.0000   0.3269
  26.200   0.7301   0.31665   0.31455  -0.0777  0.0186  1.0000  -1.2665   0.0000   0.0000   0.0000   0.3272
  26.300   0.7292   0.31708   0.31499  -0.0779  0.0186  1.0000  -1.2691   0.0000   0.0000   0.0000   0.3276
  26.400   0.7283   0.31751   0.31543  -0.0782  0.0185  1.0000  -1.2713   0.0000   0.0000   0.0000   0.3280
  26.500   0.7275   0.31795   0.31587  -0.0784  0.0185  1.0000  -1.2727   0.0000   0.0000   0.0000   0.3283
  26.600   0.7268   0.31840   0.31633  -0.0787  0.0184  1.0000  -1.2726   0.0000   0.0000   0.0000   0.3287
  26.700   0.7263   0.31885   0.31678  -0.0790  0.0183  1.0000  -1.2698   0.0000   0.0000   0.0000   0.3291
  26.800   0.7259   0.31933   0.31726  -0.0794  0.0181  1.0000  -1.2581   0.0000   0.0000   0.0000   0.3296
  27.000   0.7317   0.32136   0.31930  -0.0816  0.0134  1.0000  -1.2366   0.0000   0.0000   0.0000   0.3314
  27.100   0.7321   0.32165   0.31960  -0.0819  0.0118  1.0000  -1.2619   0.0000   0.0000   0.0000   0.3316
  27.200   0.7326   0.32183   0.31979  -0.0823  0.0108  1.0000  -1.2919   0.0000   0.0000   0.0000   0.3318
  27.300   0.7332   0.32196   0.31992  -0.0826  0.0101  1.0000  -1.3252   0.0000   0.0000   0.0000   0.3319
  27.400   0.7338   0.32204   0.32001  -0.0829  0.0096  1.0000  -1.3611   0.0000   0.0000   0.0000   0.3319
  27.500   0.7345   0.32209   0.32006  -0.0832  0.0092  1.0000  -1.3994   0.0000   0.0000   0.0000   0.3319
  27.600   0.7353   0.32210   0.32008  -0.0835  0.0088  1.0000  -1.4398   0.0000   0.0000   0.0000   0.3319
  27.700   0.7361   0.32209   0.32007  -0.0838  0.0086  1.0000  -1.4822   0.0000   0.0000   0.0000   0.3319
  27.800   0.7369   0.32204   0.32004  -0.0841  0.0083  1.0000  -1.5266   0.0000   0.0000   0.0000   0.3318
  27.900   0.7378   0.32197   0.31997  -0.0843  0.0081  1.0000  -1.5728   0.0000   0.0000   0.0000   0.3316
  28.000   0.7386   0.32188   0.31988  -0.0845  0.0079  1.0000  -1.6199   0.0000   0.0000   0.0000   0.3315
  28.100   0.7388   0.32182   0.31984  -0.0847  0.0077  1.0000  -1.6610   0.0000   0.0000   0.0000   0.3314
  28.200   0.7230   0.32459   0.32258  -0.0841  0.0064  1.0000  -1.3624   0.0000   0.0000   0.0000   0.3342
  28.300   0.7221   0.32527   0.32326  -0.0844  0.0064  1.0000  -1.3428   0.0000   0.0000   0.0000   0.3347
  28.400   0.7195   0.32609   0.32408  -0.0844  0.0065  1.0000  -1.2923   0.0000   0.0000   0.0000   0.3351
  28.500   0.7177   0.32683   0.32483  -0.0844  0.0065  1.0000  -1.2573   0.0000   0.0000   0.0000   0.3355
  28.600   0.7164   0.32753   0.32553  -0.0846  0.0066  1.0000  -1.2318   0.0000   0.0000   0.0000   0.3359
  28.700   0.7152   0.32821   0.32621  -0.0848  0.0066  1.0000  -1.2107   0.0000   0.0000   0.0000   0.3363
  28.800   0.7142   0.32887   0.32688  -0.0850  0.0066  1.0000  -1.1924   0.0000   0.0000   0.0000   0.3366
  28.900   0.7133   0.32953   0.32755  -0.0852  0.0066  1.0000  -1.1760   0.0000   0.0000   0.0000   0.3370
  29.000   0.7125   0.33018   0.32820  -0.0854  0.0066  1.0000  -1.1610   0.0000   0.0000   0.0000   0.3374
  29.100   0.7117   0.33083   0.32885  -0.0857  0.0066  1.0000  -1.1471   0.0000   0.0000   0.0000   0.3378
  29.200   0.7110   0.33148   0.32950  -0.0859  0.0066  1.0000  -1.1341   0.0000   0.0000   0.0000   0.3382
  29.300   0.7103   0.33212   0.33015  -0.0862  0.0066  1.0000  -1.1218   0.0000   0.0000   0.0000   0.3386
  29.400   0.7097   0.33275   0.33079  -0.0864  0.0066  1.0000  -1.1103   0.0000   0.0000   0.0000   0.3389
  29.500   0.7091   0.33339   0.33143  -0.0867  0.0066  1.0000  -1.0994   0.0000   0.0000   0.0000   0.3393
  29.600   0.7085   0.33402   0.33207  -0.0870  0.0066  1.0000  -1.0900   0.0000   0.0000   0.0000   0.3397
  29.700   0.7080   0.33466   0.33271  -0.0872  0.0066  1.0000  -1.0810   0.0000   0.0000   0.0000   0.3401
  29.800   0.7075   0.33529   0.33334  -0.0875  0.0066  1.0000  -1.0723   0.0000   0.0000   0.0000   0.3405
  29.900   0.7070   0.33592   0.33398  -0.0878  0.0066  1.0000  -1.0638   0.0000   0.0000   0.0000   0.3408
  30.000   0.7065   0.33655   0.33461  -0.0881  0.0066  1.0000  -1.0556   0.0000   0.0000   0.0000   0.3412


