xflr5 v6.61

 Calculated polar for: NACA 2412

 1 1 Reynolds number fixed          Mach number fixed         

 xtrf =   1.000 (top)        1.000 (bottom)
 Mach =   0.000     Re =     0.719 e 6     Ncrit =   9.000

  alpha     CL        CD       CDp       Cm    Top Xtr Bot Xtr   Cpmin    Chinge    XCp    
 ------- -------- --------- --------- -------- ------- ------- -------- --------- ---------
 -10.000  -0.9011   0.01881   0.01345  -0.0337  0.9992  0.0121  -5.8481   0.0000   0.0000   0.0000   0.2020
  -9.900  -0.8911   0.01826   0.01282  -0.0339  0.9987  0.0121  -5.7774   0.0000   0.0000   0.0000   0.2015
  -9.800  -0.8807   0.01775   0.01224  -0.0340  0.9981  0.0122  -5.7054   0.0000   0.0000   0.0000   0.2010
  -9.700  -0.8702   0.01729   0.01171  -0.0342  0.9975  0.0122  -5.6324   0.0000   0.0000   0.0000   0.2004
  -9.600  -0.8594   0.01686   0.01122  -0.0345  0.9968  0.0122  -5.5588   0.0000   0.0000   0.0000   0.1997
  -9.500  -0.8485   0.01646   0.01077  -0.0347  0.9961  0.0123  -5.4846   0.0000   0.0000   0.0000   0.1990
  -9.400  -0.8374   0.01610   0.01035  -0.0349  0.9953  0.0123  -5.4099   0.0000   0.0000   0.0000   0.1983
  -9.300  -0.8262   0.01576   0.00996  -0.0352  0.9944  0.0124  -5.3350   0.0000   0.0000   0.0000   0.1975
  -9.200  -0.8148   0.01545   0.00960  -0.0355  0.9935  0.0124  -5.2599   0.0000   0.0000   0.0000   0.1967
  -9.100  -0.8034   0.01515   0.00927  -0.0358  0.9925  0.0125  -5.1846   0.0000   0.0000   0.0000   0.1958
  -9.000  -0.7918   0.01488   0.00895  -0.0361  0.9915  0.0126  -5.1091   0.0000   0.0000   0.0000   0.1949
  -8.900  -0.7806   0.01452   0.00855  -0.0363  0.9904  0.0130  -5.0348   0.0000   0.0000   0.0000   0.1940
  -8.800  -0.7692   0.01420   0.00818  -0.0366  0.9892  0.0140  -4.9557   0.0000   0.0000   0.0000   0.1930
  -8.700  -0.7574   0.01396   0.00795  -0.0370  0.9880  0.0151  -4.8697   0.0000   0.0000   0.0000   0.1919
  -8.600  -0.7454   0.01379   0.00783  -0.0374  0.9868  0.0165  -4.7734   0.0000   0.0000   0.0000   0.1907
  -8.500  -0.7332   0.01369   0.00784  -0.0379  0.9856  0.0181  -4.6608   0.0000   0.0000   0.0000   0.1893
  -8.400  -0.7202   0.01377   0.00805  -0.0385  0.9846  0.0199  -4.5261   0.0000   0.0000   0.0000   0.1876
  -8.300  -0.6912   0.01906   0.01399  -0.0424  0.9856  0.0325  -3.7177   0.0000   0.0000   0.0000   0.1801
  -8.200  -0.6794   0.01873   0.01363  -0.0428  0.9842  0.0328  -3.6633   0.0000   0.0000   0.0000   0.1785
  -8.100  -0.6672   0.01840   0.01327  -0.0433  0.9828  0.0330  -3.6088   0.0000   0.0000   0.0000   0.1767
  -8.000  -0.6546   0.01805   0.01290  -0.0438  0.9812  0.0333  -3.5546   0.0000   0.0000   0.0000   0.1746
  -7.900  -0.6417   0.01771   0.01252  -0.0444  0.9796  0.0335  -3.5009   0.0000   0.0000   0.0000   0.1724
  -7.800  -0.6287   0.01735   0.01213  -0.0450  0.9779  0.0337  -3.4479   0.0000   0.0000   0.0000   0.1700
  -7.700  -0.6155   0.01699   0.01173  -0.0457  0.9762  0.0339  -3.3960   0.0000   0.0000   0.0000   0.1675
  -7.600  -0.6023   0.01663   0.01134  -0.0463  0.9746  0.0341  -3.3451   0.0000   0.0000   0.0000   0.1649
  -7.500  -0.5892   0.01627   0.01094  -0.0469  0.9730  0.0342  -3.2956   0.0000   0.0000   0.0000   0.1622
  -7.400  -0.5764   0.01592   0.01055  -0.0475  0.9716  0.0343  -3.2475   0.0000   0.0000   0.0000   0.1595
  -7.300  -0.5638   0.01558   0.01018  -0.0479  0.9702  0.0344  -3.2006   0.0000   0.0000   0.0000   0.1569
  -7.200  -0.5513   0.01525   0.00981  -0.0484  0.9690  0.0344  -3.1547   0.0000   0.0000   0.0000   0.1541
  -7.100  -0.5388   0.01492   0.00945  -0.0489  0.9678  0.0345  -3.1091   0.0000   0.0000   0.0000   0.1513
  -7.000  -0.5262   0.01460   0.00909  -0.0493  0.9667  0.0345  -3.0636   0.0000   0.0000   0.0000   0.1482
  -6.900  -0.5133   0.01435   0.00882  -0.0499  0.9656  0.0348  -3.0127   0.0000   0.0000   0.0000   0.1449
  -6.800  -0.5002   0.01419   0.00865  -0.0505  0.9645  0.0353  -2.9532   0.0000   0.0000   0.0000   0.1411
  -6.700  -0.4870   0.01406   0.00854  -0.0511  0.9635  0.0361  -2.8900   0.0000   0.0000   0.0000   0.1371
  -6.600  -0.4736   0.01394   0.00842  -0.0518  0.9624  0.0368  -2.8280   0.0000   0.0000   0.0000   0.1328
  -6.500  -0.4604   0.01376   0.00823  -0.0524  0.9613  0.0373  -2.7723   0.0000   0.0000   0.0000   0.1283
  -6.400  -0.4474   0.01345   0.00789  -0.0529  0.9601  0.0373  -2.7293   0.0000   0.0000   0.0000   0.1238
  -6.300  -0.4345   0.01309   0.00748  -0.0534  0.9587  0.0370  -2.6940   0.0000   0.0000   0.0000   0.1192
  -6.200  -0.4216   0.01276   0.00710  -0.0539  0.9572  0.0367  -2.6573   0.0000   0.0000   0.0000   0.1142
  -6.100  -0.4086   0.01246   0.00676  -0.0544  0.9556  0.0364  -2.6192   0.0000   0.0000   0.0000   0.1089
  -6.000  -0.3957   0.01220   0.00646  -0.0549  0.9537  0.0361  -2.5797   0.0000   0.0000   0.0000   0.1033
  -5.900  -0.3829   0.01198   0.00621  -0.0554  0.9513  0.0359  -2.5390   0.0000   0.0000   0.0000   0.0974
  -5.800  -0.3720   0.01178   0.00597  -0.0554  0.9495  0.0356  -2.5004   0.0000   0.0000   0.0000   0.0930
  -5.700  -0.3620   0.01158   0.00574  -0.0552  0.9485  0.0355  -2.4627   0.0000   0.0000   0.0000   0.0895
  -5.600  -0.3519   0.01138   0.00552  -0.0550  0.9472  0.0353  -2.4242   0.0000   0.0000   0.0000   0.0857
  -5.500  -0.3418   0.01120   0.00531  -0.0548  0.9455  0.0351  -2.3849   0.0000   0.0000   0.0000   0.0816
  -5.400  -0.3315   0.01103   0.00511  -0.0547  0.9435  0.0349  -2.3449   0.0000   0.0000   0.0000   0.0771
  -5.300  -0.3210   0.01086   0.00492  -0.0546  0.9411  0.0348  -2.3044   0.0000   0.0000   0.0000   0.0721
  -5.200  -0.3104   0.01070   0.00474  -0.0545  0.9384  0.0346  -2.2633   0.0000   0.0000   0.0000   0.0665
  -5.100  -0.2997   0.01054   0.00456  -0.0544  0.9355  0.0345  -2.2218   0.0000   0.0000   0.0000   0.0605
  -5.000  -0.2888   0.01039   0.00438  -0.0543  0.9324  0.0343  -2.1800   0.0000   0.0000   0.0000   0.0537
  -4.900  -0.2774   0.01025   0.00422  -0.0544  0.9292  0.0342  -2.1371   0.0000   0.0000   0.0000   0.0456
  -4.800  -0.2657   0.01011   0.00406  -0.0546  0.9261  0.0340  -2.0938   0.0000   0.0000   0.0000   0.0364
  -4.700  -0.2539   0.00999   0.00391  -0.0547  0.9232  0.0339  -2.0503   0.0000   0.0000   0.0000   0.0261
  -4.600  -0.2421   0.00986   0.00376  -0.0549  0.9204  0.0338  -2.0070   0.0000   0.0000   0.0000   0.0147
  -4.500  -0.2303   0.00975   0.00362  -0.0551  0.9174  0.0337  -1.9637   0.0000   0.0000   0.0000   0.0021
  -4.400  -0.2184   0.00964   0.00348  -0.0553  0.9140  0.0336  -1.9206   0.0000   0.0000   0.0000  -0.0118
  -4.300  -0.2066   0.00953   0.00335  -0.0554  0.9102  0.0335  -1.8778   0.0000   0.0000   0.0000  -0.0273
  -4.200  -0.1947   0.00944   0.00323  -0.0556  0.9059  0.0334  -1.8352   0.0000   0.0000   0.0000  -0.0448
  -4.000  -0.1720   0.00928   0.00303  -0.0558  0.8993  0.0333  -1.7526   0.0000   0.0000   0.0000  -0.0841
  -3.900  -0.1616   0.00920   0.00294  -0.0557  0.8983  0.0333  -1.7135   0.0000   0.0000   0.0000  -0.1047
  -3.800  -0.1511   0.00913   0.00285  -0.0556  0.8970  0.0333  -1.6746   0.0000   0.0000   0.0000  -0.1281
  -3.700  -0.1407   0.00906   0.00277  -0.0555  0.8955  0.0333  -1.6361   0.0000   0.0000   0.0000  -0.1550
  -3.600  -0.1302   0.00899   0.00268  -0.0554  0.8936  0.0333  -1.5980   0.0000   0.0000   0.0000  -0.1864
  -3.500  -0.1197   0.00893   0.00260  -0.0552  0.8912  0.0334  -1.5604   0.0000   0.0000   0.0000  -0.2230
  -3.400  -0.1093   0.00886   0.00252  -0.0551  0.8877  0.0336  -1.5237   0.0000   0.0000   0.0000  -0.2662
  -3.300  -0.0989   0.00879   0.00243  -0.0549  0.8830  0.0339  -1.4881   0.0000   0.0000   0.0000  -0.3184
  -3.200  -0.0884   0.00872   0.00232  -0.0547  0.8765  0.0346  -1.4547   0.0000   0.0000   0.0000  -0.3834
  -3.100  -0.0783   0.00850   0.00218  -0.0543  0.8681  0.0490  -1.4541   0.0000   0.0000   0.0000  -0.4595
  -3.000  -0.0685   0.00830   0.00207  -0.0541  0.8576  0.0698  -1.4156   0.0000   0.0000   0.0000  -0.5580
  -2.900  -0.0586   0.00814   0.00198  -0.0539  0.8447  0.0845  -1.3764   0.0000   0.0000   0.0000  -0.6904
  -2.800  -0.0487   0.00804   0.00188  -0.0537  0.8282  0.0937  -1.3369   0.0000   0.0000   0.0000  -0.8755
  -2.700  -0.0380   0.00801   0.00182  -0.0536  0.8089  0.0981  -1.2959   0.0000   0.0000   0.0000  -1.1897
  -2.600  -0.0270   0.00798   0.00179  -0.0537  0.7988  0.1020  -1.2545   0.0000   0.0000   0.0000  -1.7750
  -2.500  -0.0164   0.00794   0.00176  -0.0536  0.7953  0.1096  -1.2142   0.0000   0.0000   0.0000  -3.0680
  -2.400  -0.0059   0.00790   0.00173  -0.0535  0.7895  0.1176  -1.1742   0.0000   0.0000   0.0000  -8.9186
  -2.300   0.0045   0.00785   0.00169  -0.0534  0.7805  0.1245  -1.1347   0.0000   0.0000   0.0000  12.3714
  -2.200   0.0147   0.00781   0.00165  -0.0532  0.7674  0.1311  -1.0957   0.0000   0.0000   0.0000   3.9197
  -2.100   0.0248   0.00781   0.00159  -0.0530  0.7511  0.1366  -1.0573   0.0000   0.0000   0.0000   2.4171
  -2.000   0.0347   0.00783   0.00153  -0.0527  0.7331  0.1419  -1.0195   0.0000   0.0000   0.0000   1.7907
  -1.900   0.0448   0.00785   0.00149  -0.0526  0.7139  0.1470  -0.9816   0.0000   0.0000   0.0000   1.4374
  -1.800   0.0556   0.00783   0.00147  -0.0526  0.6999  0.1550  -0.9431   0.0000   0.0000   0.0000   1.2064
  -1.700   0.0663   0.00775   0.00145  -0.0526  0.6977  0.1707  -0.9050   0.0000   0.0000   0.0000   1.0514
  -1.500   0.0880   0.00764   0.00142  -0.0526  0.6921  0.1912  -0.8294   0.0000   0.0000   0.0000   0.8538
  -1.400   0.0989   0.00762   0.00140  -0.0527  0.6877  0.1965  -0.7919   0.0000   0.0000   0.0000   0.7868
  -1.300   0.1098   0.00761   0.00139  -0.0527  0.6814  0.2014  -0.7549   0.0000   0.0000   0.0000   0.7333
  -1.200   0.1203   0.00760   0.00137  -0.0526  0.6721  0.2125  -0.7188   0.0000   0.0000   0.0000   0.6902
  -1.100   0.1303   0.00758   0.00136  -0.0524  0.6592  0.2240  -0.6839   0.0000   0.0000   0.0000   0.6548
  -1.000   0.1401   0.00760   0.00134  -0.0522  0.6441  0.2323  -0.6498   0.0000   0.0000   0.0000   0.6248
  -0.900   0.1497   0.00764   0.00132  -0.0520  0.6277  0.2394  -0.6162   0.0000   0.0000   0.0000   0.5988
  -0.800   0.1598   0.00767   0.00131  -0.0518  0.6108  0.2447  -0.5822   0.0000   0.0000   0.0000   0.5756
  -0.700   0.1705   0.00767   0.00130  -0.0518  0.5997  0.2492  -0.5476   0.0000   0.0000   0.0000   0.5548
  -0.600   0.1813   0.00763   0.00129  -0.0518  0.5967  0.2575  -0.5160   0.0000   0.0000   0.0000   0.5364
  -0.500   0.1920   0.00757   0.00128  -0.0518  0.5931  0.2682  -0.5239   0.0000   0.0000   0.0000   0.5203
  -0.400   0.2026   0.00753   0.00128  -0.0518  0.5885  0.2777  -0.5320   0.0000   0.0000   0.0000   0.5058
  -0.300   0.2132   0.00751   0.00128  -0.0518  0.5822  0.2858  -0.5414   0.0000   0.0000   0.0000   0.4928
  -0.200   0.2237   0.00752   0.00128  -0.0517  0.5740  0.2932  -0.5506   0.0000   0.0000   0.0000   0.4809
  -0.100   0.2339   0.00755   0.00129  -0.0516  0.5637  0.2994  -0.5598   0.0000   0.0000   0.0000   0.4701
   0.000   0.2440   0.00760   0.00130  -0.0515  0.5524  0.3142  -0.5689   0.0000   0.0000   0.0000   0.4603
   0.100   0.2539   0.00762   0.00131  -0.0513  0.5404  0.3338  -0.5779   0.0000   0.0000   0.0000   0.4513
   0.200   0.2636   0.00760   0.00130  -0.0512  0.5282  0.3553  -0.5869   0.0000   0.0000   0.0000   0.4431
   0.300   0.2735   0.00753   0.00131  -0.0510  0.5165  0.3805  -0.5976   0.0000   0.0000   0.0000   0.4355
   0.400   0.2835   0.00730   0.00135  -0.0510  0.5218  0.4464  -0.6085   0.0000   0.0000   0.0000   0.4286
   0.500   0.2932   0.00715   0.00135  -0.0508  0.5163  0.4897  -0.6192   0.0000   0.0000   0.0000   0.4220
   0.600   0.3031   0.00707   0.00137  -0.0507  0.5087  0.5316  -0.6300   0.0000   0.0000   0.0000   0.4157
   0.700   0.3125   0.00693   0.00139  -0.0504  0.5011  0.5737  -0.6406   0.0000   0.0000   0.0000   0.4097
   0.800   0.3231   0.00689   0.00140  -0.0504  0.4987  0.5909  -0.6520   0.0000   0.0000   0.0000   0.4042
   0.900   0.3341   0.00688   0.00141  -0.0504  0.4968  0.6004  -0.6636   0.0000   0.0000   0.0000   0.3990
   1.000   0.3443   0.00683   0.00143  -0.0503  0.4945  0.6303  -0.6749   0.0000   0.0000   0.0000   0.3941
   1.100   0.3543   0.00675   0.00146  -0.0501  0.4918  0.6571  -0.6860   0.0000   0.0000   0.0000   0.3893
   1.200   0.3645   0.00670   0.00148  -0.0499  0.4885  0.6779  -0.6973   0.0000   0.0000   0.0000   0.3848
   1.300   0.3750   0.00670   0.00149  -0.0499  0.4835  0.6917  -0.7088   0.0000   0.0000   0.0000   0.3807
   1.400   0.3855   0.00674   0.00152  -0.0498  0.4756  0.7026  -0.7203   0.0000   0.0000   0.0000   0.3768
   1.500   0.3948   0.00675   0.00156  -0.0495  0.4641  0.7306  -0.7318   0.0000   0.0000   0.0000   0.3728
   1.600   0.4036   0.00678   0.00161  -0.0490  0.4506  0.7561  -0.7452   0.0000   0.0000   0.0000   0.3688
   1.700   0.4127   0.00684   0.00164  -0.0486  0.4361  0.7772  -0.7727   0.0000   0.0000   0.0000   0.3652
   1.800   0.4225   0.00689   0.00167  -0.0484  0.4216  0.7930  -0.8064   0.0000   0.0000   0.0000   0.3618
   1.900   0.4323   0.00691   0.00171  -0.0481  0.4094  0.8182  -0.8403   0.0000   0.0000   0.0000   0.3585
   2.000   0.4411   0.00687   0.00178  -0.0475  0.4012  0.8617  -0.8731   0.0000   0.0000   0.0000   0.3549
   2.100   0.4512   0.00686   0.00182  -0.0473  0.3988  0.8900  -0.9084   0.0000   0.0000   0.0000   0.3518
   2.200   0.4628   0.00687   0.00187  -0.0473  0.3973  0.9106  -0.9463   0.0000   0.0000   0.0000   0.3492
   2.300   0.4778   0.00689   0.00193  -0.0481  0.3957  0.9379  -0.9903   0.0000   0.0000   0.0000   0.3474
   2.400   0.4924   0.00693   0.00198  -0.0488  0.3938  0.9536  -1.0339   0.0000   0.0000   0.0000   0.3459
   2.500   0.5147   0.00698   0.00202  -0.0513  0.3910  0.9674  -1.0910   0.0000   0.0000   0.0000   0.3464
   2.600   0.5344   0.00703   0.00206  -0.0532  0.3877  0.9777  -1.1445   0.0000   0.0000   0.0000   0.3462
   2.700   0.5532   0.00710   0.00210  -0.0550  0.3830  0.9858  -1.1972   0.0000   0.0000   0.0000   0.3459
   2.800   0.5713   0.00719   0.00215  -0.0566  0.3755  0.9917  -1.2490   0.0000   0.0000   0.0000   0.3455
   2.900   0.5887   0.00731   0.00221  -0.0581  0.3641  0.9958  -1.3003   0.0000   0.0000   0.0000   0.3450
   3.000   0.6050   0.00748   0.00227  -0.0593  0.3479  0.9983  -1.3499   0.0000   0.0000   0.0000   0.3443
   3.100   0.6199   0.00764   0.00233  -0.0603  0.3310  0.9998  -1.3975   0.0000   0.0000   0.0000   0.3434
   3.200   0.6300   0.00775   0.00236  -0.0602  0.3143  1.0000  -1.4367   0.0000   0.0000   0.0000   0.3417
   3.300   0.6393   0.00781   0.00239  -0.0599  0.3005  1.0000  -1.4746   0.0000   0.0000   0.0000   0.3398
   3.400   0.6485   0.00787   0.00242  -0.0596  0.2953  1.0000  -1.5128   0.0000   0.0000   0.0000   0.3379
   3.500   0.6575   0.00796   0.00246  -0.0593  0.2876  1.0000  -1.5506   0.0000   0.0000   0.0000   0.3360
   3.600   0.6655   0.00813   0.00253  -0.0588  0.2750  1.0000  -1.5869   0.0000   0.0000   0.0000   0.3341
   3.700   0.6724   0.00839   0.00264  -0.0582  0.2570  1.0000  -1.6211   0.0000   0.0000   0.0000   0.3322
   3.800   0.6808   0.00852   0.00271  -0.0577  0.2457  1.0000  -1.6585   0.0000   0.0000   0.0000   0.3304
   3.900   0.6894   0.00864   0.00277  -0.0573  0.2371  1.0000  -1.6965   0.0000   0.0000   0.0000   0.3286
   4.000   0.6975   0.00879   0.00284  -0.0568  0.2261  1.0000  -1.7339   0.0000   0.0000   0.0000   0.3269
   4.100   0.7052   0.00899   0.00293  -0.0563  0.2108  1.0000  -1.7705   0.0000   0.0000   0.0000   0.3252
   4.200   0.7141   0.00910   0.00300  -0.0560  0.1983  1.0000  -1.8097   0.0000   0.0000   0.0000   0.3236
   4.300   0.7231   0.00920   0.00306  -0.0556  0.1913  1.0000  -1.8493   0.0000   0.0000   0.0000   0.3220
   4.400   0.7316   0.00934   0.00314  -0.0552  0.1808  1.0000  -1.8880   0.0000   0.0000   0.0000   0.3205
   4.500   0.7392   0.00956   0.00325  -0.0546  0.1644  1.0000  -1.9250   0.0000   0.0000   0.0000   0.3189
   4.600   0.7476   0.00971   0.00334  -0.0542  0.1486  1.0000  -1.9638   0.0000   0.0000   0.0000   0.3173
   4.700   0.7559   0.00986   0.00343  -0.0537  0.1381  1.0000  -2.0025   0.0000   0.0000   0.0000   0.3159
   4.800   0.7618   0.01022   0.00361  -0.0529  0.1109  1.0000  -2.0356   0.0000   0.0000   0.0000   0.3141
   4.900   0.7691   0.01047   0.00375  -0.0523  0.0903  1.0000  -2.0717   0.0000   0.0000   0.0000   0.3126
   5.000   0.7750   0.01083   0.00393  -0.0514  0.0711  1.0000  -2.1038   0.0000   0.0000   0.0000   0.3109
   5.100   0.7810   0.01120   0.00415  -0.0506  0.0486  1.0000  -2.1344   0.0000   0.0000   0.0000   0.3092
   5.300   0.7969   0.01168   0.00453  -0.0493  0.0347  1.0000  -2.1595   0.0000   0.0000   0.0000   0.3061
   5.400   0.8063   0.01179   0.00465  -0.0490  0.0344  1.0000  -2.1956   0.0000   0.0000   0.0000   0.3048
   5.500   0.8157   0.01189   0.00477  -0.0487  0.0342  1.0000  -2.2328   0.0000   0.0000   0.0000   0.3037
   5.600   0.8252   0.01200   0.00489  -0.0484  0.0341  1.0000  -2.2707   0.0000   0.0000   0.0000   0.3025
   5.700   0.8346   0.01211   0.00502  -0.0481  0.0340  1.0000  -2.3093   0.0000   0.0000   0.0000   0.3014
   5.800   0.8441   0.01222   0.00515  -0.0479  0.0339  1.0000  -2.3483   0.0000   0.0000   0.0000   0.3004
   5.900   0.8536   0.01234   0.00528  -0.0476  0.0339  1.0000  -2.3877   0.0000   0.0000   0.0000   0.2993
   6.000   0.8631   0.01246   0.00541  -0.0473  0.0339  1.0000  -2.4274   0.0000   0.0000   0.0000   0.2983
   6.100   0.8726   0.01258   0.00554  -0.0471  0.0339  1.0000  -2.4673   0.0000   0.0000   0.0000   0.2973
   6.200   0.8821   0.01270   0.00568  -0.0468  0.0339  1.0000  -2.5076   0.0000   0.0000   0.0000   0.2963
   6.300   0.8916   0.01283   0.00583  -0.0465  0.0339  1.0000  -2.5480   0.0000   0.0000   0.0000   0.2953
   6.400   0.9010   0.01297   0.00598  -0.0463  0.0340  1.0000  -2.5886   0.0000   0.0000   0.0000   0.2944
   6.500   0.9105   0.01310   0.00613  -0.0460  0.0340  1.0000  -2.6293   0.0000   0.0000   0.0000   0.2935
   6.600   0.9199   0.01324   0.00629  -0.0458  0.0341  1.0000  -2.6702   0.0000   0.0000   0.0000   0.2925
   6.700   0.9292   0.01339   0.00645  -0.0455  0.0342  1.0000  -2.7112   0.0000   0.0000   0.0000   0.2916
   6.800   0.9385   0.01354   0.00662  -0.0452  0.0342  1.0000  -2.7522   0.0000   0.0000   0.0000   0.2908
   6.900   0.9478   0.01370   0.00679  -0.0449  0.0341  1.0000  -2.7936   0.0000   0.0000   0.0000   0.2899
   7.000   0.9569   0.01386   0.00696  -0.0446  0.0336  1.0000  -2.8353   0.0000   0.0000   0.0000   0.2890
   7.100   0.9660   0.01403   0.00715  -0.0443  0.0330  1.0000  -2.8772   0.0000   0.0000   0.0000   0.2881
   7.200   0.9750   0.01421   0.00734  -0.0440  0.0324  1.0000  -2.9189   0.0000   0.0000   0.0000   0.2873
   7.300   0.9839   0.01440   0.00754  -0.0437  0.0318  1.0000  -2.9603   0.0000   0.0000   0.0000   0.2864
   7.400   0.9927   0.01459   0.00775  -0.0434  0.0314  1.0000  -3.0017   0.0000   0.0000   0.0000   0.2856
   7.500   1.0016   0.01478   0.00796  -0.0430  0.0312  1.0000  -3.0432   0.0000   0.0000   0.0000   0.2847
   7.600   1.0104   0.01497   0.00817  -0.0427  0.0311  1.0000  -3.0848   0.0000   0.0000   0.0000   0.2839
   7.700   1.0191   0.01517   0.00839  -0.0424  0.0310  1.0000  -3.1264   0.0000   0.0000   0.0000   0.2831
   7.800   1.0277   0.01538   0.00861  -0.0420  0.0309  1.0000  -3.1679   0.0000   0.0000   0.0000   0.2822
   7.900   1.0363   0.01559   0.00884  -0.0416  0.0308  1.0000  -3.2094   0.0000   0.0000   0.0000   0.2814
   8.000   1.0447   0.01581   0.00908  -0.0412  0.0307  1.0000  -3.2507   0.0000   0.0000   0.0000   0.2806
   8.100   1.0531   0.01603   0.00932  -0.0408  0.0306  1.0000  -3.2920   0.0000   0.0000   0.0000   0.2798
   8.200   1.0614   0.01626   0.00957  -0.0404  0.0305  1.0000  -3.3331   0.0000   0.0000   0.0000   0.2789
   8.300   1.0695   0.01650   0.00983  -0.0400  0.0303  1.0000  -3.3741   0.0000   0.0000   0.0000   0.2781
   8.400   1.0776   0.01675   0.01010  -0.0396  0.0302  1.0000  -3.4149   0.0000   0.0000   0.0000   0.2773
   8.500   1.0855   0.01700   0.01038  -0.0391  0.0300  1.0000  -3.4555   0.0000   0.0000   0.0000   0.2765
   8.600   1.1113   0.01549   0.00873  -0.0425  0.0215  1.0000  -3.9034   0.0000   0.0000   0.0000   0.2786
   8.700   1.1201   0.01565   0.00881  -0.0424  0.0193  1.0000  -3.9984   0.0000   0.0000   0.0000   0.2779
   8.800   1.1282   0.01589   0.00897  -0.0420  0.0175  1.0000  -4.0780   0.0000   0.0000   0.0000   0.2772
   8.900   1.1363   0.01612   0.00914  -0.0416  0.0159  1.0000  -4.1493   0.0000   0.0000   0.0000   0.2765
   9.000   1.1446   0.01634   0.00933  -0.0413  0.0146  1.0000  -4.2153   0.0000   0.0000   0.0000   0.2758
   9.100   1.1529   0.01656   0.00955  -0.0409  0.0136  1.0000  -4.2785   0.0000   0.0000   0.0000   0.2750
   9.200   1.1610   0.01679   0.00981  -0.0405  0.0129  1.0000  -4.3396   0.0000   0.0000   0.0000   0.2743
   9.300   1.1689   0.01703   0.01005  -0.0400  0.0125  1.0000  -4.3984   0.0000   0.0000   0.0000   0.2735
   9.400   1.1770   0.01725   0.01029  -0.0396  0.0124  1.0000  -4.4566   0.0000   0.0000   0.0000   0.2728
   9.500   1.1849   0.01748   0.01055  -0.0392  0.0123  1.0000  -4.5146   0.0000   0.0000   0.0000   0.2720
   9.600   1.1927   0.01772   0.01080  -0.0387  0.0123  1.0000  -4.5723   0.0000   0.0000   0.0000   0.2713
   9.700   1.2003   0.01796   0.01107  -0.0382  0.0122  1.0000  -4.6297   0.0000   0.0000   0.0000   0.2705
   9.800   1.2078   0.01821   0.01135  -0.0377  0.0122  1.0000  -4.6867   0.0000   0.0000   0.0000   0.2698
   9.900   1.2151   0.01847   0.01163  -0.0372  0.0121  1.0000  -4.7434   0.0000   0.0000   0.0000   0.2690
  10.000   1.2222   0.01874   0.01193  -0.0366  0.0121  1.0000  -4.7997   0.0000   0.0000   0.0000   0.2682
  10.100   1.2290   0.01902   0.01223  -0.0360  0.0120  1.0000  -4.8555   0.0000   0.0000   0.0000   0.2674
  10.200   1.2356   0.01931   0.01255  -0.0354  0.0120  1.0000  -4.9108   0.0000   0.0000   0.0000   0.2666
  10.300   1.2416   0.01960   0.01288  -0.0347  0.0120  1.0000  -4.9643   0.0000   0.0000   0.0000   0.2657
  10.400   1.2469   0.01991   0.01321  -0.0338  0.0119  1.0000  -5.0161   0.0000   0.0000   0.0000   0.2647
  10.500   1.2520   0.02023   0.01357  -0.0330  0.0119  1.0000  -5.0671   0.0000   0.0000   0.0000   0.2638
  10.600   1.2569   0.02056   0.01393  -0.0321  0.0119  1.0000  -5.1178   0.0000   0.0000   0.0000   0.2628
  10.700   1.2616   0.02092   0.01432  -0.0312  0.0118  1.0000  -5.1680   0.0000   0.0000   0.0000   0.2618
  10.800   1.2662   0.02129   0.01473  -0.0303  0.0118  1.0000  -5.2179   0.0000   0.0000   0.0000   0.2609
  10.900   1.2706   0.02168   0.01516  -0.0294  0.0118  1.0000  -5.2674   0.0000   0.0000   0.0000   0.2599
  11.000   1.2747   0.02209   0.01561  -0.0284  0.0118  1.0000  -5.3162   0.0000   0.0000   0.0000   0.2590
  11.100   1.2785   0.02252   0.01608  -0.0275  0.0118  1.0000  -5.3639   0.0000   0.0000   0.0000   0.2580
  11.200   1.2812   0.02297   0.01657  -0.0264  0.0117  1.0000  -5.4077   0.0000   0.0000   0.0000   0.2569
  11.300   1.2831   0.02344   0.01708  -0.0252  0.0117  1.0000  -5.4488   0.0000   0.0000   0.0000   0.2558
  11.400   1.3081   0.02245   0.01598  -0.0274  0.0118  1.0000  -5.5086   0.0000   0.0000   0.0000   0.2570
  11.500   1.3108   0.02286   0.01643  -0.0263  0.0118  1.0000  -5.5517   0.0000   0.0000   0.0000   0.2559
  11.600   1.3130   0.02331   0.01692  -0.0252  0.0118  1.0000  -5.5943   0.0000   0.0000   0.0000   0.2549
  11.700   1.3154   0.02379   0.01745  -0.0242  0.0118  1.0000  -5.6375   0.0000   0.0000   0.0000   0.2539
  11.800   1.3177   0.02430   0.01801  -0.0232  0.0117  1.0000  -5.6810   0.0000   0.0000   0.0000   0.2529
  11.900   1.3198   0.02485   0.01860  -0.0222  0.0117  1.0000  -5.7242   0.0000   0.0000   0.0000   0.2519
  12.000   1.3214   0.02545   0.01925  -0.0212  0.0117  1.0000  -5.7654   0.0000   0.0000   0.0000   0.2510
  12.100   1.3217   0.02613   0.01999  -0.0201  0.0117  1.0000  -5.8013   0.0000   0.0000   0.0000   0.2500
  12.200   1.3223   0.02682   0.02073  -0.0191  0.0117  1.0000  -5.8387   0.0000   0.0000   0.0000   0.2490
  12.300   1.3233   0.02753   0.02149  -0.0181  0.0117  1.0000  -5.8778   0.0000   0.0000   0.0000   0.2481
  12.400   1.3244   0.02826   0.02228  -0.0173  0.0117  1.0000  -5.9172   0.0000   0.0000   0.0000   0.2472
  12.500   1.3254   0.02902   0.02310  -0.0164  0.0117  1.0000  -5.9559   0.0000   0.0000   0.0000   0.2464
  12.600   1.3262   0.02982   0.02396  -0.0155  0.0117  1.0000  -5.9936   0.0000   0.0000   0.0000   0.2455
  12.700   1.3266   0.03065   0.02486  -0.0146  0.0116  1.0000  -6.0299   0.0000   0.0000   0.0000   0.2447
  12.800   1.3266   0.03153   0.02580  -0.0138  0.0116  1.0000  -6.0643   0.0000   0.0000   0.0000   0.2438
  12.900   1.3261   0.03245   0.02679  -0.0129  0.0116  1.0000  -6.0962   0.0000   0.0000   0.0000   0.2430
  13.000   1.3244   0.03342   0.02783  -0.0120  0.0116  1.0000  -6.1227   0.0000   0.0000   0.0000   0.2422
  13.100   1.3203   0.03458   0.02906  -0.0112  0.0116  1.0000  -6.1384   0.0000   0.0000   0.0000   0.2414
  13.200   1.3176   0.03572   0.03026  -0.0105  0.0116  1.0000  -6.1595   0.0000   0.0000   0.0000   0.2406
  13.300   1.3156   0.03687   0.03148  -0.0098  0.0116  1.0000  -6.1831   0.0000   0.0000   0.0000   0.2399
  13.400   1.3137   0.03805   0.03273  -0.0091  0.0116  1.0000  -6.2065   0.0000   0.0000   0.0000   0.2392
  13.500   1.3116   0.03928   0.03403  -0.0085  0.0116  1.0000  -6.2287   0.0000   0.0000   0.0000   0.2385
  13.600   1.3092   0.04057   0.03540  -0.0079  0.0116  1.0000  -6.2487   0.0000   0.0000   0.0000   0.2379
  13.700   1.3063   0.04194   0.03685  -0.0074  0.0116  1.0000  -6.2660   0.0000   0.0000   0.0000   0.2373
  13.800   1.3028   0.04339   0.03838  -0.0069  0.0117  1.0000  -6.2797   0.0000   0.0000   0.0000   0.2368
  13.900   1.2965   0.04519   0.04026  -0.0068  0.0117  1.0000  -6.2789   0.0000   0.0000   0.0000   0.2365
  14.000   1.2914   0.04691   0.04205  -0.0067  0.0117  1.0000  -6.2829   0.0000   0.0000   0.0000   0.2362
  14.100   1.2869   0.04857   0.04379  -0.0065  0.0117  1.0000  -6.2891   0.0000   0.0000   0.0000   0.2358
  14.200   1.2822   0.05027   0.04557  -0.0063  0.0117  1.0000  -6.2941   0.0000   0.0000   0.0000   0.2355
  14.300   1.2772   0.05202   0.04740  -0.0061  0.0117  1.0000  -6.2965   0.0000   0.0000   0.0000   0.2352
  14.400   1.2717   0.05385   0.04931  -0.0061  0.0117  1.0000  -6.2954   0.0000   0.0000   0.0000   0.2349
  14.500   1.2656   0.05578   0.05133  -0.0062  0.0117  1.0000  -6.2900   0.0000   0.0000   0.0000   0.2348
  14.600   1.2565   0.05821   0.05384  -0.0069  0.0117  1.0000  -6.2682   0.0000   0.0000   0.0000   0.2352
  14.700   1.2489   0.06047   0.05617  -0.0074  0.0117  1.0000  -6.2526   0.0000   0.0000   0.0000   0.2354
  14.800   1.2418   0.06260   0.05838  -0.0078  0.0117  1.0000  -6.2396   0.0000   0.0000   0.0000   0.2355
  14.900   1.2345   0.06470   0.06055  -0.0081  0.0117  1.0000  -6.2246   0.0000   0.0000   0.0000   0.2355
  15.000   1.2269   0.06691   0.06284  -0.0086  0.0117  1.0000  -6.2068   0.0000   0.0000   0.0000   0.2357
  15.100   1.2189   0.06930   0.06531  -0.0092  0.0118  1.0000  -6.1852   0.0000   0.0000   0.0000   0.2361
  15.200   1.2081   0.07241   0.06849  -0.0108  0.0118  1.0000  -6.1449   0.0000   0.0000   0.0000   0.2372
  15.300   1.1989   0.07526   0.07141  -0.0120  0.0118  1.0000  -6.1127   0.0000   0.0000   0.0000   0.2380
  15.400   1.1910   0.07791   0.07413  -0.0130  0.0118  1.0000  -6.0863   0.0000   0.0000   0.0000   0.2387
  15.500   1.1832   0.08059   0.07688  -0.0139  0.0118  1.0000  -6.0592   0.0000   0.0000   0.0000   0.2393
  15.600   1.1751   0.08335   0.07972  -0.0149  0.0118  1.0000  -6.0289   0.0000   0.0000   0.0000   0.2400
  15.700   1.1665   0.08626   0.08270  -0.0162  0.0118  1.0000  -5.9940   0.0000   0.0000   0.0000   0.2410
  15.800   1.1569   0.08947   0.08599  -0.0177  0.0118  1.0000  -5.9508   0.0000   0.0000   0.0000   0.2422
  15.900   1.1451   0.09360   0.09018  -0.0204  0.0118  1.0000  -5.8871   0.0000   0.0000   0.0000   0.2444
  16.000   1.1363   0.09677   0.09342  -0.0219  0.0118  1.0000  -5.8445   0.0000   0.0000   0.0000   0.2457
  16.100   1.1280   0.09982   0.09653  -0.0233  0.0118  1.0000  -5.8033   0.0000   0.0000   0.0000   0.2469
  16.200   1.1196   0.10288   0.09966  -0.0247  0.0118  1.0000  -5.7599   0.0000   0.0000   0.0000   0.2481
  16.300   1.1111   0.10610   0.10294  -0.0262  0.0119  1.0000  -5.7122   0.0000   0.0000   0.0000   0.2494
  16.400   1.1021   0.10951   0.10641  -0.0279  0.0119  1.0000  -5.6581   0.0000   0.0000   0.0000   0.2510
  16.500   1.0917   0.11350   0.11048  -0.0303  0.0119  1.0000  -5.5877   0.0000   0.0000   0.0000   0.2533
  16.600   1.0811   0.11761   0.11465  -0.0327  0.0119  1.0000  -5.5119   0.0000   0.0000   0.0000   0.2557
  16.700   1.0710   0.12157   0.11867  -0.0350  0.0119  1.0000  -5.4370   0.0000   0.0000   0.0000   0.2579
  16.800   1.0594   0.12619   0.12335  -0.0377  0.0119  1.0000  -5.3419   0.0000   0.0000   0.0000   0.2608
  16.900   1.0485   0.13049   0.12771  -0.0402  0.0119  1.0000  -5.2500   0.0000   0.0000   0.0000   0.2634
  17.000   1.0373   0.13483   0.13210  -0.0426  0.0119  1.0000  -5.1517   0.0000   0.0000   0.0000   0.2661
  17.100   1.0236   0.14014   0.13747  -0.0457  0.0119  1.0000  -5.0173   0.0000   0.0000   0.0000   0.2697
  17.200   1.0113   0.14495   0.14233  -0.0483  0.0119  1.0000  -4.8928   0.0000   0.0000   0.0000   0.2728
  17.300   0.9966   0.15031   0.14775  -0.0514  0.0119  1.0000  -4.7300   0.0000   0.0000   0.0000   0.2766
  17.400   0.9801   0.15611   0.15360  -0.0546  0.0120  1.0000  -4.5326   0.0000   0.0000   0.0000   0.2809
  17.500   0.9638   0.16194   0.15947  -0.0577  0.0120  1.0000  -4.3251   0.0000   0.0000   0.0000   0.2851
  19.200   0.8706   0.24158   0.23917  -0.0859  0.0200  1.0000  -1.8595   0.0000   0.0000   0.0000   0.3255
  19.300   0.8738   0.24279   0.24038  -0.0866  0.0186  1.0000  -1.8907   0.0000   0.0000   0.0000   0.3258
  19.400   0.8769   0.24389   0.24148  -0.0872  0.0176  1.0000  -1.9300   0.0000   0.0000   0.0000   0.3259
  19.500   0.8799   0.24486   0.24245  -0.0877  0.0169  1.0000  -1.9766   0.0000   0.0000   0.0000   0.3259
  19.600   0.8831   0.24571   0.24329  -0.0881  0.0163  1.0000  -2.0294   0.0000   0.0000   0.0000   0.3258
  19.700   0.8865   0.24646   0.24403  -0.0885  0.0158  1.0000  -2.0880   0.0000   0.0000   0.0000   0.3256
  19.800   0.8900   0.24710   0.24467  -0.0888  0.0154  1.0000  -2.1519   0.0000   0.0000   0.0000   0.3253
  19.900   0.8936   0.24765   0.24521  -0.0891  0.0150  1.0000  -2.2210   0.0000   0.0000   0.0000   0.3249
  20.000   0.8974   0.24813   0.24569  -0.0893  0.0147  1.0000  -2.2938   0.0000   0.0000   0.0000   0.3244
  20.100   0.9011   0.24859   0.24615  -0.0895  0.0145  1.0000  -2.3684   0.0000   0.0000   0.0000   0.3239
  20.200   0.9042   0.24932   0.24688  -0.0899  0.0142  1.0000  -2.4315   0.0000   0.0000   0.0000   0.3237
  20.300   0.9068   0.25020   0.24775  -0.0903  0.0139  1.0000  -2.4892   0.0000   0.0000   0.0000   0.3236
  20.400   0.9080   0.25153   0.24907  -0.0907  0.0134  1.0000  -2.5298   0.0000   0.0000   0.0000   0.3237


