xflr5 v6.61

 Calculated polar for: NACA 65(1)-212 a=0.6

 1 1 Reynolds number fixed          Mach number fixed         

 xtrf =   1.000 (top)        1.000 (bottom)
 Mach =   0.000     Re =     0.563 e 6     Ncrit =   9.000

  alpha     CL        CD       CDp       Cm    Top Xtr Bot Xtr   Cpmin    Chinge    XCp    
 ------- -------- --------- --------- -------- ------- ------- -------- --------- ---------
 -10.000  -0.5912   0.04070   0.03750  -0.0739  0.9776  0.0088  -5.0772   0.0000   0.0000   0.0000   0.1155
  -9.900  -0.5862   0.04008   0.03684  -0.0742  0.9712  0.0088  -5.0010   0.0000   0.0000   0.0000   0.1140
  -9.700  -0.6232   0.03593   0.03239  -0.0696  0.9431  0.0084  -5.3197   0.0000   0.0000   0.0000   0.1293
  -9.600  -0.6387   0.03510   0.03147  -0.0659  0.9332  0.0083  -5.4020   0.0000   0.0000   0.0000   0.1380
  -9.500  -0.6561   0.03355   0.02974  -0.0622  0.9233  0.0082  -5.5428   0.0000   0.0000   0.0000   0.1466
  -9.400  -0.6723   0.03178   0.02776  -0.0585  0.9135  0.0081  -5.6924   0.0000   0.0000   0.0000   0.1544
  -9.300  -0.6856   0.02969   0.02541  -0.0554  0.9027  0.0080  -5.8480   0.0000   0.0000   0.0000   0.1607
  -9.200  -0.6934   0.02773   0.02322  -0.0530  0.8988  0.0080  -5.9545   0.0000   0.0000   0.0000   0.1652
  -9.100  -0.6964   0.02619   0.02149  -0.0512  0.8965  0.0080  -5.9963   0.0000   0.0000   0.0000   0.1682
  -9.000  -0.6959   0.02499   0.02013  -0.0497  0.8941  0.0080  -5.9908   0.0000   0.0000   0.0000   0.1703
  -8.900  -0.6932   0.02403   0.01904  -0.0486  0.8914  0.0081  -5.9533   0.0000   0.0000   0.0000   0.1718
  -8.800  -0.6890   0.02325   0.01816  -0.0476  0.8886  0.0082  -5.8929   0.0000   0.0000   0.0000   0.1728
  -8.700  -0.6838   0.02263   0.01744  -0.0468  0.8858  0.0083  -5.8154   0.0000   0.0000   0.0000   0.1736
  -8.600  -0.6777   0.02213   0.01686  -0.0461  0.8829  0.0084  -5.7247   0.0000   0.0000   0.0000   0.1741
  -8.500  -0.6711   0.02174   0.01640  -0.0454  0.8799  0.0085  -5.6237   0.0000   0.0000   0.0000   0.1745
  -8.400  -0.6639   0.02145   0.01605  -0.0448  0.8769  0.0086  -5.5144   0.0000   0.0000   0.0000   0.1748
  -8.300  -0.6563   0.02124   0.01580  -0.0443  0.8739  0.0086  -5.3987   0.0000   0.0000   0.0000   0.1749
  -8.200  -0.6566   0.01922   0.01353  -0.0427  0.8706  0.0092  -5.4229   0.0000   0.0000   0.0000   0.1774
  -8.100  -0.6500   0.01884   0.01312  -0.0420  0.8674  0.0095  -5.3195   0.0000   0.0000   0.0000   0.1779
  -8.000  -0.6422   0.01873   0.01299  -0.0416  0.8641  0.0097  -5.1956   0.0000   0.0000   0.0000   0.1779
  -7.900  -0.6338   0.01870   0.01297  -0.0412  0.8604  0.0099  -5.0647   0.0000   0.0000   0.0000   0.1777
  -7.800  -0.6249   0.01873   0.01300  -0.0410  0.8563  0.0101  -4.9296   0.0000   0.0000   0.0000   0.1772
  -7.700  -0.6156   0.01880   0.01308  -0.0408  0.8517  0.0103  -4.7911   0.0000   0.0000   0.0000   0.1766
  -7.600  -0.6060   0.01886   0.01316  -0.0407  0.8499  0.0105  -4.6504   0.0000   0.0000   0.0000   0.1758
  -7.500  -0.5964   0.01893   0.01324  -0.0406  0.8488  0.0108  -4.5079   0.0000   0.0000   0.0000   0.1750
  -7.400  -0.5867   0.01904   0.01337  -0.0405  0.8475  0.0111  -4.3607   0.0000   0.0000   0.0000   0.1741
  -7.300  -0.5766   0.01926   0.01364  -0.0404  0.8460  0.0116  -4.1955   0.0000   0.0000   0.0000   0.1731
  -7.200  -0.5633   0.02070   0.01520  -0.0409  0.8442  0.0130  -3.8645   0.0000   0.0000   0.0000   0.1709
  -7.100  -0.5536   0.02072   0.01521  -0.0407  0.8423  0.0132  -3.7585   0.0000   0.0000   0.0000   0.1700
  -7.000  -0.5438   0.02079   0.01527  -0.0406  0.8402  0.0134  -3.6515   0.0000   0.0000   0.0000   0.1690
  -6.900  -0.5339   0.02091   0.01539  -0.0404  0.8381  0.0136  -3.5428   0.0000   0.0000   0.0000   0.1679
  -6.800  -0.5238   0.02112   0.01558  -0.0403  0.8360  0.0137  -3.4309   0.0000   0.0000   0.0000   0.1668
  -6.700  -0.5135   0.02145   0.01592  -0.0402  0.8338  0.0138  -3.3121   0.0000   0.0000   0.0000   0.1655
  -6.600  -0.5112   0.01844   0.01263  -0.0391  0.8317  0.0146  -3.4496   0.0000   0.0000   0.0000   0.1673
  -6.500  -0.5034   0.01756   0.01167  -0.0387  0.8296  0.0151  -3.4298   0.0000   0.0000   0.0000   0.1670
  -6.400  -0.4949   0.01701   0.01107  -0.0383  0.8274  0.0154  -3.3855   0.0000   0.0000   0.0000   0.1665
  -6.300  -0.4861   0.01662   0.01064  -0.0380  0.8252  0.0157  -3.3301   0.0000   0.0000   0.0000   0.1657
  -6.200  -0.4771   0.01630   0.01029  -0.0377  0.8229  0.0160  -3.2686   0.0000   0.0000   0.0000   0.1648
  -6.100  -0.4679   0.01604   0.01000  -0.0375  0.8206  0.0163  -3.2038   0.0000   0.0000   0.0000   0.1639
  -6.000  -0.4585   0.01581   0.00974  -0.0373  0.8182  0.0165  -3.1375   0.0000   0.0000   0.0000   0.1628
  -5.900  -0.4491   0.01560   0.00951  -0.0371  0.8155  0.0168  -3.0709   0.0000   0.0000   0.0000   0.1616
  -5.800  -0.4396   0.01540   0.00928  -0.0369  0.8126  0.0170  -3.0050   0.0000   0.0000   0.0000   0.1602
  -5.700  -0.4299   0.01521   0.00907  -0.0368  0.8095  0.0172  -2.9403   0.0000   0.0000   0.0000   0.1587
  -5.600  -0.4201   0.01502   0.00886  -0.0366  0.8063  0.0174  -2.8775   0.0000   0.0000   0.0000   0.1570
  -5.500  -0.4102   0.01483   0.00865  -0.0365  0.8029  0.0176  -2.8177   0.0000   0.0000   0.0000   0.1552
  -5.400  -0.4003   0.01459   0.00838  -0.0364  0.8007  0.0178  -2.7664   0.0000   0.0000   0.0000   0.1533
  -5.300  -0.3908   0.01423   0.00797  -0.0362  0.8001  0.0176  -2.7367   0.0000   0.0000   0.0000   0.1518
  -5.200  -0.3808   0.01404   0.00777  -0.0360  0.7994  0.0179  -2.6737   0.0000   0.0000   0.0000   0.1497
  -5.100  -0.3709   0.01386   0.00758  -0.0359  0.7986  0.0182  -2.6110   0.0000   0.0000   0.0000   0.1474
  -5.000  -0.3608   0.01368   0.00740  -0.0358  0.7977  0.0185  -2.5483   0.0000   0.0000   0.0000   0.1450
  -4.900  -0.3508   0.01351   0.00722  -0.0357  0.7967  0.0188  -2.4851   0.0000   0.0000   0.0000   0.1425
  -4.800  -0.3406   0.01336   0.00706  -0.0356  0.7956  0.0193  -2.4204   0.0000   0.0000   0.0000   0.1397
  -4.700  -0.3304   0.01323   0.00693  -0.0356  0.7945  0.0198  -2.3516   0.0000   0.0000   0.0000   0.1367
  -4.600  -0.3158   0.01449   0.00823  -0.0366  0.7932  0.0245  -2.0751   0.0000   0.0000   0.0000   0.1284
  -4.500  -0.3060   0.01406   0.00777  -0.0364  0.7919  0.0244  -2.0498   0.0000   0.0000   0.0000   0.1254
  -4.400  -0.2963   0.01366   0.00734  -0.0362  0.7905  0.0244  -2.0235   0.0000   0.0000   0.0000   0.1223
  -4.300  -0.2867   0.01330   0.00694  -0.0359  0.7890  0.0244  -1.9962   0.0000   0.0000   0.0000   0.1192
  -4.200  -0.2772   0.01296   0.00657  -0.0356  0.7875  0.0244  -1.9680   0.0000   0.0000   0.0000   0.1158
  -4.100  -0.2677   0.01264   0.00623  -0.0354  0.7860  0.0245  -1.9389   0.0000   0.0000   0.0000   0.1122
  -4.000  -0.2582   0.01235   0.00590  -0.0351  0.7844  0.0245  -1.9089   0.0000   0.0000   0.0000   0.1084
  -3.900  -0.2487   0.01208   0.00560  -0.0348  0.7828  0.0246  -1.8778   0.0000   0.0000   0.0000   0.1042
  -3.800  -0.2391   0.01184   0.00532  -0.0346  0.7812  0.0248  -1.8455   0.0000   0.0000   0.0000   0.0996
  -3.700  -0.2294   0.01161   0.00507  -0.0344  0.7796  0.0250  -1.8119   0.0000   0.0000   0.0000   0.0944
  -3.600  -0.2195   0.01141   0.00483  -0.0342  0.7780  0.0252  -1.7766   0.0000   0.0000   0.0000   0.0885
  -3.500  -0.2096   0.01123   0.00463  -0.0340  0.7763  0.0254  -1.7394   0.0000   0.0000   0.0000   0.0818
  -3.400  -0.1994   0.01108   0.00444  -0.0338  0.7746  0.0257  -1.6999   0.0000   0.0000   0.0000   0.0742
  -3.300  -0.1891   0.01095   0.00429  -0.0337  0.7729  0.0260  -1.6578   0.0000   0.0000   0.0000   0.0655
  -3.200  -0.1787   0.01084   0.00417  -0.0336  0.7711  0.0262  -1.6131   0.0000   0.0000   0.0000   0.0554
  -3.100  -0.1682   0.01076   0.00407  -0.0336  0.7693  0.0265  -1.5662   0.0000   0.0000   0.0000   0.0437
  -3.000  -0.1601   0.01018   0.00329  -0.0329  0.7673  0.0320  -1.6225   0.0000   0.0000   0.0000   0.0377
  -2.900  -0.1499   0.00999   0.00303  -0.0327  0.7652  0.0388  -1.6108   0.0000   0.0000   0.0000   0.0248
  -2.800  -0.1392   0.00989   0.00294  -0.0327  0.7630  0.0432  -1.5669   0.0000   0.0000   0.0000   0.0082
  -2.700  -0.1285   0.00982   0.00287  -0.0327  0.7606  0.0472  -1.5180   0.0000   0.0000   0.0000  -0.0117
  -2.600  -0.1177   0.00976   0.00281  -0.0327  0.7579  0.0546  -1.4689   0.0000   0.0000   0.0000  -0.0356
  -2.500  -0.1084   0.00947   0.00273  -0.0326  0.7549  0.0978  -1.4229   0.0000   0.0000   0.0000  -0.0591
  -2.400  -0.1003   0.00900   0.00263  -0.0325  0.7515  0.1961  -1.3779   0.0000   0.0000   0.0000  -0.0831
  -2.300  -0.0925   0.00841   0.00246  -0.0324  0.7507  0.3104  -1.3325   0.0000   0.0000   0.0000  -0.1092
  -2.200  -0.0855   0.00773   0.00231  -0.0321  0.7501  0.4480  -1.2881   0.0000   0.0000   0.0000  -0.1345
  -2.100  -0.0770   0.00736   0.00230  -0.0318  0.7494  0.5340  -1.2385   0.0000   0.0000   0.0000  -0.1729
  -2.000  -0.0668   0.00723   0.00229  -0.0317  0.7487  0.5684  -1.1846   0.0000   0.0000   0.0000  -0.2356
  -1.900  -0.0560   0.00716   0.00229  -0.0316  0.7480  0.5928  -1.1296   0.0000   0.0000   0.0000  -0.3274
  -1.800  -0.0449   0.00713   0.00228  -0.0317  0.7472  0.6062  -1.0743   0.0000   0.0000   0.0000  -0.4698
  -1.700  -0.0344   0.00705   0.00229  -0.0316  0.7463  0.6237  -1.0208   0.0000   0.0000   0.0000  -0.6862
  -1.600  -0.0235   0.00702   0.00231  -0.0316  0.7454  0.6379  -0.9669   0.0000   0.0000   0.0000  -1.1177
  -1.500  -0.0123   0.00702   0.00231  -0.0316  0.7444  0.6479  -0.9126   0.0000   0.0000   0.0000  -2.3704
  -1.400  -0.0018   0.00696   0.00233  -0.0315  0.7434  0.6646  -0.8608   0.0000   0.0000   0.0000  -17.9189
  -1.300   0.0087   0.00692   0.00237  -0.0314  0.7423  0.6787  -0.8094   0.0000   0.0000   0.0000   3.8969
  -1.200   0.0197   0.00692   0.00240  -0.0313  0.7412  0.6889  -0.7577   0.0000   0.0000   0.0000   1.8650
  -1.100   0.0310   0.00694   0.00241  -0.0314  0.7400  0.6947  -0.7060   0.0000   0.0000   0.0000   1.2777
  -1.000   0.0424   0.00696   0.00242  -0.0315  0.7388  0.6978  -0.6548   0.0000   0.0000   0.0000   1.0028
  -0.900   0.0536   0.00695   0.00241  -0.0316  0.7375  0.7024  -0.6047   0.0000   0.0000   0.0000   0.8455
  -0.800   0.0647   0.00691   0.00240  -0.0316  0.7362  0.7088  -0.5559   0.0000   0.0000   0.0000   0.7436
  -0.700   0.0757   0.00689   0.00241  -0.0316  0.7349  0.7138  -0.5078   0.0000   0.0000   0.0000   0.6715
  -0.600   0.0867   0.00687   0.00242  -0.0316  0.7335  0.7185  -0.4605   0.0000   0.0000   0.0000   0.6177
  -0.500   0.0976   0.00686   0.00244  -0.0316  0.7322  0.7239  -0.4484   0.0000   0.0000   0.0000   0.5759
  -0.400   0.1085   0.00686   0.00246  -0.0315  0.7308  0.7295  -0.4532   0.0000   0.0000   0.0000   0.5424
  -0.300   0.1194   0.00687   0.00248  -0.0315  0.7295  0.7349  -0.4581   0.0000   0.0000   0.0000   0.5150
  -0.200   0.1305   0.00689   0.00250  -0.0315  0.7281  0.7395  -0.4629   0.0000   0.0000   0.0000   0.4923
  -0.100   0.1417   0.00691   0.00252  -0.0315  0.7267  0.7432  -0.4679   0.0000   0.0000   0.0000   0.4731
   0.000   0.1529   0.00693   0.00254  -0.0316  0.7253  0.7460  -0.4728   0.0000   0.0000   0.0000   0.4568
   0.100   0.1642   0.00695   0.00255  -0.0316  0.7238  0.7479  -0.4784   0.0000   0.0000   0.0000   0.4428
   0.200   0.1755   0.00695   0.00255  -0.0317  0.7222  0.7502  -0.4840   0.0000   0.0000   0.0000   0.4307
   0.300   0.1864   0.00691   0.00251  -0.0317  0.7204  0.7553  -0.4895   0.0000   0.0000   0.0000   0.4200
   0.400   0.1972   0.00687   0.00249  -0.0317  0.7185  0.7594  -0.4949   0.0000   0.0000   0.0000   0.4104
   0.500   0.2080   0.00685   0.00247  -0.0317  0.7164  0.7630  -0.5003   0.0000   0.0000   0.0000   0.4018
   0.600   0.2189   0.00685   0.00246  -0.0317  0.7141  0.7662  -0.5058   0.0000   0.0000   0.0000   0.3941
   0.700   0.2299   0.00685   0.00247  -0.0318  0.7115  0.7692  -0.5112   0.0000   0.0000   0.0000   0.3872
   0.800   0.2410   0.00688   0.00248  -0.0318  0.7089  0.7720  -0.5165   0.0000   0.0000   0.0000   0.3810
   0.900   0.2521   0.00692   0.00252  -0.0320  0.7062  0.7748  -0.5219   0.0000   0.0000   0.0000   0.3755
   1.000   0.2633   0.00698   0.00257  -0.0321  0.7035  0.7775  -0.5271   0.0000   0.0000   0.0000   0.3706
   1.100   0.2745   0.00705   0.00264  -0.0323  0.7011  0.7803  -0.5323   0.0000   0.0000   0.0000   0.3661
   1.200   0.2859   0.00703   0.00262  -0.0324  0.7007  0.7830  -0.5380   0.0000   0.0000   0.0000   0.3617
   1.300   0.2972   0.00702   0.00261  -0.0325  0.7003  0.7856  -0.5436   0.0000   0.0000   0.0000   0.3577
   1.400   0.3086   0.00699   0.00258  -0.0326  0.6997  0.7881  -0.5493   0.0000   0.0000   0.0000   0.3540
   1.500   0.3199   0.00695   0.00254  -0.0327  0.6987  0.7903  -0.5551   0.0000   0.0000   0.0000   0.3504
   1.600   0.3312   0.00691   0.00249  -0.0328  0.6974  0.7924  -0.5726   0.0000   0.0000   0.0000   0.3470
   1.700   0.3425   0.00685   0.00241  -0.0328  0.6954  0.7941  -0.6266   0.0000   0.0000   0.0000   0.3438
   1.800   0.3537   0.00677   0.00233  -0.0328  0.6923  0.7956  -0.6815   0.0000   0.0000   0.0000   0.3407
   1.900   0.3648   0.00669   0.00223  -0.0328  0.6881  0.7969  -0.7372   0.0000   0.0000   0.0000   0.3377
   2.000   0.3759   0.00662   0.00213  -0.0327  0.6830  0.7980  -0.7937   0.0000   0.0000   0.0000   0.3348
   2.100   0.3869   0.00655   0.00203  -0.0327  0.6771  0.7988  -0.8508   0.0000   0.0000   0.0000   0.3320
   2.200   0.3980   0.00652   0.00195  -0.0326  0.6705  0.8019  -0.9086   0.0000   0.0000   0.0000   0.3296
   2.300   0.4091   0.00651   0.00190  -0.0327  0.6634  0.8068  -0.9670   0.0000   0.0000   0.0000   0.3273
   2.400   0.4201   0.00655   0.00190  -0.0327  0.6550  0.8117  -1.0261   0.0000   0.0000   0.0000   0.3253
   2.500   0.4314   0.00655   0.00190  -0.0328  0.6500  0.8168  -1.0866   0.0000   0.0000   0.0000   0.3234
   2.600   0.4427   0.00651   0.00188  -0.0329  0.6471  0.8223  -1.1481   0.0000   0.0000   0.0000   0.3216
   2.700   0.4538   0.00647   0.00188  -0.0329  0.6421  0.8280  -1.2099   0.0000   0.0000   0.0000   0.3197
   2.800   0.4646   0.00646   0.00188  -0.0328  0.6344  0.8338  -1.2715   0.0000   0.0000   0.0000   0.3178
   2.900   0.4746   0.00647   0.00189  -0.0326  0.6238  0.8397  -1.3319   0.0000   0.0000   0.0000   0.3157
   3.000   0.4836   0.00654   0.00195  -0.0321  0.6114  0.8452  -1.3901   0.0000   0.0000   0.0000   0.3132
   3.100   0.4916   0.00667   0.00210  -0.0312  0.6002  0.8486  -1.4462   0.0000   0.0000   0.0000   0.3104
   3.200   0.5008   0.00675   0.00225  -0.0307  0.5954  0.8522  -1.5059   0.0000   0.0000   0.0000   0.3080
   3.300   0.5102   0.00682   0.00235  -0.0302  0.5888  0.8560  -1.5670   0.0000   0.0000   0.0000   0.3059
   3.400   0.5194   0.00689   0.00243  -0.0297  0.5775  0.8595  -1.6280   0.0000   0.0000   0.0000   0.3038
   3.500   0.5278   0.00701   0.00249  -0.0291  0.5611  0.8629  -1.6871   0.0000   0.0000   0.0000   0.3016
   3.600   0.5363   0.00712   0.00257  -0.0285  0.5470  0.8662  -1.7468   0.0000   0.0000   0.0000   0.2995
   3.700   0.5449   0.00723   0.00264  -0.0279  0.5271  0.8694  -1.8070   0.0000   0.0000   0.0000   0.2975
   3.800   0.5500   0.00755   0.00274  -0.0268  0.4760  0.8728  -1.8571   0.0000   0.0000   0.0000   0.2948
   3.900   0.5513   0.00815   0.00297  -0.0251  0.3978  0.8766  -1.8947   0.0000   0.0000   0.0000   0.2915
   4.100   0.5666   0.00947   0.00348  -0.0257  0.2407  0.8965  -2.0039   0.0000   0.0000   0.0000   0.2912
   4.200   0.5704   0.00997   0.00376  -0.0245  0.1879  0.8985  -2.0479   0.0000   0.0000   0.0000   0.2888
   4.300   0.5741   0.01046   0.00402  -0.0234  0.1377  0.9002  -2.0909   0.0000   0.0000   0.0000   0.2864
   4.400   0.5776   0.01092   0.00423  -0.0223  0.0860  0.9035  -2.1319   0.0000   0.0000   0.0000   0.2843
   4.500   0.5809   0.01136   0.00445  -0.0212  0.0509  0.9067  -2.1710   0.0000   0.0000   0.0000   0.2821
   4.600   0.5880   0.01156   0.00457  -0.0206  0.0384  0.9096  -2.2141   0.0000   0.0000   0.0000   0.2805
   4.800   0.6002   0.01203   0.00513  -0.0186  0.0223  0.9154  -2.2096   0.0000   0.0000   0.0000   0.2763
   4.900   0.6075   0.01215   0.00527  -0.0179  0.0216  0.9180  -2.2516   0.0000   0.0000   0.0000   0.2747
   5.000   0.6142   0.01229   0.00544  -0.0171  0.0210  0.9205  -2.2899   0.0000   0.0000   0.0000   0.2730
   5.100   0.6203   0.01243   0.00562  -0.0162  0.0206  0.9229  -2.3262   0.0000   0.0000   0.0000   0.2711
   5.200   0.6260   0.01259   0.00581  -0.0151  0.0202  0.9253  -2.3611   0.0000   0.0000   0.0000   0.2691
   5.300   0.6313   0.01275   0.00601  -0.0140  0.0199  0.9275  -2.3949   0.0000   0.0000   0.0000   0.2671
   5.400   0.6360   0.01292   0.00622  -0.0128  0.0197  0.9296  -2.4273   0.0000   0.0000   0.0000   0.2649
   5.500   0.6403   0.01309   0.00643  -0.0115  0.0195  0.9317  -2.4588   0.0000   0.0000   0.0000   0.2627
   5.600   0.6442   0.01328   0.00665  -0.0102  0.0193  0.9336  -2.4893   0.0000   0.0000   0.0000   0.2604
   5.700   0.6477   0.01347   0.00688  -0.0088  0.0192  0.9355  -2.5187   0.0000   0.0000   0.0000   0.2581
   5.800   0.6507   0.01367   0.00711  -0.0073  0.0191  0.9372  -2.5467   0.0000   0.0000   0.0000   0.2556
   5.900   0.6518   0.01384   0.00732  -0.0054  0.0190  0.9390  -2.5706   0.0000   0.0000   0.0000   0.2527
   6.000   0.6514   0.01400   0.00752  -0.0033  0.0190  0.9407  -2.5910   0.0000   0.0000   0.0000   0.2493
   6.100   0.6514   0.01420   0.00774  -0.0012  0.0189  0.9422  -2.6120   0.0000   0.0000   0.0000   0.2460
   6.200   0.6520   0.01441   0.00800   0.0007  0.0189  0.9436  -2.6341   0.0000   0.0000   0.0000   0.2430
   6.300   0.6526   0.01465   0.00827   0.0025  0.0189  0.9449  -2.6557   0.0000   0.0000   0.0000   0.2401
   6.400   0.6531   0.01490   0.00855   0.0043  0.0188  0.9461  -2.6768   0.0000   0.0000   0.0000   0.2372
   6.500   0.6542   0.01517   0.00886   0.0061  0.0188  0.9471  -2.6987   0.0000   0.0000   0.0000   0.2345
   6.600   0.6559   0.01546   0.00918   0.0076  0.0188  0.9480  -2.7216   0.0000   0.0000   0.0000   0.2320
   6.700   0.6581   0.01576   0.00951   0.0091  0.0188  0.9488  -2.7452   0.0000   0.0000   0.0000   0.2297
   6.800   0.6581   0.01638   0.01041   0.0111  0.0188  0.9495  -2.7514   0.0000   0.0000   0.0000   0.2265
   7.000   0.6801   0.01583   0.00972   0.0105  0.0152  0.9513  -3.0711   0.0000   0.0000   0.0000   0.2278
   7.100   0.6857   0.01601   0.00990   0.0112  0.0149  0.9527  -3.1362   0.0000   0.0000   0.0000   0.2267
   7.200   0.6903   0.01625   0.01015   0.0121  0.0147  0.9543  -3.1877   0.0000   0.0000   0.0000   0.2255
   7.300   0.6947   0.01651   0.01043   0.0130  0.0145  0.9559  -3.2369   0.0000   0.0000   0.0000   0.2242
   7.400   0.6992   0.01677   0.01071   0.0139  0.0143  0.9577  -3.2851   0.0000   0.0000   0.0000   0.2229
   7.500   0.7041   0.01705   0.01103   0.0147  0.0141  0.9594  -3.3349   0.0000   0.0000   0.0000   0.2218
   7.600   0.7093   0.01735   0.01134   0.0154  0.0140  0.9611  -3.3832   0.0000   0.0000   0.0000   0.2208
   7.700   0.7148   0.01765   0.01167   0.0161  0.0138  0.9627  -3.4319   0.0000   0.0000   0.0000   0.2199
   7.800   0.7207   0.01797   0.01200   0.0167  0.0137  0.9643  -3.4811   0.0000   0.0000   0.0000   0.2192
   7.900   0.7269   0.01829   0.01235   0.0173  0.0136  0.9657  -3.5309   0.0000   0.0000   0.0000   0.2185
   8.000   0.7335   0.01863   0.01271   0.0178  0.0135  0.9670  -3.5813   0.0000   0.0000   0.0000   0.2179
   8.100   0.7402   0.01897   0.01308   0.0182  0.0133  0.9681  -3.6320   0.0000   0.0000   0.0000   0.2174
   8.200   0.7472   0.01933   0.01347   0.0187  0.0132  0.9691  -3.6831   0.0000   0.0000   0.0000   0.2169
   8.300   0.7544   0.01970   0.01386   0.0191  0.0131  0.9700  -3.7344   0.0000   0.0000   0.0000   0.2165
   8.400   0.7619   0.02009   0.01428   0.0194  0.0130  0.9709  -3.7863   0.0000   0.0000   0.0000   0.2162
   8.500   0.7697   0.02050   0.01471   0.0197  0.0129  0.9716  -3.8384   0.0000   0.0000   0.0000   0.2160
   8.600   0.7779   0.02093   0.01518   0.0200  0.0128  0.9724  -3.8908   0.0000   0.0000   0.0000   0.2158
   8.700   0.7865   0.02139   0.01567   0.0202  0.0127  0.9731  -3.9431   0.0000   0.0000   0.0000   0.2158
   8.800   0.7954   0.02189   0.01621   0.0203  0.0125  0.9737  -3.9952   0.0000   0.0000   0.0000   0.2158
   8.900   0.8048   0.02244   0.01679   0.0204  0.0124  0.9743  -4.0466   0.0000   0.0000   0.0000   0.2159
   9.000   0.8148   0.02306   0.01746   0.0203  0.0123  0.9748  -4.0967   0.0000   0.0000   0.0000   0.2162
   9.100   0.8255   0.02377   0.01823   0.0202  0.0121  0.9753  -4.1447   0.0000   0.0000   0.0000   0.2166
   9.200   0.8372   0.02464   0.01916   0.0199  0.0120  0.9757  -4.1883   0.0000   0.0000   0.0000   0.2172
   9.300   0.8489   0.02571   0.02031   0.0195  0.0118  0.9761  -4.2217   0.0000   0.0000   0.0000   0.2179
   9.500   0.8564   0.02648   0.02122   0.0211  0.0108  0.9775  -4.3995   0.0000   0.0000   0.0000   0.2160
   9.600   0.8592   0.02639   0.02114   0.0220  0.0106  0.9783  -4.4964   0.0000   0.0000   0.0000   0.2149
   9.700   0.8634   0.02647   0.02122   0.0227  0.0105  0.9789  -4.5853   0.0000   0.0000   0.0000   0.2140
   9.800   0.8684   0.02663   0.02140   0.0233  0.0103  0.9797  -4.6710   0.0000   0.0000   0.0000   0.2134
   9.900   0.8738   0.02684   0.02163   0.0238  0.0102  0.9805  -4.7549   0.0000   0.0000   0.0000   0.2128
  10.000   0.8794   0.02709   0.02190   0.0243  0.0100  0.9813  -4.8374   0.0000   0.0000   0.0000   0.2123
  10.100   0.8849   0.02735   0.02219   0.0247  0.0099  0.9821  -4.9185   0.0000   0.0000   0.0000   0.2118
  10.200   0.8902   0.02763   0.02249   0.0252  0.0097  0.9828  -4.9982   0.0000   0.0000   0.0000   0.2113
  10.300   0.8950   0.02792   0.02280   0.0258  0.0096  0.9834  -5.0760   0.0000   0.0000   0.0000   0.2107
  10.400   0.8992   0.02821   0.02313   0.0264  0.0095  0.9839  -5.1508   0.0000   0.0000   0.0000   0.2100
  10.500   0.9032   0.02852   0.02346   0.0270  0.0093  0.9844  -5.2255   0.0000   0.0000   0.0000   0.2093
  10.600   0.9073   0.02883   0.02379   0.0276  0.0092  0.9851  -5.3019   0.0000   0.0000   0.0000   0.2087
  10.700   0.9116   0.02914   0.02413   0.0282  0.0091  0.9858  -5.3809   0.0000   0.0000   0.0000   0.2081
  10.800   0.9161   0.02946   0.02447   0.0286  0.0089  0.9865  -5.4623   0.0000   0.0000   0.0000   0.2076
  10.900   0.9210   0.02978   0.02481   0.0290  0.0088  0.9875  -5.5480   0.0000   0.0000   0.0000   0.2072
  11.000   0.9263   0.03011   0.02517   0.0293  0.0087  0.9887  -5.6369   0.0000   0.0000   0.0000   0.2069
  11.100   0.9318   0.03045   0.02552   0.0295  0.0086  0.9900  -5.7289   0.0000   0.0000   0.0000   0.2067
  11.200   0.9373   0.03078   0.02588   0.0297  0.0084  0.9912  -5.8235   0.0000   0.0000   0.0000   0.2065
  11.300   0.9423   0.03112   0.02623   0.0299  0.0083  0.9922  -5.9173   0.0000   0.0000   0.0000   0.2063
  11.400   0.9465   0.03147   0.02660   0.0303  0.0082  0.9930  -6.0073   0.0000   0.0000   0.0000   0.2060
  11.500   0.9501   0.03182   0.02697   0.0307  0.0081  0.9937  -6.0955   0.0000   0.0000   0.0000   0.2055
  11.600   0.9534   0.03215   0.02731   0.0312  0.0080  0.9941  -6.1830   0.0000   0.0000   0.0000   0.2049
  11.700   0.9561   0.03246   0.02764   0.0318  0.0079  0.9944  -6.2687   0.0000   0.0000   0.0000   0.2042
  11.800   0.9586   0.03277   0.02796   0.0324  0.0079  0.9945  -6.3536   0.0000   0.0000   0.0000   0.2034
  11.900   0.9611   0.03308   0.02828   0.0331  0.0078  0.9946  -6.4398   0.0000   0.0000   0.0000   0.2027
  12.000   0.9636   0.03339   0.02860   0.0337  0.0077  0.9947  -6.5269   0.0000   0.0000   0.0000   0.2020
  12.100   0.9660   0.03371   0.02893   0.0343  0.0076  0.9948  -6.6143   0.0000   0.0000   0.0000   0.2012
  12.200   0.9676   0.03407   0.02930   0.0350  0.0076  0.9948  -6.6959   0.0000   0.0000   0.0000   0.2004
  12.300   0.9688   0.03446   0.02971   0.0357  0.0075  0.9949  -6.7735   0.0000   0.0000   0.0000   0.1996
  12.400   0.9700   0.03486   0.03012   0.0363  0.0074  0.9950  -6.8523   0.0000   0.0000   0.0000   0.1988
  12.500   0.9715   0.03527   0.03055   0.0369  0.0074  0.9951  -6.9325   0.0000   0.0000   0.0000   0.1981
  12.600   0.9731   0.03571   0.03100   0.0375  0.0073  0.9952  -7.0122   0.0000   0.0000   0.0000   0.1974
  12.700   0.9745   0.03619   0.03150   0.0381  0.0072  0.9953  -7.0891   0.0000   0.0000   0.0000   0.1966
  12.800   0.9754   0.03674   0.03207   0.0387  0.0071  0.9954  -7.1596   0.0000   0.0000   0.0000   0.1959
  12.900   0.9755   0.03740   0.03276   0.0393  0.0070  0.9955  -7.2189   0.0000   0.0000   0.0000   0.1951
  13.000   0.9739   0.03827   0.03368   0.0400  0.0069  0.9956  -7.2559   0.0000   0.0000   0.0000   0.1941
  13.100   0.9685   0.03954   0.03503   0.0409  0.0067  0.9957  -7.2477   0.0000   0.0000   0.0000   0.1929
  13.200   0.9466   0.04284   0.03858   0.0424  0.0065  0.9958  -7.0238   0.0000   0.0000   0.0000   0.1901
  13.300   0.9432   0.04393   0.03973   0.0430  0.0064  0.9959  -7.0418   0.0000   0.0000   0.0000   0.1892
  13.400   0.9447   0.04446   0.04029   0.0433  0.0064  0.9960  -7.1216   0.0000   0.0000   0.0000   0.1887
  13.500   0.9460   0.04501   0.04087   0.0437  0.0064  0.9961  -7.2001   0.0000   0.0000   0.0000   0.1882
  13.600   0.9472   0.04560   0.04149   0.0440  0.0063  0.9962  -7.2765   0.0000   0.0000   0.0000   0.1877
  13.700   0.9470   0.04630   0.04223   0.0444  0.0063  0.9963  -7.3401   0.0000   0.0000   0.0000   0.1871
  13.800   0.9460   0.04709   0.04305   0.0447  0.0063  0.9964  -7.3962   0.0000   0.0000   0.0000   0.1865
  13.900   0.9455   0.04787   0.04387   0.0450  0.0062  0.9965  -7.4557   0.0000   0.0000   0.0000   0.1860
  14.000   0.9453   0.04865   0.04469   0.0453  0.0062  0.9966  -7.5172   0.0000   0.0000   0.0000   0.1855
  14.100   0.9451   0.04946   0.04554   0.0455  0.0062  0.9968  -7.5779   0.0000   0.0000   0.0000   0.1851
  14.200   0.9447   0.05030   0.04642   0.0457  0.0061  0.9969  -7.6357   0.0000   0.0000   0.0000   0.1846
  14.400   0.9345   0.05309   0.04942   0.0461  0.0062  0.9971  -7.5929   0.0000   0.0000   0.0000   0.1833
  14.500   0.9290   0.05454   0.05093   0.0461  0.0062  0.9972  -7.5791   0.0000   0.0000   0.0000   0.1828
  14.600   0.9251   0.05588   0.05233   0.0461  0.0062  0.9974  -7.5840   0.0000   0.0000   0.0000   0.1824
  14.700   0.9220   0.05718   0.05368   0.0461  0.0061  0.9975  -7.6003   0.0000   0.0000   0.0000   0.1820
  14.800   0.9190   0.05849   0.05504   0.0460  0.0061  0.9977  -7.6205   0.0000   0.0000   0.0000   0.1818
  14.900   0.9152   0.05991   0.05652   0.0458  0.0061  0.9978  -7.6332   0.0000   0.0000   0.0000   0.1815
  15.000   0.9096   0.06156   0.05823   0.0455  0.0061  0.9980  -7.6294   0.0000   0.0000   0.0000   0.1814
  15.100   0.9051   0.06317   0.05989   0.0451  0.0061  0.9981  -7.6334   0.0000   0.0000   0.0000   0.1813
  15.200   0.9009   0.06479   0.06157   0.0448  0.0060  0.9983  -7.6384   0.0000   0.0000   0.0000   0.1813
  15.300   0.8964   0.06650   0.06334   0.0443  0.0060  0.9985  -7.6382   0.0000   0.0000   0.0000   0.1813
  15.400   0.8894   0.06858   0.06547   0.0436  0.0060  0.9986  -7.6108   0.0000   0.0000   0.0000   0.1815
  15.500   0.8826   0.07073   0.06768   0.0428  0.0060  0.9988  -7.5816   0.0000   0.0000   0.0000   0.1818
  15.600   0.8764   0.07287   0.06989   0.0420  0.0060  0.9990  -7.5551   0.0000   0.0000   0.0000   0.1822
  15.700   0.8689   0.07527   0.07235   0.0409  0.0060  0.9991  -7.5117   0.0000   0.0000   0.0000   0.1828
  15.800   0.8598   0.07806   0.07521   0.0396  0.0059  0.9993  -7.4448   0.0000   0.0000   0.0000   0.1836
  15.900   0.8517   0.08078   0.07799   0.0383  0.0059  0.9995  -7.3851   0.0000   0.0000   0.0000   0.1845
  16.000   0.8412   0.08402   0.08130   0.0365  0.0059  0.9996  -7.2952   0.0000   0.0000   0.0000   0.1859
  16.100   0.8317   0.08726   0.08460   0.0347  0.0059  0.9998  -7.2140   0.0000   0.0000   0.0000   0.1873
  19.700   0.6448   0.21498   0.21265  -0.0169  0.0111  1.0000  -1.6751   0.0000   0.0000   0.0000   0.2553
  19.800   0.6469   0.21639   0.21406  -0.0175  0.0111  1.0000  -1.6701   0.0000   0.0000   0.0000   0.2560
  19.900   0.6490   0.21779   0.21546  -0.0181  0.0111  1.0000  -1.6654   0.0000   0.0000   0.0000   0.2567
  20.000   0.6511   0.21893   0.21660  -0.0187  0.0110  1.0000  -1.6648   0.0000   0.0000   0.0000   0.2575
  20.100   0.6533   0.21988   0.21754  -0.0194  0.0109  1.0000  -1.6688   0.0000   0.0000   0.0000   0.2582
  20.200   0.6556   0.22071   0.21837  -0.0200  0.0108  1.0000  -1.6762   0.0000   0.0000   0.0000   0.2590
  20.300   0.6580   0.22151   0.21917  -0.0207  0.0106  1.0000  -1.6829   0.0000   0.0000   0.0000   0.2597
  20.400   0.6600   0.22240   0.22006  -0.0214  0.0103  1.0000  -1.6738   0.0000   0.0000   0.0000   0.2605
  20.500   0.6620   0.22349   0.22115  -0.0221  0.0099  1.0000  -1.6575   0.0000   0.0000   0.0000   0.2614
  20.600   0.6643   0.22475   0.22241  -0.0227  0.0095  1.0000  -1.6428   0.0000   0.0000   0.0000   0.2622
  20.700   0.6666   0.22606   0.22371  -0.0234  0.0091  1.0000  -1.6342   0.0000   0.0000   0.0000   0.2629
  20.800   0.6689   0.22734   0.22500  -0.0240  0.0088  1.0000  -1.6314   0.0000   0.0000   0.0000   0.2635
  20.900   0.6712   0.22857   0.22623  -0.0246  0.0086  1.0000  -1.6332   0.0000   0.0000   0.0000   0.2641
  21.000   0.6735   0.22974   0.22740  -0.0252  0.0083  1.0000  -1.6386   0.0000   0.0000   0.0000   0.2647
  21.100   0.6759   0.23087   0.22852  -0.0257  0.0081  1.0000  -1.6471   0.0000   0.0000   0.0000   0.2653
  21.200   0.6783   0.23195   0.22960  -0.0263  0.0079  1.0000  -1.6586   0.0000   0.0000   0.0000   0.2658
  21.300   0.6807   0.23299   0.23064  -0.0269  0.0078  1.0000  -1.6727   0.0000   0.0000   0.0000   0.2663
  21.400   0.6831   0.23400   0.23165  -0.0274  0.0076  1.0000  -1.6895   0.0000   0.0000   0.0000   0.2668
  21.500   0.6856   0.23499   0.23263  -0.0280  0.0075  1.0000  -1.7090   0.0000   0.0000   0.0000   0.2673
  21.600   0.6881   0.23595   0.23359  -0.0285  0.0074  1.0000  -1.7311   0.0000   0.0000   0.0000   0.2678
  21.700   0.6907   0.23689   0.23454  -0.0291  0.0072  1.0000  -1.7560   0.0000   0.0000   0.0000   0.2682
  21.800   0.6933   0.23782   0.23547  -0.0296  0.0071  1.0000  -1.7837   0.0000   0.0000   0.0000   0.2686
  21.900   0.6960   0.23875   0.23639  -0.0301  0.0071  1.0000  -1.8143   0.0000   0.0000   0.0000   0.2690
  22.000   0.6987   0.23967   0.23731  -0.0306  0.0070  1.0000  -1.8482   0.0000   0.0000   0.0000   0.2694
  22.100   0.7016   0.24061   0.23825  -0.0311  0.0069  1.0000  -1.8857   0.0000   0.0000   0.0000   0.2697
  22.200   0.7047   0.24158   0.23922  -0.0316  0.0068  1.0000  -1.9279   0.0000   0.0000   0.0000   0.2700
  22.300   0.7082   0.24265   0.24029  -0.0320  0.0067  1.0000  -1.9775   0.0000   0.0000   0.0000   0.2701


