xflr5 v6.61

 Calculated polar for: NACA 0012-34

 1 1 Reynolds number fixed          Mach number fixed         

 xtrf =   1.000 (top)        1.000 (bottom)
 Mach =   0.000     Re =     0.200 e 6     Ncrit =   9.000

  alpha     CL        CD       CDp       Cm    Top Xtr Bot Xtr   Cpmin    Chinge    XCp    
 ------- -------- --------- --------- -------- ------- ------- -------- --------- ---------
  -6.700  -0.7451   0.04865   0.04311   0.0031  1.0000  0.1035  -1.9826   0.0000   0.0000   0.0000   0.2492
  -6.600  -0.7545   0.04478   0.03918   0.0046  1.0000  0.1071  -2.0132   0.0000   0.0000   0.0000   0.2512
  -6.500  -0.7543   0.04278   0.03722   0.0057  1.0000  0.1106  -1.9884   0.0000   0.0000   0.0000   0.2528
  -6.400  -0.7516   0.04153   0.03602   0.0068  1.0000  0.1140  -1.9495   0.0000   0.0000   0.0000   0.2543
  -6.300  -0.7461   0.04051   0.03508   0.0076  1.0000  0.1180  -1.9002   0.0000   0.0000   0.0000   0.2556
  -6.200  -0.7412   0.03965   0.03427   0.0086  1.0000  0.1223  -1.8559   0.0000   0.0000   0.0000   0.2572
  -6.100  -0.7370   0.03887   0.03351   0.0098  1.0000  0.1270  -1.8180   0.0000   0.0000   0.0000   0.2589
  -5.500  -0.6992   0.02700   0.01888   0.0230  1.0000  0.0453  -2.2322   0.0000   0.0000   0.0000   0.2784
  -5.400  -0.6828   0.02386   0.01529   0.0240  1.0000  0.0352  -2.3273   0.0000   0.0000   0.0000   0.2807
  -5.300  -0.6641   0.02230   0.01340   0.0242  0.9995  0.0294  -2.3450   0.0000   0.0000   0.0000   0.2821
  -5.200  -0.6463   0.02175   0.01278   0.0234  0.9981  0.0275  -2.2570   0.0000   0.0000   0.0000   0.2819
  -5.100  -0.6301   0.02116   0.01217   0.0227  0.9965  0.0264  -2.1664   0.0000   0.0000   0.0000   0.2817
  -5.000  -0.6152   0.02033   0.01129   0.0222  0.9949  0.0259  -2.0985   0.0000   0.0000   0.0000   0.2819
  -4.900  -0.6026   0.01922   0.01009   0.0221  0.9929  0.0260  -2.0572   0.0000   0.0000   0.0000   0.2826
  -4.800  -0.5927   0.01800   0.00875   0.0225  0.9905  0.0272  -2.0395   0.0000   0.0000   0.0000   0.2840
  -4.700  -0.5845   0.01690   0.00743   0.0234  0.9881  0.0317  -2.0453   0.0000   0.0000   0.0000   0.2861
  -4.600  -0.5736   0.01636   0.00690   0.0235  0.9861  0.0418  -1.9904   0.0000   0.0000   0.0000   0.2871
  -4.500  -0.5585   0.01615   0.00668   0.0224  0.9831  0.0494  -1.8727   0.0000   0.0000   0.0000   0.2864
  -4.400  -0.5430   0.01555   0.00627   0.0212  0.9788  0.0729  -1.7675   0.0000   0.0000   0.0000   0.2854
  -4.300  -0.5358   0.01420   0.00576   0.0210  0.9749  0.1948  -1.6903   0.0000   0.0000   0.0000   0.2856
  -4.200  -0.5294   0.01306   0.00546   0.0210  0.9708  0.3422  -1.6311   0.0000   0.0000   0.0000   0.2862
  -4.100  -0.5187   0.01241   0.00531   0.0206  0.9670  0.4374  -1.5924   0.0000   0.0000   0.0000   0.2863
  -4.000  -0.5062   0.01195   0.00525   0.0200  0.9636  0.5147  -1.5482   0.0000   0.0000   0.0000   0.2861
  -3.900  -0.4946   0.01152   0.00536   0.0198  0.9606  0.6089  -1.5042   0.0000   0.0000   0.0000   0.2869
  -3.800  -0.4803   0.01138   0.00567   0.0196  0.9584  0.6864  -1.4544   0.0000   0.0000   0.0000   0.2877
  -3.700  -0.4626   0.01140   0.00577   0.0183  0.9560  0.7159  -1.4004   0.0000   0.0000   0.0000   0.2864
  -3.600  -0.4425   0.01147   0.00592   0.0165  0.9544  0.7364  -1.3431   0.0000   0.0000   0.0000   0.2842
  -3.500  -0.4224   0.01155   0.00603   0.0146  0.9527  0.7497  -1.2870   0.0000   0.0000   0.0000   0.2816
  -3.400  -0.4029   0.01166   0.00615   0.0128  0.9510  0.7621  -1.2327   0.0000   0.0000   0.0000   0.2789
  -3.300  -0.3890   0.01174   0.00624   0.0123  0.9489  0.7737  -1.1887   0.0000   0.0000   0.0000   0.2788
  -3.200  -0.3827   0.01174   0.00623   0.0135  0.9455  0.7832  -1.1584   0.0000   0.0000   0.0000   0.2825
  -3.100  -0.3759   0.01177   0.00625   0.0146  0.9417  0.7909  -1.1274   0.0000   0.0000   0.0000   0.2860
  -3.000  -0.3679   0.01184   0.00631   0.0153  0.9378  0.7963  -1.0946   0.0000   0.0000   0.0000   0.2891
  -2.900  -0.3586   0.01193   0.00638   0.0158  0.9343  0.7997  -1.0601   0.0000   0.0000   0.0000   0.2915
  -2.800  -0.3434   0.01185   0.00629   0.0148  0.9327  0.8119  -1.0172   0.0000   0.0000   0.0000   0.2905
  -2.700  -0.3271   0.01188   0.00632   0.0136  0.9314  0.8211  -0.9726   0.0000   0.0000   0.0000   0.2892
  -2.600  -0.3110   0.01195   0.00639   0.0126  0.9301  0.8276  -0.9291   0.0000   0.0000   0.0000   0.2878
  -2.500  -0.2954   0.01202   0.00644   0.0115  0.9287  0.8327  -0.8870   0.0000   0.0000   0.0000   0.2864
  -2.400  -0.2801   0.01207   0.00649   0.0105  0.9272  0.8372  -0.8461   0.0000   0.0000   0.0000   0.2851
  -2.300  -0.2653   0.01212   0.00652   0.0096  0.9256  0.8412  -0.8064   0.0000   0.0000   0.0000   0.2837
  -2.200  -0.2510   0.01217   0.00655   0.0088  0.9240  0.8454  -0.7679   0.0000   0.0000   0.0000   0.2825
  -2.100  -0.2366   0.01223   0.00660   0.0080  0.9225  0.8497  -0.7299   0.0000   0.0000   0.0000   0.2812
  -2.000  -0.2222   0.01228   0.00663   0.0072  0.9211  0.8540  -0.6923   0.0000   0.0000   0.0000   0.2797
  -1.900  -0.2080   0.01232   0.00666   0.0063  0.9196  0.8580  -0.6556   0.0000   0.0000   0.0000   0.2779
  -1.800  -0.1942   0.01233   0.00666   0.0056  0.9181  0.8616  -0.6200   0.0000   0.0000   0.0000   0.2760
  -1.700  -0.1807   0.01231   0.00662   0.0048  0.9164  0.8647  -0.5853   0.0000   0.0000   0.0000   0.2739
  -1.600  -0.1673   0.01226   0.00655   0.0040  0.9145  0.8670  -0.5513   0.0000   0.0000   0.0000   0.2712
  -1.500  -0.1537   0.01218   0.00645   0.0031  0.9125  0.8687  -0.5176   0.0000   0.0000   0.0000   0.2675
  -1.400  -0.1398   0.01208   0.00633   0.0021  0.9105  0.8700  -0.4838   0.0000   0.0000   0.0000   0.2624
  -1.300  -0.1257   0.01198   0.00620   0.0011  0.9084  0.8708  -0.4503   0.0000   0.0000   0.0000   0.2558
  -1.200  -0.1115   0.01186   0.00606  -0.0000  0.9063  0.8712  -0.4172   0.0000   0.0000   0.0000   0.2472
  -0.900  -0.0707   0.01151   0.00564  -0.0031  0.8999  0.8698  -0.3837   0.0000   0.0000   0.0000   0.2040
  -0.800  -0.0635   0.01143   0.00556  -0.0026  0.8983  0.8707  -0.3770   0.0000   0.0000   0.0000   0.2057
  -0.700  -0.0563   0.01135   0.00547  -0.0022  0.8965  0.8712  -0.3703   0.0000   0.0000   0.0000   0.2081
  -0.600  -0.0490   0.01127   0.00539  -0.0018  0.8942  0.8715  -0.3654   0.0000   0.0000   0.0000   0.2112
  -0.500  -0.0416   0.01119   0.00530  -0.0014  0.8916  0.8716  -0.3607   0.0000   0.0000   0.0000   0.2147
  -0.400  -0.0339   0.01112   0.00521  -0.0010  0.8886  0.8714  -0.3558   0.0000   0.0000   0.0000   0.2180
  -0.300  -0.0259   0.01104   0.00513  -0.0007  0.8852  0.8713  -0.3507   0.0000   0.0000   0.0000   0.2204
  -0.200  -0.0175   0.01098   0.00506  -0.0005  0.8816  0.8713  -0.3454   0.0000   0.0000   0.0000   0.2215
  -0.100  -0.0088   0.01093   0.00501  -0.0002  0.8778  0.8721  -0.3400   0.0000   0.0000   0.0000   0.2214
   0.000  -0.0000   0.01091   0.00468   0.0000  0.8740  0.8740  -0.3344   0.0000   0.0000   0.0000   0.6039
   0.100   0.0088   0.01093   0.00501   0.0002  0.8721  0.8778  -0.3400   0.0000   0.0000   0.0000   0.2214
   0.200   0.0175   0.01098   0.00506   0.0005  0.8713  0.8816  -0.3454   0.0000   0.0000   0.0000   0.2215
   0.300   0.0259   0.01104   0.00513   0.0007  0.8713  0.8852  -0.3507   0.0000   0.0000   0.0000   0.2204
   0.400   0.0339   0.01111   0.00521   0.0010  0.8715  0.8886  -0.3558   0.0000   0.0000   0.0000   0.2180
   0.500   0.0416   0.01119   0.00530   0.0014  0.8716  0.8916  -0.3607   0.0000   0.0000   0.0000   0.2147
   0.600   0.0490   0.01127   0.00538   0.0018  0.8715  0.8943  -0.3654   0.0000   0.0000   0.0000   0.2112
   0.700   0.0563   0.01135   0.00547   0.0022  0.8712  0.8965  -0.3703   0.0000   0.0000   0.0000   0.2081
   0.800   0.0635   0.01143   0.00556   0.0026  0.8707  0.8983  -0.3770   0.0000   0.0000   0.0000   0.2057
   0.900   0.0708   0.01150   0.00564   0.0030  0.8698  0.8999  -0.3837   0.0000   0.0000   0.0000   0.2040
   1.100   0.0975   0.01173   0.00592   0.0011  0.8711  0.9041  -0.4031   0.0000   0.0000   0.0000   0.2360
   1.200   0.1116   0.01186   0.00606   0.0000  0.8712  0.9063  -0.4173   0.0000   0.0000   0.0000   0.2472
   1.300   0.1257   0.01197   0.00620  -0.0011  0.8708  0.9084  -0.4504   0.0000   0.0000   0.0000   0.2559
   1.400   0.1398   0.01208   0.00633  -0.0021  0.8700  0.9105  -0.4839   0.0000   0.0000   0.0000   0.2625
   1.500   0.1538   0.01218   0.00644  -0.0031  0.8688  0.9126  -0.5176   0.0000   0.0000   0.0000   0.2676
   1.600   0.1673   0.01226   0.00655  -0.0040  0.8671  0.9145  -0.5513   0.0000   0.0000   0.0000   0.2712
   1.700   0.1807   0.01231   0.00662  -0.0048  0.8647  0.9164  -0.5853   0.0000   0.0000   0.0000   0.2739
   1.800   0.1943   0.01233   0.00665  -0.0056  0.8617  0.9181  -0.6200   0.0000   0.0000   0.0000   0.2761
   1.900   0.2081   0.01232   0.00665  -0.0064  0.8581  0.9196  -0.6557   0.0000   0.0000   0.0000   0.2780
   2.000   0.2223   0.01228   0.00663  -0.0072  0.8540  0.9211  -0.6924   0.0000   0.0000   0.0000   0.2797
   2.100   0.2366   0.01222   0.00659  -0.0080  0.8498  0.9226  -0.7299   0.0000   0.0000   0.0000   0.2813
   2.200   0.2510   0.01217   0.00655  -0.0088  0.8454  0.9241  -0.7680   0.0000   0.0000   0.0000   0.2825
   2.300   0.2653   0.01212   0.00651  -0.0096  0.8413  0.9257  -0.8064   0.0000   0.0000   0.0000   0.2837
   2.400   0.2802   0.01207   0.00648  -0.0105  0.8372  0.9272  -0.8461   0.0000   0.0000   0.0000   0.2851
   2.500   0.2954   0.01201   0.00644  -0.0115  0.8327  0.9287  -0.8870   0.0000   0.0000   0.0000   0.2864
   2.600   0.3110   0.01195   0.00638  -0.0125  0.8276  0.9301  -0.9291   0.0000   0.0000   0.0000   0.2878
   2.700   0.3270   0.01188   0.00632  -0.0136  0.8211  0.9314  -0.9726   0.0000   0.0000   0.0000   0.2891
   2.800   0.3434   0.01184   0.00628  -0.0148  0.8120  0.9327  -1.0171   0.0000   0.0000   0.0000   0.2905
   2.900   0.3585   0.01193   0.00638  -0.0158  0.7997  0.9344  -1.0600   0.0000   0.0000   0.0000   0.2915
   3.000   0.3678   0.01184   0.00630  -0.0153  0.7964  0.9379  -1.0945   0.0000   0.0000   0.0000   0.2890
   3.100   0.3758   0.01177   0.00625  -0.0146  0.7909  0.9417  -1.1272   0.0000   0.0000   0.0000   0.2860
   3.200   0.3826   0.01173   0.00623  -0.0135  0.7832  0.9456  -1.1582   0.0000   0.0000   0.0000   0.2824
   3.300   0.3888   0.01174   0.00623  -0.0123  0.7738  0.9490  -1.1885   0.0000   0.0000   0.0000   0.2787
   3.400   0.4030   0.01165   0.00615  -0.0128  0.7621  0.9511  -1.2329   0.0000   0.0000   0.0000   0.2789
   3.500   0.4225   0.01155   0.00603  -0.0146  0.7497  0.9527  -1.2871   0.0000   0.0000   0.0000   0.2816
   3.600   0.4426   0.01146   0.00591  -0.0165  0.7364  0.9544  -1.3432   0.0000   0.0000   0.0000   0.2843
   3.700   0.4627   0.01140   0.00576  -0.0183  0.7159  0.9561  -1.4006   0.0000   0.0000   0.0000   0.2865
   3.800   0.4804   0.01138   0.00567  -0.0196  0.6864  0.9584  -1.4545   0.0000   0.0000   0.0000   0.2877
   3.900   0.4947   0.01151   0.00535  -0.0199  0.6087  0.9607  -1.5043   0.0000   0.0000   0.0000   0.2869
   4.000   0.5062   0.01195   0.00525  -0.0200  0.5146  0.9637  -1.5482   0.0000   0.0000   0.0000   0.2861
   4.100   0.5187   0.01240   0.00531  -0.0206  0.4373  0.9671  -1.5924   0.0000   0.0000   0.0000   0.2863
   4.200   0.5294   0.01305   0.00545  -0.0210  0.3421  0.9709  -1.6311   0.0000   0.0000   0.0000   0.2862
   4.300   0.5358   0.01419   0.00575  -0.0210  0.1946  0.9750  -1.6904   0.0000   0.0000   0.0000   0.2856
   4.400   0.5431   0.01554   0.00626  -0.0213  0.0728  0.9790  -1.7677   0.0000   0.0000   0.0000   0.2855
   4.500   0.5586   0.01614   0.00667  -0.0224  0.0494  0.9833  -1.8730   0.0000   0.0000   0.0000   0.2864
   4.600   0.5737   0.01635   0.00689  -0.0235  0.0418  0.9862  -1.9906   0.0000   0.0000   0.0000   0.2871
   4.700   0.5846   0.01690   0.00742  -0.0234  0.0317  0.9883  -2.0453   0.0000   0.0000   0.0000   0.2861
   4.800   0.5927   0.01800   0.00874  -0.0225  0.0271  0.9907  -2.0395   0.0000   0.0000   0.0000   0.2840
   4.900   0.6027   0.01921   0.01009  -0.0221  0.0260  0.9930  -2.0573   0.0000   0.0000   0.0000   0.2826
   5.000   0.6154   0.02032   0.01128  -0.0222  0.0259  0.9950  -2.0988   0.0000   0.0000   0.0000   0.2819
   5.100   0.6303   0.02116   0.01216  -0.0227  0.0264  0.9967  -2.1668   0.0000   0.0000   0.0000   0.2818
   5.200   0.6465   0.02174   0.01277  -0.0234  0.0275  0.9982  -2.2575   0.0000   0.0000   0.0000   0.2819
   5.300   0.6643   0.02229   0.01339  -0.0243  0.0294  0.9996  -2.3455   0.0000   0.0000   0.0000   0.2822
   5.400   0.6821   0.02377   0.01520  -0.0240  0.0350  1.0000  -2.3300   0.0000   0.0000   0.0000   0.2807
   5.500   0.6987   0.02690   0.01877  -0.0229  0.0451  1.0000  -2.2342   0.0000   0.0000   0.0000   0.2783
   8.400   0.7141   0.06054   0.05560   0.0265  0.0621  1.0000  -2.3149   0.0000   0.0000   0.0000   0.2064
   8.500   0.7131   0.06124   0.05629   0.0278  0.0597  1.0000  -2.3545   0.0000   0.0000   0.0000   0.2044
   8.600   0.7368   0.06309   0.05773   0.0252  0.0530  1.0000  -2.6030   0.0000   0.0000   0.0000   0.2090
   8.700   0.7307   0.06588   0.06052   0.0262  0.0519  1.0000  -2.5912   0.0000   0.0000   0.0000   0.2073
   8.800   0.7219   0.06854   0.06323   0.0275  0.0513  1.0000  -2.5562   0.0000   0.0000   0.0000   0.2048
   8.900   0.7122   0.07104   0.06578   0.0290  0.0509  1.0000  -2.5150   0.0000   0.0000   0.0000   0.2022
   9.000   0.7021   0.07340   0.06820   0.0304  0.0506  1.0000  -2.4723   0.0000   0.0000   0.0000   0.1994
   9.100   0.6920   0.07567   0.07053   0.0318  0.0504  1.0000  -2.4295   0.0000   0.0000   0.0000   0.1967
   9.200   0.6820   0.07785   0.07277   0.0331  0.0502  1.0000  -2.3875   0.0000   0.0000   0.0000   0.1941
   9.300   0.6722   0.07996   0.07493   0.0342  0.0501  1.0000  -2.3472   0.0000   0.0000   0.0000   0.1915
   9.400   0.6640   0.08128   0.07624   0.0356  0.0500  1.0000  -2.3259   0.0000   0.0000   0.0000   0.1887
   9.500   0.6563   0.08222   0.07721   0.0370  0.0500  1.0000  -2.3135   0.0000   0.0000   0.0000   0.1858
   9.600   0.6487   0.08322   0.07825   0.0381  0.0500  1.0000  -2.2999   0.0000   0.0000   0.0000   0.1832
   9.700   0.6411   0.08430   0.07937   0.0391  0.0499  1.0000  -2.2851   0.0000   0.0000   0.0000   0.1808
   9.800   0.6336   0.08550   0.08060   0.0397  0.0499  1.0000  -2.2688   0.0000   0.0000   0.0000   0.1790
   9.900   0.6265   0.08680   0.08193   0.0400  0.0499  1.0000  -2.2513   0.0000   0.0000   0.0000   0.1775
  10.000   0.6198   0.08819   0.08337   0.0401  0.0499  1.0000  -2.2327   0.0000   0.0000   0.0000   0.1765
  10.100   0.6130   0.08970   0.08491   0.0399  0.0499  1.0000  -2.2121   0.0000   0.0000   0.0000   0.1758
  10.200   0.6064   0.09128   0.08652   0.0396  0.0499  1.0000  -2.1902   0.0000   0.0000   0.0000   0.1755
  10.300   0.6002   0.09295   0.08822   0.0390  0.0499  1.0000  -2.1672   0.0000   0.0000   0.0000   0.1755
  10.400   0.5942   0.09476   0.09006   0.0382  0.0498  1.0000  -2.1420   0.0000   0.0000   0.0000   0.1761
  10.500   0.5886   0.09669   0.09201   0.0372  0.0498  1.0000  -2.1153   0.0000   0.0000   0.0000   0.1770
  10.600   0.5834   0.09871   0.09406   0.0360  0.0498  1.0000  -2.0873   0.0000   0.0000   0.0000   0.1783
  10.700   0.5785   0.10088   0.09625   0.0345  0.0498  1.0000  -2.0570   0.0000   0.0000   0.0000   0.1800
  10.800   0.5742   0.10312   0.09852   0.0330  0.0498  1.0000  -2.0257   0.0000   0.0000   0.0000   0.1821
  10.900   0.5703   0.10550   0.10092   0.0313  0.0498  1.0000  -1.9918   0.0000   0.0000   0.0000   0.1846
  11.000   0.5671   0.10799   0.10343   0.0294  0.0497  1.0000  -1.9560   0.0000   0.0000   0.0000   0.1873
  11.100   0.5645   0.11060   0.10605   0.0275  0.0497  1.0000  -1.9181   0.0000   0.0000   0.0000   0.1904
  11.200   0.5625   0.11315   0.10860   0.0256  0.0496  1.0000  -1.8817   0.0000   0.0000   0.0000   0.1935
  11.300   0.5609   0.11546   0.11090   0.0239  0.0495  1.0000  -1.8498   0.0000   0.0000   0.0000   0.1963
  11.400   0.5597   0.11754   0.11298   0.0223  0.0494  1.0000  -1.8218   0.0000   0.0000   0.0000   0.1990
  11.500   0.5591   0.11937   0.11481   0.0207  0.0491  1.0000  -1.7973   0.0000   0.0000   0.0000   0.2017
  11.600   0.5598   0.12087   0.11630   0.0189  0.0484  1.0000  -1.7767   0.0000   0.0000   0.0000   0.2047
  11.700   0.5611   0.12233   0.11775   0.0171  0.0472  1.0000  -1.7544   0.0000   0.0000   0.0000   0.2080
  11.800   0.5605   0.12420   0.11962   0.0154  0.0463  1.0000  -1.7237   0.0000   0.0000   0.0000   0.2107
  11.900   0.5602   0.12610   0.12152   0.0140  0.0453  1.0000  -1.6967   0.0000   0.0000   0.0000   0.2131
  12.000   0.5597   0.12801   0.12342   0.0128  0.0442  1.0000  -1.6733   0.0000   0.0000   0.0000   0.2151
  12.100   0.5593   0.12990   0.12531   0.0117  0.0431  1.0000  -1.6534   0.0000   0.0000   0.0000   0.2170
  12.200   0.5590   0.13176   0.12716   0.0107  0.0420  1.0000  -1.6376   0.0000   0.0000   0.0000   0.2186
  12.300   0.5590   0.13357   0.12896   0.0099  0.0409  1.0000  -1.6254   0.0000   0.0000   0.0000   0.2200
  12.400   0.5591   0.13534   0.13073   0.0090  0.0398  1.0000  -1.6165   0.0000   0.0000   0.0000   0.2214
  12.500   0.5594   0.13706   0.13244   0.0083  0.0386  1.0000  -1.6107   0.0000   0.0000   0.0000   0.2226
  12.600   0.5599   0.13874   0.13411   0.0076  0.0375  1.0000  -1.6081   0.0000   0.0000   0.0000   0.2238
  12.700   0.5605   0.14036   0.13573   0.0069  0.0364  1.0000  -1.6089   0.0000   0.0000   0.0000   0.2248
  12.800   0.5614   0.14193   0.13729   0.0063  0.0353  1.0000  -1.6135   0.0000   0.0000   0.0000   0.2258
  12.900   0.5624   0.14343   0.13878   0.0058  0.0342  1.0000  -1.6228   0.0000   0.0000   0.0000   0.2266
  13.000   0.5638   0.14485   0.14020   0.0053  0.0332  1.0000  -1.6381   0.0000   0.0000   0.0000   0.2273
  13.100   0.5655   0.14617   0.14151   0.0050  0.0321  1.0000  -1.6617   0.0000   0.0000   0.0000   0.2277
  13.200   0.5678   0.14734   0.14266   0.0049  0.0309  1.0000  -1.6993   0.0000   0.0000   0.0000   0.2278
  13.300   0.5711   0.14826   0.14357   0.0052  0.0297  1.0000  -1.7615   0.0000   0.0000   0.0000   0.2272
  13.400   0.5753   0.14894   0.14424   0.0060  0.0284  1.0000  -1.8552   0.0000   0.0000   0.0000   0.2257
  13.500   0.5772   0.15024   0.14554   0.0066  0.0273  1.0000  -1.9191   0.0000   0.0000   0.0000   0.2246
  13.600   0.5756   0.15264   0.14793   0.0063  0.0265  1.0000  -1.9138   0.0000   0.0000   0.0000   0.2248
  13.700   0.5709   0.15637   0.15166   0.0056  0.0258  1.0000  -1.8436   0.0000   0.0000   0.0000   0.2258
  13.800   0.5620   0.16214   0.15744   0.0043  0.0250  1.0000  -1.6806   0.0000   0.0000   0.0000   0.2281
  13.900   0.5627   0.16407   0.15931   0.0034  0.0250  1.0000  -1.6594   0.0000   0.0000   0.0000   0.2296
  14.000   0.5641   0.16567   0.16091   0.0025  0.0249  1.0000  -1.6497   0.0000   0.0000   0.0000   0.2310
  14.100   0.5656   0.16721   0.16245   0.0017  0.0249  1.0000  -1.6409   0.0000   0.0000   0.0000   0.2324
  14.200   0.5672   0.16869   0.16392   0.0008  0.0248  1.0000  -1.6333   0.0000   0.0000   0.0000   0.2338
  14.300   0.5690   0.17007   0.16530  -0.0001  0.0247  1.0000  -1.6274   0.0000   0.0000   0.0000   0.2352
  14.400   0.5710   0.17130   0.16652  -0.0010  0.0246  1.0000  -1.6241   0.0000   0.0000   0.0000   0.2367
  14.500   0.5736   0.17229   0.16750  -0.0020  0.0243  1.0000  -1.6254   0.0000   0.0000   0.0000   0.2382
  14.600   0.5771   0.17291   0.16812  -0.0030  0.0238  1.0000  -1.6339   0.0000   0.0000   0.0000   0.2399
  14.700   0.5814   0.17354   0.16875  -0.0041  0.0230  1.0000  -1.6411   0.0000   0.0000   0.0000   0.2416
  14.800   0.5840   0.17460   0.16980  -0.0053  0.0223  1.0000  -1.6284   0.0000   0.0000   0.0000   0.2435
  14.900   0.5858   0.17574   0.17094  -0.0063  0.0217  1.0000  -1.6132   0.0000   0.0000   0.0000   0.2451
  15.000   0.5878   0.17698   0.17217  -0.0073  0.0210  1.0000  -1.6010   0.0000   0.0000   0.0000   0.2466
  15.100   0.5898   0.17828   0.17348  -0.0081  0.0204  1.0000  -1.5926   0.0000   0.0000   0.0000   0.2479
  15.200   0.5919   0.17963   0.17482  -0.0089  0.0198  1.0000  -1.5877   0.0000   0.0000   0.0000   0.2491
  15.300   0.5940   0.18099   0.17618  -0.0097  0.0192  1.0000  -1.5860   0.0000   0.0000   0.0000   0.2501
  15.400   0.5961   0.18237   0.17755  -0.0104  0.0186  1.0000  -1.5873   0.0000   0.0000   0.0000   0.2511
  15.500   0.5983   0.18374   0.17892  -0.0111  0.0181  1.0000  -1.5913   0.0000   0.0000   0.0000   0.2521
  15.600   0.6005   0.18510   0.18028  -0.0117  0.0176  1.0000  -1.5981   0.0000   0.0000   0.0000   0.2529
  15.700   0.6028   0.18646   0.18163  -0.0123  0.0171  1.0000  -1.6078   0.0000   0.0000   0.0000   0.2538
  15.800   0.6051   0.18781   0.18298  -0.0129  0.0166  1.0000  -1.6206   0.0000   0.0000   0.0000   0.2545
  15.900   0.6075   0.18914   0.18431  -0.0135  0.0162  1.0000  -1.6369   0.0000   0.0000   0.0000   0.2552
  16.000   0.6099   0.19046   0.18562  -0.0140  0.0158  1.0000  -1.6573   0.0000   0.0000   0.0000   0.2559
  16.100   0.6124   0.19177   0.18692  -0.0145  0.0153  1.0000  -1.6827   0.0000   0.0000   0.0000   0.2564
  16.200   0.6151   0.19307   0.18821  -0.0149  0.0150  1.0000  -1.7142   0.0000   0.0000   0.0000   0.2568
  16.300   0.6179   0.19437   0.18950  -0.0152  0.0146  1.0000  -1.7540   0.0000   0.0000   0.0000   0.2570
  16.400   0.6211   0.19570   0.19083  -0.0153  0.0142  1.0000  -1.8057   0.0000   0.0000   0.0000   0.2570
  16.500   0.6252   0.19722   0.19234  -0.0151  0.0138  1.0000  -1.8803   0.0000   0.0000   0.0000   0.2563
  16.600   0.6279   0.19910   0.19421  -0.0150  0.0134  1.0000  -1.9337   0.0000   0.0000   0.0000   0.2559
  16.700   0.6223   0.20538   0.20044  -0.0153  0.0125  1.0000  -1.7632   0.0000   0.0000   0.0000   0.2566
  16.800   0.6245   0.20708   0.20214  -0.0160  0.0125  1.0000  -1.7522   0.0000   0.0000   0.0000   0.2576
  16.900   0.6267   0.20877   0.20383  -0.0168  0.0125  1.0000  -1.7416   0.0000   0.0000   0.0000   0.2585
  17.000   0.6289   0.21047   0.20553  -0.0175  0.0125  1.0000  -1.7313   0.0000   0.0000   0.0000   0.2595
  17.100   0.6311   0.21216   0.20722  -0.0182  0.0124  1.0000  -1.7212   0.0000   0.0000   0.0000   0.2604
  17.200   0.6333   0.21386   0.20892  -0.0190  0.0124  1.0000  -1.7115   0.0000   0.0000   0.0000   0.2614
  17.300   0.6356   0.21556   0.21062  -0.0197  0.0124  1.0000  -1.7021   0.0000   0.0000   0.0000   0.2623
  17.400   0.6378   0.21726   0.21232  -0.0204  0.0124  1.0000  -1.6930   0.0000   0.0000   0.0000   0.2632
  17.500   0.6401   0.21897   0.21403  -0.0211  0.0124  1.0000  -1.6842   0.0000   0.0000   0.0000   0.2641
  17.600   0.6424   0.22068   0.21573  -0.0218  0.0124  1.0000  -1.6756   0.0000   0.0000   0.0000   0.2650
  17.700   0.6446   0.22238   0.21744  -0.0226  0.0124  1.0000  -1.6672   0.0000   0.0000   0.0000   0.2658
  17.800   0.6469   0.22409   0.21915  -0.0233  0.0123  1.0000  -1.6590   0.0000   0.0000   0.0000   0.2667
  17.900   0.6492   0.22580   0.22086  -0.0240  0.0123  1.0000  -1.6511   0.0000   0.0000   0.0000   0.2675
  18.000   0.6515   0.22752   0.22257  -0.0247  0.0123  1.0000  -1.6434   0.0000   0.0000   0.0000   0.2684
  18.100   0.6537   0.22922   0.22428  -0.0254  0.0123  1.0000  -1.6358   0.0000   0.0000   0.0000   0.2692
  18.200   0.6560   0.23094   0.22599  -0.0261  0.0123  1.0000  -1.6284   0.0000   0.0000   0.0000   0.2700
  18.300   0.6583   0.23265   0.22771  -0.0268  0.0123  1.0000  -1.6212   0.0000   0.0000   0.0000   0.2708
  18.400   0.6605   0.23437   0.22943  -0.0275  0.0123  1.0000  -1.6142   0.0000   0.0000   0.0000   0.2716
  18.500   0.6628   0.23610   0.23116  -0.0282  0.0122  1.0000  -1.6073   0.0000   0.0000   0.0000   0.2724
  18.600   0.6650   0.23782   0.23288  -0.0289  0.0122  1.0000  -1.6005   0.0000   0.0000   0.0000   0.2732
  18.700   0.6673   0.23954   0.23460  -0.0296  0.0122  1.0000  -1.5938   0.0000   0.0000   0.0000   0.2740
  18.800   0.6695   0.24127   0.23633  -0.0303  0.0122  1.0000  -1.5874   0.0000   0.0000   0.0000   0.2748
  18.900   0.6718   0.24301   0.23807  -0.0310  0.0122  1.0000  -1.5810   0.0000   0.0000   0.0000   0.2755
  19.000   0.6740   0.24474   0.23980  -0.0317  0.0122  1.0000  -1.5745   0.0000   0.0000   0.0000   0.2763
  19.100   0.6762   0.24647   0.24153  -0.0324  0.0121  1.0000  -1.5683   0.0000   0.0000   0.0000   0.2770
  19.200   0.6784   0.24821   0.24328  -0.0331  0.0121  1.0000  -1.5621   0.0000   0.0000   0.0000   0.2778
  19.300   0.6806   0.24996   0.24502  -0.0338  0.0121  1.0000  -1.5561   0.0000   0.0000   0.0000   0.2785
  19.400   0.6828   0.25169   0.24676  -0.0345  0.0121  1.0000  -1.5495   0.0000   0.0000   0.0000   0.2792
  19.500   0.6849   0.25344   0.24850  -0.0352  0.0121  1.0000  -1.5431   0.0000   0.0000   0.0000   0.2800
  19.600   0.6871   0.25518   0.25025  -0.0359  0.0121  1.0000  -1.5369   0.0000   0.0000   0.0000   0.2807
  19.700   0.6892   0.25693   0.25200  -0.0366  0.0120  1.0000  -1.5302   0.0000   0.0000   0.0000   0.2814
  19.800   0.6912   0.25867   0.25375  -0.0373  0.0120  1.0000  -1.5227   0.0000   0.0000   0.0000   0.2822
  19.900   0.6933   0.26042   0.25550  -0.0380  0.0120  1.0000  -1.5155   0.0000   0.0000   0.0000   0.2829
  20.000   0.6954   0.26218   0.25726  -0.0388  0.0120  1.0000  -1.5084   0.0000   0.0000   0.0000   0.2837
  20.100   0.6974   0.26394   0.25902  -0.0395  0.0120  1.0000  -1.5016   0.0000   0.0000   0.0000   0.2844
  20.200   0.6995   0.26571   0.26079  -0.0402  0.0120  1.0000  -1.4949   0.0000   0.0000   0.0000   0.2851
  20.300   0.7015   0.26748   0.26257  -0.0409  0.0119  1.0000  -1.4884   0.0000   0.0000   0.0000   0.2858
  20.400   0.7036   0.26927   0.26435  -0.0416  0.0119  1.0000  -1.4821   0.0000   0.0000   0.0000   0.2865
  20.500   0.7056   0.27105   0.26614  -0.0423  0.0119  1.0000  -1.4759   0.0000   0.0000   0.0000   0.2871
  20.600   0.7076   0.27284   0.26793  -0.0429  0.0119  1.0000  -1.4698   0.0000   0.0000   0.0000   0.2878
  20.700   0.7096   0.27464   0.26973  -0.0436  0.0119  1.0000  -1.4639   0.0000   0.0000   0.0000   0.2884
  20.800   0.7117   0.27644   0.27154  -0.0443  0.0119  1.0000  -1.4582   0.0000   0.0000   0.0000   0.2891
  20.900   0.7136   0.27825   0.27335  -0.0450  0.0118  1.0000  -1.4525   0.0000   0.0000   0.0000   0.2897
  21.000   0.7156   0.28007   0.27517  -0.0456  0.0118  1.0000  -1.4470   0.0000   0.0000   0.0000   0.2903
  21.100   0.7176   0.28188   0.27699  -0.0463  0.0118  1.0000  -1.4416   0.0000   0.0000   0.0000   0.2910
  21.200   0.7195   0.28371   0.27881  -0.0470  0.0118  1.0000  -1.4363   0.0000   0.0000   0.0000   0.2916
  21.300   0.7215   0.28553   0.28064  -0.0476  0.0118  1.0000  -1.4311   0.0000   0.0000   0.0000   0.2922
  21.400   0.7234   0.28736   0.28248  -0.0483  0.0118  1.0000  -1.4260   0.0000   0.0000   0.0000   0.2928
  21.500   0.7252   0.28920   0.28431  -0.0489  0.0117  1.0000  -1.4209   0.0000   0.0000   0.0000   0.2933
  21.600   0.7271   0.29104   0.28616  -0.0495  0.0117  1.0000  -1.4160   0.0000   0.0000   0.0000   0.2939
  23.000   0.7520   0.33182   0.32699  -0.0537  0.0245  1.0000  -1.3607   0.0000   0.0000   0.0000   0.2963
  23.100   0.7520   0.33224   0.32742  -0.0545  0.0244  1.0000  -1.3506   0.0000   0.0000   0.0000   0.2972
  23.200   0.7520   0.33253   0.32771  -0.0554  0.0243  1.0000  -1.3406   0.0000   0.0000   0.0000   0.2981


