xflr5 v6.61

 Calculated polar for: NACA6409 9%

 1 1 Reynolds number fixed          Mach number fixed         

 xtrf =   1.000 (top)        1.000 (bottom)
 Mach =   0.000     Re =     0.688 e 6     Ncrit =   9.000

  alpha     CL        CD       CDp       Cm    Top Xtr Bot Xtr   Cpmin    Chinge    XCp    
 ------- -------- --------- --------- -------- ------- ------- -------- --------- ---------
 -10.000  -0.1852   0.11188   0.10980  -0.0610  0.9901  0.0146  -1.3063   0.0000   0.0000   0.0000  -0.0988
  -9.900  -0.1795   0.11024   0.10816  -0.0624  0.9897  0.0146  -1.3116   0.0000   0.0000   0.0000  -0.1178
  -9.800  -0.1737   0.10860   0.10651  -0.0639  0.9894  0.0146  -1.3173   0.0000   0.0000   0.0000  -0.1383
  -9.700  -0.1697   0.10711   0.10503  -0.0648  0.9881  0.0146  -1.3238   0.0000   0.0000   0.0000  -0.1528
  -9.600  -0.1652   0.10559   0.10350  -0.0658  0.9868  0.0146  -1.3309   0.0000   0.0000   0.0000  -0.1697
  -9.500  -0.1604   0.10401   0.10193  -0.0670  0.9856  0.0146  -1.3387   0.0000   0.0000   0.0000  -0.1894
  -9.400  -0.1553   0.10243   0.10034  -0.0683  0.9846  0.0146  -1.3469   0.0000   0.0000   0.0000  -0.2117
  -9.300  -0.1499   0.10086   0.09870  -0.0696  0.9835  0.0146  -1.3557   0.0000   0.0000   0.0000  -0.2371
  -9.200  -0.1449   0.09913   0.09696  -0.0709  0.9826  0.0145  -1.3697   0.0000   0.0000   0.0000  -0.2633
  -9.100  -0.1402   0.09724   0.09508  -0.0723  0.9817  0.0144  -1.3921   0.0000   0.0000   0.0000  -0.2901
  -9.000  -0.1414   0.09389   0.09172  -0.0736  0.9809  0.0134  -1.5002   0.0000   0.0000   0.0000  -0.2946
  -8.900  -0.1382   0.09171   0.08955  -0.0750  0.9800  0.0126  -1.5420   0.0000   0.0000   0.0000  -0.3175
  -8.800  -0.1333   0.08981   0.08765  -0.0767  0.9792  0.0120  -1.5744   0.0000   0.0000   0.0000  -0.3510
  -8.700  -0.1280   0.08791   0.08575  -0.0786  0.9785  0.0114  -1.6103   0.0000   0.0000   0.0000  -0.3905
  -8.600  -0.1223   0.08598   0.08381  -0.0806  0.9777  0.0110  -1.6516   0.0000   0.0000   0.0000  -0.4361
  -8.500  -0.1165   0.08399   0.08182  -0.0827  0.9770  0.0106  -1.6988   0.0000   0.0000   0.0000  -0.4882
  -8.400  -0.1106   0.08193   0.07976  -0.0849  0.9764  0.0102  -1.7519   0.0000   0.0000   0.0000  -0.5479
  -8.300  -0.1082   0.08025   0.07808  -0.0860  0.9737  0.0100  -1.8019   0.0000   0.0000   0.0000  -0.5760
  -8.200  -0.1051   0.07844   0.07628  -0.0875  0.9709  0.0098  -1.8568   0.0000   0.0000   0.0000  -0.6135
  -8.100  -0.1005   0.07639   0.07423  -0.0896  0.9686  0.0096  -1.9184   0.0000   0.0000   0.0000  -0.6737
  -8.000  -0.0950   0.07420   0.07204  -0.0921  0.9666  0.0095  -1.9838   0.0000   0.0000   0.0000  -0.7532
  -7.900  -0.0891   0.07192   0.06976  -0.0949  0.9646  0.0096  -2.0498   0.0000   0.0000   0.0000  -0.8512
  -7.800  -0.0829   0.06956   0.06739  -0.0980  0.9623  0.0098  -2.1144   0.0000   0.0000   0.0000  -0.9710
  -7.700  -0.0756   0.06699   0.06481  -0.1017  0.9601  0.0102  -2.1787   0.0000   0.0000   0.0000  -1.1378
  -7.600  -0.0661   0.06433   0.06214  -0.1061  0.9582  0.0111  -2.2457   0.0000   0.0000   0.0000  -1.4047
  -7.500  -0.0626   0.06278   0.06059  -0.1076  0.9538  0.0118  -2.2763   0.0000   0.0000   0.0000  -1.5194
  -7.400  -0.0574   0.06147   0.05927  -0.1091  0.9495  0.0124  -2.2739   0.0000   0.0000   0.0000  -1.7059
  -7.300  -0.0496   0.06034   0.05815  -0.1106  0.9462  0.0130  -2.2384   0.0000   0.0000   0.0000  -2.0446
  -7.200  -0.0398   0.05943   0.05723  -0.1123  0.9436  0.0135  -2.1740   0.0000   0.0000   0.0000  -2.6510
  -7.100  -0.0288   0.05875   0.05654  -0.1138  0.9413  0.0139  -2.0878   0.0000   0.0000   0.0000  -3.8084
  -7.000  -0.0169   0.05831   0.05610  -0.1151  0.9394  0.0143  -1.9827   0.0000   0.0000   0.0000  -6.7185
  -6.900  -0.0040   0.05828   0.05605  -0.1161  0.9376  0.0146  -1.8504   0.0000   0.0000   0.0000  -29.6810
  -6.800  -0.0067   0.05209   0.04984  -0.1244  0.9298  0.0163  -2.1537   0.0000   0.0000   0.0000  -18.8148
  -6.700  -0.0007   0.05183   0.04958  -0.1246  0.9265  0.0171  -2.0490   0.0000   0.0000   0.0000  -172.8751
  -6.600   0.0076   0.05245   0.05021  -0.1239  0.9239  0.0180  -1.8845   0.0000   0.0000   0.0000  16.9772
  -6.500   0.0168   0.05367   0.05144  -0.1223  0.9219  0.0192  -1.6843   0.0000   0.0000   0.0000   7.6765
  -6.400   0.0262   0.05421   0.05198  -0.1217  0.9193  0.0209  -1.5357   0.0000   0.0000   0.0000   4.9849
  -6.300   0.0501   0.05722   0.05499  -0.1216  0.9175  0.0292  -1.2968   0.0000   0.0000   0.0000   2.7279
  -6.200   0.0597   0.05599   0.05373  -0.1236  0.9137  0.0293  -1.2929   0.0000   0.0000   0.0000   2.3622
  -6.100   0.0696   0.05464   0.05234  -0.1257  0.9098  0.0294  -1.2927   0.0000   0.0000   0.0000   2.0905
  -6.000   0.0794   0.05326   0.05093  -0.1278  0.9057  0.0295  -1.2947   0.0000   0.0000   0.0000   1.8901
  -5.900   0.0856   0.05205   0.04972  -0.1289  0.9023  0.0295  -1.2998   0.0000   0.0000   0.0000   1.7822
  -5.800   0.0927   0.05078   0.04844  -0.1301  0.8984  0.0296  -1.3055   0.0000   0.0000   0.0000   1.6790
  -5.700   0.1006   0.04943   0.04707  -0.1316  0.8943  0.0296  -1.3118   0.0000   0.0000   0.0000   1.5801
  -5.600   0.1093   0.04802   0.04563  -0.1332  0.8903  0.0296  -1.3186   0.0000   0.0000   0.0000   1.4886
  -5.500   0.1186   0.04655   0.04413  -0.1349  0.8864  0.0297  -1.3264   0.0000   0.0000   0.0000   1.4054
  -5.400   0.1283   0.04505   0.04259  -0.1366  0.8827  0.0297  -1.3350   0.0000   0.0000   0.0000   1.3313
  -5.300   0.1384   0.04351   0.04100  -0.1384  0.8789  0.0297  -1.3448   0.0000   0.0000   0.0000   1.2649
  -5.200   0.1490   0.04193   0.03936  -0.1402  0.8747  0.0298  -1.3558   0.0000   0.0000   0.0000   1.2051
  -5.100   0.1584   0.04039   0.03779  -0.1417  0.8719  0.0298  -1.3684   0.0000   0.0000   0.0000   1.1573
  -5.000   0.1675   0.03884   0.03620  -0.1430  0.8693  0.0298  -1.3827   0.0000   0.0000   0.0000   1.1157
  -4.900   0.1712   0.02927   0.02635  -0.1502  0.8645  0.0259  -1.7902   0.0000   0.0000   0.0000   1.1387
  -4.800   0.1803   0.02186   0.01848  -0.1538  0.8605  0.0233  -2.1656   0.0000   0.0000   0.0000   1.1148
  -4.700   0.1881   0.01768   0.01384  -0.1548  0.8569  0.0219  -2.3918   0.0000   0.0000   0.0000   1.0841
  -4.600   0.1972   0.01572   0.01159  -0.1549  0.8535  0.0214  -2.4699   0.0000   0.0000   0.0000   1.0462
  -4.500   0.2071   0.01449   0.01015  -0.1549  0.8502  0.0210  -2.4950   0.0000   0.0000   0.0000   1.0083
  -4.400   0.2172   0.01347   0.00894  -0.1549  0.8468  0.0208  -2.5057   0.0000   0.0000   0.0000   0.9726
  -4.300   0.2275   0.01265   0.00794  -0.1548  0.8432  0.0206  -2.5027   0.0000   0.0000   0.0000   0.9392
  -4.200   0.2384   0.01218   0.00736  -0.1548  0.8392  0.0208  -2.4653   0.0000   0.0000   0.0000   0.9075
  -4.100   0.2493   0.01193   0.00705  -0.1548  0.8362  0.0211  -2.4066   0.0000   0.0000   0.0000   0.8785
  -4.000   0.2596   0.01173   0.00683  -0.1546  0.8343  0.0216  -2.3436   0.0000   0.0000   0.0000   0.8527
  -3.900   0.2700   0.01154   0.00661  -0.1545  0.8320  0.0222  -2.2811   0.0000   0.0000   0.0000   0.8288
  -3.800   0.2805   0.01132   0.00635  -0.1544  0.8294  0.0227  -2.2230   0.0000   0.0000   0.0000   0.8065
  -3.700   0.2911   0.01106   0.00604  -0.1542  0.8263  0.0232  -2.1710   0.0000   0.0000   0.0000   0.7858
  -3.600   0.3016   0.01075   0.00567  -0.1541  0.8230  0.0236  -2.1258   0.0000   0.0000   0.0000   0.7664
  -3.500   0.3122   0.01041   0.00525  -0.1539  0.8196  0.0239  -2.0871   0.0000   0.0000   0.0000   0.7482
  -3.400   0.3228   0.01004   0.00480  -0.1537  0.8159  0.0241  -2.0543   0.0000   0.0000   0.0000   0.7312
  -3.300   0.3334   0.00966   0.00432  -0.1535  0.8121  0.0242  -2.0266   0.0000   0.0000   0.0000   0.7151
  -3.200   0.3439   0.00929   0.00384  -0.1533  0.8081  0.0243  -2.0042   0.0000   0.0000   0.0000   0.7001
  -3.100   0.3544   0.00895   0.00339  -0.1531  0.8037  0.0246  -1.9851   0.0000   0.0000   0.0000   0.6859
  -2.900   0.3761   0.00843   0.00279  -0.1527  0.7955  0.0401  -1.9878   0.0000   0.0000   0.0000   0.6596
  -2.800   0.3868   0.00840   0.00277  -0.1526  0.7935  0.0418  -1.9163   0.0000   0.0000   0.0000   0.6478
  -2.700   0.3976   0.00835   0.00271  -0.1525  0.7909  0.0432  -1.8477   0.0000   0.0000   0.0000   0.6367
  -2.600   0.4083   0.00828   0.00262  -0.1524  0.7878  0.0443  -1.7812   0.0000   0.0000   0.0000   0.6261
  -2.500   0.4190   0.00820   0.00252  -0.1523  0.7842  0.0453  -1.7163   0.0000   0.0000   0.0000   0.6160
  -2.400   0.4297   0.00811   0.00239  -0.1521  0.7803  0.0462  -1.6527   0.0000   0.0000   0.0000   0.6064
  -2.300   0.4404   0.00801   0.00225  -0.1520  0.7762  0.0474  -1.5903   0.0000   0.0000   0.0000   0.5973
  -2.200   0.4510   0.00784   0.00196  -0.1517  0.7718  0.0490  -1.5236   0.0000   0.0000   0.0000   0.5885
  -2.100   0.4617   0.00787   0.00195  -0.1516  0.7670  0.0500  -1.4559   0.0000   0.0000   0.0000   0.5802
  -2.000   0.4720   0.00777   0.00182  -0.1514  0.7616  0.0590  -1.4003   0.0000   0.0000   0.0000   0.5724
  -1.900   0.4825   0.00774   0.00180  -0.1513  0.7557  0.0645  -1.3373   0.0000   0.0000   0.0000   0.5650
  -1.800   0.4934   0.00772   0.00178  -0.1512  0.7517  0.0689  -1.2734   0.0000   0.0000   0.0000   0.5578
  -1.700   0.5042   0.00769   0.00175  -0.1511  0.7494  0.0721  -1.2099   0.0000   0.0000   0.0000   0.5509
  -1.600   0.5150   0.00767   0.00173  -0.1510  0.7465  0.0739  -1.1468   0.0000   0.0000   0.0000   0.5443
  -1.500   0.5257   0.00765   0.00170  -0.1509  0.7429  0.0775  -1.0858   0.0000   0.0000   0.0000   0.5380
  -1.400   0.5364   0.00760   0.00166  -0.1508  0.7388  0.0860  -1.0267   0.0000   0.0000   0.0000   0.5319
  -1.300   0.5470   0.00757   0.00164  -0.1507  0.7342  0.0922  -0.9672   0.0000   0.0000   0.0000   0.5261
  -1.200   0.5575   0.00756   0.00163  -0.1505  0.7292  0.0973  -0.9084   0.0000   0.0000   0.0000   0.5205
  -1.100   0.5679   0.00757   0.00160  -0.1503  0.7236  0.1011  -0.8508   0.0000   0.0000   0.0000   0.5151
  -1.000   0.5780   0.00759   0.00158  -0.1501  0.7171  0.1033  -0.7979   0.0000   0.0000   0.0000   0.5099
  -0.900   0.5880   0.00760   0.00157  -0.1499  0.7095  0.1126  -0.8047   0.0000   0.0000   0.0000   0.5049
  -0.800   0.5986   0.00758   0.00157  -0.1498  0.7048  0.1218  -0.8118   0.0000   0.0000   0.0000   0.5001
  -0.700   0.6093   0.00755   0.00156  -0.1497  0.7018  0.1297  -0.8201   0.0000   0.0000   0.0000   0.4955
  -0.600   0.6200   0.00754   0.00156  -0.1496  0.6978  0.1353  -0.8283   0.0000   0.0000   0.0000   0.4909
  -0.500   0.6306   0.00752   0.00155  -0.1495  0.6929  0.1469  -0.8365   0.0000   0.0000   0.0000   0.4866
  -0.400   0.6409   0.00750   0.00157  -0.1493  0.6874  0.1603  -0.8446   0.0000   0.0000   0.0000   0.4824
  -0.300   0.6512   0.00750   0.00157  -0.1491  0.6816  0.1698  -0.8526   0.0000   0.0000   0.0000   0.4783
  -0.200   0.6613   0.00752   0.00157  -0.1489  0.6754  0.1808  -0.8606   0.0000   0.0000   0.0000   0.4744
  -0.100   0.6710   0.00753   0.00159  -0.1486  0.6686  0.1968  -0.8683   0.0000   0.0000   0.0000   0.4706
   0.000   0.6808   0.00756   0.00160  -0.1483  0.6607  0.2080  -0.8761   0.0000   0.0000   0.0000   0.4669
   0.100   0.6914   0.00756   0.00161  -0.1482  0.6560  0.2186  -0.8842   0.0000   0.0000   0.0000   0.4633
   0.200   0.7021   0.00753   0.00163  -0.1482  0.6534  0.2359  -0.8925   0.0000   0.0000   0.0000   0.4598
   0.300   0.7128   0.00751   0.00164  -0.1481  0.6500  0.2480  -0.9008   0.0000   0.0000   0.0000   0.4564
   0.500   0.7338   0.00750   0.00167  -0.1479  0.6411  0.2761  -0.9172   0.0000   0.0000   0.0000   0.4499
   0.600   0.7440   0.00751   0.00168  -0.1477  0.6358  0.2913  -0.9252   0.0000   0.0000   0.0000   0.4468
   0.700   0.7540   0.00753   0.00170  -0.1475  0.6301  0.3059  -0.9332   0.0000   0.0000   0.0000   0.4438
   0.800   0.7636   0.00753   0.00172  -0.1472  0.6238  0.3294  -0.9409   0.0000   0.0000   0.0000   0.4408
   1.000   0.7827   0.00755   0.00179  -0.1466  0.6082  0.3867  -0.9561   0.0000   0.0000   0.0000   0.4352
   1.100   0.7919   0.00728   0.00187  -0.1464  0.6050  0.5348  -0.9635   0.0000   0.0000   0.0000   0.4327
   1.300   0.8193   0.00646   0.00199  -0.1476  0.5996  1.0000  -0.9839   0.0000   0.0000   0.0000   0.4277
   1.400   0.8298   0.00650   0.00201  -0.1475  0.5958  1.0000  -0.9921   0.0000   0.0000   0.0000   0.4251
   1.500   0.8401   0.00655   0.00203  -0.1473  0.5912  1.0000  -1.0003   0.0000   0.0000   0.0000   0.4227
   1.600   0.8503   0.00661   0.00209  -0.1471  0.5862  1.0000  -1.0096   0.0000   0.0000   0.0000   0.4202
   1.700   0.8601   0.00668   0.00211  -0.1468  0.5807  1.0000  -1.0188   0.0000   0.0000   0.0000   0.4178
   1.800   0.8697   0.00676   0.00214  -0.1465  0.5746  1.0000  -1.0278   0.0000   0.0000   0.0000   0.4155
   1.900   0.8791   0.00685   0.00217  -0.1462  0.5676  1.0000  -1.0366   0.0000   0.0000   0.0000   0.4132
   2.000   0.8888   0.00694   0.00221  -0.1459  0.5601  1.0000  -1.0455   0.0000   0.0000   0.0000   0.4109
   2.100   0.8989   0.00702   0.00225  -0.1457  0.5539  1.0000  -1.0547   0.0000   0.0000   0.0000   0.4088
   2.200   0.9098   0.00705   0.00227  -0.1456  0.5528  1.0000  -1.0645   0.0000   0.0000   0.0000   0.4067
   2.300   0.9206   0.00708   0.00230  -0.1456  0.5514  1.0000  -1.0742   0.0000   0.0000   0.0000   0.4046
   2.400   0.9313   0.00711   0.00233  -0.1455  0.5497  1.0000  -1.0840   0.0000   0.0000   0.0000   0.4026
   2.500   0.9419   0.00715   0.00236  -0.1454  0.5476  1.0000  -1.0937   0.0000   0.0000   0.0000   0.4006
   2.600   0.9525   0.00719   0.00239  -0.1453  0.5453  1.0000  -1.1033   0.0000   0.0000   0.0000   0.3987
   2.700   0.9630   0.00723   0.00242  -0.1452  0.5428  1.0000  -1.1129   0.0000   0.0000   0.0000   0.3968
   2.800   0.9734   0.00728   0.00246  -0.1451  0.5400  1.0000  -1.1225   0.0000   0.0000   0.0000   0.3950
   2.900   0.9837   0.00734   0.00250  -0.1449  0.5371  1.0000  -1.1320   0.0000   0.0000   0.0000   0.3931
   3.000   0.9940   0.00740   0.00254  -0.1448  0.5341  1.0000  -1.1415   0.0000   0.0000   0.0000   0.3913
   3.100   1.0040   0.00746   0.00258  -0.1446  0.5309  1.0000  -1.1509   0.0000   0.0000   0.0000   0.3896
   3.200   1.0139   0.00754   0.00263  -0.1444  0.5273  1.0000  -1.1601   0.0000   0.0000   0.0000   0.3878
   3.300   1.0236   0.00762   0.00268  -0.1441  0.5232  1.0000  -1.1694   0.0000   0.0000   0.0000   0.3861
   3.400   1.0333   0.00771   0.00273  -0.1438  0.5184  1.0000  -1.1799   0.0000   0.0000   0.0000   0.3844
   3.500   1.0429   0.00780   0.00279  -0.1436  0.5132  1.0000  -1.1904   0.0000   0.0000   0.0000   0.3828
   3.600   1.0529   0.00790   0.00286  -0.1434  0.5080  1.0000  -1.2011   0.0000   0.0000   0.0000   0.3812
   3.700   1.0631   0.00799   0.00293  -0.1432  0.5033  1.0000  -1.2119   0.0000   0.0000   0.0000   0.3796
   3.800   1.0736   0.00805   0.00299  -0.1431  0.5010  1.0000  -1.2231   0.0000   0.0000   0.0000   0.3781
   3.900   1.0843   0.00808   0.00303  -0.1431  0.5004  1.0000  -1.2344   0.0000   0.0000   0.0000   0.3766
   4.000   1.0949   0.00811   0.00308  -0.1430  0.4997  1.0000  -1.2458   0.0000   0.0000   0.0000   0.3751
   4.100   1.1054   0.00814   0.00312  -0.1429  0.4986  1.0000  -1.2572   0.0000   0.0000   0.0000   0.3737
   4.200   1.1159   0.00817   0.00316  -0.1428  0.4971  1.0000  -1.2686   0.0000   0.0000   0.0000   0.3722
   4.300   1.1264   0.00820   0.00320  -0.1427  0.4950  1.0000  -1.2899   0.0000   0.0000   0.0000   0.3708
   4.400   1.1366   0.00823   0.00324  -0.1425  0.4917  1.0000  -1.3354   0.0000   0.0000   0.0000   0.3694
   4.500   1.1464   0.00829   0.00328  -0.1423  0.4869  1.0000  -1.3806   0.0000   0.0000   0.0000   0.3680
   4.600   1.1557   0.00837   0.00332  -0.1419  0.4808  1.0000  -1.4250   0.0000   0.0000   0.0000   0.3666
   4.700   1.1642   0.00849   0.00338  -0.1414  0.4732  1.0000  -1.4682   0.0000   0.0000   0.0000   0.3652
   4.800   1.1723   0.00863   0.00346  -0.1409  0.4638  1.0000  -1.5107   0.0000   0.0000   0.0000   0.3637
   4.900   1.1808   0.00878   0.00355  -0.1404  0.4541  1.0000  -1.5671   0.0000   0.0000   0.0000   0.3623
   5.000   1.1904   0.00887   0.00362  -0.1402  0.4480  1.0000  -1.6374   0.0000   0.0000   0.0000   0.3610
   5.100   1.2009   0.00889   0.00367  -0.1401  0.4469  1.0000  -1.7119   0.0000   0.0000   0.0000   0.3598
   5.200   1.2114   0.00892   0.00371  -0.1400  0.4455  1.0000  -1.7872   0.0000   0.0000   0.0000   0.3586
   5.300   1.2218   0.00895   0.00376  -0.1399  0.4430  1.0000  -1.8631   0.0000   0.0000   0.0000   0.3574
   5.400   1.2324   0.00906   0.00406  -0.1398  0.4471  1.0000  -1.9639   0.0000   0.0000   0.0000   0.3562
   5.500   1.2427   0.00907   0.00409  -0.1397  0.4443  1.0000  -2.0460   0.0000   0.0000   0.0000   0.3550
   5.600   1.2529   0.00910   0.00414  -0.1395  0.4408  1.0000  -2.1267   0.0000   0.0000   0.0000   0.3538
   5.700   1.2628   0.00916   0.00420  -0.1393  0.4370  1.0000  -2.2069   0.0000   0.0000   0.0000   0.3527
   5.800   1.2726   0.00923   0.00427  -0.1391  0.4326  1.0000  -2.2867   0.0000   0.0000   0.0000   0.3515
   5.900   1.2820   0.00931   0.00434  -0.1388  0.4279  1.0000  -2.3663   0.0000   0.0000   0.0000   0.3504
   6.000   1.2911   0.00941   0.00442  -0.1385  0.4225  1.0000  -2.4452   0.0000   0.0000   0.0000   0.3492
   6.100   1.2997   0.00953   0.00451  -0.1380  0.4164  1.0000  -2.5229   0.0000   0.0000   0.0000   0.3480
   6.200   1.3079   0.00966   0.00461  -0.1375  0.4092  1.0000  -2.5997   0.0000   0.0000   0.0000   0.3468
   6.300   1.3161   0.00980   0.00471  -0.1370  0.4010  1.0000  -2.6773   0.0000   0.0000   0.0000   0.3456
   6.400   1.3253   0.00990   0.00481  -0.1367  0.3953  1.0000  -2.7592   0.0000   0.0000   0.0000   0.3445
   6.500   1.3353   0.00995   0.00488  -0.1365  0.3932  1.0000  -2.8457   0.0000   0.0000   0.0000   0.3435
   6.600   1.3451   0.01001   0.00496  -0.1363  0.3896  1.0000  -2.9320   0.0000   0.0000   0.0000   0.3424
   6.700   1.3544   0.01010   0.00505  -0.1360  0.3838  1.0000  -3.0171   0.0000   0.0000   0.0000   0.3414
   6.800   1.3626   0.01023   0.00515  -0.1355  0.3741  1.0000  -3.0987   0.0000   0.0000   0.0000   0.3403
   6.900   1.3689   0.01046   0.00529  -0.1347  0.3603  1.0000  -3.1731   0.0000   0.0000   0.0000   0.3391
   7.000   1.3749   0.01070   0.00544  -0.1338  0.3434  1.0000  -3.2461   0.0000   0.0000   0.0000   0.3378
   7.100   1.3831   0.01084   0.00556  -0.1333  0.3347  1.0000  -3.3295   0.0000   0.0000   0.0000   0.3368
   7.200   1.3885   0.01113   0.00574  -0.1323  0.3163  1.0000  -3.4014   0.0000   0.0000   0.0000   0.3355
   7.300   1.3919   0.01153   0.00598  -0.1310  0.2905  1.0000  -3.4648   0.0000   0.0000   0.0000   0.3342
   7.400   1.3942   0.01200   0.00628  -0.1295  0.2626  1.0000  -3.5237   0.0000   0.0000   0.0000   0.3329
   7.600   1.3930   0.01321   0.00704  -0.1256  0.1938  1.0000  -3.6161   0.0000   0.0000   0.0000   0.3299
   7.700   1.3912   0.01389   0.00750  -0.1234  0.1610  1.0000  -3.6562   0.0000   0.0000   0.0000   0.3283
   7.800   1.3911   0.01445   0.00789  -0.1216  0.1355  1.0000  -3.7047   0.0000   0.0000   0.0000   0.3269
   7.900   1.3913   0.01501   0.00830  -0.1198  0.1110  1.0000  -3.7538   0.0000   0.0000   0.0000   0.3255
   8.100   1.3932   0.01603   0.00908  -0.1166  0.0759  1.0000  -3.8597   0.0000   0.0000   0.0000   0.3227
   8.200   1.3944   0.01652   0.00946  -0.1150  0.0611  1.0000  -3.9137   0.0000   0.0000   0.0000   0.3214
   8.300   1.3988   0.01683   0.00974  -0.1140  0.0544  1.0000  -3.9829   0.0000   0.0000   0.0000   0.3203
   8.400   1.4018   0.01723   0.01008  -0.1127  0.0485  1.0000  -4.0457   0.0000   0.0000   0.0000   0.3190
   8.500   1.4048   0.01762   0.01042  -0.1115  0.0404  1.0000  -4.1064   0.0000   0.0000   0.0000   0.3178
   8.600   1.4103   0.01788   0.01068  -0.1106  0.0364  1.0000  -4.1797   0.0000   0.0000   0.0000   0.3168
   8.700   1.4161   0.01811   0.01092  -0.1099  0.0347  1.0000  -4.2588   0.0000   0.0000   0.0000   0.3158
   8.800   1.4211   0.01840   0.01120  -0.1090  0.0324  1.0000  -4.3331   0.0000   0.0000   0.0000   0.3147
   8.900   1.4250   0.01875   0.01152  -0.1079  0.0297  1.0000  -4.4015   0.0000   0.0000   0.0000   0.3136
   9.000   1.4280   0.01914   0.01188  -0.1068  0.0265  1.0000  -4.4632   0.0000   0.0000   0.0000   0.3125
   9.100   1.4295   0.01964   0.01239  -0.1053  0.0213  1.0000  -4.5002   0.0000   0.0000   0.0000   0.3112
   9.200   1.4351   0.01988   0.01264  -0.1046  0.0192  1.0000  -4.5757   0.0000   0.0000   0.0000   0.3103
   9.300   1.4228   0.02131   0.01410  -0.1010  0.0105  1.0000  -4.3872   0.0000   0.0000   0.0000   0.3082
   9.400   1.4248   0.02181   0.01467  -0.0997  0.0102  1.0000  -4.4224   0.0000   0.0000   0.0000   0.3071
   9.500   1.4266   0.02232   0.01524  -0.0985  0.0100  1.0000  -4.4600   0.0000   0.0000   0.0000   0.3059
   9.600   1.4286   0.02284   0.01581  -0.0972  0.0098  1.0000  -4.5000   0.0000   0.0000   0.0000   0.3048
   9.700   1.4306   0.02337   0.01639  -0.0961  0.0097  1.0000  -4.5416   0.0000   0.0000   0.0000   0.3038
   9.800   1.4326   0.02391   0.01699  -0.0949  0.0097  1.0000  -4.5839   0.0000   0.0000   0.0000   0.3027
   9.900   1.4340   0.02448   0.01761  -0.0938  0.0096  1.0000  -4.6248   0.0000   0.0000   0.0000   0.3017
  10.000   1.4340   0.02514   0.01849  -0.0923  0.0112  1.0000  -4.6086   0.0000   0.0000   0.0000   0.3005
  10.100   1.4342   0.02579   0.01921  -0.0910  0.0115  1.0000  -4.6331   0.0000   0.0000   0.0000   0.2994
  10.200   1.4349   0.02645   0.01992  -0.0898  0.0115  1.0000  -4.6651   0.0000   0.0000   0.0000   0.2984
  10.300   1.4359   0.02711   0.02064  -0.0887  0.0116  1.0000  -4.7009   0.0000   0.0000   0.0000   0.2974
  10.400   1.4363   0.02782   0.02140  -0.0876  0.0116  1.0000  -4.7370   0.0000   0.0000   0.0000   0.2964
  10.500   1.4365   0.02856   0.02219  -0.0865  0.0115  1.0000  -4.7735   0.0000   0.0000   0.0000   0.2955
  10.600   1.4372   0.02929   0.02297  -0.0855  0.0115  1.0000  -4.8128   0.0000   0.0000   0.0000   0.2946
  10.700   1.4381   0.03002   0.02375  -0.0845  0.0114  1.0000  -4.8543   0.0000   0.0000   0.0000   0.2937
  10.800   1.4392   0.03076   0.02453  -0.0836  0.0113  1.0000  -4.8968   0.0000   0.0000   0.0000   0.2928
  10.900   1.4402   0.03152   0.02534  -0.0827  0.0112  1.0000  -4.9393   0.0000   0.0000   0.0000   0.2920
  11.000   1.4402   0.03236   0.02622  -0.0818  0.0112  1.0000  -4.9780   0.0000   0.0000   0.0000   0.2912
  11.100   1.4403   0.03321   0.02711  -0.0809  0.0111  1.0000  -5.0169   0.0000   0.0000   0.0000   0.2903
  11.200   1.4408   0.03404   0.02799  -0.0800  0.0110  1.0000  -5.0570   0.0000   0.0000   0.0000   0.2896
  11.300   1.4415   0.03487   0.02887  -0.0792  0.0110  1.0000  -5.0968   0.0000   0.0000   0.0000   0.2888
  11.400   1.4421   0.03572   0.02976  -0.0784  0.0110  1.0000  -5.1351   0.0000   0.0000   0.0000   0.2880
  11.500   1.4426   0.03659   0.03068  -0.0776  0.0110  1.0000  -5.1709   0.0000   0.0000   0.0000   0.2872
  11.600   1.4422   0.03754   0.03168  -0.0767  0.0110  1.0000  -5.2028   0.0000   0.0000   0.0000   0.2865
  11.700   1.4417   0.03851   0.03271  -0.0759  0.0110  1.0000  -5.2335   0.0000   0.0000   0.0000   0.2858
  11.800   1.4417   0.03945   0.03370  -0.0752  0.0110  1.0000  -5.2659   0.0000   0.0000   0.0000   0.2851
  11.900   1.4420   0.04036   0.03466  -0.0744  0.0111  1.0000  -5.2995   0.0000   0.0000   0.0000   0.2844
  12.000   1.4425   0.04126   0.03561  -0.0737  0.0111  1.0000  -5.3336   0.0000   0.0000   0.0000   0.2836
  12.100   1.4429   0.04214   0.03654  -0.0729  0.0111  1.0000  -5.3668   0.0000   0.0000   0.0000   0.2829
  12.200   1.4433   0.04301   0.03746  -0.0722  0.0111  1.0000  -5.3999   0.0000   0.0000   0.0000   0.2822
  12.300   1.4440   0.04390   0.03840  -0.0715  0.0111  1.0000  -5.4335   0.0000   0.0000   0.0000   0.2815
  12.400   1.4444   0.04484   0.03940  -0.0708  0.0111  1.0000  -5.4658   0.0000   0.0000   0.0000   0.2808
  12.500   1.4446   0.04584   0.04046  -0.0702  0.0111  1.0000  -5.4971   0.0000   0.0000   0.0000   0.2802
  12.600   1.4452   0.04684   0.04151  -0.0696  0.0111  1.0000  -5.5294   0.0000   0.0000   0.0000   0.2796
  12.700   1.4462   0.04783   0.04255  -0.0690  0.0111  1.0000  -5.5633   0.0000   0.0000   0.0000   0.2790
  12.800   1.4474   0.04880   0.04358  -0.0684  0.0111  1.0000  -5.5983   0.0000   0.0000   0.0000   0.2783
  12.900   1.4489   0.04979   0.04462  -0.0678  0.0111  1.0000  -5.6342   0.0000   0.0000   0.0000   0.2777
  13.000   1.4505   0.05078   0.04566  -0.0673  0.0111  1.0000  -5.6705   0.0000   0.0000   0.0000   0.2771
  13.100   1.4521   0.05178   0.04672  -0.0668  0.0111  1.0000  -5.7073   0.0000   0.0000   0.0000   0.2765
  13.200   1.4537   0.05280   0.04780  -0.0663  0.0111  1.0000  -5.7442   0.0000   0.0000   0.0000   0.2759
  13.300   1.4552   0.05384   0.04890  -0.0658  0.0111  1.0000  -5.7813   0.0000   0.0000   0.0000   0.2754
  13.400   1.4567   0.05490   0.05001  -0.0654  0.0111  1.0000  -5.8184   0.0000   0.0000   0.0000   0.2748
  13.500   1.4579   0.05598   0.05115  -0.0649  0.0111  1.0000  -5.8555   0.0000   0.0000   0.0000   0.2743
  13.600   1.4590   0.05708   0.05231  -0.0646  0.0110  1.0000  -5.8925   0.0000   0.0000   0.0000   0.2738
  13.700   1.4598   0.05823   0.05351  -0.0642  0.0110  1.0000  -5.9287   0.0000   0.0000   0.0000   0.2733
  13.800   1.4597   0.05947   0.05482  -0.0639  0.0110  1.0000  -5.9609   0.0000   0.0000   0.0000   0.2729
  13.900   1.4592   0.06077   0.05617  -0.0636  0.0109  1.0000  -5.9919   0.0000   0.0000   0.0000   0.2726
  14.000   1.4588   0.06206   0.05752  -0.0634  0.0109  1.0000  -6.0242   0.0000   0.0000   0.0000   0.2722
  14.100   1.4585   0.06333   0.05884  -0.0632  0.0108  1.0000  -6.0580   0.0000   0.0000   0.0000   0.2719
  14.200   1.4583   0.06460   0.06016  -0.0630  0.0108  1.0000  -6.0930   0.0000   0.0000   0.0000   0.2715
  14.300   1.4579   0.06587   0.06149  -0.0628  0.0107  1.0000  -6.1286   0.0000   0.0000   0.0000   0.2712
  14.400   1.4575   0.06714   0.06282  -0.0627  0.0106  1.0000  -6.1645   0.0000   0.0000   0.0000   0.2710
  14.500   1.4570   0.06844   0.06416  -0.0626  0.0106  1.0000  -6.2005   0.0000   0.0000   0.0000   0.2707
  14.600   1.4562   0.06976   0.06553  -0.0625  0.0105  1.0000  -6.2359   0.0000   0.0000   0.0000   0.2705
  14.700   1.4542   0.07124   0.06706  -0.0626  0.0104  1.0000  -6.2637   0.0000   0.0000   0.0000   0.2704
  14.800   1.4516   0.07279   0.06867  -0.0627  0.0104  1.0000  -6.2878   0.0000   0.0000   0.0000   0.2703
  14.900   1.4496   0.07427   0.07021  -0.0628  0.0103  1.0000  -6.3159   0.0000   0.0000   0.0000   0.2702
  15.000   1.4479   0.07572   0.07170  -0.0629  0.0102  1.0000  -6.3467   0.0000   0.0000   0.0000   0.2701
  15.100   1.4464   0.07715   0.07318  -0.0630  0.0101  1.0000  -6.3897   0.0000   0.0000   0.0000   0.2701
  15.200   1.4447   0.07859   0.07467  -0.0632  0.0101  1.0000  -6.4391   0.0000   0.0000   0.0000   0.2700
  15.300   1.4429   0.08006   0.07619  -0.0634  0.0100  1.0000  -6.4862   0.0000   0.0000   0.0000   0.2700
  15.400   1.4404   0.08161   0.07779  -0.0637  0.0099  1.0000  -6.5272   0.0000   0.0000   0.0000   0.2700
  15.500   1.4363   0.08343   0.07967  -0.0641  0.0098  1.0000  -6.5519   0.0000   0.0000   0.0000   0.2703
  15.600   1.4327   0.08518   0.08147  -0.0646  0.0098  1.0000  -6.5810   0.0000   0.0000   0.0000   0.2705
  15.700   1.4297   0.08683   0.08317  -0.0650  0.0097  1.0000  -6.6139   0.0000   0.0000   0.0000   0.2706
  15.800   1.4266   0.08837   0.08477  -0.0654  0.0096  1.0000  -6.6457   0.0000   0.0000   0.0000   0.2708
  15.900   1.4233   0.08989   0.08634  -0.0658  0.0095  1.0000  -6.6747   0.0000   0.0000   0.0000   0.2710
  16.000   1.4199   0.09148   0.08798  -0.0663  0.0094  1.0000  -6.7007   0.0000   0.0000   0.0000   0.2713
  16.100   1.4156   0.09326   0.08982  -0.0670  0.0094  1.0000  -6.7169   0.0000   0.0000   0.0000   0.2716
  16.200   1.4098   0.09534   0.09196  -0.0679  0.0093  1.0000  -6.7178   0.0000   0.0000   0.0000   0.2722
  16.300   1.4050   0.09730   0.09398  -0.0687  0.0093  1.0000  -6.7263   0.0000   0.0000   0.0000   0.2728
  16.400   1.4006   0.09924   0.09597  -0.0695  0.0092  1.0000  -6.7370   0.0000   0.0000   0.0000   0.2733
  16.500   1.3962   0.10123   0.09803  -0.0703  0.0092  1.0000  -6.7461   0.0000   0.0000   0.0000   0.2738
  16.600   1.3915   0.10331   0.10017  -0.0712  0.0091  1.0000  -6.7509   0.0000   0.0000   0.0000   0.2744
  16.700   1.3863   0.10554   0.10247  -0.0722  0.0090  1.0000  -6.7485   0.0000   0.0000   0.0000   0.2751
  16.800   1.3793   0.10817   0.10515  -0.0736  0.0090  1.0000  -6.7286   0.0000   0.0000   0.0000   0.2762
  16.900   1.3735   0.11066   0.10770  -0.0748  0.0090  1.0000  -6.7168   0.0000   0.0000   0.0000   0.2771
  17.000   1.3681   0.11311   0.11021  -0.0760  0.0089  1.0000  -6.7073   0.0000   0.0000   0.0000   0.2780
  17.100   1.3626   0.11560   0.11277  -0.0773  0.0089  1.0000  -6.6955   0.0000   0.0000   0.0000   0.2789
  17.200   1.3569   0.11819   0.11542  -0.0786  0.0088  1.0000  -6.6797   0.0000   0.0000   0.0000   0.2799
  17.300   1.3506   0.12100   0.11829  -0.0801  0.0088  1.0000  -6.6553   0.0000   0.0000   0.0000   0.2811
  17.400   1.3433   0.12415   0.12150  -0.0819  0.0088  1.0000  -6.6207   0.0000   0.0000   0.0000   0.2826
  17.500   1.3371   0.12710   0.12452  -0.0836  0.0088  1.0000  -6.5935   0.0000   0.0000   0.0000   0.2839
  17.600   1.3312   0.13003   0.12751  -0.0852  0.0088  1.0000  -6.5667   0.0000   0.0000   0.0000   0.2852
  17.700   1.3252   0.13304   0.13057  -0.0868  0.0087  1.0000  -6.5371   0.0000   0.0000   0.0000   0.2865
  17.800   1.3191   0.13620   0.13379  -0.0886  0.0087  1.0000  -6.5033   0.0000   0.0000   0.0000   0.2880
  17.900   1.3117   0.13984   0.13749  -0.0907  0.0088  1.0000  -6.4550   0.0000   0.0000   0.0000   0.2899
  18.000   1.3051   0.14329   0.14099  -0.0927  0.0088  1.0000  -6.4124   0.0000   0.0000   0.0000   0.2916
  18.100   1.2990   0.14669   0.14445  -0.0946  0.0088  1.0000  -6.3711   0.0000   0.0000   0.0000   0.2932
  18.200   1.2929   0.15021   0.14802  -0.0966  0.0087  1.0000  -6.3270   0.0000   0.0000   0.0000   0.2949
  18.300   1.2861   0.15407   0.15194  -0.0988  0.0088  1.0000  -6.2713   0.0000   0.0000   0.0000   0.2969
  18.400   1.2788   0.15819   0.15611  -0.1012  0.0088  1.0000  -6.2066   0.0000   0.0000   0.0000   0.2990
  18.500   1.2724   0.16211   0.16008  -0.1034  0.0089  1.0000  -6.1472   0.0000   0.0000   0.0000   0.3010
  18.600   1.2659   0.16617   0.16420  -0.1056  0.0089  1.0000  -6.0832   0.0000   0.0000   0.0000   0.3030
  18.700   1.2575   0.17113   0.16922  -0.1083  0.0090  1.0000  -5.9822   0.0000   0.0000   0.0000   0.3057
  18.800   1.2484   0.17646   0.17461  -0.1112  0.0092  1.0000  -5.8588   0.0000   0.0000   0.0000   0.3086
  20.000   1.1043   0.27425   0.27259  -0.1451  0.0121  1.0000  -2.6324   0.0000   0.0000   0.0000   0.3530
  20.700   1.0911   0.28823   0.28659  -0.1498  0.0072  1.0000  -2.8831   0.0000   0.0000   0.0000   0.3573
  20.800   1.0934   0.28907   0.28743  -0.1502  0.0071  1.0000  -2.9742   0.0000   0.0000   0.0000   0.3572
  20.900   1.0950   0.29008   0.28845  -0.1506  0.0070  1.0000  -3.0534   0.0000   0.0000   0.0000   0.3571
  21.000   1.0960   0.29121   0.28958  -0.1510  0.0068  1.0000  -3.1238   0.0000   0.0000   0.0000   0.3571
  21.100   1.0965   0.29242   0.29080  -0.1514  0.0067  1.0000  -3.1867   0.0000   0.0000   0.0000   0.3572
  21.200   1.0964   0.29370   0.29209  -0.1518  0.0065  1.0000  -3.2419   0.0000   0.0000   0.0000   0.3573
  21.300   1.0955   0.29503   0.29343  -0.1521  0.0063  1.0000  -3.2881   0.0000   0.0000   0.0000   0.3575
  21.400   1.0937   0.29640   0.29481  -0.1524  0.0061  1.0000  -3.3220   0.0000   0.0000   0.0000   0.3578
  21.500   1.0319   0.28900   0.28749  -0.1477  0.0061  1.0000  -2.9978   0.0000   0.0000   0.0000   0.3623
  21.600   1.0266   0.28921   0.28771  -0.1477  0.0058  1.0000  -2.9988   0.0000   0.0000   0.0000   0.3629
  21.700   1.0211   0.28961   0.28812  -0.1478  0.0054  1.0000  -2.9797   0.0000   0.0000   0.0000   0.3636
  21.800   1.0138   0.29030   0.28882  -0.1478  0.0049  1.0000  -2.9115   0.0000   0.0000   0.0000   0.3646
  21.900   1.0032   0.29145   0.28998  -0.1478  0.0044  1.0000  -2.7537   0.0000   0.0000   0.0000   0.3663
  22.000   0.9926   0.29276   0.29130  -0.1479  0.0041  1.0000  -2.5767   0.0000   0.0000   0.0000   0.3680
  22.100   0.9838   0.29403   0.29257  -0.1480  0.0040  1.0000  -2.4282   0.0000   0.0000   0.0000   0.3696
  22.200   0.9763   0.29526   0.29381  -0.1481  0.0040  1.0000  -2.2996   0.0000   0.0000   0.0000   0.3709
  22.300   0.9698   0.29644   0.29499  -0.1483  0.0040  1.0000  -2.1883   0.0000   0.0000   0.0000   0.3721
  22.400   0.9641   0.29758   0.29614  -0.1485  0.0041  1.0000  -2.0905   0.0000   0.0000   0.0000   0.3732
  22.500   0.9592   0.29867   0.29724  -0.1487  0.0043  1.0000  -2.0058   0.0000   0.0000   0.0000   0.3742
  22.600   0.9547   0.29973   0.29830  -0.1489  0.0044  1.0000  -1.9341   0.0000   0.0000   0.0000   0.3751
  22.700   0.9507   0.30075   0.29933  -0.1491  0.0046  1.0000  -1.8696   0.0000   0.0000   0.0000   0.3759
  22.800   0.9470   0.30173   0.30032  -0.1494  0.0048  1.0000  -1.8117   0.0000   0.0000   0.0000   0.3767
  22.900   0.9436   0.30268   0.30127  -0.1496  0.0051  1.0000  -1.7594   0.0000   0.0000   0.0000   0.3774
  23.000   0.9404   0.30359   0.30218  -0.1498  0.0053  1.0000  -1.7117   0.0000   0.0000   0.0000   0.3781
  23.100   0.9372   0.30445   0.30305  -0.1500  0.0056  1.0000  -1.6669   0.0000   0.0000   0.0000   0.3787
  23.200   0.9336   0.30527   0.30387  -0.1502  0.0060  1.0000  -1.6194   0.0000   0.0000   0.0000   0.3794
  23.300   0.9227   0.30655   0.30515  -0.1499  0.0071  1.0000  -1.4432   0.0000   0.0000   0.0000   0.3811
  23.400   0.9201   0.30744   0.30605  -0.1501  0.0071  1.0000  -1.4072   0.0000   0.0000   0.0000   0.3816
  23.500   0.9181   0.30829   0.30690  -0.1503  0.0072  1.0000  -1.3829   0.0000   0.0000   0.0000   0.3821
  23.600   0.9164   0.30912   0.30774  -0.1505  0.0072  1.0000  -1.3626   0.0000   0.0000   0.0000   0.3825
  23.700   0.9149   0.30996   0.30858  -0.1508  0.0072  1.0000  -1.3446   0.0000   0.0000   0.0000   0.3829
  23.800   0.9135   0.31078   0.30941  -0.1511  0.0072  1.0000  -1.3281   0.0000   0.0000   0.0000   0.3833
  23.900   0.9122   0.31161   0.31024  -0.1513  0.0072  1.0000  -1.3128   0.0000   0.0000   0.0000   0.3837
  24.000   0.9110   0.31243   0.31107  -0.1516  0.0072  1.0000  -1.2983   0.0000   0.0000   0.0000   0.3841
  24.100   0.9098   0.31326   0.31190  -0.1519  0.0072  1.0000  -1.2845   0.0000   0.0000   0.0000   0.3845
  24.200   0.9087   0.31408   0.31273  -0.1522  0.0072  1.0000  -1.2714   0.0000   0.0000   0.0000   0.3848
  24.300   0.9077   0.31490   0.31355  -0.1525  0.0072  1.0000  -1.2588   0.0000   0.0000   0.0000   0.3852
  24.400   0.9067   0.31573   0.31438  -0.1528  0.0072  1.0000  -1.2467   0.0000   0.0000   0.0000   0.3855
  24.500   0.9057   0.31655   0.31521  -0.1531  0.0072  1.0000  -1.2350   0.0000   0.0000   0.0000   0.3858
  24.600   0.9048   0.31737   0.31603  -0.1534  0.0073  1.0000  -1.2238   0.0000   0.0000   0.0000   0.3862
  24.700   0.9039   0.31819   0.31686  -0.1537  0.0073  1.0000  -1.2128   0.0000   0.0000   0.0000   0.3865
  24.800   0.9030   0.31901   0.31768  -0.1540  0.0073  1.0000  -1.2022   0.0000   0.0000   0.0000   0.3868
  24.900   0.9022   0.31983   0.31851  -0.1543  0.0073  1.0000  -1.1920   0.0000   0.0000   0.0000   0.3871
  25.000   0.9015   0.32065   0.31933  -0.1546  0.0073  1.0000  -1.1820   0.0000   0.0000   0.0000   0.3874
  25.100   0.9007   0.32147   0.32015  -0.1549  0.0073  1.0000  -1.1722   0.0000   0.0000   0.0000   0.3877


