xflr5 v6.61

 Calculated polar for: NACA 4412

 1 1 Reynolds number fixed          Mach number fixed         

 xtrf =   1.000 (top)        1.000 (bottom)
 Mach =   0.000     Re =     0.450 e 6     Ncrit =   9.000

  alpha     CL        CD       CDp       Cm    Top Xtr Bot Xtr   Cpmin    Chinge    XCp    
 ------- -------- --------- --------- -------- ------- ------- -------- --------- ---------
 -10.000  -0.3735   0.09558   0.09288  -0.0378  1.0000  0.0413  -1.9163   0.0000   0.0000   0.0000   0.1347
  -9.900  -0.3768   0.09467   0.09198  -0.0374  1.0000  0.0419  -1.9181   0.0000   0.0000   0.0000   0.1370
  -9.800  -0.3811   0.09378   0.09111  -0.0367  1.0000  0.0424  -1.9242   0.0000   0.0000   0.0000   0.1401
  -9.700  -0.3872   0.09304   0.09039  -0.0357  1.0000  0.0427  -1.9351   0.0000   0.0000   0.0000   0.1447
  -9.600  -0.3957   0.09253   0.08991  -0.0341  1.0000  0.0428  -1.9508   0.0000   0.0000   0.0000   0.1512
  -9.500  -0.3954   0.09107   0.08845  -0.0350  0.9995  0.0434  -1.9506   0.0000   0.0000   0.0000   0.1491
  -9.400  -0.3916   0.08914   0.08653  -0.0370  0.9988  0.0442  -1.9459   0.0000   0.0000   0.0000   0.1431
  -9.300  -0.3879   0.08715   0.08454  -0.0391  0.9978  0.0447  -1.9432   0.0000   0.0000   0.0000   0.1368
  -9.200  -0.3837   0.08521   0.08260  -0.0412  0.9967  0.0452  -1.9370   0.0000   0.0000   0.0000   0.1303
  -9.100  -0.3796   0.08327   0.08065  -0.0433  0.9954  0.0456  -1.9307   0.0000   0.0000   0.0000   0.1237
  -9.000  -0.3759   0.08128   0.07866  -0.0454  0.9938  0.0459  -1.9270   0.0000   0.0000   0.0000   0.1169
  -8.900  -0.3730   0.07922   0.07660  -0.0476  0.9919  0.0461  -1.9282   0.0000   0.0000   0.0000   0.1102
  -8.800  -0.3711   0.07703   0.07441  -0.0499  0.9895  0.0461  -1.9366   0.0000   0.0000   0.0000   0.1035
  -8.700  -0.3699   0.07462   0.07200  -0.0525  0.9864  0.0460  -1.9535   0.0000   0.0000   0.0000   0.0962
  -8.600  -0.3698   0.07188   0.06927  -0.0557  0.9825  0.0458  -1.9829   0.0000   0.0000   0.0000   0.0877
  -8.500  -0.3679   0.06823   0.06561  -0.0607  0.9780  0.0455  -2.0275   0.0000   0.0000   0.0000   0.0734
  -8.400  -0.3667   0.06301   0.06036  -0.0683  0.9735  0.0448  -2.1318   0.0000   0.0000   0.0000   0.0524
  -8.300  -0.3886   0.04342   0.04031  -0.0889  0.9638  0.0412  -2.7155   0.0000   0.0000   0.0000   0.0097
  -8.200  -0.3857   0.03864   0.03528  -0.0926  0.9611  0.0409  -2.8268   0.0000   0.0000   0.0000  -0.0018
  -8.100  -0.3783   0.03590   0.03235  -0.0947  0.9592  0.0409  -2.8653   0.0000   0.0000   0.0000  -0.0123
  -8.000  -0.3694   0.03379   0.03008  -0.0964  0.9576  0.0410  -2.8818   0.0000   0.0000   0.0000  -0.0230
  -7.900  -0.3595   0.03203   0.02818  -0.0978  0.9561  0.0411  -2.8860   0.0000   0.0000   0.0000  -0.0342
  -7.800  -0.3490   0.03056   0.02658  -0.0990  0.9545  0.0412  -2.8806   0.0000   0.0000   0.0000  -0.0460
  -7.700  -0.3384   0.02928   0.02518  -0.1000  0.9527  0.0413  -2.8700   0.0000   0.0000   0.0000  -0.0582
  -7.600  -0.3283   0.02822   0.02401  -0.1008  0.9500  0.0414  -2.8569   0.0000   0.0000   0.0000  -0.0698
  -7.500  -0.3213   0.02722   0.02291  -0.1006  0.9490  0.0415  -2.8450   0.0000   0.0000   0.0000  -0.0762
  -7.400  -0.3140   0.02628   0.02187  -0.1005  0.9477  0.0416  -2.8314   0.0000   0.0000   0.0000  -0.0830
  -7.300  -0.3065   0.02538   0.02088  -0.1003  0.9463  0.0416  -2.8161   0.0000   0.0000   0.0000  -0.0903
  -7.200  -0.2986   0.02453   0.01993  -0.1001  0.9446  0.0416  -2.7993   0.0000   0.0000   0.0000  -0.0986
  -7.100  -0.2902   0.02371   0.01902  -0.1000  0.9427  0.0416  -2.7809   0.0000   0.0000   0.0000  -0.1080
  -7.000  -0.2813   0.02296   0.01819  -0.1000  0.9408  0.0417  -2.7587   0.0000   0.0000   0.0000  -0.1190
  -6.900  -0.2713   0.02246   0.01764  -0.1001  0.9389  0.0421  -2.7223   0.0000   0.0000   0.0000  -0.1326
  -6.800  -0.2606   0.02212   0.01725  -0.1002  0.9370  0.0427  -2.6772   0.0000   0.0000   0.0000  -0.1486
  -6.700  -0.2495   0.02183   0.01694  -0.1005  0.9351  0.0434  -2.6288   0.0000   0.0000   0.0000  -0.1670
  -6.600  -0.2381   0.02153   0.01661  -0.1008  0.9332  0.0440  -2.5812   0.0000   0.0000   0.0000  -0.1877
  -6.500  -0.2267   0.02115   0.01619  -0.1011  0.9313  0.0446  -2.5381   0.0000   0.0000   0.0000  -0.2107
  -6.400  -0.2155   0.02062   0.01559  -0.1013  0.9294  0.0448  -2.5038   0.0000   0.0000   0.0000  -0.2358
  -6.300  -0.2046   0.01984   0.01471  -0.1016  0.9274  0.0447  -2.4834   0.0000   0.0000   0.0000  -0.2626
  -6.200  -0.1937   0.01898   0.01375  -0.1018  0.9254  0.0443  -2.4686   0.0000   0.0000   0.0000  -0.2923
  -6.100  -0.1825   0.01819   0.01286  -0.1020  0.9235  0.0439  -2.4513   0.0000   0.0000   0.0000  -0.3262
  -6.000  -0.1713   0.01747   0.01203  -0.1022  0.9216  0.0436  -2.4322   0.0000   0.0000   0.0000  -0.3650
  -5.900  -0.1599   0.01679   0.01126  -0.1024  0.9197  0.0433  -2.4112   0.0000   0.0000   0.0000  -0.4096
  -5.800  -0.1481   0.01617   0.01055  -0.1027  0.9179  0.0430  -2.3880   0.0000   0.0000   0.0000  -0.4632
  -5.700  -0.1361   0.01559   0.00988  -0.1030  0.9160  0.0427  -2.3630   0.0000   0.0000   0.0000  -0.5281
  -5.600  -0.1239   0.01506   0.00927  -0.1033  0.9140  0.0425  -2.3362   0.0000   0.0000   0.0000  -0.6066
  -5.500  -0.1116   0.01457   0.00871  -0.1036  0.9118  0.0422  -2.3077   0.0000   0.0000   0.0000  -0.7034
  -5.400  -0.0992   0.01412   0.00819  -0.1039  0.9092  0.0420  -2.2779   0.0000   0.0000   0.0000  -0.8257
  -5.300  -0.0867   0.01372   0.00772  -0.1043  0.9060  0.0418  -2.2471   0.0000   0.0000   0.0000  -0.9842
  -5.100  -0.0637   0.01307   0.00695  -0.1045  0.8994  0.0415  -2.1858   0.0000   0.0000   0.0000  -1.4301
  -5.000  -0.0544   0.01277   0.00662  -0.1042  0.8984  0.0413  -2.1572   0.0000   0.0000   0.0000  -1.7120
  -4.900  -0.0450   0.01250   0.00630  -0.1038  0.8971  0.0412  -2.1280   0.0000   0.0000   0.0000  -2.1089
  -4.800  -0.0357   0.01224   0.00600  -0.1034  0.8955  0.0411  -2.0984   0.0000   0.0000   0.0000  -2.7134
  -4.700  -0.0263   0.01200   0.00573  -0.1031  0.8936  0.0410  -2.0682   0.0000   0.0000   0.0000  -3.7545
  -4.600  -0.0168   0.01178   0.00547  -0.1027  0.8914  0.0410  -2.0374   0.0000   0.0000   0.0000  -5.9890
  -4.500  -0.0072   0.01158   0.00524  -0.1024  0.8890  0.0409  -2.0060   0.0000   0.0000   0.0000  -14.3074
  -4.400   0.0026   0.01139   0.00502  -0.1022  0.8864  0.0409  -1.9739   0.0000   0.0000   0.0000  39.8337
  -4.300   0.0126   0.01121   0.00481  -0.1020  0.8836  0.0409  -1.9413   0.0000   0.0000   0.0000   8.5022
  -4.200   0.0227   0.01105   0.00462  -0.1018  0.8805  0.0410  -1.9082   0.0000   0.0000   0.0000   4.8243
  -4.100   0.0329   0.01090   0.00443  -0.1016  0.8772  0.0410  -1.8745   0.0000   0.0000   0.0000   3.3981
  -4.000   0.0433   0.01075   0.00426  -0.1015  0.8737  0.0411  -1.8403   0.0000   0.0000   0.0000   2.6387
  -3.900   0.0540   0.01061   0.00409  -0.1014  0.8699  0.0413  -1.8052   0.0000   0.0000   0.0000   2.1632
  -3.800   0.0649   0.01048   0.00393  -0.1013  0.8659  0.0415  -1.7695   0.0000   0.0000   0.0000   1.8400
  -3.700   0.0760   0.01035   0.00377  -0.1013  0.8618  0.0418  -1.7335   0.0000   0.0000   0.0000   1.6072
  -3.600   0.0873   0.01023   0.00361  -0.1014  0.8575  0.0422  -1.6973   0.0000   0.0000   0.0000   1.4317
  -3.500   0.0987   0.01012   0.00346  -0.1014  0.8531  0.0428  -1.6611   0.0000   0.0000   0.0000   1.2949
  -3.400   0.1102   0.01001   0.00332  -0.1015  0.8484  0.0437  -1.6253   0.0000   0.0000   0.0000   1.1858
  -3.300   0.1218   0.00990   0.00318  -0.1016  0.8433  0.0450  -1.5909   0.0000   0.0000   0.0000   1.0972
  -3.200   0.1332   0.00979   0.00305  -0.1016  0.8378  0.0477  -1.5592   0.0000   0.0000   0.0000   1.0243
  -3.100   0.1442   0.00958   0.00291  -0.1017  0.8315  0.0664  -1.5332   0.0000   0.0000   0.0000   0.9653
  -3.000   0.1552   0.00943   0.00283  -0.1018  0.8244  0.0822  -1.4960   0.0000   0.0000   0.0000   0.9147
  -2.900   0.1665   0.00931   0.00279  -0.1019  0.8166  0.0933  -1.4547   0.0000   0.0000   0.0000   0.8704
  -2.800   0.1784   0.00928   0.00277  -0.1022  0.8084  0.0992  -1.4116   0.0000   0.0000   0.0000   0.8304
  -2.700   0.1904   0.00928   0.00277  -0.1025  0.8001  0.1068  -1.3683   0.0000   0.0000   0.0000   0.7953
  -2.600   0.2008   0.00920   0.00274  -0.1025  0.7991  0.1168  -1.3278   0.0000   0.0000   0.0000   0.7663
  -2.500   0.2111   0.00912   0.00271  -0.1024  0.7980  0.1260  -1.2875   0.0000   0.0000   0.0000   0.7405
  -2.400   0.2214   0.00905   0.00267  -0.1023  0.7966  0.1329  -1.2473   0.0000   0.0000   0.0000   0.7169
  -2.300   0.2317   0.00899   0.00263  -0.1021  0.7945  0.1386  -1.2073   0.0000   0.0000   0.0000   0.6954
  -2.200   0.2420   0.00894   0.00259  -0.1020  0.7918  0.1432  -1.1674   0.0000   0.0000   0.0000   0.6756
  -2.100   0.2524   0.00890   0.00255  -0.1019  0.7882  0.1469  -1.1277   0.0000   0.0000   0.0000   0.6573
  -2.000   0.2630   0.00886   0.00250  -0.1018  0.7833  0.1499  -1.0880   0.0000   0.0000   0.0000   0.6403
  -1.900   0.2737   0.00881   0.00244  -0.1017  0.7772  0.1574  -1.0484   0.0000   0.0000   0.0000   0.6246
  -1.800   0.2845   0.00875   0.00238  -0.1016  0.7695  0.1671  -1.0089   0.0000   0.0000   0.0000   0.6100
  -1.700   0.2954   0.00869   0.00232  -0.1016  0.7605  0.1759  -0.9695   0.0000   0.0000   0.0000   0.5964
  -1.600   0.3064   0.00866   0.00225  -0.1016  0.7499  0.1841  -0.9301   0.0000   0.0000   0.0000   0.5836
  -1.500   0.3172   0.00865   0.00218  -0.1015  0.7373  0.1911  -0.8915   0.0000   0.0000   0.0000   0.5718
  -1.400   0.3279   0.00867   0.00213  -0.1014  0.7218  0.1969  -0.8534   0.0000   0.0000   0.0000   0.5609
  -1.300   0.3393   0.00868   0.00210  -0.1015  0.7062  0.2036  -0.8147   0.0000   0.0000   0.0000   0.5507
  -1.200   0.3501   0.00864   0.00209  -0.1016  0.6989  0.2153  -0.7773   0.0000   0.0000   0.0000   0.5413
  -1.100   0.3604   0.00858   0.00208  -0.1015  0.6965  0.2255  -0.7411   0.0000   0.0000   0.0000   0.5326
  -1.000   0.3708   0.00855   0.00207  -0.1014  0.6928  0.2341  -0.7050   0.0000   0.0000   0.0000   0.5243
  -0.900   0.3813   0.00853   0.00205  -0.1013  0.6876  0.2406  -0.6941   0.0000   0.0000   0.0000   0.5164
  -0.800   0.3919   0.00853   0.00203  -0.1013  0.6805  0.2454  -0.7018   0.0000   0.0000   0.0000   0.5089
  -0.700   0.4025   0.00855   0.00201  -0.1012  0.6717  0.2489  -0.7095   0.0000   0.0000   0.0000   0.5017
  -0.600   0.4129   0.00857   0.00199  -0.1011  0.6615  0.2540  -0.7171   0.0000   0.0000   0.0000   0.4949
  -0.500   0.4230   0.00859   0.00198  -0.1009  0.6506  0.2626  -0.7245   0.0000   0.0000   0.0000   0.4886
  -0.400   0.4327   0.00860   0.00198  -0.1007  0.6398  0.2707  -0.7318   0.0000   0.0000   0.0000   0.4825
  -0.300   0.4423   0.00863   0.00198  -0.1005  0.6288  0.2782  -0.7401   0.0000   0.0000   0.0000   0.4768
  -0.200   0.4522   0.00865   0.00198  -0.1003  0.6183  0.2853  -0.7485   0.0000   0.0000   0.0000   0.4713
  -0.100   0.4626   0.00866   0.00198  -0.1002  0.6085  0.2920  -0.7571   0.0000   0.0000   0.0000   0.4660
   0.000   0.4734   0.00868   0.00199  -0.1003  0.5999  0.2984  -0.7660   0.0000   0.0000   0.0000   0.4610
   0.100   0.4843   0.00866   0.00200  -0.1003  0.5981  0.3128  -0.7750   0.0000   0.0000   0.0000   0.4562
   0.200   0.4950   0.00862   0.00202  -0.1003  0.5959  0.3368  -0.7839   0.0000   0.0000   0.0000   0.4516
   0.300   0.5055   0.00856   0.00204  -0.1003  0.5930  0.3585  -0.7927   0.0000   0.0000   0.0000   0.4473
   0.400   0.5161   0.00853   0.00206  -0.1003  0.5894  0.3755  -0.8016   0.0000   0.0000   0.0000   0.4431
   0.500   0.5267   0.00851   0.00207  -0.1003  0.5852  0.3897  -0.8106   0.0000   0.0000   0.0000   0.4390
   0.600   0.5373   0.00851   0.00208  -0.1003  0.5804  0.4076  -0.8195   0.0000   0.0000   0.0000   0.4351
   0.700   0.5473   0.00842   0.00212  -0.1002  0.5753  0.4511  -0.8281   0.0000   0.0000   0.0000   0.4314
   0.800   0.5559   0.00803   0.00225  -0.0999  0.5788  0.5861  -0.8358   0.0000   0.0000   0.0000   0.4280
   0.900   0.5653   0.00788   0.00229  -0.0996  0.5775  0.6437  -0.8441   0.0000   0.0000   0.0000   0.4244
   1.000   0.5746   0.00776   0.00233  -0.0992  0.5747  0.7020  -0.8523   0.0000   0.0000   0.0000   0.4208
   1.100   0.5820   0.00758   0.00239  -0.0984  0.5715  0.7869  -0.8596   0.0000   0.0000   0.0000   0.4169
   1.200   0.5903   0.00743   0.00246  -0.0975  0.5680  0.8941  -0.8680   0.0000   0.0000   0.0000   0.4129
   1.300   0.6242   0.00742   0.00248  -0.1024  0.5633  0.9925  -0.8927   0.0000   0.0000   0.0000   0.4118
   1.400   0.6382   0.00748   0.00250  -0.1031  0.5590  1.0000  -0.9052   0.0000   0.0000   0.0000   0.4092
   1.500   0.6479   0.00754   0.00251  -0.1029  0.5544  1.0000  -0.9152   0.0000   0.0000   0.0000   0.4063
   1.600   0.6575   0.00760   0.00253  -0.1026  0.5492  1.0000  -0.9251   0.0000   0.0000   0.0000   0.4035
   1.700   0.6669   0.00768   0.00255  -0.1024  0.5433  1.0000  -0.9349   0.0000   0.0000   0.0000   0.4008
   1.800   0.6762   0.00776   0.00258  -0.1021  0.5365  1.0000  -0.9446   0.0000   0.0000   0.0000   0.3981
   1.900   0.6856   0.00783   0.00260  -0.1018  0.5289  1.0000  -0.9544   0.0000   0.0000   0.0000   0.3955
   2.000   0.6954   0.00791   0.00263  -0.1016  0.5212  1.0000  -0.9644   0.0000   0.0000   0.0000   0.3930
   2.100   0.7055   0.00797   0.00266  -0.1014  0.5142  1.0000  -0.9745   0.0000   0.0000   0.0000   0.3906
   2.200   0.7158   0.00803   0.00270  -0.1014  0.5082  1.0000  -0.9849   0.0000   0.0000   0.0000   0.3884
   2.300   0.7263   0.00810   0.00274  -0.1013  0.5034  1.0000  -0.9971   0.0000   0.0000   0.0000   0.3861
   2.400   0.7369   0.00815   0.00278  -0.1013  0.4998  1.0000  -1.0097   0.0000   0.0000   0.0000   0.3840
   2.500   0.7475   0.00818   0.00281  -0.1012  0.4994  1.0000  -1.0224   0.0000   0.0000   0.0000   0.3819
   2.600   0.7582   0.00821   0.00284  -0.1012  0.4989  1.0000  -1.0495   0.0000   0.0000   0.0000   0.3798
   2.700   0.7688   0.00824   0.00287  -0.1012  0.4982  1.0000  -1.0855   0.0000   0.0000   0.0000   0.3778
   2.800   0.7794   0.00827   0.00290  -0.1011  0.4974  1.0000  -1.1219   0.0000   0.0000   0.0000   0.3759
   2.900   0.7900   0.00830   0.00293  -0.1011  0.4964  1.0000  -1.1585   0.0000   0.0000   0.0000   0.3740
   3.000   0.8005   0.00833   0.00297  -0.1011  0.4953  1.0000  -1.1954   0.0000   0.0000   0.0000   0.3722
   3.100   0.8111   0.00837   0.00300  -0.1010  0.4940  1.0000  -1.2325   0.0000   0.0000   0.0000   0.3703
   3.200   0.8217   0.00841   0.00304  -0.1010  0.4926  1.0000  -1.2700   0.0000   0.0000   0.0000   0.3686
   3.300   0.8323   0.00845   0.00308  -0.1009  0.4911  1.0000  -1.3078   0.0000   0.0000   0.0000   0.3669
   3.400   0.8428   0.00849   0.00312  -0.1009  0.4893  1.0000  -1.3458   0.0000   0.0000   0.0000   0.3652
   3.500   0.8533   0.00854   0.00316  -0.1008  0.4867  1.0000  -1.3840   0.0000   0.0000   0.0000   0.3635
   3.600   0.8636   0.00859   0.00319  -0.1007  0.4831  1.0000  -1.4223   0.0000   0.0000   0.0000   0.3619
   3.700   0.8738   0.00865   0.00323  -0.1006  0.4781  1.0000  -1.4606   0.0000   0.0000   0.0000   0.3603
   3.800   0.8837   0.00872   0.00326  -0.1004  0.4717  1.0000  -1.4988   0.0000   0.0000   0.0000   0.3587
   3.900   0.8934   0.00882   0.00330  -0.1002  0.4641  1.0000  -1.5368   0.0000   0.0000   0.0000   0.3571
   4.000   0.9028   0.00892   0.00335  -0.0999  0.4560  1.0000  -1.5745   0.0000   0.0000   0.0000   0.3555
   4.100   0.9120   0.00904   0.00341  -0.0996  0.4479  1.0000  -1.6122   0.0000   0.0000   0.0000   0.3539
   4.200   0.9212   0.00915   0.00347  -0.0993  0.4405  1.0000  -1.6500   0.0000   0.0000   0.0000   0.3524
   4.300   0.9305   0.00926   0.00353  -0.0990  0.4331  1.0000  -1.6881   0.0000   0.0000   0.0000   0.3509
   4.400   0.9398   0.00937   0.00359  -0.0988  0.4249  1.0000  -1.7266   0.0000   0.0000   0.0000   0.3495
   4.500   0.9494   0.00946   0.00366  -0.0985  0.4165  1.0000  -1.7658   0.0000   0.0000   0.0000   0.3480
   4.600   0.9593   0.00956   0.00373  -0.0984  0.4086  1.0000  -1.8057   0.0000   0.0000   0.0000   0.3467
   4.700   0.9694   0.00964   0.00380  -0.0983  0.4017  1.0000  -1.8464   0.0000   0.0000   0.0000   0.3454
   4.800   0.9800   0.00970   0.00386  -0.0982  0.3993  1.0000  -1.8881   0.0000   0.0000   0.0000   0.3441
   4.900   0.9906   0.00975   0.00392  -0.0982  0.3983  1.0000  -1.9303   0.0000   0.0000   0.0000   0.3429
   5.000   1.0011   0.00981   0.00398  -0.0981  0.3970  1.0000  -1.9726   0.0000   0.0000   0.0000   0.3417
   5.100   1.0116   0.00987   0.00405  -0.0981  0.3953  1.0000  -2.0151   0.0000   0.0000   0.0000   0.3405
   5.200   1.0220   0.00993   0.00411  -0.0980  0.3934  1.0000  -2.0578   0.0000   0.0000   0.0000   0.3393
   5.300   1.0324   0.00999   0.00417  -0.0980  0.3911  1.0000  -2.1006   0.0000   0.0000   0.0000   0.3382
   5.400   1.0427   0.01006   0.00424  -0.0979  0.3880  1.0000  -2.1434   0.0000   0.0000   0.0000   0.3370
   5.500   1.0528   0.01014   0.00431  -0.0977  0.3837  1.0000  -2.1861   0.0000   0.0000   0.0000   0.3359
   5.600   1.0625   0.01024   0.00437  -0.0976  0.3770  1.0000  -2.2283   0.0000   0.0000   0.0000   0.3347
   5.700   1.0711   0.01041   0.00445  -0.0972  0.3638  1.0000  -2.2684   0.0000   0.0000   0.0000   0.3335
   5.800   1.0773   0.01071   0.00458  -0.0964  0.3420  1.0000  -2.3039   0.0000   0.0000   0.0000   0.3321
   5.900   1.0832   0.01101   0.00473  -0.0955  0.3178  1.0000  -2.3385   0.0000   0.0000   0.0000   0.3307
   6.000   1.0915   0.01120   0.00484  -0.0951  0.2984  1.0000  -2.3778   0.0000   0.0000   0.0000   0.3295
   6.100   1.0999   0.01139   0.00495  -0.0947  0.2874  1.0000  -2.4176   0.0000   0.0000   0.0000   0.3284
   6.200   1.1057   0.01175   0.00512  -0.0939  0.2685  1.0000  -2.4521   0.0000   0.0000   0.0000   0.3271
   6.300   1.1101   0.01221   0.00538  -0.0929  0.2474  1.0000  -2.4831   0.0000   0.0000   0.0000   0.3257
   6.400   1.1157   0.01258   0.00562  -0.0921  0.2275  1.0000  -2.5165   0.0000   0.0000   0.0000   0.3244
   6.500   1.1196   0.01312   0.00592  -0.0910  0.1974  1.0000  -2.5456   0.0000   0.0000   0.0000   0.3230
   6.600   1.1229   0.01374   0.00631  -0.0899  0.1620  1.0000  -2.5723   0.0000   0.0000   0.0000   0.3217
   6.700   1.1251   0.01444   0.00675  -0.0886  0.1219  1.0000  -2.5947   0.0000   0.0000   0.0000   0.3203
   6.800   1.1235   0.01542   0.00736  -0.0868  0.0743  1.0000  -2.6064   0.0000   0.0000   0.0000   0.3186
   6.900   1.1255   0.01610   0.00786  -0.0853  0.0494  1.0000  -2.6108   0.0000   0.0000   0.0000   0.3171
   7.000   1.1336   0.01631   0.00807  -0.0848  0.0475  1.0000  -2.6416   0.0000   0.0000   0.0000   0.3160
   7.100   1.1417   0.01651   0.00828  -0.0843  0.0463  1.0000  -2.6743   0.0000   0.0000   0.0000   0.3149
   7.200   1.1498   0.01670   0.00849  -0.0839  0.0455  1.0000  -2.7078   0.0000   0.0000   0.0000   0.3138
   7.300   1.1577   0.01691   0.00871  -0.0834  0.0448  1.0000  -2.7417   0.0000   0.0000   0.0000   0.3128
   7.400   1.1654   0.01711   0.00894  -0.0829  0.0443  1.0000  -2.7757   0.0000   0.0000   0.0000   0.3117
   7.500   1.1727   0.01732   0.00916  -0.0822  0.0439  1.0000  -2.8092   0.0000   0.0000   0.0000   0.3106
   7.600   1.1797   0.01753   0.00939  -0.0816  0.0436  1.0000  -2.8427   0.0000   0.0000   0.0000   0.3095
   7.700   1.1865   0.01774   0.00962  -0.0809  0.0431  1.0000  -2.8780   0.0000   0.0000   0.0000   0.3084
   7.800   1.1932   0.01796   0.00985  -0.0802  0.0424  1.0000  -2.9146   0.0000   0.0000   0.0000   0.3073
   7.900   1.1999   0.01818   0.01008  -0.0796  0.0418  1.0000  -2.9522   0.0000   0.0000   0.0000   0.3062
   8.000   1.2067   0.01841   0.01030  -0.0789  0.0410  1.0000  -2.9906   0.0000   0.0000   0.0000   0.3052
   8.100   1.2133   0.01863   0.01053  -0.0783  0.0403  1.0000  -3.0293   0.0000   0.0000   0.0000   0.3041
   8.200   1.2199   0.01887   0.01076  -0.0776  0.0395  1.0000  -3.0677   0.0000   0.0000   0.0000   0.3031
   8.300   1.2264   0.01911   0.01101  -0.0770  0.0389  1.0000  -3.1057   0.0000   0.0000   0.0000   0.3021
   8.400   1.2329   0.01936   0.01126  -0.0763  0.0383  1.0000  -3.1428   0.0000   0.0000   0.0000   0.3011
   8.500   1.2392   0.01961   0.01153  -0.0756  0.0379  1.0000  -3.1789   0.0000   0.0000   0.0000   0.3000
   8.600   1.2453   0.01987   0.01181  -0.0749  0.0376  1.0000  -3.2142   0.0000   0.0000   0.0000   0.2990
   8.700   1.2512   0.02014   0.01210  -0.0742  0.0374  1.0000  -3.2488   0.0000   0.0000   0.0000   0.2980
   8.800   1.2566   0.02042   0.01240  -0.0733  0.0371  1.0000  -3.2827   0.0000   0.0000   0.0000   0.2969
   8.900   1.2614   0.02071   0.01271  -0.0724  0.0369  1.0000  -3.3154   0.0000   0.0000   0.0000   0.2958
   9.000   1.2658   0.02102   0.01305  -0.0715  0.0367  1.0000  -3.3472   0.0000   0.0000   0.0000   0.2947
   9.100   1.2701   0.02134   0.01340  -0.0706  0.0365  1.0000  -3.3791   0.0000   0.0000   0.0000   0.2937
   9.400   1.2852   0.02226   0.01458  -0.0686  0.0226  1.0000  -3.7529   0.0000   0.0000   0.0000   0.2909
   9.500   1.2929   0.02241   0.01469  -0.0683  0.0210  1.0000  -3.8471   0.0000   0.0000   0.0000   0.2902
   9.600   1.2988   0.02268   0.01492  -0.0677  0.0197  1.0000  -3.9243   0.0000   0.0000   0.0000   0.2894
   9.700   1.3038   0.02302   0.01521  -0.0671  0.0186  1.0000  -3.9932   0.0000   0.0000   0.0000   0.2885
   9.800   1.3083   0.02340   0.01554  -0.0663  0.0176  1.0000  -4.0565   0.0000   0.0000   0.0000   0.2876
   9.900   1.3123   0.02381   0.01592  -0.0655  0.0168  1.0000  -4.1144   0.0000   0.0000   0.0000   0.2867
  10.000   1.3153   0.02428   0.01639  -0.0646  0.0161  1.0000  -4.1645   0.0000   0.0000   0.0000   0.2857
  10.100   1.3179   0.02477   0.01689  -0.0637  0.0154  1.0000  -4.2113   0.0000   0.0000   0.0000   0.2847
  10.200   1.3209   0.02527   0.01741  -0.0628  0.0149  1.0000  -4.2581   0.0000   0.0000   0.0000   0.2837
  10.300   1.3240   0.02578   0.01795  -0.0620  0.0144  1.0000  -4.3046   0.0000   0.0000   0.0000   0.2828
  10.400   1.3272   0.02631   0.01851  -0.0611  0.0139  1.0000  -4.3502   0.0000   0.0000   0.0000   0.2819
  10.500   1.3301   0.02686   0.01910  -0.0603  0.0136  1.0000  -4.3945   0.0000   0.0000   0.0000   0.2810
  10.600   1.3327   0.02744   0.01973  -0.0594  0.0132  1.0000  -4.4369   0.0000   0.0000   0.0000   0.2800
  10.700   1.3348   0.02807   0.02041  -0.0585  0.0130  1.0000  -4.4769   0.0000   0.0000   0.0000   0.2791
  10.800   1.3364   0.02873   0.02113  -0.0575  0.0127  1.0000  -4.5141   0.0000   0.0000   0.0000   0.2782
  10.900   1.3390   0.02932   0.02173  -0.0567  0.0127  1.0000  -4.5550   0.0000   0.0000   0.0000   0.2773
  11.000   1.3412   0.02992   0.02236  -0.0559  0.0127  1.0000  -4.5944   0.0000   0.0000   0.0000   0.2764
  11.100   1.3431   0.03054   0.02303  -0.0550  0.0126  1.0000  -4.6325   0.0000   0.0000   0.0000   0.2755
  11.200   1.3446   0.03120   0.02373  -0.0542  0.0126  1.0000  -4.6695   0.0000   0.0000   0.0000   0.2747
  11.300   1.3458   0.03190   0.02447  -0.0534  0.0126  1.0000  -4.7052   0.0000   0.0000   0.0000   0.2738
  11.400   1.3451   0.03278   0.02540  -0.0525  0.0126  1.0000  -4.7335   0.0000   0.0000   0.0000   0.2730
  11.500   1.3438   0.03375   0.02642  -0.0517  0.0125  1.0000  -4.7594   0.0000   0.0000   0.0000   0.2723
  11.600   1.3440   0.03462   0.02733  -0.0510  0.0125  1.0000  -4.7909   0.0000   0.0000   0.0000   0.2715
  11.700   1.3448   0.03546   0.02822  -0.0503  0.0125  1.0000  -4.8246   0.0000   0.0000   0.0000   0.2708
  11.800   1.3458   0.03630   0.02910  -0.0496  0.0125  1.0000  -4.8590   0.0000   0.0000   0.0000   0.2701
  11.900   1.3469   0.03714   0.02998  -0.0490  0.0125  1.0000  -4.8934   0.0000   0.0000   0.0000   0.2694
  12.000   1.3479   0.03800   0.03089  -0.0483  0.0125  1.0000  -4.9276   0.0000   0.0000   0.0000   0.2687
  12.100   1.3488   0.03889   0.03182  -0.0477  0.0125  1.0000  -4.9612   0.0000   0.0000   0.0000   0.2680
  12.200   1.3495   0.03980   0.03277  -0.0471  0.0124  1.0000  -4.9939   0.0000   0.0000   0.0000   0.2673
  12.300   1.3499   0.04075   0.03377  -0.0465  0.0124  1.0000  -5.0255   0.0000   0.0000   0.0000   0.2667
  12.400   1.3501   0.04173   0.03480  -0.0459  0.0124  1.0000  -5.0559   0.0000   0.0000   0.0000   0.2660
  12.500   1.3498   0.04277   0.03589  -0.0454  0.0124  1.0000  -5.0845   0.0000   0.0000   0.0000   0.2654
  12.600   1.3467   0.04417   0.03734  -0.0450  0.0124  1.0000  -5.1010   0.0000   0.0000   0.0000   0.2650
  12.700   1.3445   0.04548   0.03871  -0.0446  0.0124  1.0000  -5.1209   0.0000   0.0000   0.0000   0.2645
  12.800   1.3436   0.04663   0.03990  -0.0441  0.0124  1.0000  -5.1464   0.0000   0.0000   0.0000   0.2640
  12.900   1.3432   0.04772   0.04104  -0.0436  0.0124  1.0000  -5.1737   0.0000   0.0000   0.0000   0.2634
  13.000   1.3430   0.04879   0.04216  -0.0431  0.0124  1.0000  -5.2017   0.0000   0.0000   0.0000   0.2629
  13.100   1.3429   0.04985   0.04327  -0.0427  0.0124  1.0000  -5.2298   0.0000   0.0000   0.0000   0.2623
  18.500   1.1255   0.16388   0.16055  -0.0781  0.0130  1.0000  -4.8497   0.0000   0.0000   0.0000   0.2892
  18.600   1.1302   0.16462   0.16129  -0.0784  0.0132  1.0000  -4.9163   0.0000   0.0000   0.0000   0.2889
  18.700   1.1212   0.16927   0.16599  -0.0811  0.0132  1.0000  -4.8238   0.0000   0.0000   0.0000   0.2918
  18.800   1.1226   0.17094   0.16768  -0.0820  0.0133  1.0000  -4.8509   0.0000   0.0000   0.0000   0.2923
  18.900   1.1239   0.17262   0.16937  -0.0828  0.0135  1.0000  -4.8764   0.0000   0.0000   0.0000   0.2928
  19.000   1.1244   0.17455   0.17131  -0.0838  0.0137  1.0000  -4.8901   0.0000   0.0000   0.0000   0.2934
  19.100   1.1234   0.17689   0.17367  -0.0850  0.0139  1.0000  -4.8844   0.0000   0.0000   0.0000   0.2944
  19.200   1.1203   0.17989   0.17671  -0.0865  0.0140  1.0000  -4.8485   0.0000   0.0000   0.0000   0.2958
  19.300   1.1113   0.18480   0.18167  -0.0890  0.0142  1.0000  -4.7332   0.0000   0.0000   0.0000   0.2987
  19.400   1.1013   0.19030   0.18722  -0.0916  0.0144  1.0000  -4.5898   0.0000   0.0000   0.0000   0.3019


