xflr5 v6.61

 Calculated polar for: NACA 65-209

 1 1 Reynolds number fixed          Mach number fixed         

 xtrf =   1.000 (top)        1.000 (bottom)
 Mach =   0.000     Re =     0.100 e 6     Ncrit =   9.000

  alpha     CL        CD       CDp       Cm    Top Xtr Bot Xtr   Cpmin    Chinge    XCp    
 ------- -------- --------- --------- -------- ------- ------- -------- --------- ---------
 -10.000  -0.1749   0.01149   0.00830  -0.0153  1.0000  0.1009  -0.3232   0.0000   0.0000   0.0000   0.1784
  -9.900  -0.1716   0.00844   0.00535  -0.0170  1.0000  0.1047  -0.3469   0.0000   0.0000   0.0000   0.1672
  -9.800  -0.1518   0.00699   0.00393  -0.0158  1.0000  0.1109  -0.2887   0.0000   0.0000   0.0000   0.1644
  -9.700  -0.1400   0.00631   0.00328  -0.0154  1.0000  0.1177  -0.2605   0.0000   0.0000   0.0000   0.1603
  -9.600  -0.1335   0.00582   0.00282  -0.0156  1.0000  0.1248  -0.2467   0.0000   0.0000   0.0000   0.1549
  -9.500  -0.1186   0.00450   0.00154  -0.0185  0.9780  0.1437  -0.2120   0.0000   0.0000   0.0000   0.1198
  -9.400  -0.1196   0.00432   0.00139  -0.0200  0.9734  0.1473  -0.2248   0.0000   0.0000   0.0000   0.1081
  -9.300  -0.1200   0.00424   0.00133  -0.0213  0.9687  0.1494  -0.2336   0.0000   0.0000   0.0000   0.0977
  -9.200  -0.1053   0.00296   0.00013  -0.0217  0.9595  0.1589  -0.1819   0.0000   0.0000   0.0000   0.0737
  -9.100  -0.0930   0.00265  -0.00016  -0.0215  0.9544  0.1631  -0.1180   0.0000   0.0000   0.0000   0.0526
  -9.000  -0.0863   0.00244  -0.00035  -0.0216  0.9501  0.1662  -0.0789   0.0000   0.0000   0.0000   0.0364
  -8.900  -0.0808   0.00225  -0.00053  -0.0217  0.9481  0.1693  -0.0581   0.0000   0.0000   0.0000   0.0199
  -8.800  -0.0761   0.00208  -0.00069  -0.0219  0.9458  0.1724  -0.0511   0.0000   0.0000   0.0000   0.0027
  -8.700  -0.0721   0.00192  -0.00083  -0.0222  0.9434  0.1756  -0.0462   0.0000   0.0000   0.0000  -0.0152
  -8.600  -0.0687   0.00177  -0.00097  -0.0226  0.9408  0.1788  -0.0429   0.0000   0.0000   0.0000  -0.0335
  -8.500  -0.0657   0.00163  -0.00109  -0.0229  0.9381  0.1821  -0.0412   0.0000   0.0000   0.0000  -0.0521
  -8.400  -0.0634   0.00150  -0.00120  -0.0234  0.9354  0.1854  -0.0410   0.0000   0.0000   0.0000  -0.0700
  -8.300  -0.0621   0.00139  -0.00129  -0.0239  0.9326  0.1891  -0.0432   0.0000   0.0000   0.0000  -0.0847
  -8.200  -0.0649   0.00133  -0.00133  -0.0246  0.9297  0.1942  -0.0523   0.0000   0.0000   0.0000  -0.0814
  -8.100  -0.0738   0.00138  -0.00126  -0.0255  0.9269  0.1987  -0.0718   0.0000   0.0000   0.0000  -0.0547
  -8.000  -0.0735   0.00131  -0.00130  -0.0260  0.9243  0.1996  -0.0757   0.0000   0.0000   0.0000  -0.0630
  -7.900  -0.0720   0.00122  -0.00138  -0.0265  0.9216  0.2000  -0.0779   0.0000   0.0000   0.0000  -0.0760
  -7.800  -0.0697   0.00112  -0.00147  -0.0270  0.9183  0.2003  -0.0792   0.0000   0.0000   0.0000  -0.0937
  -7.700  -0.0667   0.00100  -0.00157  -0.0275  0.9145  0.2005  -0.0798   0.0000   0.0000   0.0000  -0.1173
  -7.600  -0.0632   0.00090  -0.00167  -0.0280  0.9104  0.2006  -0.0800   0.0000   0.0000   0.0000  -0.1461
  -7.500  -0.0598   0.00080  -0.00175  -0.0285  0.9063  0.2007  -0.0799   0.0000   0.0000   0.0000  -0.1759
  -7.400  -0.0576   0.00074  -0.00180  -0.0286  0.9028  0.2008  -0.0807   0.0000   0.0000   0.0000  -0.1960
  -7.200  -0.0410   0.00034  -0.00222  -0.0303  0.8983  0.1282  -0.1378   0.0000   0.0000   0.0000  -0.4183
  -7.100  -0.0422   0.00028  -0.00226  -0.0313  0.8965  0.1206  -0.1633   0.0000   0.0000   0.0000  -0.4226
  -7.000  -0.0476   0.00021  -0.00230  -0.0327  0.8949  0.1142  -0.2049   0.0000   0.0000   0.0000  -0.3761
  -6.600  -0.5384   0.06681   0.06158  -0.0327  1.0000  0.1036  -1.6830   0.0000   0.0000   0.0000   0.1867
  -6.500  -0.5446   0.06399   0.05876  -0.0324  1.0000  0.1051  -1.7063   0.0000   0.0000   0.0000   0.1882
  -6.300  -0.5532   0.05775   0.05239  -0.0303  1.0000  0.1116  -1.7051   0.0000   0.0000   0.0000   0.1928
  -6.200  -0.5515   0.05649   0.05118  -0.0292  1.0000  0.1141  -1.6784   0.0000   0.0000   0.0000   0.1947
  -6.100  -0.5508   0.05539   0.05010  -0.0281  1.0000  0.1164  -1.6588   0.0000   0.0000   0.0000   0.1967
  -6.000  -0.5506   0.05435   0.04906  -0.0270  1.0000  0.1187  -1.6441   0.0000   0.0000   0.0000   0.1987
  -5.900  -0.5506   0.05333   0.04803  -0.0260  1.0000  0.1212  -1.6329   0.0000   0.0000   0.0000   0.2005
  -5.800  -0.5505   0.05231   0.04699  -0.0250  1.0000  0.1237  -1.6243   0.0000   0.0000   0.0000   0.2023
  -5.700  -0.5501   0.05130   0.04594  -0.0241  1.0000  0.1263  -1.6177   0.0000   0.0000   0.0000   0.2040
  -5.600  -0.5494   0.05029   0.04488  -0.0232  1.0000  0.1291  -1.6128   0.0000   0.0000   0.0000   0.2056
  -5.500  -0.5482   0.04930   0.04382  -0.0224  1.0000  0.1321  -1.6092   0.0000   0.0000   0.0000   0.2070
  -4.900  -0.5201   0.03758   0.03049  -0.0182  1.0000  0.0682  -1.9847   0.0000   0.0000   0.0000   0.2128
  -4.800  -0.5148   0.03502   0.02763  -0.0171  1.0000  0.0601  -2.0811   0.0000   0.0000   0.0000   0.2145
  -4.700  -0.5040   0.03406   0.02603  -0.0153  1.0000  0.0528  -2.2231   0.0000   0.0000   0.0000   0.2174
  -4.600  -0.4982   0.03289   0.02470  -0.0143  1.0000  0.0527  -2.2361   0.0000   0.0000   0.0000   0.2190
  -4.500  -0.4931   0.03130   0.02296  -0.0135  1.0000  0.0533  -2.2447   0.0000   0.0000   0.0000   0.2203
  -4.400  -0.4881   0.02985   0.02141  -0.0128  1.0000  0.0546  -2.2290   0.0000   0.0000   0.0000   0.2215
  -4.300  -0.4828   0.02884   0.02037  -0.0122  1.0000  0.0563  -2.1842   0.0000   0.0000   0.0000   0.2226
  -4.200  -0.4784   0.02850   0.02016  -0.0118  1.0000  0.0609  -2.0824   0.0000   0.0000   0.0000   0.2233
  -4.100  -0.4730   0.02875   0.02049  -0.0113  1.0000  0.0689  -1.9720   0.0000   0.0000   0.0000   0.2242
  -4.000  -0.4651   0.03024   0.02186  -0.0104  1.0000  0.0754  -1.8642   0.0000   0.0000   0.0000   0.2257
  -3.900  -0.4590   0.02948   0.02100  -0.0097  1.0000  0.0765  -1.8173   0.0000   0.0000   0.0000   0.2269
  -3.800  -0.4524   0.02833   0.01976  -0.0090  1.0000  0.0749  -1.7757   0.0000   0.0000   0.0000   0.2281
  -3.700  -0.4459   0.02715   0.01849  -0.0084  1.0000  0.0738  -1.7357   0.0000   0.0000   0.0000   0.2293
  -3.600  -0.4392   0.02626   0.01752  -0.0077  1.0000  0.0730  -1.7028   0.0000   0.0000   0.0000   0.2305
  -3.500  -0.4324   0.02552   0.01669  -0.0070  1.0000  0.0722  -1.6967   0.0000   0.0000   0.0000   0.2318
  -3.400  -0.4254   0.02485   0.01595  -0.0064  1.0000  0.0716  -1.6897   0.0000   0.0000   0.0000   0.2332
  -3.300  -0.4184   0.02426   0.01527  -0.0057  1.0000  0.0710  -1.6822   0.0000   0.0000   0.0000   0.2347
  -3.200  -0.4114   0.02370   0.01466  -0.0050  1.0000  0.0705  -1.6743   0.0000   0.0000   0.0000   0.2362
  -3.100  -0.4044   0.02320   0.01409  -0.0043  1.0000  0.0700  -1.6660   0.0000   0.0000   0.0000   0.2377
  -3.000  -0.3974   0.02272   0.01357  -0.0036  1.0000  0.0697  -1.6573   0.0000   0.0000   0.0000   0.2393
  -2.900  -0.3904   0.02228   0.01308  -0.0028  1.0000  0.0695  -1.6483   0.0000   0.0000   0.0000   0.2410
  -2.800  -0.3835   0.02187   0.01264  -0.0021  1.0000  0.0694  -1.6390   0.0000   0.0000   0.0000   0.2428
  -2.700  -0.3761   0.02149   0.01222  -0.0015  0.9999  0.0694  -1.6289   0.0000   0.0000   0.0000   0.2443
  -2.600  -0.3632   0.02105   0.01175  -0.0018  0.9984  0.0696  -1.6143   0.0000   0.0000   0.0000   0.2433
  -2.500  -0.3507   0.02067   0.01133  -0.0021  0.9967  0.0701  -1.5995   0.0000   0.0000   0.0000   0.2424
  -2.400  -0.3385   0.02032   0.01096  -0.0024  0.9948  0.0708  -1.5847   0.0000   0.0000   0.0000   0.2414
  -2.300  -0.3266   0.02000   0.01063  -0.0026  0.9928  0.0717  -1.5700   0.0000   0.0000   0.0000   0.2405
  -2.200  -0.3149   0.01974   0.01035  -0.0028  0.9906  0.0731  -1.5545   0.0000   0.0000   0.0000   0.2395
  -2.100  -0.3030   0.01960   0.01018  -0.0031  0.9883  0.0753  -1.5320   0.0000   0.0000   0.0000   0.2382
  -2.000  -0.2927   0.01911   0.00970  -0.0032  0.9859  0.0797  -1.5252   0.0000   0.0000   0.0000   0.2376
  -1.900  -0.2819   0.01878   0.00940  -0.0035  0.9834  0.0858  -1.5063   0.0000   0.0000   0.0000   0.2363
  -1.800  -0.2702   0.01860   0.00920  -0.0038  0.9809  0.0922  -1.4909   0.0000   0.0000   0.0000   0.2345
  -1.700  -0.2581   0.01846   0.00899  -0.0041  0.9783  0.0997  -1.4857   0.0000   0.0000   0.0000   0.2326
  -1.600  -0.2465   0.01792   0.00859  -0.0042  0.9759  0.1394  -1.5226   0.0000   0.0000   0.0000   0.2317
  -1.500  -0.2533   0.01585   0.00914  -0.0010  0.9731  0.6740  -1.5476   0.0000   0.0000   0.0000   0.2446
  -1.400  -0.2591   0.01623   0.01005   0.0048  0.9688  0.8123  -1.5636   0.0000   0.0000   0.0000   0.2671
  -1.300  -0.2565   0.01703   0.01097   0.0089  0.9647  0.8757  -1.5486   0.0000   0.0000   0.0000   0.2835
  -1.200  -0.1077   0.02069   0.01423  -0.0093  0.9791  0.9722  -1.1277   0.0000   0.0000   0.0000   0.1613
  -1.100  -0.0883   0.02069   0.01416  -0.0115  0.9767  0.9752  -1.0521   0.0000   0.0000   0.0000   0.1170
  -1.000  -0.0687   0.02070   0.01410  -0.0138  0.9743  0.9783  -0.9766   0.0000   0.0000   0.0000   0.0468
  -0.900  -0.0484   0.02073   0.01408  -0.0161  0.9719  0.9816  -0.8998   0.0000   0.0000   0.0000  -0.0870
  -0.800  -0.0278   0.02078   0.01407  -0.0185  0.9695  0.9849  -0.8233   0.0000   0.0000   0.0000  -0.4238
  -0.700  -0.0072   0.02083   0.01408  -0.0209  0.9672  0.9880  -0.7482   0.0000   0.0000   0.0000  -2.6800
  -0.600   0.0130   0.02090   0.01410  -0.0233  0.9650  0.9908  -0.6752   0.0000   0.0000   0.0000   2.0491
  -0.500   0.0326   0.02098   0.01415  -0.0255  0.9630  0.9932  -0.6051   0.0000   0.0000   0.0000   1.0357
  -0.400   0.0515   0.02106   0.01421  -0.0276  0.9611  0.9953  -0.5379   0.0000   0.0000   0.0000   0.7881
  -0.300   0.0706   0.02116   0.01428  -0.0298  0.9593  0.9971  -0.4715   0.0000   0.0000   0.0000   0.6727
  -0.200   0.0901   0.02127   0.01437  -0.0320  0.9576  0.9987  -0.4057   0.0000   0.0000   0.0000   0.6058
  -0.100   0.1094   0.02139   0.01448  -0.0342  0.9560  1.0000  -0.3417   0.0000   0.0000   0.0000   0.5628
   0.000   0.1251   0.02151   0.01458  -0.0358  0.9540  1.0000  -0.3056   0.0000   0.0000   0.0000   0.5361
   0.100   0.1414   0.02169   0.01475  -0.0375  0.9521  1.0000  -0.3126   0.0000   0.0000   0.0000   0.5149
   0.200   0.1580   0.02196   0.01502  -0.0392  0.9503  1.0000  -0.3202   0.0000   0.0000   0.0000   0.4979
   0.300   0.1479   0.02157   0.01462  -0.0361  0.9458  1.0000  -0.3152   0.0000   0.0000   0.0000   0.4933
   0.400   0.1435   0.02134   0.01439  -0.0339  0.9415  1.0000  -0.3129   0.0000   0.0000   0.0000   0.4859
   0.500   0.1432   0.02119   0.01424  -0.0326  0.9373  1.0000  -0.3125   0.0000   0.0000   0.0000   0.4766
   0.600   0.1460   0.02108   0.01412  -0.0317  0.9331  1.0000  -0.3136   0.0000   0.0000   0.0000   0.4663
   0.700   0.1513   0.02100   0.01403  -0.0313  0.9290  1.0000  -0.3167   0.0000   0.0000   0.0000   0.4557
   0.800   0.1589   0.02094   0.01398  -0.0312  0.9251  1.0000  -0.3210   0.0000   0.0000   0.0000   0.4454
   0.900   0.1682   0.02090   0.01393  -0.0315  0.9215  1.0000  -0.3261   0.0000   0.0000   0.0000   0.4359
   1.000   0.1788   0.02088   0.01390  -0.0319  0.9182  1.0000  -0.3511   0.0000   0.0000   0.0000   0.4272
   1.100   0.1902   0.02089   0.01390  -0.0325  0.9153  1.0000  -0.4005   0.0000   0.0000   0.0000   0.4195
   1.200   0.2017   0.02093   0.01394  -0.0331  0.9128  1.0000  -0.4512   0.0000   0.0000   0.0000   0.4128
   1.300   0.2138   0.02098   0.01400  -0.0338  0.9106  1.0000  -0.5041   0.0000   0.0000   0.0000   0.4067
   1.400   0.2264   0.02106   0.01408  -0.0346  0.9084  1.0000  -0.5596   0.0000   0.0000   0.0000   0.4013
   1.500   0.2400   0.02116   0.01419  -0.0355  0.9064  1.0000  -0.6184   0.0000   0.0000   0.0000   0.3965
   1.600   0.2547   0.02130   0.01434  -0.0367  0.9044  1.0000  -0.6814   0.0000   0.0000   0.0000   0.3924
   1.700   0.2714   0.02149   0.01455  -0.0381  0.9025  1.0000  -0.7508   0.0000   0.0000   0.0000   0.3888
   1.800   0.2895   0.02179   0.01487  -0.0398  0.9005  1.0000  -0.8256   0.0000   0.0000   0.0000   0.3858
   1.900   0.2575   0.02148   0.01451  -0.0326  0.8929  1.0000  -0.7639   0.0000   0.0000   0.0000   0.3749
   2.000   0.2482   0.02138   0.01439  -0.0294  0.8870  1.0000  -0.7643   0.0000   0.0000   0.0000   0.3666
   2.100   0.2479   0.02135   0.01436  -0.0278  0.8820  1.0000  -0.7893   0.0000   0.0000   0.0000   0.3599
   2.200   0.2519   0.02138   0.01438  -0.0268  0.8779  1.0000  -0.8260   0.0000   0.0000   0.0000   0.3544
   2.300   0.2582   0.02144   0.01445  -0.0263  0.8743  1.0000  -0.8694   0.0000   0.0000   0.0000   0.3498
   2.400   0.2673   0.02150   0.01453  -0.0263  0.8710  1.0000  -0.9214   0.0000   0.0000   0.0000   0.3461
   2.500   0.2795   0.02156   0.01461  -0.0267  0.8679  1.0000  -0.9829   0.0000   0.0000   0.0000   0.3434
   2.600   0.2946   0.02161   0.01469  -0.0276  0.8649  1.0000  -1.0536   0.0000   0.0000   0.0000   0.3415
   2.700   0.3122   0.02166   0.01478  -0.0289  0.8622  1.0000  -1.1330   0.0000   0.0000   0.0000   0.3404
   2.800   0.3305   0.02170   0.01487  -0.0303  0.8596  1.0000  -1.2156   0.0000   0.0000   0.0000   0.3395
   2.900   0.3507   0.02175   0.01498  -0.0320  0.8572  1.0000  -1.3051   0.0000   0.0000   0.0000   0.3390
   3.000   0.3725   0.02181   0.01511  -0.0340  0.8550  1.0000  -1.4008   0.0000   0.0000   0.0000   0.3390
   3.100   0.3971   0.02187   0.01527  -0.0365  0.8529  1.0000  -1.5060   0.0000   0.0000   0.0000   0.3394
   3.200   0.4163   0.02187   0.01534  -0.0378  0.8484  1.0000  -1.5961   0.0000   0.0000   0.0000   0.3383
   3.300   0.3819   0.02224   0.01561  -0.0305  0.8410  1.0000  -1.5171   0.0000   0.0000   0.0000   0.3272
   3.400   0.3791   0.02233   0.01569  -0.0282  0.8343  1.0000  -1.5374   0.0000   0.0000   0.0000   0.3218
   3.500   0.5453   0.01305   0.00570  -0.0359  0.5045  1.0000  -2.0655   0.0000   0.0000   0.0000   0.3135
   3.600   0.5338   0.01422   0.00572  -0.0320  0.3094  1.0000  -2.0535   0.0000   0.0000   0.0000   0.3074
   3.700   0.5247   0.01567   0.00617  -0.0291  0.1436  1.0000  -2.0383   0.0000   0.0000   0.0000   0.3029
   3.800   0.5248   0.01656   0.00676  -0.0269  0.0986  1.0000  -1.9845   0.0000   0.0000   0.0000   0.2987
   3.900   0.5303   0.01691   0.00716  -0.0259  0.0899  1.0000  -1.9829   0.0000   0.0000   0.0000   0.2961
   4.000   0.5355   0.01732   0.00756  -0.0249  0.0827  1.0000  -1.9936   0.0000   0.0000   0.0000   0.2937
   4.100   0.5392   0.01790   0.00809  -0.0237  0.0764  1.0000  -1.9981   0.0000   0.0000   0.0000   0.2911
   4.200   0.5446   0.01838   0.00857  -0.0227  0.0725  1.0000  -2.0052   0.0000   0.0000   0.0000   0.2888
   4.300   0.5520   0.01870   0.00892  -0.0220  0.0694  1.0000  -2.0245   0.0000   0.0000   0.0000   0.2870
   4.400   0.5592   0.01909   0.00933  -0.0213  0.0671  1.0000  -2.0396   0.0000   0.0000   0.0000   0.2851
   4.500   0.5667   0.01954   0.00979  -0.0206  0.0656  1.0000  -2.0527   0.0000   0.0000   0.0000   0.2833
   4.600   0.5747   0.02002   0.01028  -0.0200  0.0643  1.0000  -2.0671   0.0000   0.0000   0.0000   0.2817
   4.700   0.5834   0.02053   0.01081  -0.0195  0.0632  1.0000  -2.0828   0.0000   0.0000   0.0000   0.2802
   4.800   0.5928   0.02108   0.01137  -0.0191  0.0624  1.0000  -2.0994   0.0000   0.0000   0.0000   0.2790
   4.900   0.6029   0.02168   0.01198  -0.0188  0.0618  1.0000  -2.1167   0.0000   0.0000   0.0000   0.2779
   5.000   0.6134   0.02231   0.01264  -0.0186  0.0614  1.0000  -2.1339   0.0000   0.0000   0.0000   0.2769
   5.100   0.6244   0.02299   0.01335  -0.0184  0.0612  1.0000  -2.1508   0.0000   0.0000   0.0000   0.2760
   5.200   0.6356   0.02372   0.01412  -0.0183  0.0611  1.0000  -2.1670   0.0000   0.0000   0.0000   0.2752
   5.300   0.6471   0.02450   0.01495  -0.0181  0.0613  1.0000  -2.1822   0.0000   0.0000   0.0000   0.2745
   5.400   0.6585   0.02532   0.01585  -0.0180  0.0616  1.0000  -2.1953   0.0000   0.0000   0.0000   0.2737
   5.500   0.6696   0.02619   0.01681  -0.0178  0.0621  1.0000  -2.2062   0.0000   0.0000   0.0000   0.2728
   5.600   0.6805   0.02712   0.01784  -0.0175  0.0628  1.0000  -2.2153   0.0000   0.0000   0.0000   0.2720
   5.700   0.6910   0.02810   0.01893  -0.0172  0.0637  1.0000  -2.2229   0.0000   0.0000   0.0000   0.2711
   5.800   0.7011   0.02914   0.02009  -0.0168  0.0646  1.0000  -2.2294   0.0000   0.0000   0.0000   0.2702
   5.900   0.7108   0.03023   0.02132  -0.0164  0.0657  1.0000  -2.2350   0.0000   0.0000   0.0000   0.2692
   6.000   0.7199   0.03140   0.02261  -0.0160  0.0668  1.0000  -2.2400   0.0000   0.0000   0.0000   0.2683
   6.100   0.7285   0.03265   0.02400  -0.0155  0.0681  1.0000  -2.2442   0.0000   0.0000   0.0000   0.2673
   6.200   0.7366   0.03402   0.02549  -0.0150  0.0694  1.0000  -2.2474   0.0000   0.0000   0.0000   0.2663
   6.300   0.7439   0.03559   0.02717  -0.0145  0.0707  1.0000  -2.2708   0.0000   0.0000   0.0000   0.2654
   6.400   0.7502   0.03765   0.02934  -0.0140  0.0723  1.0000  -2.3073   0.0000   0.0000   0.0000   0.2646
   6.500   0.7609   0.03914   0.03088  -0.0139  0.0754  1.0000  -2.3755   0.0000   0.0000   0.0000   0.2640
   6.600   0.7665   0.04079   0.03265  -0.0133  0.0751  1.0000  -2.4188   0.0000   0.0000   0.0000   0.2631
   6.700   0.7674   0.04316   0.03518  -0.0124  0.0737  1.0000  -2.4238   0.0000   0.0000   0.0000   0.2619
   7.400   0.2043   0.00001  -0.00262   0.0215  0.0746  0.9187  -0.7631   0.0000   0.0000   0.0000   0.1564
  11.000   0.6257   0.11055   0.10508  -0.0007  0.0927  1.0000  -1.6351   0.0000   0.0000   0.0000   0.2441
  11.100   0.6248   0.11177   0.10629  -0.0016  0.0910  1.0000  -1.6184   0.0000   0.0000   0.0000   0.2455
  11.200   0.6239   0.11316   0.10766  -0.0025  0.0895  1.0000  -1.6024   0.0000   0.0000   0.0000   0.2468
  11.300   0.6229   0.11463   0.10911  -0.0033  0.0880  1.0000  -1.5868   0.0000   0.0000   0.0000   0.2481
  11.400   0.6226   0.11612   0.11060  -0.0041  0.0865  1.0000  -1.5746   0.0000   0.0000   0.0000   0.2492
  11.500   0.6229   0.11763   0.11210  -0.0047  0.0850  1.0000  -1.5668   0.0000   0.0000   0.0000   0.2502
  12.300   0.6419   0.14012   0.13477  -0.0072  0.0735  1.0000  -1.5803   0.0000   0.0000   0.0000   0.2534
  12.400   0.6407   0.14135   0.13599  -0.0083  0.0733  1.0000  -1.5609   0.0000   0.0000   0.0000   0.2550
  12.500   0.6386   0.14248   0.13710  -0.0094  0.0731  1.0000  -1.5366   0.0000   0.0000   0.0000   0.2567
  12.600   0.6360   0.14351   0.13812  -0.0107  0.0728  1.0000  -1.5090   0.0000   0.0000   0.0000   0.2587
  12.700   0.6333   0.14444   0.13902  -0.0119  0.0724  1.0000  -1.4801   0.0000   0.0000   0.0000   0.2606
  12.800   0.6307   0.14530   0.13986  -0.0132  0.0719  1.0000  -1.4502   0.0000   0.0000   0.0000   0.2627
  12.900   0.6285   0.14620   0.14075  -0.0145  0.0711  1.0000  -1.4211   0.0000   0.0000   0.0000   0.2647
  13.000   0.6267   0.14726   0.14179  -0.0157  0.0702  1.0000  -1.3948   0.0000   0.0000   0.0000   0.2666
  13.100   0.6256   0.14849   0.14300  -0.0168  0.0691  1.0000  -1.3733   0.0000   0.0000   0.0000   0.2683
  13.200   0.6253   0.14985   0.14435  -0.0178  0.0680  1.0000  -1.3569   0.0000   0.0000   0.0000   0.2698
  13.300   0.6255   0.15130   0.14580  -0.0188  0.0669  1.0000  -1.3446   0.0000   0.0000   0.0000   0.2712
  13.400   0.6261   0.15280   0.14728  -0.0196  0.0658  1.0000  -1.3356   0.0000   0.0000   0.0000   0.2724
  13.500   0.6271   0.15432   0.14879  -0.0204  0.0647  1.0000  -1.3293   0.0000   0.0000   0.0000   0.2736
  13.600   0.6284   0.15584   0.15031  -0.0212  0.0636  1.0000  -1.3253   0.0000   0.0000   0.0000   0.2746
  13.700   0.6298   0.15736   0.15182  -0.0219  0.0625  1.0000  -1.3234   0.0000   0.0000   0.0000   0.2756
  13.800   0.6315   0.15887   0.15333  -0.0226  0.0614  1.0000  -1.3233   0.0000   0.0000   0.0000   0.2765
  13.900   0.6335   0.16038   0.15482  -0.0232  0.0604  1.0000  -1.3253   0.0000   0.0000   0.0000   0.2773
  14.000   0.6356   0.16188   0.15632  -0.0239  0.0593  1.0000  -1.3293   0.0000   0.0000   0.0000   0.2781
  14.100   0.6381   0.16339   0.15782  -0.0244  0.0583  1.0000  -1.3356   0.0000   0.0000   0.0000   0.2788
  14.500   0.6516   0.16985   0.16429  -0.0262  0.0543  1.0000  -1.3968   0.0000   0.0000   0.0000   0.2804
  14.600   0.6575   0.17168   0.16613  -0.0264  0.0533  1.0000  -1.4324   0.0000   0.0000   0.0000   0.2801
  14.700   0.6653   0.17393   0.16839  -0.0262  0.0522  1.0000  -1.4849   0.0000   0.0000   0.0000   0.2793
  14.800   0.6771   0.17762   0.17210  -0.0256  0.0508  1.0000  -1.5680   0.0000   0.0000   0.0000   0.2776
  14.900   0.6819   0.18690   0.18133  -0.0264  0.0491  1.0000  -1.5464   0.0000   0.0000   0.0000   0.2786
  15.000   0.6836   0.18844   0.18286  -0.0272  0.0490  1.0000  -1.5395   0.0000   0.0000   0.0000   0.2796
  15.100   0.6853   0.18995   0.18437  -0.0280  0.0490  1.0000  -1.5328   0.0000   0.0000   0.0000   0.2805
  15.200   0.6870   0.19144   0.18586  -0.0288  0.0490  1.0000  -1.5261   0.0000   0.0000   0.0000   0.2815
  15.300   0.6887   0.19291   0.18732  -0.0296  0.0489  1.0000  -1.5195   0.0000   0.0000   0.0000   0.2824
  15.400   0.6905   0.19436   0.18876  -0.0304  0.0489  1.0000  -1.5130   0.0000   0.0000   0.0000   0.2833
  15.500   0.6922   0.19578   0.19018  -0.0311  0.0488  1.0000  -1.5066   0.0000   0.0000   0.0000   0.2843
  15.600   0.6940   0.19717   0.19156  -0.0319  0.0488  1.0000  -1.5003   0.0000   0.0000   0.0000   0.2852
  15.700   0.6957   0.19852   0.19291  -0.0327  0.0487  1.0000  -1.4940   0.0000   0.0000   0.0000   0.2861
  15.800   0.6975   0.19984   0.19422  -0.0335  0.0487  1.0000  -1.4876   0.0000   0.0000   0.0000   0.2870
  15.900   0.6992   0.20111   0.19548  -0.0343  0.0486  1.0000  -1.4813   0.0000   0.0000   0.0000   0.2878
  16.000   0.7009   0.20233   0.19669  -0.0350  0.0485  1.0000  -1.4749   0.0000   0.0000   0.0000   0.2887
  16.100   0.7023   0.20344   0.19780  -0.0358  0.0484  1.0000  -1.4665   0.0000   0.0000   0.0000   0.2897
  16.200   0.7033   0.20444   0.19879  -0.0367  0.0483  1.0000  -1.4558   0.0000   0.0000   0.0000   0.2907
  16.300   0.7043   0.20536   0.19971  -0.0375  0.0482  1.0000  -1.4448   0.0000   0.0000   0.0000   0.2917
  16.400   0.7051   0.20620   0.20053  -0.0384  0.0480  1.0000  -1.4332   0.0000   0.0000   0.0000   0.2927
  16.500   0.7056   0.20690   0.20123  -0.0393  0.0478  1.0000  -1.4197   0.0000   0.0000   0.0000   0.2938
  16.600   0.7059   0.20747   0.20179  -0.0401  0.0476  1.0000  -1.4052   0.0000   0.0000   0.0000   0.2949
  16.700   0.7058   0.20787   0.20218  -0.0410  0.0474  1.0000  -1.3894   0.0000   0.0000   0.0000   0.2961
  16.800   0.7058   0.20828   0.20258  -0.0419  0.0471  1.0000  -1.3737   0.0000   0.0000   0.0000   0.2972
  16.900   0.7060   0.20872   0.20301  -0.0428  0.0467  1.0000  -1.3584   0.0000   0.0000   0.0000   0.2983
  17.000   0.7066   0.20927   0.20355  -0.0437  0.0463  1.0000  -1.3441   0.0000   0.0000   0.0000   0.2993
  17.100   0.7075   0.20996   0.20423  -0.0445  0.0459  1.0000  -1.3314   0.0000   0.0000   0.0000   0.3003
  17.200   0.7088   0.21080   0.20506  -0.0453  0.0453  1.0000  -1.3210   0.0000   0.0000   0.0000   0.3012
  17.300   0.7105   0.21178   0.20604  -0.0461  0.0448  1.0000  -1.3126   0.0000   0.0000   0.0000   0.3020
  17.400   0.7124   0.21287   0.20712  -0.0469  0.0442  1.0000  -1.3060   0.0000   0.0000   0.0000   0.3028
  17.500   0.7145   0.21404   0.20829  -0.0476  0.0436  1.0000  -1.3010   0.0000   0.0000   0.0000   0.3035
  17.600   0.7167   0.21526   0.20951  -0.0483  0.0430  1.0000  -1.2972   0.0000   0.0000   0.0000   0.3042
  17.700   0.7189   0.21652   0.21077  -0.0490  0.0424  1.0000  -1.2943   0.0000   0.0000   0.0000   0.3048
  17.800   0.7213   0.21781   0.21206  -0.0497  0.0418  1.0000  -1.2922   0.0000   0.0000   0.0000   0.3054
  17.900   0.7236   0.21911   0.21336  -0.0504  0.0413  1.0000  -1.2907   0.0000   0.0000   0.0000   0.3060
  18.000   0.7261   0.22043   0.21467  -0.0511  0.0407  1.0000  -1.2898   0.0000   0.0000   0.0000   0.3066
  18.100   0.7285   0.22175   0.21599  -0.0517  0.0402  1.0000  -1.2892   0.0000   0.0000   0.0000   0.3072
  18.200   0.7310   0.22308   0.21731  -0.0524  0.0397  1.0000  -1.2891   0.0000   0.0000   0.0000   0.3077
  18.300   0.7335   0.22440   0.21864  -0.0530  0.0392  1.0000  -1.2893   0.0000   0.0000   0.0000   0.3082
  18.400   0.7360   0.22573   0.21997  -0.0537  0.0386  1.0000  -1.2899   0.0000   0.0000   0.0000   0.3088
  18.500   0.7385   0.22706   0.22129  -0.0544  0.0382  1.0000  -1.2907   0.0000   0.0000   0.0000   0.3093
  18.600   0.7410   0.22839   0.22262  -0.0550  0.0377  1.0000  -1.2919   0.0000   0.0000   0.0000   0.3097
  18.700   0.7436   0.22971   0.22394  -0.0556  0.0372  1.0000  -1.2933   0.0000   0.0000   0.0000   0.3102
  18.800   0.7461   0.23104   0.22527  -0.0563  0.0367  1.0000  -1.2949   0.0000   0.0000   0.0000   0.3107
  18.900   0.7487   0.23237   0.22665  -0.0569  0.0362  1.0000  -1.2973   0.0000   0.0000   0.0000   0.3112
  19.000   0.7512   0.23367   0.22794  -0.0575  0.0358  1.0000  -1.2998   0.0000   0.0000   0.0000   0.3116
  19.100   0.7538   0.23494   0.22921  -0.0581  0.0353  1.0000  -1.3025   0.0000   0.0000   0.0000   0.3120
  19.200   0.7564   0.23620   0.23046  -0.0588  0.0349  1.0000  -1.3054   0.0000   0.0000   0.0000   0.3124
  19.300   0.7590   0.23744   0.23170  -0.0594  0.0345  1.0000  -1.3087   0.0000   0.0000   0.0000   0.3128
  19.400   0.7616   0.23868   0.23294  -0.0600  0.0341  1.0000  -1.3122   0.0000   0.0000   0.0000   0.3132
  19.500   0.7642   0.23991   0.23417  -0.0606  0.0337  1.0000  -1.3160   0.0000   0.0000   0.0000   0.3136
  19.600   0.7668   0.24114   0.23540  -0.0612  0.0333  1.0000  -1.3201   0.0000   0.0000   0.0000   0.3140
  19.700   0.7695   0.24237   0.23662  -0.0618  0.0329  1.0000  -1.3245   0.0000   0.0000   0.0000   0.3143
  19.800   0.7721   0.24360   0.23785  -0.0623  0.0325  1.0000  -1.3293   0.0000   0.0000   0.0000   0.3147
  19.900   0.7748   0.24483   0.23908  -0.0629  0.0321  1.0000  -1.3344   0.0000   0.0000   0.0000   0.3150
  20.000   0.7774   0.24607   0.24032  -0.0635  0.0317  1.0000  -1.3399   0.0000   0.0000   0.0000   0.3154
  20.100   0.7801   0.24731   0.24156  -0.0641  0.0314  1.0000  -1.3458   0.0000   0.0000   0.0000   0.3157
  20.200   0.7828   0.24857   0.24281  -0.0647  0.0310  1.0000  -1.3521   0.0000   0.0000   0.0000   0.3160
  20.300   0.7855   0.24983   0.24408  -0.0653  0.0306  1.0000  -1.3588   0.0000   0.0000   0.0000   0.3163
  20.400   0.7883   0.25111   0.24535  -0.0658  0.0303  1.0000  -1.3661   0.0000   0.0000   0.0000   0.3166
  20.500   0.7910   0.25240   0.24665  -0.0664  0.0300  1.0000  -1.3739   0.0000   0.0000   0.0000   0.3169
  20.600   0.7938   0.25372   0.24797  -0.0670  0.0296  1.0000  -1.3823   0.0000   0.0000   0.0000   0.3172
  20.700   0.7966   0.25506   0.24931  -0.0675  0.0293  1.0000  -1.3913   0.0000   0.0000   0.0000   0.3174
  20.800   0.7997   0.25651   0.25075  -0.0680  0.0288  1.0000  -1.4069   0.0000   0.0000   0.0000   0.3176
  20.900   0.8031   0.25809   0.25234  -0.0685  0.0283  1.0000  -1.4269   0.0000   0.0000   0.0000   0.3177
  21.000   0.8067   0.25987   0.25412  -0.0690  0.0277  1.0000  -1.4506   0.0000   0.0000   0.0000   0.3177
  21.100   0.8107   0.26199   0.25625  -0.0694  0.0272  1.0000  -1.4794   0.0000   0.0000   0.0000   0.3177
  21.200   0.8156   0.26483   0.25910  -0.0697  0.0266  1.0000  -1.5167   0.0000   0.0000   0.0000   0.3175
  21.300   0.8230   0.26982   0.26411  -0.0699  0.0259  1.0000  -1.5723   0.0000   0.0000   0.0000   0.3169
  21.600   0.8390   0.29253   0.28678  -0.0725  0.0241  1.0000  -1.5371   0.0000   0.0000   0.0000   0.3182
  21.700   0.8408   0.29322   0.28747  -0.0732  0.0241  1.0000  -1.5342   0.0000   0.0000   0.0000   0.3187
  21.800   0.8425   0.29389   0.28814  -0.0738  0.0241  1.0000  -1.5314   0.0000   0.0000   0.0000   0.3191
  21.900   0.8442   0.29448   0.28873  -0.0745  0.0240  1.0000  -1.5285   0.0000   0.0000   0.0000   0.3195
  22.000   0.8459   0.29504   0.28928  -0.0751  0.0240  1.0000  -1.5258   0.0000   0.0000   0.0000   0.3199
  22.100   0.8476   0.29555   0.28980  -0.0757  0.0240  1.0000  -1.5231   0.0000   0.0000   0.0000   0.3203
  22.200   0.8491   0.29596   0.29020  -0.0764  0.0239  1.0000  -1.5201   0.0000   0.0000   0.0000   0.3207
  22.300   0.8507   0.29632   0.29056  -0.0770  0.0239  1.0000  -1.5173   0.0000   0.0000   0.0000   0.3212
  22.400   0.8522   0.29662   0.29086  -0.0777  0.0238  1.0000  -1.5144   0.0000   0.0000   0.0000   0.3216
  22.500   0.8537   0.29680   0.29103  -0.0783  0.0237  1.0000  -1.5112   0.0000   0.0000   0.0000   0.3220
  22.600   0.8550   0.29686   0.29109  -0.0789  0.0236  1.0000  -1.5074   0.0000   0.0000   0.0000   0.3224
  22.700   0.8559   0.29662   0.29085  -0.0796  0.0236  1.0000  -1.5007   0.0000   0.0000   0.0000   0.3229
  22.800   0.8567   0.29626   0.29048  -0.0803  0.0235  1.0000  -1.4930   0.0000   0.0000   0.0000   0.3235
  22.900   0.8574   0.29585   0.29006  -0.0810  0.0233  1.0000  -1.4851   0.0000   0.0000   0.0000   0.3240
  23.000   0.8583   0.29540   0.28961  -0.0817  0.0232  1.0000  -1.4769   0.0000   0.0000   0.0000   0.3245
  23.100   0.8591   0.29494   0.28915  -0.0824  0.0230  1.0000  -1.4684   0.0000   0.0000   0.0000   0.3250
  23.200   0.8601   0.29451   0.28871  -0.0831  0.0229  1.0000  -1.4597   0.0000   0.0000   0.0000   0.3256
  23.300   0.8612   0.29416   0.28836  -0.0838  0.0226  1.0000  -1.4507   0.0000   0.0000   0.0000   0.3261
  23.400   0.8625   0.29396   0.28815  -0.0845  0.0224  1.0000  -1.4417   0.0000   0.0000   0.0000   0.3266
  23.500   0.8640   0.29396   0.28815  -0.0852  0.0221  1.0000  -1.4331   0.0000   0.0000   0.0000   0.3270
  23.600   0.8657   0.29420   0.28839  -0.0859  0.0218  1.0000  -1.4252   0.0000   0.0000   0.0000   0.3275
  23.700   0.8676   0.29466   0.28886  -0.0866  0.0215  1.0000  -1.4184   0.0000   0.0000   0.0000   0.3279
  23.800   0.8696   0.29533   0.28952  -0.0873  0.0212  1.0000  -1.4129   0.0000   0.0000   0.0000   0.3283
  23.900   0.8717   0.29615   0.29035  -0.0880  0.0208  1.0000  -1.4087   0.0000   0.0000   0.0000   0.3286
  24.000   0.8739   0.29709   0.29129  -0.0886  0.0205  1.0000  -1.4055   0.0000   0.0000   0.0000   0.3290
  24.100   0.8762   0.29811   0.29231  -0.0893  0.0202  1.0000  -1.4033   0.0000   0.0000   0.0000   0.3293
  24.200   0.8784   0.29919   0.29340  -0.0900  0.0199  1.0000  -1.4018   0.0000   0.0000   0.0000   0.3296
  24.300   0.8807   0.30032   0.29452  -0.0906  0.0195  1.0000  -1.4011   0.0000   0.0000   0.0000   0.3299
  24.400   0.8829   0.30147   0.29568  -0.0913  0.0192  1.0000  -1.4009   0.0000   0.0000   0.0000   0.3302
  24.500   0.8852   0.30265   0.29687  -0.0919  0.0189  1.0000  -1.4012   0.0000   0.0000   0.0000   0.3305
  24.600   0.8874   0.30385   0.29807  -0.0926  0.0187  1.0000  -1.4020   0.0000   0.0000   0.0000   0.3308
  24.700   0.8897   0.30506   0.29928  -0.0932  0.0184  1.0000  -1.4032   0.0000   0.0000   0.0000   0.3311
  24.800   0.8919   0.30627   0.30049  -0.0938  0.0181  1.0000  -1.4047   0.0000   0.0000   0.0000   0.3314
  24.900   0.8941   0.30750   0.30173  -0.0945  0.0178  1.0000  -1.4065   0.0000   0.0000   0.0000   0.3317
  25.000   0.8963   0.30873   0.30296  -0.0951  0.0176  1.0000  -1.4087   0.0000   0.0000   0.0000   0.3319
  25.100   0.8986   0.30998   0.30421  -0.0958  0.0173  1.0000  -1.4112   0.0000   0.0000   0.0000   0.3322
  25.200   0.9008   0.31123   0.30558  -0.0964  0.0172  1.0000  -1.4132   0.0000   0.0000   0.0000   0.3325
  25.300   0.9030   0.31248   0.30683  -0.0970  0.0169  1.0000  -1.4160   0.0000   0.0000   0.0000   0.3327
  25.400   0.9051   0.31372   0.30808  -0.0977  0.0167  1.0000  -1.4191   0.0000   0.0000   0.0000   0.3330
  25.500   0.9073   0.31498   0.30934  -0.0983  0.0165  1.0000  -1.4226   0.0000   0.0000   0.0000   0.3333
  25.600   0.9095   0.31623   0.31060  -0.0990  0.0163  1.0000  -1.4264   0.0000   0.0000   0.0000   0.3335
  25.700   0.9116   0.31748   0.31186  -0.0996  0.0161  1.0000  -1.4305   0.0000   0.0000   0.0000   0.3338
  25.800   0.9138   0.31874   0.31312  -0.1002  0.0158  1.0000  -1.4349   0.0000   0.0000   0.0000   0.3340
  25.900   0.9159   0.32000   0.31439  -0.1009  0.0156  1.0000  -1.4397   0.0000   0.0000   0.0000   0.3343
  26.000   0.9180   0.32127   0.31566  -0.1015  0.0154  1.0000  -1.4447   0.0000   0.0000   0.0000   0.3345
  26.100   0.9201   0.32253   0.31693  -0.1021  0.0152  1.0000  -1.4502   0.0000   0.0000   0.0000   0.3347
  26.200   0.9222   0.32380   0.31820  -0.1028  0.0151  1.0000  -1.4560   0.0000   0.0000   0.0000   0.3350
  26.300   0.9243   0.32508   0.31949  -0.1034  0.0149  1.0000  -1.4622   0.0000   0.0000   0.0000   0.3352
  26.400   0.9264   0.32636   0.32077  -0.1040  0.0147  1.0000  -1.4689   0.0000   0.0000   0.0000   0.3354
  26.500   0.9285   0.32765   0.32207  -0.1046  0.0145  1.0000  -1.4760   0.0000   0.0000   0.0000   0.3357
  26.600   0.9306   0.32895   0.32337  -0.1053  0.0143  1.0000  -1.4836   0.0000   0.0000   0.0000   0.3359
  26.700   0.9327   0.33026   0.32468  -0.1059  0.0142  1.0000  -1.4918   0.0000   0.0000   0.0000   0.3361
  26.800   0.9347   0.33158   0.32601  -0.1065  0.0140  1.0000  -1.5005   0.0000   0.0000   0.0000   0.3363
  26.900   0.9368   0.33293   0.32736  -0.1071  0.0139  1.0000  -1.5099   0.0000   0.0000   0.0000   0.3365
  27.000   0.9389   0.33429   0.32873  -0.1078  0.0137  1.0000  -1.5200   0.0000   0.0000   0.0000   0.3367
  27.100   0.9410   0.33569   0.33014  -0.1084  0.0136  1.0000  -1.5309   0.0000   0.0000   0.0000   0.3369
  27.200   0.9431   0.33713   0.33158  -0.1090  0.0134  1.0000  -1.5427   0.0000   0.0000   0.0000   0.3371
  27.300   0.9452   0.33862   0.33308  -0.1096  0.0133  1.0000  -1.5555   0.0000   0.0000   0.0000   0.3372
  27.400   0.9474   0.34019   0.33465  -0.1102  0.0131  1.0000  -1.5694   0.0000   0.0000   0.0000   0.3374
  27.500   0.9496   0.34185   0.33633  -0.1108  0.0130  1.0000  -1.5847   0.0000   0.0000   0.0000   0.3375
  27.600   0.9519   0.34366   0.33814  -0.1113  0.0129  1.0000  -1.6017   0.0000   0.0000   0.0000   0.3376
  27.700   0.9544   0.34568   0.34017  -0.1119  0.0127  1.0000  -1.6206   0.0000   0.0000   0.0000   0.3377
  27.800   0.9570   0.34803   0.34252  -0.1124  0.0126  1.0000  -1.6420   0.0000   0.0000   0.0000   0.3378
  27.900   0.9600   0.35094   0.34545  -0.1130  0.0124  1.0000  -1.6669   0.0000   0.0000   0.0000   0.3378
  28.000   0.9637   0.35506   0.34958  -0.1135  0.0123  1.0000  -1.6973   0.0000   0.0000   0.0000   0.3377


