xflr5 v6.61

 Calculated polar for: NACA65-012

 1 1 Reynolds number fixed          Mach number fixed         

 xtrf =   1.000 (top)        1.000 (bottom)
 Mach =   0.000     Re =     0.130 e 6     Ncrit =   9.000

  alpha     CL        CD       CDp       Cm    Top Xtr Bot Xtr   Cpmin    Chinge    XCp    
 ------- -------- --------- --------- -------- ------- ------- -------- --------- ---------
  -9.400  -0.7555   0.07228   0.06809  -0.0248  1.0000  0.1153  -2.6058   0.0000   0.0000   0.0000   0.2096
  -9.300  -0.7623   0.07089   0.06666  -0.0246  1.0000  0.1166  -2.6205   0.0000   0.0000   0.0000   0.2102
  -9.200  -0.7740   0.06940   0.06508  -0.0246  1.0000  0.1184  -2.6601   0.0000   0.0000   0.0000   0.2108
  -8.100  -0.8021   0.04484   0.03780  -0.0167  1.0000  0.0674  -3.3752   0.0000   0.0000   0.0000   0.2222
  -8.000  -0.7910   0.04284   0.03590  -0.0170  1.0000  0.0667  -3.3190   0.0000   0.0000   0.0000   0.2215
  -7.900  -0.7839   0.04132   0.03434  -0.0167  1.0000  0.0663  -3.2872   0.0000   0.0000   0.0000   0.2218
  -7.800  -0.7773   0.03989   0.03284  -0.0163  1.0000  0.0657  -3.2597   0.0000   0.0000   0.0000   0.2222
  -7.700  -0.7777   0.03800   0.03023  -0.0138  1.0000  0.0600  -3.3934   0.0000   0.0000   0.0000   0.2254
  -7.600  -0.7685   0.03669   0.02890  -0.0136  1.0000  0.0592  -3.3500   0.0000   0.0000   0.0000   0.2255
  -7.500  -0.7599   0.03529   0.02749  -0.0134  1.0000  0.0585  -3.3074   0.0000   0.0000   0.0000   0.2257
  -7.400  -0.7527   0.03408   0.02621  -0.0128  1.0000  0.0578  -3.2754   0.0000   0.0000   0.0000   0.2263
  -7.300  -0.7461   0.03298   0.02499  -0.0121  1.0000  0.0571  -3.2493   0.0000   0.0000   0.0000   0.2272
  -7.200  -0.7398   0.03196   0.02384  -0.0112  1.0000  0.0565  -3.2244   0.0000   0.0000   0.0000   0.2283
  -7.100  -0.7336   0.03102   0.02278  -0.0103  1.0000  0.0560  -3.2113   0.0000   0.0000   0.0000   0.2294
  -7.000  -0.7277   0.03017   0.02181  -0.0094  1.0000  0.0557  -3.1988   0.0000   0.0000   0.0000   0.2307
  -6.900  -0.7218   0.02939   0.02092  -0.0084  1.0000  0.0556  -3.1821   0.0000   0.0000   0.0000   0.2320
  -6.800  -0.7159   0.02867   0.02010  -0.0075  1.0000  0.0556  -3.1611   0.0000   0.0000   0.0000   0.2333
  -6.700  -0.7099   0.02801   0.01935  -0.0066  1.0000  0.0557  -3.1364   0.0000   0.0000   0.0000   0.2345
  -6.600  -0.7039   0.02739   0.01863  -0.0057  1.0000  0.0558  -3.1086   0.0000   0.0000   0.0000   0.2358
  -6.500  -0.6978   0.02681   0.01798  -0.0048  1.0000  0.0561  -3.0784   0.0000   0.0000   0.0000   0.2371
  -6.400  -0.6917   0.02628   0.01738  -0.0039  1.0000  0.0566  -3.0453   0.0000   0.0000   0.0000   0.2383
  -6.300  -0.6862   0.02585   0.01688  -0.0030  1.0000  0.0575  -3.0089   0.0000   0.0000   0.0000   0.2397
  -6.200  -0.6810   0.02550   0.01643  -0.0020  1.0000  0.0585  -2.9743   0.0000   0.0000   0.0000   0.2412
  -6.100  -0.6762   0.02523   0.01603  -0.0009  1.0000  0.0595  -2.9423   0.0000   0.0000   0.0000   0.2429
  -6.000  -0.6689   0.02455   0.01537  -0.0004  1.0000  0.0605  -2.8972   0.0000   0.0000   0.0000   0.2437
  -5.900  -0.6620   0.02401   0.01488   0.0002  1.0000  0.0614  -2.8465   0.0000   0.0000   0.0000   0.2446
  -5.800  -0.6553   0.02357   0.01444   0.0009  1.0000  0.0622  -2.8009   0.0000   0.0000   0.0000   0.2457
  -5.700  -0.6485   0.02313   0.01401   0.0015  1.0000  0.0629  -2.7574   0.0000   0.0000   0.0000   0.2469
  -5.600  -0.6420   0.02273   0.01360   0.0023  1.0000  0.0636  -2.7145   0.0000   0.0000   0.0000   0.2481
  -5.500  -0.6355   0.02235   0.01321   0.0030  1.0000  0.0644  -2.6721   0.0000   0.0000   0.0000   0.2494
  -5.400  -0.6293   0.02199   0.01283   0.0038  1.0000  0.0653  -2.6302   0.0000   0.0000   0.0000   0.2507
  -5.300  -0.6231   0.02166   0.01247   0.0046  1.0000  0.0662  -2.5889   0.0000   0.0000   0.0000   0.2521
  -5.200  -0.6169   0.02138   0.01214   0.0054  1.0000  0.0671  -2.5478   0.0000   0.0000   0.0000   0.2535
  -5.100  -0.6106   0.02088   0.01172   0.0060  0.9998  0.0683  -2.5015   0.0000   0.0000   0.0000   0.2547
  -5.000  -0.5964   0.02035   0.01124   0.0050  0.9978  0.0703  -2.4281   0.0000   0.0000   0.0000   0.2534
  -4.900  -0.5816   0.01995   0.01084   0.0040  0.9957  0.0734  -2.3545   0.0000   0.0000   0.0000   0.2520
  -4.800  -0.5677   0.01948   0.01041   0.0031  0.9935  0.0771  -2.2882   0.0000   0.0000   0.0000   0.2505
  -4.700  -0.5538   0.01907   0.01004   0.0022  0.9912  0.0814  -2.2317   0.0000   0.0000   0.0000   0.2490
  -4.600  -0.5404   0.01860   0.00961   0.0014  0.9887  0.0856  -2.1815   0.0000   0.0000   0.0000   0.2477
  -4.500  -0.5265   0.01819   0.00920   0.0005  0.9864  0.0913  -2.1312   0.0000   0.0000   0.0000   0.2461
  -4.400  -0.5131   0.01771   0.00877  -0.0004  0.9839  0.0995  -2.0823   0.0000   0.0000   0.0000   0.2445
  -4.300  -0.5009   0.01713   0.00833  -0.0010  0.9812  0.1147  -2.0404   0.0000   0.0000   0.0000   0.2432
  -4.200  -0.4949   0.01558   0.00763  -0.0013  0.9783  0.2324  -2.0241   0.0000   0.0000   0.0000   0.2427
  -4.100  -0.4983   0.01380   0.00769   0.0007  0.9749  0.5757  -2.0176   0.0000   0.0000   0.0000   0.2469
  -4.000  -0.4882   0.01402   0.00809   0.0016  0.9716  0.6434  -1.9633   0.0000   0.0000   0.0000   0.2489
  -3.900  -0.4738   0.01430   0.00838   0.0015  0.9695  0.6735  -1.8906   0.0000   0.0000   0.0000   0.2487
  -3.800  -0.4624   0.01454   0.00857   0.0017  0.9663  0.6919  -1.8241   0.0000   0.0000   0.0000   0.2495
  -3.700  -0.4480   0.01485   0.00887   0.0016  0.9645  0.7076  -1.7476   0.0000   0.0000   0.0000   0.2494
  -3.600  -0.4364   0.01509   0.00909   0.0019  0.9615  0.7197  -1.6801   0.0000   0.0000   0.0000   0.2502
  -3.500  -0.4226   0.01538   0.00936   0.0019  0.9594  0.7320  -1.6055   0.0000   0.0000   0.0000   0.2503
  -3.400  -0.4103   0.01579   0.00978   0.0024  0.9571  0.7452  -1.5438   0.0000   0.0000   0.0000   0.2518
  -3.300  -0.3997   0.01644   0.01048   0.0039  0.9546  0.7603  -1.4850   0.0000   0.0000   0.0000   0.2558
  -3.200  -0.3875   0.01727   0.01135   0.0056  0.9530  0.7772  -1.4207   0.0000   0.0000   0.0000   0.2604
  -3.100  -0.3759   0.01799   0.01208   0.0071  0.9512  0.7916  -1.3593   0.0000   0.0000   0.0000   0.2650
  -3.000  -0.3632   0.01862   0.01271   0.0084  0.9492  0.8003  -1.2966   0.0000   0.0000   0.0000   0.2691
  -2.900  -0.3491   0.01876   0.01280   0.0081  0.9472  0.8064  -1.2353   0.0000   0.0000   0.0000   0.2691
  -2.800  -0.3315   0.01891   0.01288   0.0072  0.9461  0.8090  -1.1663   0.0000   0.0000   0.0000   0.2677
  -2.700  -0.3198   0.01894   0.01287   0.0070  0.9432  0.8126  -1.1130   0.0000   0.0000   0.0000   0.2681
  -2.600  -0.3081   0.01886   0.01273   0.0066  0.9405  0.8169  -1.0613   0.0000   0.0000   0.0000   0.2674
  -2.500  -0.2907   0.01895   0.01277   0.0056  0.9393  0.8187  -0.9953   0.0000   0.0000   0.0000   0.2653
  -2.400  -0.2768   0.01900   0.01279   0.0052  0.9371  0.8211  -0.9385   0.0000   0.0000   0.0000   0.2647
  -2.300  -0.2655   0.01899   0.01274   0.0050  0.9341  0.8244  -0.8889   0.0000   0.0000   0.0000   0.2648
  -2.200  -0.2523   0.01889   0.01259   0.0042  0.9320  0.8281  -0.8361   0.0000   0.0000   0.0000   0.2628
  -2.100  -0.2377   0.01894   0.01261   0.0037  0.9299  0.8297  -0.7826   0.0000   0.0000   0.0000   0.2616
  -2.000  -0.2257   0.01897   0.01261   0.0035  0.9271  0.8317  -0.7392   0.0000   0.0000   0.0000   0.2617
  -1.900  -0.2114   0.01895   0.01256   0.0028  0.9251  0.8341  -0.6923   0.0000   0.0000   0.0000   0.2594
  -1.800  -0.2000   0.01885   0.01240   0.0024  0.9228  0.8376  -0.6519   0.0000   0.0000   0.0000   0.2579
  -1.700  -0.1911   0.01884   0.01237   0.0027  0.9194  0.8399  -0.6160   0.0000   0.0000   0.0000   0.2601
  -1.600  -0.1764   0.01885   0.01236   0.0020  0.9176  0.8414  -0.5696   0.0000   0.0000   0.0000   0.2574
  -1.500  -0.1611   0.01884   0.01232   0.0012  0.9160  0.8432  -0.5230   0.0000   0.0000   0.0000   0.2532
  -1.400  -0.1531   0.01881   0.01227   0.0015  0.9126  0.8461  -0.4902   0.0000   0.0000   0.0000   0.2559
  -1.300  -0.1449   0.01872   0.01215   0.0017  0.9095  0.8496  -0.4578   0.0000   0.0000   0.0000   0.2577
  -1.200  -0.1293   0.01872   0.01214   0.0009  0.9080  0.8509  -0.4119   0.0000   0.0000   0.0000   0.2528
  -1.100  -0.1161   0.01873   0.01213   0.0004  0.9059  0.8525  -0.3744   0.0000   0.0000   0.0000   0.2499
  -1.000  -0.1075   0.01874   0.01213   0.0008  0.9025  0.8549  -0.3694   0.0000   0.0000   0.0000   0.2531
  -0.900  -0.0975   0.01868   0.01205   0.0007  0.9001  0.8580  -0.3641   0.0000   0.0000   0.0000   0.2532
  -0.800  -0.0850   0.01862   0.01197   0.0003  0.8985  0.8604  -0.3580   0.0000   0.0000   0.0000   0.2495
  -0.700  -0.0752   0.01866   0.01201   0.0005  0.8953  0.8621  -0.3530   0.0000   0.0000   0.0000   0.2522
  -0.600  -0.0638   0.01867   0.01201   0.0003  0.8927  0.8641  -0.3478   0.0000   0.0000   0.0000   0.2510
  -0.500  -0.0519   0.01864   0.01196   0.0000  0.8907  0.8666  -0.3426   0.0000   0.0000   0.0000   0.2470
  -0.400  -0.0425   0.01856   0.01187   0.0001  0.8887  0.8699  -0.3392   0.0000   0.0000   0.0000   0.2492
  -0.300  -0.0334   0.01862   0.01193   0.0004  0.8853  0.8717  -0.3350   0.0000   0.0000   0.0000   0.2570
  -0.200  -0.0212   0.01863   0.01195   0.0001  0.8831  0.8735  -0.3295   0.0000   0.0000   0.0000   0.2498
  -0.100  -0.0089   0.01862   0.01193  -0.0002  0.8812  0.8758  -0.3242   0.0000   0.0000   0.0000   0.2211
   0.000   0.0001   0.01855   0.01185  -0.0000  0.8794  0.8793  -0.3210   0.0000   0.0000   0.0000   0.3990
   0.100   0.0089   0.01862   0.01193   0.0002  0.8758  0.8812  -0.3242   0.0000   0.0000   0.0000   0.2212
   0.200   0.0212   0.01863   0.01195  -0.0001  0.8735  0.8831  -0.3295   0.0000   0.0000   0.0000   0.2498
   0.300   0.0334   0.01862   0.01193  -0.0004  0.8717  0.8853  -0.3350   0.0000   0.0000   0.0000   0.2570
   0.400   0.0425   0.01856   0.01187  -0.0001  0.8699  0.8887  -0.3392   0.0000   0.0000   0.0000   0.2491
   0.500   0.0519   0.01864   0.01196  -0.0000  0.8666  0.8907  -0.3426   0.0000   0.0000   0.0000   0.2470
   0.600   0.0638   0.01867   0.01201  -0.0003  0.8641  0.8927  -0.3478   0.0000   0.0000   0.0000   0.2510
   0.700   0.0752   0.01866   0.01201  -0.0005  0.8621  0.8953  -0.3530   0.0000   0.0000   0.0000   0.2522
   0.800   0.0850   0.01862   0.01197  -0.0003  0.8604  0.8985  -0.3580   0.0000   0.0000   0.0000   0.2495
   0.900   0.0975   0.01868   0.01205  -0.0007  0.8580  0.9001  -0.3641   0.0000   0.0000   0.0000   0.2532
   1.000   0.1075   0.01874   0.01213  -0.0008  0.8549  0.9025  -0.3694   0.0000   0.0000   0.0000   0.2531
   1.100   0.1161   0.01873   0.01213  -0.0004  0.8525  0.9059  -0.3744   0.0000   0.0000   0.0000   0.2499
   1.200   0.1293   0.01872   0.01214  -0.0009  0.8509  0.9080  -0.4120   0.0000   0.0000   0.0000   0.2528
   1.300   0.1449   0.01872   0.01215  -0.0017  0.8496  0.9095  -0.4578   0.0000   0.0000   0.0000   0.2577
   1.400   0.1531   0.01881   0.01227  -0.0015  0.8461  0.9126  -0.4902   0.0000   0.0000   0.0000   0.2559
   1.500   0.1611   0.01884   0.01232  -0.0012  0.8432  0.9160  -0.5230   0.0000   0.0000   0.0000   0.2532
   1.600   0.1764   0.01885   0.01236  -0.0020  0.8414  0.9176  -0.5696   0.0000   0.0000   0.0000   0.2574
   1.700   0.1911   0.01884   0.01237  -0.0027  0.8399  0.9194  -0.6160   0.0000   0.0000   0.0000   0.2601
   1.800   0.2000   0.01885   0.01240  -0.0024  0.8376  0.9228  -0.6519   0.0000   0.0000   0.0000   0.2579
   1.900   0.2114   0.01895   0.01256  -0.0028  0.8341  0.9251  -0.6923   0.0000   0.0000   0.0000   0.2594
   2.000   0.2257   0.01897   0.01261  -0.0035  0.8317  0.9271  -0.7391   0.0000   0.0000   0.0000   0.2617
   2.100   0.2377   0.01894   0.01261  -0.0037  0.8297  0.9299  -0.7826   0.0000   0.0000   0.0000   0.2616
   2.200   0.2523   0.01889   0.01259  -0.0042  0.8281  0.9320  -0.8361   0.0000   0.0000   0.0000   0.2628
   2.300   0.2655   0.01899   0.01274  -0.0050  0.8244  0.9341  -0.8889   0.0000   0.0000   0.0000   0.2648
   2.400   0.2768   0.01900   0.01279  -0.0052  0.8211  0.9371  -0.9384   0.0000   0.0000   0.0000   0.2647
   2.500   0.2907   0.01895   0.01277  -0.0056  0.8187  0.9393  -0.9953   0.0000   0.0000   0.0000   0.2653
   2.600   0.3081   0.01886   0.01273  -0.0066  0.8169  0.9405  -1.0613   0.0000   0.0000   0.0000   0.2674
   2.700   0.3197   0.01894   0.01286  -0.0070  0.8126  0.9432  -1.1129   0.0000   0.0000   0.0000   0.2680
   2.800   0.3315   0.01891   0.01288  -0.0072  0.8090  0.9461  -1.1663   0.0000   0.0000   0.0000   0.2677
   2.900   0.3491   0.01876   0.01280  -0.0081  0.8064  0.9472  -1.2353   0.0000   0.0000   0.0000   0.2691
   3.000   0.3632   0.01862   0.01271  -0.0084  0.8003  0.9493  -1.2966   0.0000   0.0000   0.0000   0.2691
   3.100   0.3758   0.01799   0.01208  -0.0071  0.7916  0.9512  -1.3592   0.0000   0.0000   0.0000   0.2649
   3.200   0.3875   0.01727   0.01135  -0.0056  0.7772  0.9530  -1.4207   0.0000   0.0000   0.0000   0.2604
   3.300   0.3997   0.01644   0.01048  -0.0039  0.7604  0.9546  -1.4849   0.0000   0.0000   0.0000   0.2558
   3.400   0.4103   0.01579   0.00978  -0.0024  0.7452  0.9571  -1.5438   0.0000   0.0000   0.0000   0.2518
   3.500   0.4226   0.01538   0.00936  -0.0019  0.7320  0.9594  -1.6055   0.0000   0.0000   0.0000   0.2503
   3.600   0.4364   0.01509   0.00909  -0.0019  0.7197  0.9615  -1.6801   0.0000   0.0000   0.0000   0.2502
   3.700   0.4480   0.01485   0.00887  -0.0016  0.7076  0.9645  -1.7476   0.0000   0.0000   0.0000   0.2494
   3.800   0.4624   0.01454   0.00856  -0.0017  0.6919  0.9664  -1.8241   0.0000   0.0000   0.0000   0.2495
   3.900   0.4738   0.01430   0.00837  -0.0015  0.6735  0.9696  -1.8906   0.0000   0.0000   0.0000   0.2487
   4.000   0.4882   0.01402   0.00809  -0.0016  0.6434  0.9716  -1.9633   0.0000   0.0000   0.0000   0.2489
   4.100   0.4983   0.01379   0.00768  -0.0007  0.5757  0.9749  -2.0176   0.0000   0.0000   0.0000   0.2469
   4.200   0.4949   0.01557   0.00763   0.0013  0.2326  0.9784  -2.0241   0.0000   0.0000   0.0000   0.2427
   4.300   0.5009   0.01713   0.00833   0.0010  0.1147  0.9812  -2.0404   0.0000   0.0000   0.0000   0.2432
   4.400   0.5131   0.01771   0.00877   0.0004  0.0994  0.9840  -2.0824   0.0000   0.0000   0.0000   0.2445
   4.500   0.5265   0.01819   0.00920  -0.0005  0.0913  0.9864  -2.1312   0.0000   0.0000   0.0000   0.2461
   4.600   0.5404   0.01860   0.00960  -0.0014  0.0856  0.9888  -2.1816   0.0000   0.0000   0.0000   0.2477
   4.700   0.5538   0.01906   0.01004  -0.0022  0.0814  0.9912  -2.2317   0.0000   0.0000   0.0000   0.2490
   4.800   0.5677   0.01948   0.01041  -0.0031  0.0771  0.9936  -2.2882   0.0000   0.0000   0.0000   0.2505
   4.900   0.5817   0.01995   0.01084  -0.0041  0.0734  0.9957  -2.3546   0.0000   0.0000   0.0000   0.2520
   5.000   0.5964   0.02034   0.01123  -0.0050  0.0703  0.9978  -2.4282   0.0000   0.0000   0.0000   0.2534
   5.100   0.6107   0.02088   0.01171  -0.0060  0.0683  0.9999  -2.5017   0.0000   0.0000   0.0000   0.2547
   5.200   0.6169   0.02137   0.01213  -0.0054  0.0671  1.0000  -2.5476   0.0000   0.0000   0.0000   0.2535
   5.300   0.6230   0.02166   0.01247  -0.0046  0.0662  1.0000  -2.5887   0.0000   0.0000   0.0000   0.2521
   5.400   0.6292   0.02199   0.01283  -0.0038  0.0653  1.0000  -2.6301   0.0000   0.0000   0.0000   0.2507
   5.500   0.6355   0.02234   0.01321  -0.0030  0.0644  1.0000  -2.6719   0.0000   0.0000   0.0000   0.2494
   5.600   0.6419   0.02273   0.01360  -0.0023  0.0636  1.0000  -2.7143   0.0000   0.0000   0.0000   0.2481
   5.700   0.6485   0.02313   0.01401  -0.0015  0.0629  1.0000  -2.7572   0.0000   0.0000   0.0000   0.2469
   5.800   0.6552   0.02356   0.01444  -0.0008  0.0622  1.0000  -2.8007   0.0000   0.0000   0.0000   0.2457
   5.900   0.6619   0.02401   0.01488  -0.0002  0.0614  1.0000  -2.8463   0.0000   0.0000   0.0000   0.2446
   6.000   0.6688   0.02455   0.01537   0.0004  0.0605  1.0000  -2.8970   0.0000   0.0000   0.0000   0.2437
   6.100   0.6761   0.02523   0.01602   0.0009  0.0595  1.0000  -2.9422   0.0000   0.0000   0.0000   0.2428
   6.200   0.6809   0.02549   0.01643   0.0020  0.0585  1.0000  -2.9741   0.0000   0.0000   0.0000   0.2412
   6.300   0.6861   0.02585   0.01688   0.0030  0.0575  1.0000  -3.0088   0.0000   0.0000   0.0000   0.2397
   6.400   0.6916   0.02628   0.01738   0.0039  0.0566  1.0000  -3.0451   0.0000   0.0000   0.0000   0.2383
   6.500   0.6977   0.02681   0.01797   0.0048  0.0561  1.0000  -3.0782   0.0000   0.0000   0.0000   0.2371
   6.600   0.7038   0.02739   0.01862   0.0057  0.0558  1.0000  -3.1085   0.0000   0.0000   0.0000   0.2358
   6.700   0.7099   0.02801   0.01935   0.0066  0.0557  1.0000  -3.1363   0.0000   0.0000   0.0000   0.2345
   6.800   0.7158   0.02867   0.02010   0.0075  0.0556  1.0000  -3.1610   0.0000   0.0000   0.0000   0.2333
   6.900   0.7218   0.02939   0.02091   0.0084  0.0556  1.0000  -3.1820   0.0000   0.0000   0.0000   0.2320
   7.000   0.7277   0.03017   0.02181   0.0094  0.0557  1.0000  -3.1987   0.0000   0.0000   0.0000   0.2307
   7.100   0.7336   0.03102   0.02278   0.0103  0.0560  1.0000  -3.2112   0.0000   0.0000   0.0000   0.2294
   7.200   0.7397   0.03195   0.02384   0.0112  0.0565  1.0000  -3.2244   0.0000   0.0000   0.0000   0.2283
   7.300   0.7460   0.03297   0.02499   0.0121  0.0571  1.0000  -3.2492   0.0000   0.0000   0.0000   0.2272
   7.400   0.7526   0.03408   0.02621   0.0128  0.0578  1.0000  -3.2753   0.0000   0.0000   0.0000   0.2263
   7.500   0.7599   0.03528   0.02749   0.0134  0.0585  1.0000  -3.3074   0.0000   0.0000   0.0000   0.2257
   7.600   0.7685   0.03669   0.02890   0.0136  0.0592  1.0000  -3.3500   0.0000   0.0000   0.0000   0.2255
   7.700   0.7777   0.03800   0.03023   0.0138  0.0600  1.0000  -3.3934   0.0000   0.0000   0.0000   0.2254
   7.800   0.7773   0.03989   0.03284   0.0163  0.0657  1.0000  -3.2598   0.0000   0.0000   0.0000   0.2222
   7.900   0.7840   0.04132   0.03434   0.0167  0.0663  1.0000  -3.2872   0.0000   0.0000   0.0000   0.2218
   8.000   0.7910   0.04284   0.03591   0.0170  0.0667  1.0000  -3.3191   0.0000   0.0000   0.0000   0.2215
   8.100   0.8021   0.04484   0.03780   0.0167  0.0674  1.0000  -3.3753   0.0000   0.0000   0.0000   0.2222
   8.800   0.7794   0.06357   0.05911   0.0239  0.1271  1.0000  -2.6341   0.0000   0.0000   0.0000   0.2123
   8.900   0.7788   0.06478   0.06037   0.0241  0.1244  1.0000  -2.6429   0.0000   0.0000   0.0000   0.2119
  16.100   0.7104   0.19680   0.19229  -0.0419  0.0503  1.0000  -1.8226   0.0000   0.0000   0.0000   0.2939
  16.200   0.7129   0.19828   0.19376  -0.0429  0.0495  1.0000  -1.8176   0.0000   0.0000   0.0000   0.2949
  16.300   0.7157   0.19973   0.19521  -0.0437  0.0487  1.0000  -1.8198   0.0000   0.0000   0.0000   0.2957
  16.400   0.7188   0.20114   0.19662  -0.0444  0.0481  1.0000  -1.8281   0.0000   0.0000   0.0000   0.2962
  16.500   0.7223   0.20254   0.19802  -0.0450  0.0475  1.0000  -1.8434   0.0000   0.0000   0.0000   0.2966
  16.600   0.7264   0.20395   0.19943  -0.0454  0.0469  1.0000  -1.8681   0.0000   0.0000   0.0000   0.2967
  16.700   0.7314   0.20549   0.20098  -0.0454  0.0464  1.0000  -1.9090   0.0000   0.0000   0.0000   0.2962
  16.800   0.7407   0.20779   0.20333  -0.0443  0.0460  1.0000  -2.0002   0.0000   0.0000   0.0000   0.2938
  16.900   0.7483   0.21051   0.20604  -0.0438  0.0457  1.0000  -2.0537   0.0000   0.0000   0.0000   0.2925
  17.000   0.7460   0.21139   0.20690  -0.0460  0.0456  1.0000  -1.9868   0.0000   0.0000   0.0000   0.2955
  17.100   0.7442   0.21228   0.20778  -0.0482  0.0454  1.0000  -1.9218   0.0000   0.0000   0.0000   0.2984
  17.200   0.7437   0.21340   0.20888  -0.0502  0.0451  1.0000  -1.8633   0.0000   0.0000   0.0000   0.3010
  17.300   0.7449   0.21472   0.21020  -0.0519  0.0445  1.0000  -1.8246   0.0000   0.0000   0.0000   0.3029
  17.400   0.7472   0.21615   0.21162  -0.0531  0.0439  1.0000  -1.8064   0.0000   0.0000   0.0000   0.3042
  17.500   0.7500   0.21760   0.21307  -0.0541  0.0433  1.0000  -1.7983   0.0000   0.0000   0.0000   0.3051
  17.600   0.7530   0.21904   0.21451  -0.0550  0.0427  1.0000  -1.7957   0.0000   0.0000   0.0000   0.3059
  17.700   0.7562   0.22045   0.21592  -0.0558  0.0421  1.0000  -1.7970   0.0000   0.0000   0.0000   0.3066
  17.800   0.7595   0.22184   0.21731  -0.0566  0.0416  1.0000  -1.8020   0.0000   0.0000   0.0000   0.3071
  17.900   0.7629   0.22322   0.21869  -0.0573  0.0411  1.0000  -1.8111   0.0000   0.0000   0.0000   0.3076
  18.000   0.7666   0.22460   0.22008  -0.0579  0.0407  1.0000  -1.8255   0.0000   0.0000   0.0000   0.3079
  18.100   0.7706   0.22603   0.22152  -0.0584  0.0403  1.0000  -1.8475   0.0000   0.0000   0.0000   0.3080
  18.200   0.7752   0.22762   0.22311  -0.0586  0.0399  1.0000  -1.8819   0.0000   0.0000   0.0000   0.3076
  18.300   0.7818   0.22982   0.22533  -0.0581  0.0396  1.0000  -1.9457   0.0000   0.0000   0.0000   0.3063
  18.400   0.7907   0.23326   0.22878  -0.0572  0.0393  1.0000  -2.0204   0.0000   0.0000   0.0000   0.3042
  18.500   0.7898   0.23383   0.22934  -0.0592  0.0392  1.0000  -1.9644   0.0000   0.0000   0.0000   0.3067
  18.600   0.7896   0.23451   0.23000  -0.0612  0.0391  1.0000  -1.9126   0.0000   0.0000   0.0000   0.3090
  18.700   0.7902   0.23538   0.23086  -0.0632  0.0389  1.0000  -1.8645   0.0000   0.0000   0.0000   0.3113
  18.800   0.7918   0.23649   0.23196  -0.0649  0.0386  1.0000  -1.8265   0.0000   0.0000   0.0000   0.3131
  18.900   0.7943   0.23780   0.23327  -0.0662  0.0381  1.0000  -1.8049   0.0000   0.0000   0.0000   0.3144
  19.000   0.7972   0.23916   0.23462  -0.0674  0.0376  1.0000  -1.7958   0.0000   0.0000   0.0000   0.3154
  19.100   0.8004   0.24054   0.23601  -0.0684  0.0370  1.0000  -1.7942   0.0000   0.0000   0.0000   0.3162
  19.200   0.8036   0.24191   0.23738  -0.0693  0.0364  1.0000  -1.7974   0.0000   0.0000   0.0000   0.3168
  19.300   0.8070   0.24325   0.23872  -0.0702  0.0358  1.0000  -1.8050   0.0000   0.0000   0.0000   0.3174
  19.400   0.8105   0.24456   0.24003  -0.0710  0.0353  1.0000  -1.8175   0.0000   0.0000   0.0000   0.3178
  19.500   0.8141   0.24589   0.24138  -0.0717  0.0347  1.0000  -1.8364   0.0000   0.0000   0.0000   0.3181
  19.600   0.8179   0.24724   0.24273  -0.0722  0.0343  1.0000  -1.8643   0.0000   0.0000   0.0000   0.3182
  19.700   0.8222   0.24877   0.24427  -0.0724  0.0339  1.0000  -1.9077   0.0000   0.0000   0.0000   0.3179
  19.800   0.8286   0.25125   0.24678  -0.0718  0.0335  1.0000  -1.9898   0.0000   0.0000   0.0000   0.3163
  19.900   0.8347   0.25428   0.24980  -0.0716  0.0333  1.0000  -2.0422   0.0000   0.0000   0.0000   0.3153
  20.000   0.8350   0.25464   0.25015  -0.0736  0.0332  1.0000  -1.9875   0.0000   0.0000   0.0000   0.3175
  20.100   0.8361   0.25530   0.25080  -0.0755  0.0331  1.0000  -1.9388   0.0000   0.0000   0.0000   0.3194
  20.200   0.8379   0.25619   0.25168  -0.0772  0.0329  1.0000  -1.8964   0.0000   0.0000   0.0000   0.3211
  20.300   0.8404   0.25726   0.25275  -0.0787  0.0327  1.0000  -1.8628   0.0000   0.0000   0.0000   0.3225
  20.400   0.8433   0.25855   0.25403  -0.0800  0.0323  1.0000  -1.8420   0.0000   0.0000   0.0000   0.3236
  20.500   0.8465   0.25989   0.25537  -0.0812  0.0319  1.0000  -1.8314   0.0000   0.0000   0.0000   0.3244
  20.600   0.8498   0.26123   0.25671  -0.0822  0.0314  1.0000  -1.8266   0.0000   0.0000   0.0000   0.3250
  20.700   0.8532   0.26258   0.25807  -0.0832  0.0310  1.0000  -1.8252   0.0000   0.0000   0.0000   0.3256
  20.800   0.8565   0.26392   0.25941  -0.0841  0.0306  1.0000  -1.8261   0.0000   0.0000   0.0000   0.3262
  20.900   0.8599   0.26525   0.26074  -0.0850  0.0302  1.0000  -1.8290   0.0000   0.0000   0.0000   0.3267
  21.000   0.8633   0.26657   0.26206  -0.0859  0.0299  1.0000  -1.8338   0.0000   0.0000   0.0000   0.3272
  21.100   0.8668   0.26788   0.26337  -0.0868  0.0296  1.0000  -1.8405   0.0000   0.0000   0.0000   0.3276
  21.200   0.8702   0.26918   0.26468  -0.0877  0.0292  1.0000  -1.8495   0.0000   0.0000   0.0000   0.3280
  21.300   0.8737   0.27048   0.26598  -0.0885  0.0289  1.0000  -1.8613   0.0000   0.0000   0.0000   0.3284
  21.400   0.8772   0.27182   0.26733  -0.0892  0.0287  1.0000  -1.8766   0.0000   0.0000   0.0000   0.3287
  21.500   0.8808   0.27320   0.26872  -0.0899  0.0284  1.0000  -1.8967   0.0000   0.0000   0.0000   0.3288
  21.600   0.8846   0.27470   0.27023  -0.0904  0.0282  1.0000  -1.9239   0.0000   0.0000   0.0000   0.3288
  21.700   0.8888   0.27653   0.27207  -0.0907  0.0280  1.0000  -1.9629   0.0000   0.0000   0.0000   0.3285
  21.800   0.8942   0.27935   0.27490  -0.0904  0.0278  1.0000  -2.0269   0.0000   0.0000   0.0000   0.3274
  22.400   0.9105   0.28569   0.28121  -0.0986  0.0273  1.0000  -1.8746   0.0000   0.0000   0.0000   0.3334
  22.500   0.9137   0.28679   0.28231  -0.0999  0.0271  1.0000  -1.8513   0.0000   0.0000   0.0000   0.3343
  22.600   0.9170   0.28806   0.28358  -0.1011  0.0268  1.0000  -1.8346   0.0000   0.0000   0.0000   0.3350
  22.700   0.9203   0.28931   0.28484  -0.1022  0.0265  1.0000  -1.8234   0.0000   0.0000   0.0000   0.3356
  22.800   0.9237   0.29062   0.28615  -0.1032  0.0262  1.0000  -1.8229   0.0000   0.0000   0.0000   0.3362
  22.900   0.9270   0.29193   0.28746  -0.1043  0.0259  1.0000  -1.8254   0.0000   0.0000   0.0000   0.3367
  23.000   0.9304   0.29323   0.28876  -0.1053  0.0256  1.0000  -1.8293   0.0000   0.0000   0.0000   0.3372
  23.100   0.9338   0.29452   0.29005  -0.1063  0.0254  1.0000  -1.8343   0.0000   0.0000   0.0000   0.3376
  23.200   0.9371   0.29579   0.29134  -0.1072  0.0251  1.0000  -1.8403   0.0000   0.0000   0.0000   0.3381
  23.300   0.9405   0.29707   0.29261  -0.1082  0.0248  1.0000  -1.8472   0.0000   0.0000   0.0000   0.3385
  23.400   0.9438   0.29833   0.29388  -0.1092  0.0246  1.0000  -1.8550   0.0000   0.0000   0.0000   0.3389
  23.500   0.9472   0.29957   0.29512  -0.1101  0.0243  1.0000  -1.8642   0.0000   0.0000   0.0000   0.3393
  23.600   0.9505   0.30081   0.29638  -0.1110  0.0240  1.0000  -1.8751   0.0000   0.0000   0.0000   0.3397
  23.700   0.9538   0.30204   0.29761  -0.1119  0.0238  1.0000  -1.8883   0.0000   0.0000   0.0000   0.3400
  23.800   0.9572   0.30332   0.29889  -0.1128  0.0235  1.0000  -1.9046   0.0000   0.0000   0.0000   0.3403
  23.900   0.9605   0.30459   0.30017  -0.1136  0.0233  1.0000  -1.9250   0.0000   0.0000   0.0000   0.3405
  24.000   0.9639   0.30596   0.30154  -0.1143  0.0231  1.0000  -1.9514   0.0000   0.0000   0.0000   0.3406
  24.100   0.9674   0.30754   0.30314  -0.1148  0.0229  1.0000  -1.9870   0.0000   0.0000   0.0000   0.3405
  24.200   0.9713   0.30978   0.30539  -0.1150  0.0227  1.0000  -2.0389   0.0000   0.0000   0.0000   0.3400
  24.900   0.9928   0.31756   0.31316  -0.1238  0.0220  1.0000  -1.9346   0.0000   0.0000   0.0000   0.3448
  25.000   0.9961   0.31871   0.31430  -0.1250  0.0218  1.0000  -1.9225   0.0000   0.0000   0.0000   0.3454
  25.100   0.9994   0.31992   0.31552  -0.1261  0.0216  1.0000  -1.9147   0.0000   0.0000   0.0000   0.3459
  25.200   1.0027   0.32111   0.31672  -0.1272  0.0214  1.0000  -1.9100   0.0000   0.0000   0.0000   0.3464
  25.300   1.0060   0.32236   0.31797  -0.1282  0.0212  1.0000  -1.9075   0.0000   0.0000   0.0000   0.3468
  25.400   1.0092   0.32360   0.31921  -0.1293  0.0209  1.0000  -1.9064   0.0000   0.0000   0.0000   0.3472
  25.500   1.0125   0.32484   0.32046  -0.1303  0.0207  1.0000  -1.9064   0.0000   0.0000   0.0000   0.3476
  25.600   1.0157   0.32606   0.32168  -0.1313  0.0205  1.0000  -1.9072   0.0000   0.0000   0.0000   0.3480
  25.700   1.0189   0.32727   0.32290  -0.1324  0.0203  1.0000  -1.9087   0.0000   0.0000   0.0000   0.3483
  25.800   1.0221   0.32847   0.32411  -0.1334  0.0201  1.0000  -1.9108   0.0000   0.0000   0.0000   0.3487
  25.900   1.0253   0.32967   0.32531  -0.1344  0.0199  1.0000  -1.9136   0.0000   0.0000   0.0000   0.3491
  26.000   1.0285   0.33086   0.32651  -0.1354  0.0197  1.0000  -1.9170   0.0000   0.0000   0.0000   0.3494
  26.100   1.0316   0.33205   0.32769  -0.1364  0.0195  1.0000  -1.9210   0.0000   0.0000   0.0000   0.3498
  26.200   1.0347   0.33322   0.32887  -0.1374  0.0193  1.0000  -1.9259   0.0000   0.0000   0.0000   0.3501
  26.300   1.0379   0.33438   0.33004  -0.1384  0.0191  1.0000  -1.9316   0.0000   0.0000   0.0000   0.3504
  26.400   1.0410   0.33555   0.33121  -0.1394  0.0189  1.0000  -1.9384   0.0000   0.0000   0.0000   0.3507
  26.500   1.0441   0.33670   0.33237  -0.1403  0.0188  1.0000  -1.9465   0.0000   0.0000   0.0000   0.3510
  26.600   1.0471   0.33786   0.33353  -0.1413  0.0186  1.0000  -1.9562   0.0000   0.0000   0.0000   0.3513
  26.700   1.0501   0.33910   0.33478  -0.1422  0.0185  1.0000  -1.9678   0.0000   0.0000   0.0000   0.3515
  26.800   1.0532   0.34032   0.33601  -0.1431  0.0183  1.0000  -1.9820   0.0000   0.0000   0.0000   0.3517
  26.900   1.0561   0.34162   0.33731  -0.1439  0.0182  1.0000  -1.9997   0.0000   0.0000   0.0000   0.3519
  27.000   1.0592   0.34306   0.33876  -0.1447  0.0181  1.0000  -2.0220   0.0000   0.0000   0.0000   0.3520
  27.100   1.0622   0.34479   0.34050  -0.1453  0.0180  1.0000  -2.0512   0.0000   0.0000   0.0000   0.3519
  27.200   1.0656   0.34717   0.34290  -0.1456  0.0179  1.0000  -2.0909   0.0000   0.0000   0.0000   0.3516
  29.700   1.1389   0.37331   0.36913  -0.1743  0.0147  1.0000  -2.0051   0.0000   0.0000   0.0000   0.3615
  29.800   1.1416   0.37435   0.37018  -0.1754  0.0146  1.0000  -2.0140   0.0000   0.0000   0.0000   0.3618
  29.900   1.1444   0.37535   0.37118  -0.1764  0.0145  1.0000  -2.0236   0.0000   0.0000   0.0000   0.3620
  30.000   1.1470   0.37633   0.37217  -0.1775  0.0144  1.0000  -2.0341   0.0000   0.0000   0.0000   0.3623


