xflr5 v6.61

 Calculated polar for: NACA 2412

 1 1 Reynolds number fixed          Mach number fixed         

 xtrf =   1.000 (top)        1.000 (bottom)
 Mach =   0.000     Re =     0.688 e 6     Ncrit =   9.000

  alpha     CL        CD       CDp       Cm    Top Xtr Bot Xtr   Cpmin    Chinge    XCp    
 ------- -------- --------- --------- -------- ------- ------- -------- --------- ---------
 -10.000  -0.9025   0.01933   0.01397  -0.0333  0.9996  0.0122  -5.8570   0.0000   0.0000   0.0000   0.2025
  -9.900  -0.8926   0.01874   0.01329  -0.0334  0.9991  0.0122  -5.7875   0.0000   0.0000   0.0000   0.2021
  -9.800  -0.8824   0.01819   0.01267  -0.0336  0.9986  0.0122  -5.7166   0.0000   0.0000   0.0000   0.2016
  -9.700  -0.8720   0.01770   0.01210  -0.0337  0.9980  0.0122  -5.6444   0.0000   0.0000   0.0000   0.2010
  -9.600  -0.8614   0.01724   0.01158  -0.0339  0.9974  0.0123  -5.5714   0.0000   0.0000   0.0000   0.2004
  -9.500  -0.8506   0.01682   0.01110  -0.0342  0.9967  0.0123  -5.4976   0.0000   0.0000   0.0000   0.1998
  -9.400  -0.8397   0.01644   0.01066  -0.0344  0.9959  0.0124  -5.4232   0.0000   0.0000   0.0000   0.1991
  -9.300  -0.8285   0.01608   0.01025  -0.0347  0.9951  0.0124  -5.3485   0.0000   0.0000   0.0000   0.1983
  -9.200  -0.8173   0.01575   0.00986  -0.0349  0.9942  0.0125  -5.2735   0.0000   0.0000   0.0000   0.1975
  -9.100  -0.8059   0.01543   0.00951  -0.0352  0.9933  0.0125  -5.1982   0.0000   0.0000   0.0000   0.1967
  -9.000  -0.7945   0.01514   0.00917  -0.0355  0.9923  0.0126  -5.1228   0.0000   0.0000   0.0000   0.1958
  -8.900  -0.7836   0.01471   0.00868  -0.0357  0.9911  0.0133  -5.0487   0.0000   0.0000   0.0000   0.1950
  -8.800  -0.7721   0.01440   0.00834  -0.0360  0.9900  0.0143  -4.9674   0.0000   0.0000   0.0000   0.1940
  -8.700  -0.7603   0.01418   0.00813  -0.0363  0.9888  0.0155  -4.8787   0.0000   0.0000   0.0000   0.1929
  -8.600  -0.7483   0.01402   0.00803  -0.0368  0.9877  0.0168  -4.7784   0.0000   0.0000   0.0000   0.1917
  -8.500  -0.7360   0.01395   0.00809  -0.0373  0.9866  0.0183  -4.6618   0.0000   0.0000   0.0000   0.1903
  -8.400  -0.7228   0.01409   0.00834  -0.0379  0.9856  0.0201  -4.5227   0.0000   0.0000   0.0000   0.1886
  -8.300  -0.6940   0.01944   0.01435  -0.0418  0.9864  0.0328  -3.7118   0.0000   0.0000   0.0000   0.1812
  -8.200  -0.6823   0.01912   0.01399  -0.0422  0.9850  0.0331  -3.6574   0.0000   0.0000   0.0000   0.1797
  -8.100  -0.6703   0.01878   0.01363  -0.0426  0.9836  0.0334  -3.6032   0.0000   0.0000   0.0000   0.1779
  -8.000  -0.6579   0.01844   0.01326  -0.0431  0.9821  0.0337  -3.5494   0.0000   0.0000   0.0000   0.1760
  -7.900  -0.6451   0.01809   0.01287  -0.0437  0.9805  0.0339  -3.4961   0.0000   0.0000   0.0000   0.1739
  -7.800  -0.6321   0.01772   0.01247  -0.0443  0.9789  0.0341  -3.4436   0.0000   0.0000   0.0000   0.1716
  -7.700  -0.6189   0.01735   0.01206  -0.0450  0.9772  0.0343  -3.3920   0.0000   0.0000   0.0000   0.1691
  -7.600  -0.6057   0.01698   0.01165  -0.0456  0.9755  0.0345  -3.3415   0.0000   0.0000   0.0000   0.1665
  -7.500  -0.5925   0.01661   0.01124  -0.0462  0.9739  0.0346  -3.2922   0.0000   0.0000   0.0000   0.1638
  -7.400  -0.5795   0.01624   0.01084  -0.0468  0.9724  0.0347  -3.2443   0.0000   0.0000   0.0000   0.1611
  -7.300  -0.5668   0.01589   0.01044  -0.0473  0.9710  0.0348  -3.1976   0.0000   0.0000   0.0000   0.1584
  -7.200  -0.5543   0.01554   0.01006  -0.0478  0.9697  0.0348  -3.1521   0.0000   0.0000   0.0000   0.1557
  -7.100  -0.5418   0.01521   0.00969  -0.0483  0.9685  0.0349  -3.1070   0.0000   0.0000   0.0000   0.1529
  -7.000  -0.5292   0.01488   0.00932  -0.0487  0.9673  0.0349  -3.0620   0.0000   0.0000   0.0000   0.1499
  -6.900  -0.5164   0.01465   0.00908  -0.0493  0.9662  0.0353  -3.0086   0.0000   0.0000   0.0000   0.1466
  -6.800  -0.5033   0.01450   0.00893  -0.0499  0.9651  0.0359  -2.9477   0.0000   0.0000   0.0000   0.1429
  -6.700  -0.4900   0.01438   0.00882  -0.0505  0.9641  0.0366  -2.8845   0.0000   0.0000   0.0000   0.1390
  -6.600  -0.4767   0.01425   0.00868  -0.0512  0.9631  0.0373  -2.8236   0.0000   0.0000   0.0000   0.1347
  -6.500  -0.4635   0.01404   0.00847  -0.0518  0.9620  0.0378  -2.7697   0.0000   0.0000   0.0000   0.1304
  -6.400  -0.4505   0.01371   0.00809  -0.0523  0.9609  0.0377  -2.7288   0.0000   0.0000   0.0000   0.1260
  -6.300  -0.4376   0.01333   0.00767  -0.0528  0.9596  0.0374  -2.6936   0.0000   0.0000   0.0000   0.1214
  -6.200  -0.4246   0.01299   0.00728  -0.0533  0.9583  0.0371  -2.6572   0.0000   0.0000   0.0000   0.1165
  -6.100  -0.4115   0.01268   0.00693  -0.0538  0.9568  0.0368  -2.6194   0.0000   0.0000   0.0000   0.1113
  -6.000  -0.3985   0.01240   0.00661  -0.0543  0.9552  0.0365  -2.5805   0.0000   0.0000   0.0000   0.1057
  -5.900  -0.3855   0.01216   0.00633  -0.0549  0.9532  0.0363  -2.5403   0.0000   0.0000   0.0000   0.0997
  -5.800  -0.3727   0.01196   0.00609  -0.0553  0.9507  0.0361  -2.4993   0.0000   0.0000   0.0000   0.0936
  -5.700  -0.3622   0.01176   0.00586  -0.0553  0.9493  0.0359  -2.4612   0.0000   0.0000   0.0000   0.0894
  -5.600  -0.3522   0.01156   0.00563  -0.0551  0.9482  0.0357  -2.4234   0.0000   0.0000   0.0000   0.0857
  -5.500  -0.3421   0.01137   0.00542  -0.0549  0.9468  0.0355  -2.3848   0.0000   0.0000   0.0000   0.0816
  -5.400  -0.3319   0.01119   0.00521  -0.0547  0.9451  0.0354  -2.3455   0.0000   0.0000   0.0000   0.0772
  -5.300  -0.3215   0.01102   0.00502  -0.0546  0.9429  0.0352  -2.3055   0.0000   0.0000   0.0000   0.0723
  -5.200  -0.3109   0.01086   0.00483  -0.0545  0.9405  0.0351  -2.2649   0.0000   0.0000   0.0000   0.0668
  -5.100  -0.3002   0.01070   0.00465  -0.0544  0.9377  0.0349  -2.2237   0.0000   0.0000   0.0000   0.0608
  -5.000  -0.2894   0.01054   0.00447  -0.0543  0.9347  0.0348  -2.1822   0.0000   0.0000   0.0000   0.0542
  -4.900  -0.2784   0.01040   0.00430  -0.0543  0.9316  0.0347  -2.1404   0.0000   0.0000   0.0000   0.0468
  -4.800  -0.2668   0.01026   0.00414  -0.0544  0.9285  0.0345  -2.0975   0.0000   0.0000   0.0000   0.0379
  -4.700  -0.2551   0.01012   0.00398  -0.0546  0.9255  0.0344  -2.0543   0.0000   0.0000   0.0000   0.0277
  -4.600  -0.2432   0.01000   0.00383  -0.0547  0.9227  0.0343  -2.0110   0.0000   0.0000   0.0000   0.0165
  -4.500  -0.2313   0.00988   0.00369  -0.0549  0.9199  0.0342  -1.9677   0.0000   0.0000   0.0000   0.0039
  -4.400  -0.2193   0.00976   0.00355  -0.0551  0.9168  0.0341  -1.9246   0.0000   0.0000   0.0000  -0.0101
  -4.300  -0.2074   0.00966   0.00341  -0.0553  0.9135  0.0340  -1.8816   0.0000   0.0000   0.0000  -0.0257
  -4.200  -0.1955   0.00956   0.00329  -0.0555  0.9097  0.0340  -1.8390   0.0000   0.0000   0.0000  -0.0431
  -4.100  -0.1835   0.00947   0.00317  -0.0557  0.9053  0.0339  -1.7965   0.0000   0.0000   0.0000  -0.0630
  -3.900  -0.1610   0.00932   0.00297  -0.0559  0.8992  0.0339  -1.7151   0.0000   0.0000   0.0000  -0.1072
  -3.800  -0.1505   0.00924   0.00288  -0.0558  0.8981  0.0339  -1.6764   0.0000   0.0000   0.0000  -0.1307
  -3.700  -0.1401   0.00917   0.00280  -0.0556  0.8967  0.0340  -1.6382   0.0000   0.0000   0.0000  -0.1578
  -3.600  -0.1297   0.00910   0.00272  -0.0555  0.8951  0.0341  -1.6005   0.0000   0.0000   0.0000  -0.1893
  -3.500  -0.1192   0.00904   0.00264  -0.0554  0.8931  0.0342  -1.5634   0.0000   0.0000   0.0000  -0.2265
  -3.400  -0.1087   0.00897   0.00255  -0.0552  0.8906  0.0345  -1.5273   0.0000   0.0000   0.0000  -0.2705
  -3.300  -0.0983   0.00890   0.00246  -0.0551  0.8870  0.0351  -1.4932   0.0000   0.0000   0.0000  -0.3234
  -3.200  -0.0883   0.00869   0.00231  -0.0547  0.8821  0.0464  -1.4909   0.0000   0.0000   0.0000  -0.3835
  -3.100  -0.0784   0.00854   0.00224  -0.0545  0.8757  0.0604  -1.4547   0.0000   0.0000   0.0000  -0.4608
  -3.000  -0.0687   0.00833   0.00215  -0.0543  0.8675  0.0804  -1.4162   0.0000   0.0000   0.0000  -0.5575
  -2.900  -0.0587   0.00816   0.00205  -0.0541  0.8574  0.0935  -1.3765   0.0000   0.0000   0.0000  -0.6916
  -2.800  -0.0481   0.00810   0.00197  -0.0540  0.8448  0.0983  -1.3355   0.0000   0.0000   0.0000  -0.8951
  -2.700  -0.0377   0.00808   0.00190  -0.0538  0.8288  0.1025  -1.2949   0.0000   0.0000   0.0000  -1.2047
  -2.600  -0.0269   0.00806   0.00185  -0.0538  0.8098  0.1108  -1.2539   0.0000   0.0000   0.0000  -1.7859
  -2.500  -0.0160   0.00801   0.00182  -0.0538  0.7990  0.1190  -1.2130   0.0000   0.0000   0.0000  -3.1729
  -2.400  -0.0057   0.00794   0.00178  -0.0536  0.7957  0.1261  -1.1734   0.0000   0.0000   0.0000  -9.3728
  -2.300   0.0047   0.00788   0.00174  -0.0535  0.7902  0.1325  -1.1340   0.0000   0.0000   0.0000  11.7757
  -2.200   0.0152   0.00784   0.00170  -0.0534  0.7816  0.1383  -1.0946   0.0000   0.0000   0.0000   3.8257
  -2.100   0.0255   0.00781   0.00165  -0.0533  0.7692  0.1437  -1.0557   0.0000   0.0000   0.0000   2.3653
  -2.000   0.0358   0.00782   0.00160  -0.0531  0.7534  0.1488  -1.0173   0.0000   0.0000   0.0000   1.7544
  -1.900   0.0457   0.00783   0.00155  -0.0528  0.7359  0.1608  -0.9798   0.0000   0.0000   0.0000   1.4215
  -1.800   0.0554   0.00780   0.00151  -0.0526  0.7168  0.1752  -0.9430   0.0000   0.0000   0.0000   1.2106
  -1.700   0.0660   0.00777   0.00148  -0.0526  0.7013  0.1859  -0.9053   0.0000   0.0000   0.0000   1.0562
  -1.600   0.0769   0.00773   0.00146  -0.0526  0.6979  0.1932  -0.8671   0.0000   0.0000   0.0000   0.9413
  -1.500   0.0879   0.00770   0.00145  -0.0527  0.6954  0.1982  -0.8291   0.0000   0.0000   0.0000   0.8546
  -1.400   0.0989   0.00767   0.00143  -0.0527  0.6921  0.2058  -0.7916   0.0000   0.0000   0.0000   0.7874
  -1.300   0.1096   0.00762   0.00142  -0.0527  0.6877  0.2183  -0.7549   0.0000   0.0000   0.0000   0.7346
  -1.200   0.1202   0.00757   0.00141  -0.0527  0.6812  0.2283  -0.7188   0.0000   0.0000   0.0000   0.6913
  -1.100   0.1306   0.00755   0.00139  -0.0526  0.6718  0.2368  -0.6832   0.0000   0.0000   0.0000   0.6551
  -1.000   0.1409   0.00756   0.00137  -0.0525  0.6590  0.2430  -0.6482   0.0000   0.0000   0.0000   0.6244
  -0.900   0.1508   0.00761   0.00135  -0.0523  0.6443  0.2478  -0.6141   0.0000   0.0000   0.0000   0.5981
  -0.800   0.1605   0.00766   0.00133  -0.0520  0.6287  0.2538  -0.5806   0.0000   0.0000   0.0000   0.5753
  -0.700   0.1704   0.00764   0.00132  -0.0519  0.6130  0.2645  -0.5475   0.0000   0.0000   0.0000   0.5552
  -0.600   0.1807   0.00760   0.00131  -0.0518  0.6009  0.2744  -0.5156   0.0000   0.0000   0.0000   0.5372
  -0.500   0.1915   0.00756   0.00131  -0.0518  0.5973  0.2832  -0.5236   0.0000   0.0000   0.0000   0.5208
  -0.400   0.2023   0.00754   0.00131  -0.0518  0.5938  0.2899  -0.5319   0.0000   0.0000   0.0000   0.5062
  -0.300   0.2132   0.00753   0.00131  -0.0518  0.5892  0.2954  -0.5413   0.0000   0.0000   0.0000   0.4930
  -0.200   0.2239   0.00754   0.00131  -0.0518  0.5829  0.3021  -0.5507   0.0000   0.0000   0.0000   0.4810
  -0.100   0.2344   0.00755   0.00132  -0.0518  0.5747  0.3208  -0.5600   0.0000   0.0000   0.0000   0.4702
   0.000   0.2445   0.00754   0.00133  -0.0516  0.5646  0.3406  -0.5692   0.0000   0.0000   0.0000   0.4605
   0.100   0.2542   0.00753   0.00133  -0.0515  0.5536  0.3584  -0.5781   0.0000   0.0000   0.0000   0.4516
   0.200   0.2638   0.00751   0.00133  -0.0513  0.5422  0.3790  -0.5870   0.0000   0.0000   0.0000   0.4433
   0.300   0.2735   0.00750   0.00134  -0.0511  0.5308  0.3993  -0.5977   0.0000   0.0000   0.0000   0.4356
   0.400   0.2828   0.00719   0.00138  -0.0509  0.5347  0.4841  -0.6081   0.0000   0.0000   0.0000   0.4287
   0.500   0.2928   0.00711   0.00139  -0.0508  0.5300  0.5230  -0.6190   0.0000   0.0000   0.0000   0.4220
   0.600   0.3018   0.00696   0.00141  -0.0505  0.5225  0.5719  -0.6293   0.0000   0.0000   0.0000   0.4156
   0.700   0.3120   0.00693   0.00142  -0.0503  0.5134  0.5915  -0.6404   0.0000   0.0000   0.0000   0.4097
   0.800   0.3227   0.00694   0.00144  -0.0503  0.5042  0.6016  -0.6518   0.0000   0.0000   0.0000   0.4041
   0.900   0.3328   0.00689   0.00146  -0.0502  0.4993  0.6316  -0.6629   0.0000   0.0000   0.0000   0.3988
   1.000   0.3428   0.00680   0.00148  -0.0500  0.4976  0.6577  -0.6740   0.0000   0.0000   0.0000   0.3938
   1.100   0.3532   0.00675   0.00150  -0.0498  0.4956  0.6782  -0.6853   0.0000   0.0000   0.0000   0.3890
   1.200   0.3639   0.00673   0.00151  -0.0498  0.4933  0.6919  -0.6969   0.0000   0.0000   0.0000   0.3847
   1.300   0.3748   0.00673   0.00153  -0.0498  0.4902  0.7031  -0.7086   0.0000   0.0000   0.0000   0.3806
   1.400   0.3847   0.00669   0.00156  -0.0496  0.4858  0.7315  -0.7198   0.0000   0.0000   0.0000   0.3765
   1.500   0.3942   0.00666   0.00160  -0.0492  0.4792  0.7568  -0.7313   0.0000   0.0000   0.0000   0.3724
   1.600   0.4038   0.00668   0.00164  -0.0489  0.4690  0.7779  -0.7453   0.0000   0.0000   0.0000   0.3686
   1.700   0.4134   0.00676   0.00167  -0.0487  0.4558  0.7932  -0.7736   0.0000   0.0000   0.0000   0.3650
   1.800   0.4226   0.00684   0.00171  -0.0483  0.4421  0.8159  -0.8063   0.0000   0.0000   0.0000   0.3615
   1.900   0.4307   0.00685   0.00178  -0.0476  0.4293  0.8583  -0.8377   0.0000   0.0000   0.0000   0.3577
   2.000   0.4403   0.00688   0.00183  -0.0472  0.4174  0.8880  -0.8716   0.0000   0.0000   0.0000   0.3543
   2.100   0.4512   0.00692   0.00188  -0.0471  0.4066  0.9075  -0.9081   0.0000   0.0000   0.0000   0.3515
   2.200   0.4664   0.00696   0.00195  -0.0479  0.3996  0.9359  -0.9520   0.0000   0.0000   0.0000   0.3497
   2.300   0.4802   0.00699   0.00200  -0.0484  0.3981  0.9522  -0.9939   0.0000   0.0000   0.0000   0.3478
   2.400   0.5032   0.00704   0.00204  -0.0511  0.3960  0.9665  -1.0517   0.0000   0.0000   0.0000   0.3484
   2.500   0.5230   0.00708   0.00208  -0.0531  0.3937  0.9767  -1.1049   0.0000   0.0000   0.0000   0.3482
   2.600   0.5420   0.00713   0.00211  -0.0548  0.3910  0.9848  -1.1573   0.0000   0.0000   0.0000   0.3478
   2.700   0.5605   0.00719   0.00215  -0.0565  0.3875  0.9910  -1.2094   0.0000   0.0000   0.0000   0.3473
   2.800   0.5784   0.00726   0.00219  -0.0580  0.3827  0.9952  -1.2611   0.0000   0.0000   0.0000   0.3468
   2.900   0.5955   0.00735   0.00224  -0.0594  0.3749  0.9979  -1.3119   0.0000   0.0000   0.0000   0.3462
   3.000   0.6110   0.00746   0.00229  -0.0605  0.3637  0.9995  -1.3605   0.0000   0.0000   0.0000   0.3453
   3.100   0.6220   0.00760   0.00235  -0.0606  0.3496  1.0000  -1.4010   0.0000   0.0000   0.0000   0.3437
   3.200   0.6304   0.00773   0.00238  -0.0602  0.3360  1.0000  -1.4370   0.0000   0.0000   0.0000   0.3416
   3.300   0.6390   0.00785   0.00242  -0.0598  0.3204  1.0000  -1.4736   0.0000   0.0000   0.0000   0.3396
   3.400   0.6481   0.00793   0.00245  -0.0595  0.3045  1.0000  -1.5114   0.0000   0.0000   0.0000   0.3377
   3.500   0.6573   0.00799   0.00249  -0.0592  0.2967  1.0000  -1.5498   0.0000   0.0000   0.0000   0.3359
   3.600   0.6662   0.00808   0.00253  -0.0588  0.2888  1.0000  -1.5879   0.0000   0.0000   0.0000   0.3341
   3.700   0.6741   0.00825   0.00260  -0.0583  0.2754  1.0000  -1.6242   0.0000   0.0000   0.0000   0.3322
   3.800   0.6810   0.00851   0.00271  -0.0577  0.2580  1.0000  -1.6586   0.0000   0.0000   0.0000   0.3303
   3.900   0.6894   0.00865   0.00278  -0.0573  0.2466  1.0000  -1.6962   0.0000   0.0000   0.0000   0.3285
   4.000   0.6981   0.00876   0.00284  -0.0569  0.2390  1.0000  -1.7347   0.0000   0.0000   0.0000   0.3268
   4.100   0.7063   0.00891   0.00291  -0.0564  0.2283  1.0000  -1.7724   0.0000   0.0000   0.0000   0.3252
   4.200   0.7139   0.00912   0.00301  -0.0558  0.2135  1.0000  -1.8090   0.0000   0.0000   0.0000   0.3234
   4.300   0.7227   0.00925   0.00308  -0.0555  0.1990  1.0000  -1.8479   0.0000   0.0000   0.0000   0.3219
   4.400   0.7316   0.00935   0.00315  -0.0551  0.1920  1.0000  -1.8877   0.0000   0.0000   0.0000   0.3204
   4.500   0.7401   0.00949   0.00323  -0.0547  0.1815  1.0000  -1.9266   0.0000   0.0000   0.0000   0.3188
   4.600   0.7476   0.00971   0.00334  -0.0541  0.1647  1.0000  -1.9636   0.0000   0.0000   0.0000   0.3173
   4.700   0.7559   0.00988   0.00344  -0.0537  0.1473  1.0000  -2.0021   0.0000   0.0000   0.0000   0.3158
   4.800   0.7639   0.01007   0.00355  -0.0532  0.1347  1.0000  -2.0400   0.0000   0.0000   0.0000   0.3143
   4.900   0.7696   0.01044   0.00373  -0.0523  0.1044  1.0000  -2.0728   0.0000   0.0000   0.0000   0.3125
   5.000   0.7762   0.01075   0.00391  -0.0516  0.0846  1.0000  -2.1069   0.0000   0.0000   0.0000   0.3109
   5.100   0.7820   0.01113   0.00410  -0.0507  0.0626  1.0000  -2.1382   0.0000   0.0000   0.0000   0.3093
   5.200   0.7868   0.01166   0.00440  -0.0495  0.0377  1.0000  -2.1354   0.0000   0.0000   0.0000   0.3073
   5.300   0.7960   0.01178   0.00454  -0.0492  0.0361  1.0000  -2.1648   0.0000   0.0000   0.0000   0.3060
   5.400   0.8054   0.01189   0.00466  -0.0489  0.0355  1.0000  -2.1995   0.0000   0.0000   0.0000   0.3047
   5.500   0.8149   0.01200   0.00478  -0.0486  0.0351  1.0000  -2.2359   0.0000   0.0000   0.0000   0.3036
   5.600   0.8243   0.01210   0.00491  -0.0483  0.0349  1.0000  -2.2734   0.0000   0.0000   0.0000   0.3024
   5.700   0.8338   0.01222   0.00504  -0.0480  0.0348  1.0000  -2.3115   0.0000   0.0000   0.0000   0.3013
   5.800   0.8433   0.01233   0.00517  -0.0477  0.0347  1.0000  -2.3503   0.0000   0.0000   0.0000   0.3003
   5.900   0.8528   0.01245   0.00530  -0.0475  0.0346  1.0000  -2.3894   0.0000   0.0000   0.0000   0.2992
   6.000   0.8623   0.01257   0.00544  -0.0472  0.0346  1.0000  -2.4289   0.0000   0.0000   0.0000   0.2982
   6.100   0.8718   0.01269   0.00557  -0.0469  0.0346  1.0000  -2.4687   0.0000   0.0000   0.0000   0.2972
   6.200   0.8813   0.01282   0.00572  -0.0467  0.0346  1.0000  -2.5088   0.0000   0.0000   0.0000   0.2962
   6.300   0.8907   0.01295   0.00586  -0.0464  0.0346  1.0000  -2.5490   0.0000   0.0000   0.0000   0.2952
   6.400   0.9002   0.01308   0.00601  -0.0462  0.0346  1.0000  -2.5895   0.0000   0.0000   0.0000   0.2943
   6.500   0.9096   0.01322   0.00617  -0.0459  0.0346  1.0000  -2.6301   0.0000   0.0000   0.0000   0.2934
   6.600   0.9190   0.01336   0.00633  -0.0456  0.0347  1.0000  -2.6707   0.0000   0.0000   0.0000   0.2924
   6.700   0.9283   0.01351   0.00649  -0.0453  0.0347  1.0000  -2.7115   0.0000   0.0000   0.0000   0.2915
   6.800   0.9376   0.01366   0.00666  -0.0451  0.0348  1.0000  -2.7524   0.0000   0.0000   0.0000   0.2906
   6.900   0.9469   0.01381   0.00683  -0.0448  0.0348  1.0000  -2.7934   0.0000   0.0000   0.0000   0.2898
   7.000   0.9560   0.01398   0.00701  -0.0445  0.0344  1.0000  -2.8351   0.0000   0.0000   0.0000   0.2889
   7.100   0.9651   0.01415   0.00719  -0.0442  0.0339  1.0000  -2.8771   0.0000   0.0000   0.0000   0.2880
   7.200   0.9741   0.01432   0.00738  -0.0439  0.0332  1.0000  -2.9192   0.0000   0.0000   0.0000   0.2872
   7.300   0.9831   0.01451   0.00757  -0.0436  0.0326  1.0000  -2.9610   0.0000   0.0000   0.0000   0.2863
   7.400   0.9919   0.01470   0.00778  -0.0432  0.0321  1.0000  -3.0026   0.0000   0.0000   0.0000   0.2855
   7.500   1.0007   0.01489   0.00799  -0.0429  0.0318  1.0000  -3.0441   0.0000   0.0000   0.0000   0.2846
   7.600   1.0095   0.01509   0.00820  -0.0426  0.0317  1.0000  -3.0857   0.0000   0.0000   0.0000   0.2838
   7.700   1.0182   0.01528   0.00841  -0.0422  0.0315  1.0000  -3.1273   0.0000   0.0000   0.0000   0.2830
   7.800   1.0269   0.01549   0.00864  -0.0419  0.0314  1.0000  -3.1689   0.0000   0.0000   0.0000   0.2821
   7.900   1.0354   0.01570   0.00886  -0.0415  0.0313  1.0000  -3.2104   0.0000   0.0000   0.0000   0.2813
   8.000   1.0439   0.01591   0.00910  -0.0411  0.0312  1.0000  -3.2518   0.0000   0.0000   0.0000   0.2805
   8.100   1.0522   0.01613   0.00934  -0.0407  0.0311  1.0000  -3.2932   0.0000   0.0000   0.0000   0.2797
   8.200   1.0605   0.01636   0.00959  -0.0403  0.0309  1.0000  -3.3344   0.0000   0.0000   0.0000   0.2789
   8.300   1.0687   0.01660   0.00985  -0.0399  0.0308  1.0000  -3.3755   0.0000   0.0000   0.0000   0.2780
   8.400   1.0767   0.01684   0.01011  -0.0394  0.0307  1.0000  -3.4165   0.0000   0.0000   0.0000   0.2772
   8.500   1.0847   0.01709   0.01038  -0.0390  0.0305  1.0000  -3.4573   0.0000   0.0000   0.0000   0.2764
   8.600   1.0925   0.01735   0.01067  -0.0385  0.0303  1.0000  -3.4979   0.0000   0.0000   0.0000   0.2756
   8.700   1.1185   0.01583   0.00897  -0.0420  0.0200  1.0000  -3.9841   0.0000   0.0000   0.0000   0.2777
   8.800   1.1268   0.01604   0.00910  -0.0417  0.0182  1.0000  -4.0676   0.0000   0.0000   0.0000   0.2770
   8.900   1.1348   0.01628   0.00927  -0.0414  0.0166  1.0000  -4.1423   0.0000   0.0000   0.0000   0.2763
   9.000   1.1430   0.01651   0.00945  -0.0410  0.0153  1.0000  -4.2104   0.0000   0.0000   0.0000   0.2756
   9.100   1.1512   0.01673   0.00967  -0.0406  0.0142  1.0000  -4.2747   0.0000   0.0000   0.0000   0.2748
   9.200   1.1593   0.01696   0.00990  -0.0402  0.0134  1.0000  -4.3369   0.0000   0.0000   0.0000   0.2741
   9.300   1.1670   0.01721   0.01019  -0.0397  0.0127  1.0000  -4.3965   0.0000   0.0000   0.0000   0.2733
   9.400   1.1749   0.01746   0.01043  -0.0393  0.0125  1.0000  -4.4547   0.0000   0.0000   0.0000   0.2725
   9.500   1.1827   0.01769   0.01069  -0.0388  0.0124  1.0000  -4.5126   0.0000   0.0000   0.0000   0.2718
   9.600   1.1904   0.01793   0.01096  -0.0383  0.0123  1.0000  -4.5702   0.0000   0.0000   0.0000   0.2710
   9.700   1.1979   0.01818   0.01123  -0.0378  0.0123  1.0000  -4.6274   0.0000   0.0000   0.0000   0.2703
   9.800   1.2053   0.01844   0.01151  -0.0373  0.0122  1.0000  -4.6843   0.0000   0.0000   0.0000   0.2695
   9.900   1.2124   0.01871   0.01181  -0.0368  0.0122  1.0000  -4.7408   0.0000   0.0000   0.0000   0.2687
  10.000   1.2194   0.01898   0.01211  -0.0362  0.0121  1.0000  -4.7968   0.0000   0.0000   0.0000   0.2679
  10.100   1.2261   0.01927   0.01243  -0.0356  0.0121  1.0000  -4.8523   0.0000   0.0000   0.0000   0.2671
  10.200   1.2324   0.01956   0.01275  -0.0349  0.0121  1.0000  -4.9070   0.0000   0.0000   0.0000   0.2662
  10.300   1.2379   0.01987   0.01309  -0.0341  0.0120  1.0000  -4.9593   0.0000   0.0000   0.0000   0.2653
  10.400   1.2431   0.02018   0.01343  -0.0332  0.0120  1.0000  -5.0105   0.0000   0.0000   0.0000   0.2643
  10.500   1.2481   0.02051   0.01380  -0.0323  0.0120  1.0000  -5.0613   0.0000   0.0000   0.0000   0.2634
  10.600   1.2529   0.02086   0.01418  -0.0314  0.0119  1.0000  -5.1117   0.0000   0.0000   0.0000   0.2624
  10.700   1.2575   0.02123   0.01458  -0.0306  0.0119  1.0000  -5.1618   0.0000   0.0000   0.0000   0.2614
  10.800   1.2620   0.02161   0.01500  -0.0296  0.0119  1.0000  -5.2115   0.0000   0.0000   0.0000   0.2605
  10.900   1.2663   0.02201   0.01544  -0.0287  0.0119  1.0000  -5.2606   0.0000   0.0000   0.0000   0.2595
  11.000   1.2702   0.02243   0.01590  -0.0278  0.0118  1.0000  -5.3088   0.0000   0.0000   0.0000   0.2585
  11.100   1.2735   0.02288   0.01639  -0.0268  0.0118  1.0000  -5.3547   0.0000   0.0000   0.0000   0.2575
  11.200   1.2756   0.02334   0.01689  -0.0256  0.0118  1.0000  -5.3966   0.0000   0.0000   0.0000   0.2564
  11.300   1.2776   0.02382   0.01742  -0.0245  0.0118  1.0000  -5.4377   0.0000   0.0000   0.0000   0.2553
  11.400   1.3024   0.02282   0.01631  -0.0266  0.0119  1.0000  -5.4977   0.0000   0.0000   0.0000   0.2565
  11.500   1.3050   0.02324   0.01677  -0.0256  0.0118  1.0000  -5.5404   0.0000   0.0000   0.0000   0.2554
  11.600   1.3075   0.02370   0.01727  -0.0245  0.0118  1.0000  -5.5833   0.0000   0.0000   0.0000   0.2544
  11.700   1.3099   0.02419   0.01781  -0.0235  0.0118  1.0000  -5.6267   0.0000   0.0000   0.0000   0.2534
  11.800   1.3122   0.02473   0.01839  -0.0225  0.0118  1.0000  -5.6701   0.0000   0.0000   0.0000   0.2525
  11.900   1.3143   0.02529   0.01901  -0.0215  0.0118  1.0000  -5.7129   0.0000   0.0000   0.0000   0.2515
  12.000   1.3150   0.02594   0.01970  -0.0205  0.0118  1.0000  -5.7507   0.0000   0.0000   0.0000   0.2505
  12.100   1.3154   0.02663   0.02045  -0.0194  0.0118  1.0000  -5.7870   0.0000   0.0000   0.0000   0.2495
  12.200   1.3163   0.02733   0.02120  -0.0185  0.0117  1.0000  -5.8255   0.0000   0.0000   0.0000   0.2486
  12.300   1.3175   0.02804   0.02197  -0.0176  0.0117  1.0000  -5.8648   0.0000   0.0000   0.0000   0.2477
  12.400   1.3186   0.02879   0.02278  -0.0167  0.0117  1.0000  -5.9039   0.0000   0.0000   0.0000   0.2469
  12.500   1.3195   0.02957   0.02362  -0.0158  0.0117  1.0000  -5.9421   0.0000   0.0000   0.0000   0.2460
  12.600   1.3201   0.03039   0.02450  -0.0149  0.0117  1.0000  -5.9790   0.0000   0.0000   0.0000   0.2452
  12.700   1.3203   0.03124   0.02542  -0.0141  0.0117  1.0000  -6.0142   0.0000   0.0000   0.0000   0.2443
  12.800   1.3201   0.03215   0.02638  -0.0132  0.0117  1.0000  -6.0475   0.0000   0.0000   0.0000   0.2435
  12.900   1.3192   0.03308   0.02738  -0.0124  0.0117  1.0000  -6.0775   0.0000   0.0000   0.0000   0.2426
  13.000   1.3161   0.03415   0.02853  -0.0115  0.0117  1.0000  -6.0975   0.0000   0.0000   0.0000   0.2418
  13.100   1.3128   0.03531   0.02975  -0.0107  0.0117  1.0000  -6.1157   0.0000   0.0000   0.0000   0.2410
  13.200   1.3106   0.03644   0.03095  -0.0100  0.0117  1.0000  -6.1386   0.0000   0.0000   0.0000   0.2403
  13.300   1.3087   0.03760   0.03218  -0.0093  0.0117  1.0000  -6.1624   0.0000   0.0000   0.0000   0.2396
  13.400   1.3068   0.03880   0.03345  -0.0087  0.0117  1.0000  -6.1854   0.0000   0.0000   0.0000   0.2389
  13.500   1.3047   0.04005   0.03478  -0.0081  0.0117  1.0000  -6.2067   0.0000   0.0000   0.0000   0.2383
  13.600   1.3021   0.04138   0.03618  -0.0076  0.0117  1.0000  -6.2256   0.0000   0.0000   0.0000   0.2377
  13.700   1.2991   0.04277   0.03766  -0.0071  0.0117  1.0000  -6.2415   0.0000   0.0000   0.0000   0.2371
  13.800   1.2945   0.04436   0.03933  -0.0068  0.0117  1.0000  -6.2492   0.0000   0.0000   0.0000   0.2367
  13.900   1.2885   0.04615   0.04119  -0.0067  0.0117  1.0000  -6.2493   0.0000   0.0000   0.0000   0.2364
  14.000   1.2839   0.04782   0.04294  -0.0065  0.0117  1.0000  -6.2551   0.0000   0.0000   0.0000   0.2361
  14.100   1.2794   0.04949   0.04469  -0.0063  0.0117  1.0000  -6.2611   0.0000   0.0000   0.0000   0.2357
  14.200   1.2747   0.05120   0.04648  -0.0061  0.0117  1.0000  -6.2652   0.0000   0.0000   0.0000   0.2354
  14.300   1.2696   0.05298   0.04834  -0.0060  0.0117  1.0000  -6.2662   0.0000   0.0000   0.0000   0.2351
  14.400   1.2639   0.05484   0.05029  -0.0060  0.0118  1.0000  -6.2636   0.0000   0.0000   0.0000   0.2349
  14.500   1.2569   0.05691   0.05244  -0.0063  0.0118  1.0000  -6.2534   0.0000   0.0000   0.0000   0.2349
  14.600   1.2480   0.05936   0.05496  -0.0071  0.0118  1.0000  -6.2312   0.0000   0.0000   0.0000   0.2353
  14.700   1.2409   0.06154   0.05722  -0.0075  0.0118  1.0000  -6.2179   0.0000   0.0000   0.0000   0.2355
  14.800   1.2338   0.06363   0.05938  -0.0079  0.0118  1.0000  -6.2043   0.0000   0.0000   0.0000   0.2356
  14.900   1.2264   0.06575   0.06158  -0.0082  0.0118  1.0000  -6.1885   0.0000   0.0000   0.0000   0.2357
  15.000   1.2188   0.06803   0.06394  -0.0088  0.0118  1.0000  -6.1696   0.0000   0.0000   0.0000   0.2359
  15.100   1.2105   0.07052   0.06651  -0.0096  0.0118  1.0000  -6.1454   0.0000   0.0000   0.0000   0.2364
  15.200   1.1993   0.07378   0.06983  -0.0113  0.0118  1.0000  -6.1019   0.0000   0.0000   0.0000   0.2377
  15.300   1.1910   0.07647   0.07260  -0.0124  0.0118  1.0000  -6.0738   0.0000   0.0000   0.0000   0.2384
  15.400   1.1832   0.07912   0.07532  -0.0133  0.0118  1.0000  -6.0477   0.0000   0.0000   0.0000   0.2390
  15.500   1.1754   0.08182   0.07810  -0.0143  0.0118  1.0000  -6.0196   0.0000   0.0000   0.0000   0.2397
  15.600   1.1672   0.08463   0.08098  -0.0154  0.0119  1.0000  -5.9879   0.0000   0.0000   0.0000   0.2405
  15.700   1.1584   0.08761   0.08403  -0.0167  0.0119  1.0000  -5.9509   0.0000   0.0000   0.0000   0.2415
  15.800   1.1470   0.09149   0.08798  -0.0191  0.0119  1.0000  -5.8924   0.0000   0.0000   0.0000   0.2435
  15.900   1.1373   0.09499   0.09155  -0.0210  0.0119  1.0000  -5.8430   0.0000   0.0000   0.0000   0.2451
  16.000   1.1288   0.09808   0.09470  -0.0224  0.0119  1.0000  -5.8018   0.0000   0.0000   0.0000   0.2463
  16.100   1.1206   0.10112   0.09780  -0.0238  0.0119  1.0000  -5.7602   0.0000   0.0000   0.0000   0.2475
  16.200   1.1123   0.10421   0.10096  -0.0252  0.0119  1.0000  -5.7156   0.0000   0.0000   0.0000   0.2487
  16.300   1.1037   0.10750   0.10431  -0.0268  0.0119  1.0000  -5.6658   0.0000   0.0000   0.0000   0.2502
  16.400   1.0946   0.11099   0.10788  -0.0287  0.0119  1.0000  -5.6086   0.0000   0.0000   0.0000   0.2519
  16.500   1.0836   0.11526   0.11221  -0.0313  0.0119  1.0000  -5.5310   0.0000   0.0000   0.0000   0.2545
  16.600   1.0734   0.11920   0.11621  -0.0336  0.0119  1.0000  -5.4579   0.0000   0.0000   0.0000   0.2567
  16.700   1.0632   0.12329   0.12036  -0.0359  0.0119  1.0000  -5.3788   0.0000   0.0000   0.0000   0.2591
  16.800   1.0515   0.12795   0.12508  -0.0387  0.0119  1.0000  -5.2807   0.0000   0.0000   0.0000   0.2620
  16.900   1.0408   0.13219   0.12937  -0.0411  0.0120  1.0000  -5.1885   0.0000   0.0000   0.0000   0.2646
  17.000   1.0284   0.13696   0.13421  -0.0438  0.0120  1.0000  -5.0743   0.0000   0.0000   0.0000   0.2677
  17.100   1.0155   0.14203   0.13933  -0.0467  0.0120  1.0000  -4.9455   0.0000   0.0000   0.0000   0.2711
  17.200   1.0031   0.14684   0.14420  -0.0493  0.0120  1.0000  -4.8159   0.0000   0.0000   0.0000   0.2742
  17.300   0.9862   0.15284   0.15025  -0.0527  0.0120  1.0000  -4.6196   0.0000   0.0000   0.0000   0.2787
  17.400   0.9713   0.15819   0.15564  -0.0557  0.0120  1.0000  -4.4373   0.0000   0.0000   0.0000   0.2826


