xflr5 v6.61

 Calculated polar for: NACA 4408

 1 1 Reynolds number fixed          Mach number fixed         

 xtrf =   1.000 (top)        1.000 (bottom)
 Mach =   0.000     Re =     0.563 e 6     Ncrit =   9.000

  alpha     CL        CD       CDp       Cm    Top Xtr Bot Xtr   Cpmin    Chinge    XCp    
 ------- -------- --------- --------- -------- ------- ------- -------- --------- ---------
 -10.000  -0.3711   0.11299   0.11070  -0.0279  1.0001  0.0159  -1.6554   0.0000   0.0000   0.0000   0.1682
  -9.900  -0.3689   0.11170   0.10941  -0.0285  1.0001  0.0159  -1.6679   0.0000   0.0000   0.0000   0.1662
  -9.800  -0.3669   0.11037   0.10808  -0.0290  1.0001  0.0160  -1.6822   0.0000   0.0000   0.0000   0.1643
  -9.700  -0.3650   0.10900   0.10673  -0.0296  1.0001  0.0160  -1.6983   0.0000   0.0000   0.0000   0.1624
  -9.600  -0.3632   0.10762   0.10535  -0.0301  1.0001  0.0161  -1.7164   0.0000   0.0000   0.0000   0.1606
  -9.500  -0.3615   0.10621   0.10395  -0.0306  1.0001  0.0161  -1.7370   0.0000   0.0000   0.0000   0.1588
  -9.400  -0.3600   0.10479   0.10253  -0.0311  1.0001  0.0161  -1.7606   0.0000   0.0000   0.0000   0.1571
  -9.300  -0.3586   0.10335   0.10110  -0.0316  1.0001  0.0161  -1.7882   0.0000   0.0000   0.0000   0.1555
  -9.200  -0.3575   0.10189   0.09966  -0.0321  1.0001  0.0162  -1.8209   0.0000   0.0000   0.0000   0.1539
  -9.100  -0.3566   0.10044   0.09821  -0.0326  1.0001  0.0162  -1.8601   0.0000   0.0000   0.0000   0.1525
  -9.000  -0.3560   0.09899   0.09677  -0.0330  1.0001  0.0162  -1.9065   0.0000   0.0000   0.0000   0.1511
  -8.900  -0.3555   0.09759   0.09538  -0.0335  1.0001  0.0163  -1.9545   0.0000   0.0000   0.0000   0.1498
  -8.800  -0.3552   0.09627   0.09407  -0.0339  1.0001  0.0163  -1.9940   0.0000   0.0000   0.0000   0.1487
  -8.700  -0.3552   0.09504   0.09285  -0.0341  1.0001  0.0164  -2.0206   0.0000   0.0000   0.0000   0.1480
  -8.600  -0.3555   0.09387   0.09170  -0.0343  1.0001  0.0164  -2.0394   0.0000   0.0000   0.0000   0.1478
  -8.500  -0.3561   0.09275   0.09060  -0.0343  1.0001  0.0164  -2.0536   0.0000   0.0000   0.0000   0.1481
  -8.000  -0.3847   0.08676   0.08474  -0.0308  1.0001  0.0167  -2.2779   0.0000   0.0000   0.0000   0.1650
  -7.900  -0.3976   0.08579   0.08379  -0.0289  1.0001  0.0168  -2.3532   0.0000   0.0000   0.0000   0.1727
  -7.800  -0.4080   0.08522   0.08326  -0.0270  1.0001  0.0169  -2.3926   0.0000   0.0000   0.0000   0.1794
  -7.700  -0.4064   0.08176   0.07980  -0.0305  0.9988  0.0175  -2.4517   0.0000   0.0000   0.0000   0.1705
  -7.600  -0.3979   0.08008   0.07812  -0.0329  0.9977  0.0179  -2.3879   0.0000   0.0000   0.0000   0.1629
  -7.500  -0.3888   0.07901   0.07705  -0.0345  0.9967  0.0182  -2.2914   0.0000   0.0000   0.0000   0.1570
  -7.400  -0.3794   0.07789   0.07592  -0.0362  0.9958  0.0186  -2.2021   0.0000   0.0000   0.0000   0.1502
  -7.300  -0.3694   0.07665   0.07467  -0.0382  0.9950  0.0190  -2.1213   0.0000   0.0000   0.0000   0.1422
  -7.200  -0.3587   0.07519   0.07321  -0.0408  0.9941  0.0194  -2.0521   0.0000   0.0000   0.0000   0.1320
  -7.100  -0.3486   0.07363   0.07164  -0.0434  0.9926  0.0198  -1.9967   0.0000   0.0000   0.0000   0.1211
  -7.000  -0.3377   0.07190   0.06990  -0.0465  0.9910  0.0203  -1.9482   0.0000   0.0000   0.0000   0.1080
  -6.900  -0.3258   0.07001   0.06800  -0.0499  0.9895  0.0208  -1.9053   0.0000   0.0000   0.0000   0.0923
  -6.800  -0.3130   0.06803   0.06600  -0.0537  0.9883  0.0215  -1.8636   0.0000   0.0000   0.0000   0.0740
  -6.700  -0.2992   0.06602   0.06398  -0.0577  0.9872  0.0226  -1.8204   0.0000   0.0000   0.0000   0.0526
  -6.600  -0.2845   0.06377   0.06171  -0.0622  0.9860  0.0241  -1.7955   0.0000   0.0000   0.0000   0.0266
  -6.500  -0.2661   0.06168   0.05959  -0.0674  0.9833  0.0265  -1.7976   0.0000   0.0000   0.0000  -0.0084
  -6.400  -0.2469   0.06057   0.05845  -0.0711  0.9817  0.0273  -1.7635   0.0000   0.0000   0.0000  -0.0432
  -6.300  -0.2318   0.05837   0.05621  -0.0750  0.9803  0.0275  -1.7744   0.0000   0.0000   0.0000  -0.0790
  -6.200  -0.2171   0.05597   0.05378  -0.0789  0.9792  0.0275  -1.7916   0.0000   0.0000   0.0000  -0.1191
  -6.100  -0.2024   0.05347   0.05123  -0.0826  0.9782  0.0276  -1.8129   0.0000   0.0000   0.0000  -0.1645
  -6.000  -0.1876   0.05088   0.04859  -0.0863  0.9774  0.0276  -1.8380   0.0000   0.0000   0.0000  -0.2167
  -5.900  -0.1727   0.04821   0.04585  -0.0898  0.9767  0.0277  -1.8673   0.0000   0.0000   0.0000  -0.2775
  -5.800  -0.1580   0.04549   0.04305  -0.0932  0.9759  0.0277  -1.9015   0.0000   0.0000   0.0000  -0.3478
  -5.700  -0.1488   0.04325   0.04075  -0.0948  0.9724  0.0277  -1.9351   0.0000   0.0000   0.0000  -0.3957
  -5.600  -0.1369   0.04078   0.03818  -0.0971  0.9702  0.0277  -1.9719   0.0000   0.0000   0.0000  -0.4681
  -5.500  -0.1245   0.03838   0.03567  -0.0992  0.9683  0.0277  -2.0050   0.0000   0.0000   0.0000  -0.5568
  -5.400  -0.1121   0.03614   0.03331  -0.1012  0.9667  0.0278  -2.0318   0.0000   0.0000   0.0000  -0.6639
  -5.300  -0.0995   0.03403   0.03107  -0.1030  0.9653  0.0278  -2.0523   0.0000   0.0000   0.0000  -0.7972
  -5.200  -0.0938   0.01691   0.01239  -0.1089  0.9625  0.0179  -3.1172   0.0000   0.0000   0.0000  -0.9273
  -5.100  -0.0849   0.01645   0.01185  -0.1084  0.9592  0.0176  -3.0760   0.0000   0.0000   0.0000  -1.0440
  -5.000  -0.0741   0.01601   0.01133  -0.1083  0.9567  0.0173  -3.0227   0.0000   0.0000   0.0000  -1.2321
  -4.900  -0.0625   0.01556   0.01080  -0.1084  0.9547  0.0171  -2.9669   0.0000   0.0000   0.0000  -1.5089
  -4.800  -0.0506   0.01507   0.01023  -0.1086  0.9528  0.0170  -2.9138   0.0000   0.0000   0.0000  -1.9254
  -4.700  -0.0386   0.01450   0.00957  -0.1088  0.9511  0.0169  -2.8679   0.0000   0.0000   0.0000  -2.6051
  -4.600  -0.0267   0.01381   0.00877  -0.1090  0.9494  0.0168  -2.8354   0.0000   0.0000   0.0000  -3.8878
  -4.500  -0.0149   0.01289   0.00769  -0.1091  0.9479  0.0169  -2.8321   0.0000   0.0000   0.0000  -7.1733
  -4.400  -0.0034   0.01133   0.00581  -0.1092  0.9464  0.0178  -2.9260   0.0000   0.0000   0.0000  -32.4761
  -4.300   0.0062   0.01051   0.00487  -0.1088  0.9434  0.0197  -2.9600   0.0000   0.0000   0.0000  18.0795
  -4.200   0.0167   0.01039   0.00478  -0.1086  0.9404  0.0224  -2.9030   0.0000   0.0000   0.0000   6.8227
  -4.100   0.0279   0.01044   0.00484  -0.1086  0.9376  0.0254  -2.8242   0.0000   0.0000   0.0000   4.1893
  -4.000   0.0392   0.01046   0.00486  -0.1085  0.9351  0.0267  -2.7294   0.0000   0.0000   0.0000   3.0509
  -3.900   0.0506   0.01049   0.00488  -0.1085  0.9327  0.0274  -2.6294   0.0000   0.0000   0.0000   2.4172
  -3.800   0.0623   0.01053   0.00492  -0.1086  0.9305  0.0278  -2.5277   0.0000   0.0000   0.0000   2.0100
  -3.700   0.0734   0.00981   0.00408  -0.1086  0.9284  0.0295  -2.4867   0.0000   0.0000   0.0000   1.7443
  -3.600   0.0843   0.00948   0.00371  -0.1085  0.9259  0.0312  -2.4187   0.0000   0.0000   0.0000   1.5496
  -3.500   0.0946   0.00929   0.00350  -0.1083  0.9225  0.0327  -2.3426   0.0000   0.0000   0.0000   1.4053
  -3.400   0.1052   0.00917   0.00339  -0.1081  0.9191  0.0343  -2.2573   0.0000   0.0000   0.0000   1.2871
  -3.300   0.1160   0.00909   0.00331  -0.1080  0.9157  0.0363  -2.1686   0.0000   0.0000   0.0000   1.1892
  -3.200   0.1270   0.00900   0.00321  -0.1079  0.9125  0.0384  -2.0838   0.0000   0.0000   0.0000   1.1065
  -3.100   0.1383   0.00891   0.00309  -0.1078  0.9095  0.0405  -2.0022   0.0000   0.0000   0.0000   1.0360
  -3.000   0.1496   0.00887   0.00302  -0.1078  0.9065  0.0417  -1.9169   0.0000   0.0000   0.0000   0.9756
  -2.900   0.1603   0.00854   0.00265  -0.1076  0.9030  0.0470  -1.8562   0.0000   0.0000   0.0000   0.9262
  -2.800   0.1709   0.00841   0.00255  -0.1075  0.8990  0.0509  -1.7776   0.0000   0.0000   0.0000   0.8831
  -2.700   0.1817   0.00832   0.00246  -0.1073  0.8950  0.0544  -1.6968   0.0000   0.0000   0.0000   0.8447
  -2.600   0.1927   0.00826   0.00238  -0.1072  0.8912  0.0575  -1.6155   0.0000   0.0000   0.0000   0.8101
  -2.500   0.2038   0.00813   0.00223  -0.1071  0.8877  0.0631  -1.5390   0.0000   0.0000   0.0000   0.7790
  -2.400   0.2149   0.00801   0.00214  -0.1071  0.8844  0.0717  -1.4604   0.0000   0.0000   0.0000   0.7513
  -2.300   0.2261   0.00796   0.00207  -0.1070  0.8810  0.0771  -1.3800   0.0000   0.0000   0.0000   0.7261
  -2.200   0.2369   0.00785   0.00201  -0.1070  0.8774  0.0872  -1.3039   0.0000   0.0000   0.0000   0.7039
  -2.100   0.2478   0.00777   0.00196  -0.1069  0.8733  0.0963  -1.2265   0.0000   0.0000   0.0000   0.6836
  -2.000   0.2587   0.00771   0.00190  -0.1068  0.8691  0.1054  -1.1497   0.0000   0.0000   0.0000   0.6648
  -1.900   0.2696   0.00762   0.00186  -0.1068  0.8650  0.1184  -1.0729   0.0000   0.0000   0.0000   0.6477
  -1.800   0.2806   0.00753   0.00178  -0.1067  0.8610  0.1369  -1.0325   0.0000   0.0000   0.0000   0.6318
  -1.700   0.2916   0.00748   0.00174  -0.1067  0.8570  0.1485  -0.9819   0.0000   0.0000   0.0000   0.6170
  -1.600   0.3027   0.00741   0.00170  -0.1066  0.8531  0.1628  -0.9321   0.0000   0.0000   0.0000   0.6034
  -1.500   0.3136   0.00735   0.00168  -0.1066  0.8489  0.1762  -0.8827   0.0000   0.0000   0.0000   0.5909
  -1.400   0.3245   0.00728   0.00165  -0.1065  0.8442  0.1914  -0.8340   0.0000   0.0000   0.0000   0.5791
  -1.300   0.3355   0.00723   0.00162  -0.1065  0.8392  0.2063  -0.7858   0.0000   0.0000   0.0000   0.5681
  -1.200   0.3463   0.00717   0.00159  -0.1064  0.8342  0.2232  -0.7382   0.0000   0.0000   0.0000   0.5577
  -1.100   0.3572   0.00714   0.00156  -0.1063  0.8290  0.2401  -0.6910   0.0000   0.0000   0.0000   0.5480
  -1.000   0.3681   0.00706   0.00154  -0.1063  0.8242  0.2628  -0.6446   0.0000   0.0000   0.0000   0.5389
  -0.900   0.3790   0.00699   0.00153  -0.1062  0.8192  0.2857  -0.5987   0.0000   0.0000   0.0000   0.5304
  -0.700   0.4007   0.00684   0.00150  -0.1061  0.8080  0.3422  -0.5747   0.0000   0.0000   0.0000   0.5148
  -0.600   0.4114   0.00674   0.00148  -0.1061  0.8026  0.3787  -0.5819   0.0000   0.0000   0.0000   0.5076
  -0.500   0.4219   0.00657   0.00148  -0.1060  0.7971  0.4473  -0.5889   0.0000   0.0000   0.0000   0.5010
  -0.400   0.4318   0.00622   0.00152  -0.1059  0.7926  0.5845  -0.5957   0.0000   0.0000   0.0000   0.4950
  -0.300   0.4404   0.00584   0.00156  -0.1054  0.7876  0.7267  -0.6020   0.0000   0.0000   0.0000   0.4889
  -0.200   0.4446   0.00544   0.00159  -0.1035  0.7822  0.8782  -0.6070   0.0000   0.0000   0.0000   0.4824
  -0.100   0.4631   0.00530   0.00152  -0.1049  0.7766  0.9999  -0.6189   0.0000   0.0000   0.0000   0.4760
   0.000   0.4739   0.00534   0.00151  -0.1048  0.7704  0.9999  -0.6269   0.0000   0.0000   0.0000   0.4704
   0.100   0.4846   0.00539   0.00149  -0.1047  0.7638  0.9999  -0.6349   0.0000   0.0000   0.0000   0.4652
   0.200   0.4957   0.00542   0.00149  -0.1046  0.7585  0.9999  -0.6430   0.0000   0.0000   0.0000   0.4602
   0.300   0.5066   0.00544   0.00148  -0.1045  0.7523  0.9999  -0.6510   0.0000   0.0000   0.0000   0.4554
   0.400   0.5175   0.00547   0.00148  -0.1044  0.7454  0.9999  -0.6591   0.0000   0.0000   0.0000   0.4508
   0.500   0.5281   0.00552   0.00147  -0.1043  0.7381  0.9999  -0.6671   0.0000   0.0000   0.0000   0.4463
   0.600   0.5387   0.00559   0.00147  -0.1041  0.7307  0.9999  -0.6750   0.0000   0.0000   0.0000   0.4421
   0.700   0.5497   0.00562   0.00148  -0.1041  0.7250  0.9999  -0.6831   0.0000   0.0000   0.0000   0.4380
   0.800   0.5607   0.00565   0.00148  -0.1040  0.7192  0.9999  -0.6912   0.0000   0.0000   0.0000   0.4342
   0.900   0.5716   0.00568   0.00151  -0.1040  0.7127  0.9999  -0.6999   0.0000   0.0000   0.0000   0.4304
   1.000   0.5823   0.00573   0.00152  -0.1038  0.7058  0.9999  -0.7088   0.0000   0.0000   0.0000   0.4268
   1.100   0.5929   0.00580   0.00152  -0.1037  0.6985  0.9999  -0.7177   0.0000   0.0000   0.0000   0.4233
   1.200   0.6036   0.00586   0.00154  -0.1036  0.6915  0.9999  -0.7265   0.0000   0.0000   0.0000   0.4199
   1.300   0.6146   0.00589   0.00155  -0.1035  0.6858  0.9999  -0.7356   0.0000   0.0000   0.0000   0.4167
   1.400   0.6255   0.00593   0.00157  -0.1035  0.6789  0.9999  -0.7446   0.0000   0.0000   0.0000   0.4135
   1.500   0.6361   0.00599   0.00158  -0.1034  0.6713  0.9999  -0.7535   0.0000   0.0000   0.0000   0.4105
   1.600   0.6466   0.00606   0.00160  -0.1032  0.6633  0.9999  -0.7624   0.0000   0.0000   0.0000   0.4075
   1.700   0.6571   0.00614   0.00162  -0.1030  0.6553  0.9999  -0.7715   0.0000   0.0000   0.0000   0.4047
   1.800   0.6681   0.00617   0.00165  -0.1030  0.6503  0.9999  -0.7817   0.0000   0.0000   0.0000   0.4020
   1.900   0.6791   0.00621   0.00167  -0.1030  0.6444  0.9999  -0.7918   0.0000   0.0000   0.0000   0.3993
   2.000   0.6898   0.00627   0.00170  -0.1029  0.6378  0.9999  -0.8018   0.0000   0.0000   0.0000   0.3968
   2.100   0.7004   0.00634   0.00172  -0.1028  0.6305  0.9999  -0.8117   0.0000   0.0000   0.0000   0.3943
   2.200   0.7107   0.00643   0.00176  -0.1026  0.6225  0.9999  -0.8215   0.0000   0.0000   0.0000   0.3918
   2.300   0.7215   0.00649   0.00179  -0.1025  0.6160  0.9999  -0.8319   0.0000   0.0000   0.0000   0.3895
   2.400   0.7325   0.00653   0.00183  -0.1025  0.6109  0.9999  -0.8433   0.0000   0.0000   0.0000   0.3872
   2.500   0.7433   0.00658   0.00186  -0.1024  0.6050  0.9999  -0.8546   0.0000   0.0000   0.0000   0.3850
   2.600   0.7540   0.00664   0.00190  -0.1023  0.5987  0.9999  -0.8658   0.0000   0.0000   0.0000   0.3828
   2.700   0.7645   0.00671   0.00194  -0.1022  0.5922  0.9999  -0.8774   0.0000   0.0000   0.0000   0.3807
   2.800   0.7749   0.00681   0.00198  -0.1021  0.5848  0.9999  -0.9073   0.0000   0.0000   0.0000   0.3786
   2.900   0.7855   0.00689   0.00203  -0.1020  0.5783  0.9999  -0.9426   0.0000   0.0000   0.0000   0.3766
   3.000   0.7965   0.00692   0.00208  -0.1019  0.5743  0.9999  -0.9870   0.0000   0.0000   0.0000   0.3747
   3.100   0.8074   0.00697   0.00212  -0.1019  0.5693  0.9999  -1.0416   0.0000   0.0000   0.0000   0.3729
   3.200   0.8182   0.00703   0.00217  -0.1018  0.5638  0.9999  -1.0965   0.0000   0.0000   0.0000   0.3710
   3.300   0.8288   0.00710   0.00221  -0.1017  0.5580  0.9999  -1.1518   0.0000   0.0000   0.0000   0.3692
   3.400   0.8392   0.00719   0.00227  -0.1016  0.5514  0.9999  -1.2071   0.0000   0.0000   0.0000   0.3674
   3.500   0.8494   0.00730   0.00233  -0.1014  0.5433  0.9999  -1.2627   0.0000   0.0000   0.0000   0.3657
   3.600   0.8601   0.00735   0.00247  -0.1013  0.5376  0.9999  -1.3068   0.0000   0.0000   0.0000   0.3640
   3.700   0.8708   0.00740   0.00251  -0.1012  0.5301  0.9999  -1.3588   0.0000   0.0000   0.0000   0.3624
   3.800   0.8810   0.00750   0.00256  -0.1010  0.5189  0.9999  -1.4136   0.0000   0.0000   0.0000   0.3607
   3.900   0.8904   0.00765   0.00262  -0.1007  0.5053  0.9999  -1.4683   0.0000   0.0000   0.0000   0.3590
   4.000   0.9009   0.00772   0.00268  -0.1006  0.4959  0.9999  -1.5267   0.0000   0.0000   0.0000   0.3575
   4.100   0.9113   0.00779   0.00273  -0.1005  0.4865  0.9999  -1.5862   0.0000   0.0000   0.0000   0.3560
   4.200   0.9212   0.00792   0.00279  -0.1003  0.4749  0.9999  -1.6448   0.0000   0.0000   0.0000   0.3545
   4.300   0.9307   0.00808   0.00287  -0.1000  0.4616  0.9999  -1.7235   0.0000   0.0000   0.0000   0.3530
   4.400   0.9415   0.00812   0.00293  -0.1000  0.4556  0.9999  -1.8137   0.0000   0.0000   0.0000   0.3516
   4.500   0.9521   0.00819   0.00299  -0.0999  0.4479  0.9999  -1.9041   0.0000   0.0000   0.0000   0.3502
   4.600   0.9623   0.00829   0.00306  -0.0997  0.4395  0.9999  -1.9945   0.0000   0.0000   0.0000   0.3488
   4.700   0.9722   0.00842   0.00315  -0.0995  0.4297  0.9999  -2.0844   0.0000   0.0000   0.0000   0.3474
   4.800   0.9823   0.00854   0.00323  -0.0993  0.4205  0.9999  -2.1764   0.0000   0.0000   0.0000   0.3461
   4.900   0.9930   0.00860   0.00331  -0.0993  0.4131  0.9999  -2.2724   0.0000   0.0000   0.0000   0.3448
   5.000   1.0030   0.00871   0.00338  -0.0991  0.4007  0.9999  -2.3671   0.0000   0.0000   0.0000   0.3436
   5.100   1.0122   0.00891   0.00349  -0.0988  0.3840  0.9999  -2.4585   0.0000   0.0000   0.0000   0.3423
   5.200   1.0222   0.00903   0.00358  -0.0986  0.3701  0.9999  -2.5552   0.0000   0.0000   0.0000   0.3410
   5.300   1.0308   0.00928   0.00370  -0.0982  0.3467  0.9999  -2.6465   0.0000   0.0000   0.0000   0.3397
   5.400   1.0399   0.00950   0.00383  -0.0979  0.3239  0.9999  -2.7408   0.0000   0.0000   0.0000   0.3385
   5.500   1.0480   0.00983   0.00400  -0.0975  0.2946  0.9999  -2.8312   0.0000   0.0000   0.0000   0.3372
   5.600   1.0554   0.01023   0.00422  -0.0970  0.2595  0.9999  -2.9190   0.0000   0.0000   0.0000   0.3360
   5.700   1.0623   0.01070   0.00447  -0.0964  0.2200  0.9999  -3.0045   0.0000   0.0000   0.0000   0.3347
   5.800   1.0685   0.01126   0.00478  -0.0957  0.1779  0.9999  -3.0867   0.0000   0.0000   0.0000   0.3335
   5.900   1.0748   0.01181   0.00510  -0.0951  0.1384  0.9999  -3.1696   0.0000   0.0000   0.0000   0.3322
   6.000   1.0814   0.01232   0.00541  -0.0945  0.1044  0.9999  -3.2542   0.0000   0.0000   0.0000   0.3310
   6.100   1.0881   0.01282   0.00574  -0.0938  0.0768  0.9999  -3.3391   0.0000   0.0000   0.0000   0.3298
   6.200   1.0955   0.01324   0.00603  -0.0933  0.0580  0.9999  -3.4271   0.0000   0.0000   0.0000   0.3286
   6.300   1.1040   0.01353   0.00633  -0.0929  0.0467  0.9999  -3.5091   0.0000   0.0000   0.0000   0.3275
   6.400   1.1122   0.01385   0.00657  -0.0925  0.0392  0.9999  -3.5961   0.0000   0.0000   0.0000   0.3264
   6.500   1.1210   0.01410   0.00682  -0.0921  0.0332  0.9999  -3.6849   0.0000   0.0000   0.0000   0.3253
   6.600   1.1301   0.01431   0.00703  -0.0918  0.0300  0.9999  -3.7809   0.0000   0.0000   0.0000   0.3242
   6.700   1.1380   0.01466   0.00734  -0.0913  0.0255  0.9999  -3.8637   0.0000   0.0000   0.0000   0.3231
   6.800   1.1443   0.01522   0.00796  -0.0903  0.0213  0.9999  -3.9083   0.0000   0.0000   0.0000   0.3217
   6.900   1.1541   0.01533   0.00809  -0.0902  0.0209  0.9999  -4.0161   0.0000   0.0000   0.0000   0.3208
   7.000   1.1636   0.01548   0.00825  -0.0899  0.0202  0.9999  -4.1208   0.0000   0.0000   0.0000   0.3198
   7.100   1.1728   0.01565   0.00843  -0.0897  0.0191  0.9999  -4.2203   0.0000   0.0000   0.0000   0.3188
   7.200   1.1818   0.01585   0.00864  -0.0893  0.0175  0.9999  -4.3134   0.0000   0.0000   0.0000   0.3179
   7.300   1.1899   0.01614   0.00891  -0.0889  0.0151  0.9999  -4.3865   0.0000   0.0000   0.0000   0.3168
   7.400   1.1837   0.01801   0.01103  -0.0856  0.0114  0.9999  -4.1823   0.0000   0.0000   0.0000   0.3144
   7.500   1.1914   0.01833   0.01138  -0.0851  0.0113  0.9999  -4.2579   0.0000   0.0000   0.0000   0.3133
   7.600   1.1985   0.01870   0.01179  -0.0844  0.0112  0.9999  -4.3273   0.0000   0.0000   0.0000   0.3122
   7.700   1.2051   0.01912   0.01225  -0.0837  0.0111  0.9999  -4.3915   0.0000   0.0000   0.0000   0.3111
   7.800   1.2113   0.01958   0.01276  -0.0828  0.0111  0.9999  -4.4512   0.0000   0.0000   0.0000   0.3099
   7.900   1.2171   0.02009   0.01332  -0.0820  0.0110  0.9999  -4.5071   0.0000   0.0000   0.0000   0.3088
   8.000   1.2226   0.02063   0.01391  -0.0810  0.0110  0.9999  -4.5597   0.0000   0.0000   0.0000   0.3076
   8.100   1.2279   0.02121   0.01455  -0.0801  0.0109  0.9999  -4.6092   0.0000   0.0000   0.0000   0.3064
   8.200   1.2330   0.02184   0.01523  -0.0791  0.0109  0.9999  -4.6560   0.0000   0.0000   0.0000   0.3052
   8.300   1.2381   0.02251   0.01595  -0.0781  0.0109  0.9999  -4.7003   0.0000   0.0000   0.0000   0.3040
   8.400   1.2433   0.02322   0.01673  -0.0772  0.0109  0.9999  -4.7422   0.0000   0.0000   0.0000   0.3029
   8.500   1.2485   0.02400   0.01757  -0.0762  0.0109  0.9999  -4.7814   0.0000   0.0000   0.0000   0.3017
   8.600   1.2540   0.02485   0.01848  -0.0754  0.0109  0.9999  -4.8174   0.0000   0.0000   0.0000   0.3006
   8.700   1.2598   0.02580   0.01950  -0.0745  0.0110  0.9999  -4.8494   0.0000   0.0000   0.0000   0.2996
   8.800   1.2659   0.02689   0.02066  -0.0737  0.0110  0.9999  -4.8748   0.0000   0.0000   0.0000   0.2985
   8.900   1.2722   0.02822   0.02208  -0.0730  0.0111  0.9999  -4.8866   0.0000   0.0000   0.0000   0.2976
   9.900   1.3261   0.03776   0.03251  -0.0655  0.0110  0.9999  -5.3578   0.0000   0.0000   0.0000   0.2882
  10.000   1.3326   0.03745   0.03220  -0.0648  0.0108  0.9999  -5.4946   0.0000   0.0000   0.0000   0.2874
  10.100   1.3376   0.03765   0.03244  -0.0641  0.0106  0.9999  -5.5944   0.0000   0.0000   0.0000   0.2865
  10.200   1.3418   0.03807   0.03290  -0.0632  0.0105  0.9999  -5.6777   0.0000   0.0000   0.0000   0.2855
  10.300   1.3446   0.03860   0.03349  -0.0621  0.0104  0.9999  -5.7455   0.0000   0.0000   0.0000   0.2845
  10.400   1.3467   0.03927   0.03422  -0.0610  0.0103  0.9999  -5.8020   0.0000   0.0000   0.0000   0.2834
  10.500   1.3480   0.04005   0.03508  -0.0597  0.0102  0.9999  -5.8466   0.0000   0.0000   0.0000   0.2823
  10.600   1.3483   0.04099   0.03610  -0.0584  0.0102  0.9999  -5.8778   0.0000   0.0000   0.0000   0.2812
  10.700   1.3476   0.04206   0.03727  -0.0570  0.0102  0.9999  -5.8952   0.0000   0.0000   0.0000   0.2801
  10.800   1.3460   0.04317   0.03846  -0.0556  0.0102  0.9999  -5.9079   0.0000   0.0000   0.0000   0.2789
  10.900   1.3440   0.04429   0.03968  -0.0541  0.0102  0.9999  -5.9182   0.0000   0.0000   0.0000   0.2778
  11.000   1.3414   0.04544   0.04092  -0.0527  0.0102  0.9999  -5.9262   0.0000   0.0000   0.0000   0.2767
  11.100   1.3383   0.04662   0.04219  -0.0513  0.0102  0.9999  -5.9318   0.0000   0.0000   0.0000   0.2756
  11.200   1.3346   0.04781   0.04347  -0.0499  0.0102  0.9999  -5.9347   0.0000   0.0000   0.0000   0.2745
  11.300   1.3305   0.04904   0.04479  -0.0486  0.0102  0.9999  -5.9356   0.0000   0.0000   0.0000   0.2735
  11.400   1.3261   0.05032   0.04616  -0.0474  0.0102  0.9999  -5.9345   0.0000   0.0000   0.0000   0.2726
  11.500   1.3214   0.05165   0.04757  -0.0462  0.0102  0.9999  -5.9315   0.0000   0.0000   0.0000   0.2717
  11.600   1.3163   0.05303   0.04904  -0.0452  0.0103  0.9999  -5.9264   0.0000   0.0000   0.0000   0.2709
  11.700   1.3107   0.05444   0.05054  -0.0442  0.0103  0.9999  -5.9189   0.0000   0.0000   0.0000   0.2701
  11.800   1.3047   0.05588   0.05206  -0.0432  0.0103  0.9999  -5.9090   0.0000   0.0000   0.0000   0.2694
  11.900   1.2983   0.05739   0.05366  -0.0424  0.0103  0.9999  -5.8968   0.0000   0.0000   0.0000   0.2688
  12.000   1.2918   0.05898   0.05533  -0.0417  0.0103  0.9999  -5.8831   0.0000   0.0000   0.0000   0.2683
  12.100   1.2849   0.06066   0.05708  -0.0412  0.0103  0.9999  -5.8667   0.0000   0.0000   0.0000   0.2679
  12.200   1.2780   0.06241   0.05891  -0.0408  0.0103  0.9999  -5.8486   0.0000   0.0000   0.0000   0.2676
  12.300   1.2708   0.06425   0.06083  -0.0406  0.0103  0.9999  -5.8278   0.0000   0.0000   0.0000   0.2674
  12.400   1.2634   0.06616   0.06282  -0.0405  0.0103  0.9999  -5.8124   0.0000   0.0000   0.0000   0.2673
  12.500   1.2556   0.06817   0.06491  -0.0405  0.0104  0.9999  -5.7926   0.0000   0.0000   0.0000   0.2674
  12.600   1.2477   0.07027   0.06708  -0.0407  0.0104  0.9999  -5.7697   0.0000   0.0000   0.0000   0.2676
  12.700   1.2395   0.07246   0.06934  -0.0410  0.0104  0.9999  -5.7424   0.0000   0.0000   0.0000   0.2679
  12.800   1.2309   0.07472   0.07168  -0.0415  0.0104  0.9999  -5.7107   0.0000   0.0000   0.0000   0.2684
  12.900   1.2219   0.07704   0.07407  -0.0421  0.0104  0.9999  -5.6744   0.0000   0.0000   0.0000   0.2689
  13.000   1.2126   0.07951   0.07660  -0.0428  0.0105  0.9999  -5.6329   0.0000   0.0000   0.0000   0.2696
  13.100   1.2034   0.08210   0.07927  -0.0438  0.0105  0.9999  -5.5882   0.0000   0.0000   0.0000   0.2705
  13.200   1.1937   0.08490   0.08213  -0.0449  0.0105  0.9999  -5.5361   0.0000   0.0000   0.0000   0.2716
  13.300   1.1841   0.08782   0.08512  -0.0463  0.0106  0.9999  -5.4800   0.0000   0.0000   0.0000   0.2729
  13.400   1.1738   0.09096   0.08833  -0.0478  0.0106  0.9999  -5.4144   0.0000   0.0000   0.0000   0.2744
  13.500   1.1634   0.09429   0.09173  -0.0496  0.0106  0.9999  -5.3412   0.0000   0.0000   0.0000   0.2762
  13.600   1.1524   0.09788   0.09539  -0.0516  0.0107  0.9999  -5.2563   0.0000   0.0000   0.0000   0.2782
  13.700   1.1403   0.10187   0.09945  -0.0540  0.0107  0.9999  -5.1530   0.0000   0.0000   0.0000   0.2806
  13.800   1.1260   0.10653   0.10418  -0.0569  0.0108  0.9999  -5.0245   0.0000   0.0000   0.0000   0.2837
  14.600   0.9892   0.16864   0.16663  -0.0895  0.0212  0.9999  -2.5791   0.0000   0.0000   0.0000   0.3247
  14.700   0.9889   0.17109   0.16907  -0.0908  0.0212  0.9999  -2.5426   0.0000   0.0000   0.0000   0.3259
  14.800   0.9889   0.17348   0.17145  -0.0920  0.0212  0.9999  -2.5094   0.0000   0.0000   0.0000   0.3270
  14.900   0.9890   0.17580   0.17377  -0.0932  0.0212  0.9999  -2.4791   0.0000   0.0000   0.0000   0.3281
  15.000   0.9894   0.17807   0.17604  -0.0943  0.0211  0.9999  -2.4516   0.0000   0.0000   0.0000   0.3292
  15.100   0.9900   0.18029   0.17826  -0.0954  0.0211  0.9999  -2.4268   0.0000   0.0000   0.0000   0.3301
  15.200   0.9908   0.18244   0.18041  -0.0965  0.0211  0.9999  -2.4052   0.0000   0.0000   0.0000   0.3311
  15.300   0.9920   0.18450   0.18247  -0.0976  0.0210  0.9999  -2.3925   0.0000   0.0000   0.0000   0.3319
  15.400   0.9941   0.18635   0.18432  -0.0987  0.0208  0.9999  -2.4004   0.0000   0.0000   0.0000   0.3327
  15.500   1.0036   0.18702   0.18500  -0.0997  0.0190  0.9999  -2.4768   0.0000   0.0000   0.0000   0.3326
  15.600   1.0047   0.18928   0.18725  -0.1010  0.0183  0.9999  -2.4633   0.0000   0.0000   0.0000   0.3336
  15.700   1.0056   0.19142   0.18939  -0.1021  0.0177  0.9999  -2.4562   0.0000   0.0000   0.0000   0.3346
  15.800   1.0065   0.19349   0.19146  -0.1031  0.0172  0.9999  -2.4539   0.0000   0.0000   0.0000   0.3354
  15.900   1.0074   0.19551   0.19348  -0.1041  0.0167  0.9999  -2.4541   0.0000   0.0000   0.0000   0.3362
  16.000   1.0082   0.19751   0.19548  -0.1051  0.0164  0.9999  -2.4554   0.0000   0.0000   0.0000   0.3369
  16.100   1.0092   0.19948   0.19744  -0.1060  0.0161  0.9999  -2.4591   0.0000   0.0000   0.0000   0.3376
  16.200   1.0103   0.20140   0.19936  -0.1069  0.0158  0.9999  -2.4660   0.0000   0.0000   0.0000   0.3383
  16.300   1.0114   0.20327   0.20123  -0.1078  0.0155  0.9999  -2.4760   0.0000   0.0000   0.0000   0.3389
  16.400   1.0127   0.20509   0.20305  -0.1086  0.0153  0.9999  -2.4897   0.0000   0.0000   0.0000   0.3394
  16.500   1.0140   0.20686   0.20482  -0.1095  0.0150  0.9999  -2.5069   0.0000   0.0000   0.0000   0.3399
  16.600   1.0155   0.20857   0.20653  -0.1102  0.0147  0.9999  -2.5280   0.0000   0.0000   0.0000   0.3404
  16.700   1.0170   0.21022   0.20818  -0.1110  0.0145  0.9999  -2.5535   0.0000   0.0000   0.0000   0.3408
  16.800   1.0187   0.21180   0.20976  -0.1117  0.0142  0.9999  -2.5837   0.0000   0.0000   0.0000   0.3411
  16.900   1.0205   0.21330   0.21126  -0.1123  0.0140  0.9999  -2.6194   0.0000   0.0000   0.0000   0.3414
  17.000   1.0224   0.21471   0.21268  -0.1129  0.0138  0.9999  -2.6612   0.0000   0.0000   0.0000   0.3416
  17.100   1.0245   0.21604   0.21401  -0.1135  0.0135  0.9999  -2.7091   0.0000   0.0000   0.0000   0.3418
  17.200   1.0266   0.21728   0.21526  -0.1140  0.0133  0.9999  -2.7632   0.0000   0.0000   0.0000   0.3418
  17.300   1.0314   0.21604   0.21407  -0.1134  0.0126  0.9999  -2.9712   0.0000   0.0000   0.0000   0.3404
  17.400   1.0322   0.21760   0.21563  -0.1141  0.0123  0.9999  -3.0083   0.0000   0.0000   0.0000   0.3408
  17.500   1.0306   0.22018   0.21821  -0.1150  0.0120  0.9999  -2.9832   0.0000   0.0000   0.0000   0.3417
  18.200   1.0263   0.24222   0.24020  -0.1230  0.0112  0.9999  -2.4690   0.0000   0.0000   0.0000   0.3494
  18.300   1.0276   0.24470   0.24268  -0.1239  0.0112  0.9999  -2.4139   0.0000   0.0000   0.0000   0.3500
  18.400   1.0286   0.24723   0.24520  -0.1248  0.0111  0.9999  -2.3596   0.0000   0.0000   0.0000   0.3506
  18.500   1.0297   0.24973   0.24770  -0.1256  0.0111  0.9999  -2.3128   0.0000   0.0000   0.0000   0.3511
  18.600   1.0307   0.25217   0.25014  -0.1263  0.0111  0.9999  -2.2737   0.0000   0.0000   0.0000   0.3516
  18.700   1.0319   0.25455   0.25252  -0.1271  0.0111  0.9999  -2.2408   0.0000   0.0000   0.0000   0.3521
  18.800   1.0331   0.25688   0.25485  -0.1279  0.0111  0.9999  -2.2127   0.0000   0.0000   0.0000   0.3525
  18.900   1.0344   0.25917   0.25714  -0.1286  0.0111  0.9999  -2.1882   0.0000   0.0000   0.0000   0.3530
  19.000   1.0357   0.26142   0.25939  -0.1294  0.0110  0.9999  -2.1669   0.0000   0.0000   0.0000   0.3534
  19.100   1.0371   0.26364   0.26161  -0.1301  0.0110  0.9999  -2.1484   0.0000   0.0000   0.0000   0.3538
  19.200   1.0385   0.26581   0.26378  -0.1309  0.0110  0.9999  -2.1323   0.0000   0.0000   0.0000   0.3542
  19.300   1.0401   0.26793   0.26590  -0.1316  0.0109  0.9999  -2.1192   0.0000   0.0000   0.0000   0.3546
  19.400   1.0420   0.26994   0.26791  -0.1324  0.0108  0.9999  -2.1100   0.0000   0.0000   0.0000   0.3550
  19.500   1.0455   0.27186   0.26983  -0.1340  0.0098  0.9999  -2.0797   0.0000   0.0000   0.0000   0.3559
  19.600   1.0476   0.27410   0.27207  -0.1350  0.0089  0.9999  -2.0607   0.0000   0.0000   0.0000   0.3565
  19.700   1.0490   0.27622   0.27420  -0.1357  0.0084  0.9999  -2.0552   0.0000   0.0000   0.0000   0.3568
  19.800   1.0504   0.27831   0.27629  -0.1364  0.0080  0.9999  -2.0531   0.0000   0.0000   0.0000   0.3572
  19.900   1.0516   0.28038   0.27835  -0.1371  0.0077  0.9999  -2.0531   0.0000   0.0000   0.0000   0.3575
  20.000   1.0529   0.28242   0.28040  -0.1378  0.0075  0.9999  -2.0546   0.0000   0.0000   0.0000   0.3578
  20.100   1.0541   0.28446   0.28243  -0.1384  0.0072  0.9999  -2.0573   0.0000   0.0000   0.0000   0.3581
  20.200   1.0553   0.28648   0.28445  -0.1390  0.0070  0.9999  -2.0610   0.0000   0.0000   0.0000   0.3584
  20.300   1.0565   0.28849   0.28647  -0.1397  0.0069  0.9999  -2.0657   0.0000   0.0000   0.0000   0.3587
  20.400   1.0576   0.29049   0.28847  -0.1403  0.0067  0.9999  -2.0712   0.0000   0.0000   0.0000   0.3589
  20.500   1.0588   0.29248   0.29046  -0.1409  0.0066  0.9999  -2.0776   0.0000   0.0000   0.0000   0.3592
  20.600   1.0598   0.29446   0.29245  -0.1415  0.0064  0.9999  -2.0849   0.0000   0.0000   0.0000   0.3594
  20.700   1.0609   0.29643   0.29442  -0.1421  0.0063  0.9999  -2.0931   0.0000   0.0000   0.0000   0.3597
  20.800   1.0619   0.29839   0.29638  -0.1426  0.0062  0.9999  -2.1022   0.0000   0.0000   0.0000   0.3599
  20.900   1.0629   0.30034   0.29833  -0.1432  0.0061  0.9999  -2.1122   0.0000   0.0000   0.0000   0.3601
  21.000   1.0639   0.30227   0.30027  -0.1438  0.0060  0.9999  -2.1231   0.0000   0.0000   0.0000   0.3603
  21.100   1.0648   0.30420   0.30219  -0.1443  0.0059  0.9999  -2.1348   0.0000   0.0000   0.0000   0.3605
  21.200   1.0657   0.30611   0.30411  -0.1448  0.0058  0.9999  -2.1475   0.0000   0.0000   0.0000   0.3607
  21.300   1.0665   0.30801   0.30601  -0.1453  0.0057  0.9999  -2.1611   0.0000   0.0000   0.0000   0.3609
  21.400   1.0673   0.30990   0.30790  -0.1458  0.0056  0.9999  -2.1756   0.0000   0.0000   0.0000   0.3611
  21.500   1.0681   0.31178   0.30978  -0.1463  0.0056  0.9999  -2.1910   0.0000   0.0000   0.0000   0.3612
  21.600   1.0688   0.31364   0.31165  -0.1467  0.0055  0.9999  -2.2073   0.0000   0.0000   0.0000   0.3614
  21.700   1.0695   0.31549   0.31350  -0.1472  0.0054  0.9999  -2.2245   0.0000   0.0000   0.0000   0.3615
  21.800   1.0701   0.31733   0.31534  -0.1476  0.0054  0.9999  -2.2426   0.0000   0.0000   0.0000   0.3616
  21.900   1.0706   0.31915   0.31717  -0.1480  0.0053  0.9999  -2.2621   0.0000   0.0000   0.0000   0.3617
  22.000   1.0711   0.32097   0.31899  -0.1483  0.0052  0.9999  -2.2823   0.0000   0.0000   0.0000   0.3618
  22.100   1.0714   0.32278   0.32080  -0.1487  0.0052  0.9999  -2.3031   0.0000   0.0000   0.0000   0.3619
  22.200   1.0717   0.32458   0.32261  -0.1490  0.0051  0.9999  -2.3240   0.0000   0.0000   0.0000   0.3619
  22.300   1.0717   0.32655   0.32459  -0.1493  0.0051  0.9999  -2.3336   0.0000   0.0000   0.0000   0.3620
  22.400   1.0713   0.32861   0.32665  -0.1497  0.0050  0.9999  -2.3367   0.0000   0.0000   0.0000   0.3622
  22.500   1.0706   0.33077   0.32881  -0.1500  0.0049  0.9999  -2.3324   0.0000   0.0000   0.0000   0.3624
  22.600   1.0690   0.33321   0.33126  -0.1502  0.0048  0.9999  -2.3102   0.0000   0.0000   0.0000   0.3627
  22.800   1.0564   0.34216   0.34017  -0.1500  0.0045  0.9999  -1.9829   0.0000   0.0000   0.0000   0.3642
  22.900   1.0551   0.34418   0.34220  -0.1502  0.0045  0.9999  -1.9688   0.0000   0.0000   0.0000   0.3644
  23.000   1.0536   0.34616   0.34418  -0.1504  0.0045  0.9999  -1.9544   0.0000   0.0000   0.0000   0.3646
  23.100   1.0517   0.34807   0.34610  -0.1505  0.0045  0.9999  -1.9395   0.0000   0.0000   0.0000   0.3648
  23.200   1.0495   0.34992   0.34795  -0.1505  0.0045  0.9999  -1.9240   0.0000   0.0000   0.0000   0.3650
  23.300   1.0468   0.35167   0.34970  -0.1504  0.0045  0.9999  -1.9077   0.0000   0.0000   0.0000   0.3652
  23.400   1.0435   0.35329   0.35133  -0.1503  0.0045  0.9999  -1.8903   0.0000   0.0000   0.0000   0.3654
  23.500   1.0394   0.35473   0.35278  -0.1500  0.0045  0.9999  -1.8713   0.0000   0.0000   0.0000   0.3655
  23.600   1.0334   0.35578   0.35383  -0.1493  0.0045  0.9999  -1.8486   0.0000   0.0000   0.0000   0.3657
  23.700   0.9340   0.33227   0.33040  -0.1322  0.0045  0.9999  -1.6303   0.0000   0.0000   0.0000   0.3642
  23.800   0.9280   0.33192   0.33005  -0.1315  0.0045  0.9999  -1.6081   0.0000   0.0000   0.0000   0.3643
  23.900   0.9227   0.33170   0.32984  -0.1310  0.0045  0.9999  -1.5876   0.0000   0.0000   0.0000   0.3645
  24.000   0.9179   0.33158   0.32973  -0.1305  0.0045  0.9999  -1.5683   0.0000   0.0000   0.0000   0.3646
  24.100   0.9136   0.33154   0.32969  -0.1301  0.0045  0.9999  -1.5500   0.0000   0.0000   0.0000   0.3648
  24.200   0.9095   0.33155   0.32971  -0.1297  0.0045  0.9999  -1.5326   0.0000   0.0000   0.0000   0.3649
  24.300   0.9058   0.33162   0.32978  -0.1294  0.0045  0.9999  -1.5159   0.0000   0.0000   0.0000   0.3651
  24.400   0.9023   0.33172   0.32989  -0.1291  0.0045  0.9999  -1.4999   0.0000   0.0000   0.0000   0.3653
  24.500   0.8990   0.33184   0.33002  -0.1289  0.0045  0.9999  -1.4844   0.0000   0.0000   0.0000   0.3654
  24.600   0.8959   0.33200   0.33018  -0.1287  0.0045  0.9999  -1.4695   0.0000   0.0000   0.0000   0.3656
  24.700   0.8930   0.33219   0.33038  -0.1285  0.0045  0.9999  -1.4550   0.0000   0.0000   0.0000   0.3658
  24.800   0.8902   0.33240   0.33059  -0.1284  0.0045  0.9999  -1.4411   0.0000   0.0000   0.0000   0.3659
  24.900   0.8875   0.33264   0.33083  -0.1283  0.0045  0.9999  -1.4274   0.0000   0.0000   0.0000   0.3661
  25.000   0.8850   0.33289   0.33109  -0.1282  0.0045  0.9999  -1.4141   0.0000   0.0000   0.0000   0.3663
  25.100   0.8826   0.33316   0.33137  -0.1281  0.0045  0.9999  -1.4011   0.0000   0.0000   0.0000   0.3665
  25.200   0.8803   0.33345   0.33166  -0.1280  0.0045  0.9999  -1.3885   0.0000   0.0000   0.0000   0.3667
  25.300   0.8782   0.33375   0.33196  -0.1280  0.0045  0.9999  -1.3763   0.0000   0.0000   0.0000   0.3669
  25.400   0.8761   0.33406   0.33228  -0.1279  0.0045  0.9999  -1.3643   0.0000   0.0000   0.0000   0.3671
  25.500   0.8741   0.33439   0.33262  -0.1279  0.0045  0.9999  -1.3527   0.0000   0.0000   0.0000   0.3672
  25.600   0.8721   0.33473   0.33296  -0.1279  0.0045  0.9999  -1.3413   0.0000   0.0000   0.0000   0.3674
  25.700   0.8703   0.33507   0.33331  -0.1279  0.0045  0.9999  -1.3302   0.0000   0.0000   0.0000   0.3676
  25.800   0.8685   0.33543   0.33367  -0.1279  0.0045  0.9999  -1.3193   0.0000   0.0000   0.0000   0.3678
  25.900   0.8668   0.33580   0.33404  -0.1280  0.0045  0.9999  -1.3087   0.0000   0.0000   0.0000   0.3680
  26.000   0.8652   0.33617   0.33442  -0.1280  0.0045  0.9999  -1.2983   0.0000   0.0000   0.0000   0.3682
  26.100   0.8636   0.33655   0.33484  -0.1281  0.0045  0.9999  -1.2883   0.0000   0.0000   0.0000   0.3684
  26.200   0.8620   0.33694   0.33523  -0.1281  0.0045  0.9999  -1.2784   0.0000   0.0000   0.0000   0.3686
  26.300   0.8606   0.33734   0.33564  -0.1282  0.0045  0.9999  -1.2687   0.0000   0.0000   0.0000   0.3688
  26.400   0.8591   0.33775   0.33604  -0.1283  0.0045  0.9999  -1.2592   0.0000   0.0000   0.0000   0.3690
  26.500   0.8578   0.33816   0.33646  -0.1284  0.0045  0.9999  -1.2498   0.0000   0.0000   0.0000   0.3692
  26.600   0.8564   0.33857   0.33688  -0.1285  0.0045  0.9999  -1.2407   0.0000   0.0000   0.0000   0.3694
  26.700   0.8551   0.33899   0.33731  -0.1286  0.0045  0.9999  -1.2317   0.0000   0.0000   0.0000   0.3696
  26.800   0.8539   0.33942   0.33774  -0.1287  0.0045  0.9999  -1.2229   0.0000   0.0000   0.0000   0.3697
  26.900   0.8527   0.33985   0.33818  -0.1288  0.0045  0.9999  -1.2143   0.0000   0.0000   0.0000   0.3699
  27.000   0.8515   0.34029   0.33862  -0.1289  0.0045  0.9999  -1.2058   0.0000   0.0000   0.0000   0.3701
  27.100   0.8503   0.34073   0.33906  -0.1290  0.0045  0.9999  -1.1975   0.0000   0.0000   0.0000   0.3703
  27.200   0.8492   0.34118   0.33952  -0.1292  0.0045  0.9999  -1.1893   0.0000   0.0000   0.0000   0.3705
  27.300   0.8482   0.34163   0.33997  -0.1293  0.0045  0.9999  -1.1813   0.0000   0.0000   0.0000   0.3707
  27.400   0.8471   0.34208   0.34043  -0.1295  0.0045  0.9999  -1.1733   0.0000   0.0000   0.0000   0.3709
  27.500   0.8461   0.34254   0.34089  -0.1296  0.0045  0.9999  -1.1653   0.0000   0.0000   0.0000   0.3711
  27.600   0.8451   0.34300   0.34136  -0.1298  0.0045  0.9999  -1.1574   0.0000   0.0000   0.0000   0.3713
  27.700   0.8441   0.34347   0.34183  -0.1299  0.0044  0.9999  -1.1497   0.0000   0.0000   0.0000   0.3715
  27.800   0.8432   0.34394   0.34231  -0.1301  0.0044  0.9999  -1.1421   0.0000   0.0000   0.0000   0.3717
  27.900   0.8423   0.34441   0.34279  -0.1303  0.0044  0.9999  -1.1346   0.0000   0.0000   0.0000   0.3719
  28.000   0.8414   0.34489   0.34327  -0.1305  0.0044  0.9999  -1.1273   0.0000   0.0000   0.0000   0.3721
  28.100   0.8405   0.34537   0.34375  -0.1307  0.0044  0.9999  -1.1201   0.0000   0.0000   0.0000   0.3723
  28.200   0.8397   0.34585   0.34424  -0.1309  0.0044  0.9999  -1.1130   0.0000   0.0000   0.0000   0.3726
  28.300   0.8389   0.34633   0.34473  -0.1310  0.0044  0.9999  -1.1060   0.0000   0.0000   0.0000   0.3728
  28.400   0.8381   0.34682   0.34522  -0.1312  0.0044  0.9999  -1.0991   0.0000   0.0000   0.0000   0.3730
  28.500   0.8373   0.34731   0.34571  -0.1314  0.0044  0.9999  -1.0923   0.0000   0.0000   0.0000   0.3732
  28.600   0.8365   0.34780   0.34621  -0.1317  0.0044  0.9999  -1.0857   0.0000   0.0000   0.0000   0.3734
  28.700   0.8358   0.34830   0.34671  -0.1319  0.0044  0.9999  -1.0791   0.0000   0.0000   0.0000   0.3736
  28.800   0.8350   0.34879   0.34721  -0.1321  0.0044  0.9999  -1.0727   0.0000   0.0000   0.0000   0.3738
  28.900   0.8343   0.34929   0.34772  -0.1323  0.0044  0.9999  -1.0663   0.0000   0.0000   0.0000   0.3740
  29.000   0.8336   0.34980   0.34822  -0.1325  0.0044  0.9999  -1.0601   0.0000   0.0000   0.0000   0.3742
  29.100   0.8329   0.35030   0.34873  -0.1327  0.0044  0.9999  -1.0539   0.0000   0.0000   0.0000   0.3744
  29.200   0.8323   0.35080   0.34924  -0.1330  0.0044  0.9999  -1.0478   0.0000   0.0000   0.0000   0.3746
  29.300   0.8316   0.35131   0.34975  -0.1332  0.0044  0.9999  -1.0419   0.0000   0.0000   0.0000   0.3748
  29.400   0.8310   0.35182   0.35027  -0.1334  0.0044  0.9999  -1.0360   0.0000   0.0000   0.0000   0.3750
  29.500   0.8304   0.35233   0.35078  -0.1337  0.0044  0.9999  -1.0302   0.0000   0.0000   0.0000   0.3752
  29.600   0.8297   0.35284   0.35130  -0.1339  0.0044  0.9999  -1.0245   0.0000   0.0000   0.0000   0.3754
  29.700   0.8291   0.35336   0.35182  -0.1341  0.0044  0.9999  -1.0188   0.0000   0.0000   0.0000   0.3756
  29.800   0.8285   0.35387   0.35234  -0.1344  0.0044  0.9999  -1.0133   0.0000   0.0000   0.0000   0.3758
  29.900   0.8280   0.35439   0.35286  -0.1346  0.0044  0.9999  -1.0078   0.0000   0.0000   0.0000   0.3760
  30.000   0.8274   0.35491   0.35338  -0.1349  0.0044  0.9999  -1.0024   0.0000   0.0000   0.0000   0.3762


