xflr5 v6.61

 Calculated polar for: NACA65-015

 1 1 Reynolds number fixed          Mach number fixed         

 xtrf =   1.000 (top)        1.000 (bottom)
 Mach =   0.000     Re =     0.300 e 6     Ncrit =   9.000

  alpha     CL        CD       CDp       Cm    Top Xtr Bot Xtr   Cpmin    Chinge    XCp    
 ------- -------- --------- --------- -------- ------- ------- -------- --------- ---------
 -10.000  -0.9386   0.03156   0.02476  -0.0193  1.0000  0.0302  -4.6929   0.0000   0.0000   0.0000   0.2178
  -9.900  -0.9309   0.03097   0.02407  -0.0191  1.0000  0.0304  -4.6376   0.0000   0.0000   0.0000   0.2179
  -9.800  -0.9236   0.03047   0.02348  -0.0189  1.0000  0.0305  -4.5808   0.0000   0.0000   0.0000   0.2181
  -9.700  -0.9146   0.02969   0.02261  -0.0188  1.0000  0.0307  -4.5237   0.0000   0.0000   0.0000   0.2181
  -9.600  -0.8992   0.02828   0.02117  -0.0197  1.0000  0.0310  -4.4511   0.0000   0.0000   0.0000   0.2168
  -9.500  -0.8857   0.02739   0.02028  -0.0203  1.0000  0.0313  -4.3686   0.0000   0.0000   0.0000   0.2158
  -9.400  -0.8747   0.02681   0.01972  -0.0206  1.0000  0.0317  -4.2853   0.0000   0.0000   0.0000   0.2153
  -9.300  -0.8641   0.02636   0.01928  -0.0210  0.9971  0.0322  -4.2012   0.0000   0.0000   0.0000   0.2147
  -9.200  -0.8505   0.02591   0.01881  -0.0219  0.9900  0.0328  -4.1128   0.0000   0.0000   0.0000   0.2133
  -9.100  -0.8365   0.02547   0.01835  -0.0228  0.9852  0.0334  -4.0317   0.0000   0.0000   0.0000   0.2119
  -9.000  -0.8223   0.02499   0.01784  -0.0237  0.9810  0.0340  -3.9557   0.0000   0.0000   0.0000   0.2104
  -8.900  -0.8081   0.02451   0.01731  -0.0245  0.9770  0.0346  -3.8839   0.0000   0.0000   0.0000   0.2090
  -8.800  -0.7939   0.02402   0.01678  -0.0252  0.9733  0.0350  -3.8148   0.0000   0.0000   0.0000   0.2076
  -8.700  -0.7801   0.02356   0.01625  -0.0259  0.9695  0.0354  -3.7472   0.0000   0.0000   0.0000   0.2062
  -8.600  -0.7674   0.02315   0.01580  -0.0263  0.9649  0.0358  -3.6815   0.0000   0.0000   0.0000   0.2052
  -8.500  -0.7562   0.02281   0.01541  -0.0265  0.9598  0.0361  -3.6186   0.0000   0.0000   0.0000   0.2046
  -8.400  -0.7466   0.02253   0.01508  -0.0263  0.9541  0.0364  -3.5592   0.0000   0.0000   0.0000   0.2044
  -8.300  -0.7360   0.02198   0.01453  -0.0262  0.9501  0.0368  -3.5020   0.0000   0.0000   0.0000   0.2041
  -8.200  -0.7277   0.02148   0.01404  -0.0258  0.9454  0.0372  -3.4475   0.0000   0.0000   0.0000   0.2043
  -8.100  -0.7212   0.02112   0.01370  -0.0251  0.9397  0.0377  -3.3945   0.0000   0.0000   0.0000   0.2050
  -8.000  -0.7153   0.02082   0.01340  -0.0243  0.9341  0.0381  -3.3423   0.0000   0.0000   0.0000   0.2060
  -7.900  -0.7099   0.02056   0.01312  -0.0234  0.9290  0.0385  -3.2914   0.0000   0.0000   0.0000   0.2071
  -7.800  -0.7046   0.02030   0.01285  -0.0225  0.9240  0.0390  -3.2412   0.0000   0.0000   0.0000   0.2082
  -7.700  -0.6989   0.02005   0.01258  -0.0217  0.9191  0.0394  -3.1907   0.0000   0.0000   0.0000   0.2092
  -7.600  -0.6941   0.01982   0.01232  -0.0207  0.9150  0.0399  -3.1432   0.0000   0.0000   0.0000   0.2106
  -7.500  -0.6882   0.01957   0.01204  -0.0199  0.9103  0.0405  -3.0931   0.0000   0.0000   0.0000   0.2115
  -7.400  -0.6831   0.01935   0.01179  -0.0189  0.9066  0.0410  -3.0455   0.0000   0.0000   0.0000   0.2129
  -7.300  -0.6766   0.01913   0.01154  -0.0183  0.9023  0.0417  -2.9929   0.0000   0.0000   0.0000   0.2137
  -7.200  -0.6701   0.01896   0.01132  -0.0175  0.8988  0.0424  -2.9403   0.0000   0.0000   0.0000   0.2146
  -7.100  -0.6644   0.01865   0.01099  -0.0168  0.8950  0.0431  -2.8924   0.0000   0.0000   0.0000   0.2156
  -7.000  -0.6600   0.01825   0.01061  -0.0159  0.8911  0.0440  -2.8476   0.0000   0.0000   0.0000   0.2169
  -6.900  -0.6545   0.01799   0.01033  -0.0151  0.8880  0.0449  -2.7968   0.0000   0.0000   0.0000   0.2181
  -6.800  -0.6475   0.01774   0.01009  -0.0146  0.8841  0.0459  -2.7421   0.0000   0.0000   0.0000   0.2187
  -6.700  -0.6410   0.01751   0.00984  -0.0139  0.8809  0.0469  -2.6937   0.0000   0.0000   0.0000   0.2197
  -6.600  -0.6342   0.01729   0.00959  -0.0132  0.8779  0.0479  -2.6514   0.0000   0.0000   0.0000   0.2205
  -6.500  -0.6265   0.01708   0.00934  -0.0128  0.8743  0.0489  -2.6079   0.0000   0.0000   0.0000   0.2211
  -6.400  -0.6202   0.01680   0.00904  -0.0121  0.8713  0.0500  -2.5688   0.0000   0.0000   0.0000   0.2221
  -6.300  -0.6145   0.01649   0.00873  -0.0113  0.8688  0.0514  -2.5286   0.0000   0.0000   0.0000   0.2233
  -6.200  -0.6067   0.01625   0.00849  -0.0110  0.8653  0.0531  -2.4823   0.0000   0.0000   0.0000   0.2237
  -6.100  -0.5989   0.01604   0.00826  -0.0105  0.8625  0.0550  -2.4373   0.0000   0.0000   0.0000   0.2244
  -6.000  -0.5916   0.01581   0.00800  -0.0099  0.8601  0.0572  -2.3949   0.0000   0.0000   0.0000   0.2252
  -5.900  -0.5844   0.01553   0.00774  -0.0094  0.8573  0.0602  -2.3512   0.0000   0.0000   0.0000   0.2260
  -5.700  -0.5693   0.01501   0.00724  -0.0085  0.8516  0.0704  -2.2655   0.0000   0.0000   0.0000   0.2273
  -5.600  -0.5633   0.01465   0.00695  -0.0078  0.8494  0.0823  -2.2282   0.0000   0.0000   0.0000   0.2286
  -5.500  -0.5593   0.01405   0.00659  -0.0069  0.8463  0.1178  -2.1966   0.0000   0.0000   0.0000   0.2300
  -5.400  -0.5584   0.01320   0.00615  -0.0058  0.8430  0.1918  -2.1710   0.0000   0.0000   0.0000   0.2321
  -5.300  -0.5581   0.01233   0.00570  -0.0046  0.8403  0.2760  -2.1449   0.0000   0.0000   0.0000   0.2345
  -5.200  -0.5580   0.01148   0.00528  -0.0032  0.8381  0.3633  -2.1177   0.0000   0.0000   0.0000   0.2371
  -5.100  -0.5566   0.01077   0.00505  -0.0019  0.8347  0.4561  -2.0856   0.0000   0.0000   0.0000   0.2395
  -5.000  -0.5504   0.01051   0.00504  -0.0011  0.8320  0.5134  -2.0393   0.0000   0.0000   0.0000   0.2411
  -4.900  -0.5417   0.01044   0.00504  -0.0006  0.8299  0.5428  -1.9859   0.0000   0.0000   0.0000   0.2420
  -4.800  -0.5320   0.01042   0.00502  -0.0003  0.8281  0.5615  -1.9304   0.0000   0.0000   0.0000   0.2427
  -4.700  -0.5220   0.01041   0.00501  -0.0001  0.8261  0.5753  -1.8739   0.0000   0.0000   0.0000   0.2432
  -4.500  -0.5010   0.01042   0.00502   0.0002  0.8212  0.5947  -1.7593   0.0000   0.0000   0.0000   0.2438
  -4.400  -0.4905   0.01044   0.00500   0.0003  0.8192  0.6037  -1.7070   0.0000   0.0000   0.0000   0.2442
  -4.300  -0.4800   0.01046   0.00502   0.0005  0.8175  0.6109  -1.6571   0.0000   0.0000   0.0000   0.2447
  -4.200  -0.4696   0.01049   0.00499   0.0007  0.8159  0.6186  -1.6079   0.0000   0.0000   0.0000   0.2452
  -4.100  -0.4586   0.01052   0.00504   0.0008  0.8134  0.6244  -1.5576   0.0000   0.0000   0.0000   0.2454
  -4.000  -0.4478   0.01055   0.00505   0.0008  0.8110  0.6306  -1.5080   0.0000   0.0000   0.0000   0.2456
  -3.900  -0.4370   0.01057   0.00504   0.0009  0.8089  0.6360  -1.4589   0.0000   0.0000   0.0000   0.2459
  -3.800  -0.4262   0.01061   0.00508   0.0011  0.8070  0.6413  -1.4099   0.0000   0.0000   0.0000   0.2464
  -3.700  -0.4158   0.01067   0.00508   0.0012  0.8054  0.6485  -1.3623   0.0000   0.0000   0.0000   0.2470
  -3.600  -0.4052   0.01079   0.00523   0.0016  0.8038  0.6561  -1.3137   0.0000   0.0000   0.0000   0.2479
  -3.500  -0.3947   0.01092   0.00538   0.0018  0.8013  0.6651  -1.2660   0.0000   0.0000   0.0000   0.2487
  -3.400  -0.3843   0.01109   0.00555   0.0022  0.7992  0.6742  -1.2187   0.0000   0.0000   0.0000   0.2498
  -3.300  -0.3735   0.01124   0.00574   0.0025  0.7973  0.6808  -1.1707   0.0000   0.0000   0.0000   0.2509
  -3.200  -0.3628   0.01136   0.00584   0.0027  0.7956  0.6869  -1.1242   0.0000   0.0000   0.0000   0.2518
  -3.100  -0.3521   0.01140   0.00585   0.0029  0.7941  0.6911  -1.0782   0.0000   0.0000   0.0000   0.2525
  -3.000  -0.3408   0.01145   0.00590   0.0030  0.7927  0.6936  -1.0316   0.0000   0.0000   0.0000   0.2532
  -2.900  -0.3295   0.01149   0.00593   0.0030  0.7907  0.6961  -0.9856   0.0000   0.0000   0.0000   0.2534
  -2.800  -0.3182   0.01150   0.00593   0.0029  0.7885  0.6988  -0.9404   0.0000   0.0000   0.0000   0.2535
  -2.700  -0.3072   0.01149   0.00588   0.0028  0.7865  0.7017  -0.8964   0.0000   0.0000   0.0000   0.2537
  -2.600  -0.2961   0.01147   0.00583   0.0028  0.7846  0.7040  -0.8525   0.0000   0.0000   0.0000   0.2540
  -2.500  -0.2847   0.01147   0.00583   0.0028  0.7830  0.7055  -0.8083   0.0000   0.0000   0.0000   0.2544
  -2.400  -0.2734   0.01148   0.00581   0.0028  0.7816  0.7072  -0.7648   0.0000   0.0000   0.0000   0.2549
  -2.300  -0.2622   0.01148   0.00579   0.0028  0.7803  0.7089  -0.7230   0.0000   0.0000   0.0000   0.2554
  -2.200  -0.2507   0.01148   0.00578   0.0026  0.7781  0.7106  -0.6853   0.0000   0.0000   0.0000   0.2552
  -2.100  -0.2393   0.01146   0.00575   0.0025  0.7761  0.7123  -0.6482   0.0000   0.0000   0.0000   0.2551
  -2.000  -0.2280   0.01143   0.00570   0.0023  0.7743  0.7142  -0.6117   0.0000   0.0000   0.0000   0.2550
  -1.900  -0.2169   0.01140   0.00562   0.0022  0.7726  0.7163  -0.5758   0.0000   0.0000   0.0000   0.2549
  -1.800  -0.2055   0.01138   0.00558   0.0021  0.7711  0.7175  -0.5397   0.0000   0.0000   0.0000   0.2551
  -1.700  -0.1941   0.01136   0.00555   0.0021  0.7698  0.7185  -0.5276   0.0000   0.0000   0.0000   0.2555
  -1.600  -0.1827   0.01135   0.00553   0.0020  0.7685  0.7197  -0.5219   0.0000   0.0000   0.0000   0.2560
  -1.500  -0.1712   0.01135   0.00552   0.0019  0.7667  0.7210  -0.5164   0.0000   0.0000   0.0000   0.2560
  -1.400  -0.1598   0.01134   0.00551   0.0017  0.7647  0.7224  -0.5108   0.0000   0.0000   0.0000   0.2558
  -1.300  -0.1483   0.01133   0.00550   0.0016  0.7628  0.7239  -0.5053   0.0000   0.0000   0.0000   0.2557
  -1.200  -0.1370   0.01132   0.00547   0.0015  0.7611  0.7256  -0.4998   0.0000   0.0000   0.0000   0.2557
  -1.100  -0.1256   0.01130   0.00542   0.0013  0.7596  0.7274  -0.4945   0.0000   0.0000   0.0000   0.2557
  -1.000  -0.1143   0.01128   0.00536   0.0012  0.7582  0.7293  -0.4895   0.0000   0.0000   0.0000   0.2554
  -0.900  -0.1029   0.01126   0.00533   0.0011  0.7570  0.7305  -0.4842   0.0000   0.0000   0.0000   0.2557
  -0.800  -0.0914   0.01125   0.00532   0.0010  0.7559  0.7315  -0.4788   0.0000   0.0000   0.0000   0.2563
  -0.700  -0.0800   0.01125   0.00533   0.0009  0.7542  0.7327  -0.4733   0.0000   0.0000   0.0000   0.2562
  -0.600  -0.0685   0.01126   0.00535   0.0007  0.7523  0.7340  -0.4680   0.0000   0.0000   0.0000   0.2559
  -0.500  -0.0571   0.01126   0.00536   0.0006  0.7505  0.7354  -0.4626   0.0000   0.0000   0.0000   0.2558
  -0.400  -0.0457   0.01125   0.00535   0.0005  0.7488  0.7370  -0.4573   0.0000   0.0000   0.0000   0.2559
  -0.300  -0.0343   0.01125   0.00533   0.0004  0.7473  0.7387  -0.4523   0.0000   0.0000   0.0000   0.2560
  -0.200  -0.0229   0.01124   0.00530   0.0002  0.7459  0.7405  -0.4474   0.0000   0.0000   0.0000   0.2557
  -0.100  -0.0115   0.01122   0.00526   0.0001  0.7446  0.7424  -0.4425   0.0000   0.0000   0.0000   0.2526
   0.000   0.0000   0.01122   0.00524  -0.0000  0.7435  0.7435  -0.4374   0.0000   0.0000   0.0000   0.4606
   0.100   0.0115   0.01122   0.00526  -0.0001  0.7424  0.7446  -0.4425   0.0000   0.0000   0.0000   0.2526
   0.200   0.0229   0.01124   0.00530  -0.0002  0.7405  0.7459  -0.4474   0.0000   0.0000   0.0000   0.2557
   0.300   0.0343   0.01125   0.00533  -0.0004  0.7387  0.7473  -0.4523   0.0000   0.0000   0.0000   0.2560
   0.400   0.0457   0.01125   0.00535  -0.0005  0.7370  0.7488  -0.4573   0.0000   0.0000   0.0000   0.2559
   0.500   0.0571   0.01126   0.00536  -0.0006  0.7354  0.7505  -0.4626   0.0000   0.0000   0.0000   0.2558
   0.600   0.0685   0.01126   0.00535  -0.0007  0.7340  0.7523  -0.4680   0.0000   0.0000   0.0000   0.2559
   0.700   0.0800   0.01125   0.00533  -0.0009  0.7327  0.7542  -0.4733   0.0000   0.0000   0.0000   0.2563
   0.800   0.0914   0.01125   0.00532  -0.0010  0.7315  0.7559  -0.4788   0.0000   0.0000   0.0000   0.2563
   0.900   0.1029   0.01126   0.00533  -0.0011  0.7305  0.7570  -0.4842   0.0000   0.0000   0.0000   0.2557
   1.000   0.1143   0.01128   0.00536  -0.0012  0.7293  0.7582  -0.4895   0.0000   0.0000   0.0000   0.2554
   1.100   0.1256   0.01130   0.00542  -0.0013  0.7274  0.7596  -0.4945   0.0000   0.0000   0.0000   0.2557
   1.200   0.1370   0.01132   0.00547  -0.0015  0.7256  0.7611  -0.4998   0.0000   0.0000   0.0000   0.2557
   1.300   0.1483   0.01133   0.00550  -0.0016  0.7239  0.7628  -0.5053   0.0000   0.0000   0.0000   0.2557
   1.400   0.1598   0.01134   0.00551  -0.0017  0.7224  0.7647  -0.5108   0.0000   0.0000   0.0000   0.2558
   1.500   0.1712   0.01135   0.00552  -0.0019  0.7210  0.7667  -0.5164   0.0000   0.0000   0.0000   0.2560
   1.600   0.1827   0.01135   0.00553  -0.0020  0.7197  0.7685  -0.5219   0.0000   0.0000   0.0000   0.2560
   1.700   0.1941   0.01136   0.00555  -0.0021  0.7185  0.7698  -0.5276   0.0000   0.0000   0.0000   0.2555
   1.800   0.2055   0.01138   0.00558  -0.0021  0.7175  0.7711  -0.5397   0.0000   0.0000   0.0000   0.2551
   1.900   0.2169   0.01140   0.00562  -0.0022  0.7163  0.7726  -0.5758   0.0000   0.0000   0.0000   0.2549
   2.000   0.2280   0.01143   0.00570  -0.0023  0.7142  0.7743  -0.6117   0.0000   0.0000   0.0000   0.2550
   2.100   0.2393   0.01146   0.00575  -0.0025  0.7123  0.7761  -0.6482   0.0000   0.0000   0.0000   0.2551
   2.200   0.2507   0.01148   0.00578  -0.0026  0.7106  0.7781  -0.6853   0.0000   0.0000   0.0000   0.2552
   2.300   0.2622   0.01148   0.00579  -0.0028  0.7089  0.7803  -0.7230   0.0000   0.0000   0.0000   0.2554
   2.400   0.2734   0.01148   0.00581  -0.0028  0.7072  0.7816  -0.7648   0.0000   0.0000   0.0000   0.2549
   2.500   0.2847   0.01147   0.00583  -0.0028  0.7055  0.7830  -0.8083   0.0000   0.0000   0.0000   0.2544
   2.600   0.2961   0.01147   0.00583  -0.0028  0.7040  0.7846  -0.8525   0.0000   0.0000   0.0000   0.2540
   2.700   0.3072   0.01149   0.00588  -0.0028  0.7017  0.7865  -0.8964   0.0000   0.0000   0.0000   0.2537
   2.800   0.3182   0.01150   0.00593  -0.0029  0.6988  0.7885  -0.9404   0.0000   0.0000   0.0000   0.2535
   2.900   0.3295   0.01149   0.00593  -0.0030  0.6961  0.7907  -0.9856   0.0000   0.0000   0.0000   0.2534
   3.000   0.3408   0.01145   0.00590  -0.0030  0.6936  0.7927  -1.0316   0.0000   0.0000   0.0000   0.2532
   3.100   0.3521   0.01140   0.00585  -0.0029  0.6911  0.7940  -1.0782   0.0000   0.0000   0.0000   0.2525
   3.200   0.3628   0.01136   0.00584  -0.0027  0.6869  0.7956  -1.1242   0.0000   0.0000   0.0000   0.2518
   3.300   0.3735   0.01124   0.00574  -0.0025  0.6808  0.7973  -1.1707   0.0000   0.0000   0.0000   0.2509
   3.400   0.3843   0.01109   0.00555  -0.0022  0.6742  0.7992  -1.2187   0.0000   0.0000   0.0000   0.2498
   3.500   0.3947   0.01092   0.00538  -0.0018  0.6651  0.8013  -1.2660   0.0000   0.0000   0.0000   0.2487
   3.600   0.4052   0.01079   0.00523  -0.0016  0.6561  0.8038  -1.3137   0.0000   0.0000   0.0000   0.2479
   3.700   0.4159   0.01067   0.00508  -0.0012  0.6485  0.8054  -1.3623   0.0000   0.0000   0.0000   0.2470
   3.800   0.4262   0.01061   0.00508  -0.0011  0.6413  0.8070  -1.4099   0.0000   0.0000   0.0000   0.2464
   3.900   0.4370   0.01057   0.00504  -0.0009  0.6360  0.8089  -1.4589   0.0000   0.0000   0.0000   0.2459
   4.000   0.4478   0.01055   0.00505  -0.0008  0.6306  0.8110  -1.5081   0.0000   0.0000   0.0000   0.2456
   4.100   0.4586   0.01052   0.00504  -0.0008  0.6244  0.8134  -1.5576   0.0000   0.0000   0.0000   0.2454
   4.200   0.4696   0.01049   0.00499  -0.0007  0.6186  0.8159  -1.6079   0.0000   0.0000   0.0000   0.2452
   4.300   0.4800   0.01046   0.00502  -0.0005  0.6109  0.8175  -1.6572   0.0000   0.0000   0.0000   0.2447
   4.400   0.4905   0.01044   0.00500  -0.0003  0.6037  0.8192  -1.7070   0.0000   0.0000   0.0000   0.2442
   4.500   0.5010   0.01042   0.00502  -0.0002  0.5947  0.8212  -1.7593   0.0000   0.0000   0.0000   0.2438
   4.700   0.5220   0.01041   0.00501   0.0001  0.5753  0.8261  -1.8739   0.0000   0.0000   0.0000   0.2432
   4.800   0.5321   0.01042   0.00502   0.0003  0.5615  0.8281  -1.9304   0.0000   0.0000   0.0000   0.2427
   4.900   0.5417   0.01044   0.00504   0.0006  0.5428  0.8299  -1.9859   0.0000   0.0000   0.0000   0.2420
   5.000   0.5505   0.01051   0.00504   0.0011  0.5133  0.8320  -2.0393   0.0000   0.0000   0.0000   0.2411
   5.100   0.5566   0.01077   0.00505   0.0019  0.4560  0.8347  -2.0856   0.0000   0.0000   0.0000   0.2395
   5.200   0.5580   0.01148   0.00528   0.0032  0.3633  0.8381  -2.1178   0.0000   0.0000   0.0000   0.2371
   5.300   0.5581   0.01233   0.00570   0.0046  0.2760  0.8403  -2.1449   0.0000   0.0000   0.0000   0.2345
   5.400   0.5584   0.01320   0.00615   0.0058  0.1917  0.8430  -2.1710   0.0000   0.0000   0.0000   0.2321
   5.500   0.5593   0.01405   0.00659   0.0069  0.1178  0.8463  -2.1967   0.0000   0.0000   0.0000   0.2300
   5.600   0.5633   0.01465   0.00695   0.0077  0.0823  0.8494  -2.2282   0.0000   0.0000   0.0000   0.2286
   5.700   0.5693   0.01501   0.00724   0.0085  0.0704  0.8516  -2.2656   0.0000   0.0000   0.0000   0.2274
   5.900   0.5845   0.01553   0.00774   0.0094  0.0602  0.8573  -2.3513   0.0000   0.0000   0.0000   0.2260
   6.000   0.5916   0.01581   0.00800   0.0099  0.0572  0.8601  -2.3950   0.0000   0.0000   0.0000   0.2252
   6.100   0.5990   0.01604   0.00826   0.0105  0.0550  0.8625  -2.4374   0.0000   0.0000   0.0000   0.2244
   6.200   0.6068   0.01625   0.00849   0.0109  0.0531  0.8653  -2.4824   0.0000   0.0000   0.0000   0.2238
   6.300   0.6145   0.01649   0.00873   0.0113  0.0514  0.8688  -2.5287   0.0000   0.0000   0.0000   0.2233
   6.400   0.6203   0.01680   0.00904   0.0121  0.0500  0.8713  -2.5689   0.0000   0.0000   0.0000   0.2221
   6.500   0.6265   0.01708   0.00934   0.0128  0.0489  0.8743  -2.6080   0.0000   0.0000   0.0000   0.2211
   6.600   0.6342   0.01729   0.00959   0.0132  0.0479  0.8779  -2.6516   0.0000   0.0000   0.0000   0.2206
   6.700   0.6411   0.01751   0.00984   0.0139  0.0469  0.8809  -2.6939   0.0000   0.0000   0.0000   0.2197
   6.800   0.6476   0.01774   0.01009   0.0145  0.0459  0.8840  -2.7423   0.0000   0.0000   0.0000   0.2188
   6.900   0.6546   0.01799   0.01033   0.0150  0.0449  0.8880  -2.7970   0.0000   0.0000   0.0000   0.2181
   7.000   0.6601   0.01825   0.01061   0.0159  0.0440  0.8911  -2.8479   0.0000   0.0000   0.0000   0.2170
   7.100   0.6644   0.01865   0.01099   0.0168  0.0431  0.8950  -2.8926   0.0000   0.0000   0.0000   0.2156
   7.200   0.6702   0.01896   0.01132   0.0175  0.0424  0.8988  -2.9407   0.0000   0.0000   0.0000   0.2147
   7.300   0.6767   0.01913   0.01154   0.0183  0.0417  0.9023  -2.9933   0.0000   0.0000   0.0000   0.2137
   7.400   0.6833   0.01935   0.01179   0.0189  0.0410  0.9066  -3.0459   0.0000   0.0000   0.0000   0.2129
   7.500   0.6883   0.01957   0.01204   0.0199  0.0405  0.9103  -3.0935   0.0000   0.0000   0.0000   0.2116
   7.600   0.6943   0.01982   0.01232   0.0206  0.0399  0.9150  -3.1437   0.0000   0.0000   0.0000   0.2107
   7.700   0.6991   0.02005   0.01258   0.0217  0.0394  0.9191  -3.1912   0.0000   0.0000   0.0000   0.2093
   7.800   0.7047   0.02030   0.01285   0.0225  0.0389  0.9240  -3.2418   0.0000   0.0000   0.0000   0.2083
   7.900   0.7101   0.02056   0.01312   0.0234  0.0385  0.9290  -3.2920   0.0000   0.0000   0.0000   0.2071
   8.000   0.7155   0.02082   0.01340   0.0243  0.0381  0.9341  -3.3429   0.0000   0.0000   0.0000   0.2060
   8.100   0.7214   0.02112   0.01370   0.0251  0.0377  0.9397  -3.3951   0.0000   0.0000   0.0000   0.2051
   8.200   0.7279   0.02148   0.01404   0.0258  0.0372  0.9454  -3.4482   0.0000   0.0000   0.0000   0.2044
   8.300   0.7362   0.02198   0.01453   0.0262  0.0368  0.9500  -3.5026   0.0000   0.0000   0.0000   0.2041
   8.400   0.7468   0.02253   0.01508   0.0262  0.0364  0.9541  -3.5599   0.0000   0.0000   0.0000   0.2045
   8.500   0.7564   0.02281   0.01541   0.0264  0.0361  0.9598  -3.6193   0.0000   0.0000   0.0000   0.2046
   8.600   0.7676   0.02315   0.01580   0.0263  0.0358  0.9649  -3.6821   0.0000   0.0000   0.0000   0.2053
   8.700   0.7803   0.02356   0.01625   0.0258  0.0354  0.9695  -3.7479   0.0000   0.0000   0.0000   0.2063
   8.800   0.7941   0.02402   0.01678   0.0252  0.0350  0.9733  -3.8155   0.0000   0.0000   0.0000   0.2076
   8.900   0.8083   0.02451   0.01731   0.0244  0.0346  0.9770  -3.8846   0.0000   0.0000   0.0000   0.2090
   9.000   0.8225   0.02500   0.01784   0.0236  0.0340  0.9809  -3.9564   0.0000   0.0000   0.0000   0.2105
   9.100   0.8367   0.02547   0.01835   0.0227  0.0334  0.9852  -4.0324   0.0000   0.0000   0.0000   0.2119
   9.200   0.8508   0.02592   0.01881   0.0218  0.0328  0.9900  -4.1136   0.0000   0.0000   0.0000   0.2134
   9.300   0.8643   0.02636   0.01928   0.0209  0.0322  0.9972  -4.2020   0.0000   0.0000   0.0000   0.2147
   9.400   0.8749   0.02681   0.01972   0.0206  0.0317  1.0000  -4.2860   0.0000   0.0000   0.0000   0.2153
   9.500   0.8859   0.02739   0.02029   0.0203  0.0313  1.0000  -4.3693   0.0000   0.0000   0.0000   0.2159
   9.600   0.8993   0.02829   0.02117   0.0197  0.0310  1.0000  -4.4517   0.0000   0.0000   0.0000   0.2168
   9.700   0.9147   0.02970   0.02262   0.0188  0.0307  1.0000  -4.5241   0.0000   0.0000   0.0000   0.2181
   9.800   0.9237   0.03047   0.02348   0.0188  0.0305  1.0000  -4.5812   0.0000   0.0000   0.0000   0.2182
   9.900   0.9311   0.03097   0.02407   0.0191  0.0304  1.0000  -4.6380   0.0000   0.0000   0.0000   0.2180
  10.000   0.9387   0.03156   0.02476   0.0193  0.0302  1.0000  -4.6934   0.0000   0.0000   0.0000   0.2178
  10.100   0.9464   0.03222   0.02552   0.0195  0.0301  1.0000  -4.7464   0.0000   0.0000   0.0000   0.2177
  10.200   0.9540   0.03295   0.02635   0.0197  0.0300  1.0000  -4.7968   0.0000   0.0000   0.0000   0.2175
  10.300   0.9614   0.03375   0.02726   0.0199  0.0299  1.0000  -4.8438   0.0000   0.0000   0.0000   0.2174
  10.400   0.9683   0.03461   0.02823   0.0201  0.0298  1.0000  -4.8867   0.0000   0.0000   0.0000   0.2171
  10.500   0.9746   0.03554   0.02926   0.0204  0.0297  1.0000  -4.9250   0.0000   0.0000   0.0000   0.2168
  10.600   0.9803   0.03652   0.03036   0.0208  0.0296  1.0000  -4.9586   0.0000   0.0000   0.0000   0.2165
  10.700   0.9854   0.03757   0.03153   0.0212  0.0296  1.0000  -4.9873   0.0000   0.0000   0.0000   0.2161
  10.800   0.9897   0.03868   0.03276   0.0217  0.0296  1.0000  -5.0112   0.0000   0.0000   0.0000   0.2156
  10.900   0.9935   0.03986   0.03406   0.0222  0.0296  1.0000  -5.0310   0.0000   0.0000   0.0000   0.2150
  11.000   0.9966   0.04110   0.03542   0.0228  0.0297  1.0000  -5.0471   0.0000   0.0000   0.0000   0.2144
  11.100   0.9992   0.04241   0.03683   0.0233  0.0298  1.0000  -5.0603   0.0000   0.0000   0.0000   0.2138
  11.200   1.0011   0.04373   0.03827   0.0240  0.0298  1.0000  -5.0708   0.0000   0.0000   0.0000   0.2131
  11.300   1.0021   0.04506   0.03970   0.0246  0.0299  1.0000  -5.0785   0.0000   0.0000   0.0000   0.2124
  11.400   1.0019   0.04633   0.04109   0.0254  0.0300  1.0000  -5.0831   0.0000   0.0000   0.0000   0.2114
  11.500   1.0006   0.04758   0.04244   0.0263  0.0300  1.0000  -5.0848   0.0000   0.0000   0.0000   0.2104
  11.600   0.9986   0.04883   0.04378   0.0273  0.0300  1.0000  -5.0842   0.0000   0.0000   0.0000   0.2092
  11.700   0.9959   0.05009   0.04513   0.0282  0.0301  1.0000  -5.0816   0.0000   0.0000   0.0000   0.2081
  11.800   0.9927   0.05138   0.04651   0.0290  0.0301  1.0000  -5.0775   0.0000   0.0000   0.0000   0.2070
  11.900   0.9893   0.05271   0.04793   0.0298  0.0301  1.0000  -5.0725   0.0000   0.0000   0.0000   0.2060
  12.000   0.9860   0.05413   0.04942   0.0305  0.0302  1.0000  -5.0676   0.0000   0.0000   0.0000   0.2050
  12.100   0.9845   0.05582   0.05117   0.0309  0.0303  1.0000  -5.0675   0.0000   0.0000   0.0000   0.2044
  18.600   0.5158   0.18075   0.17821  -0.0201  0.0307  1.0000  -1.5993   0.0000   0.0000   0.0000   0.2729
  18.700   0.5194   0.18245   0.17991  -0.0203  0.0306  1.0000  -1.6170   0.0000   0.0000   0.0000   0.2730
  18.800   0.5173   0.18393   0.18139  -0.0216  0.0305  1.0000  -1.5544   0.0000   0.0000   0.0000   0.2757
  18.900   0.5129   0.18539   0.18284  -0.0233  0.0304  1.0000  -1.4635   0.0000   0.0000   0.0000   0.2794
  19.000   0.5061   0.18700   0.18444  -0.0255  0.0300  1.0000  -1.3294   0.0000   0.0000   0.0000   0.2846
  19.100   0.5054   0.18855   0.18601  -0.0267  0.0291  1.0000  -1.2727   0.0000   0.0000   0.0000   0.2872
  19.200   0.5068   0.18983   0.18728  -0.0275  0.0285  1.0000  -1.2583   0.0000   0.0000   0.0000   0.2885
  19.300   0.5086   0.19100   0.18846  -0.0282  0.0279  1.0000  -1.2529   0.0000   0.0000   0.0000   0.2896
  19.400   0.5106   0.19215   0.18961  -0.0289  0.0275  1.0000  -1.2568   0.0000   0.0000   0.0000   0.2905
  19.500   0.5126   0.19328   0.19075  -0.0295  0.0271  1.0000  -1.2635   0.0000   0.0000   0.0000   0.2914
  19.600   0.5148   0.19439   0.19186  -0.0301  0.0268  1.0000  -1.2718   0.0000   0.0000   0.0000   0.2923
  19.700   0.5171   0.19547   0.19294  -0.0307  0.0265  1.0000  -1.2828   0.0000   0.0000   0.0000   0.2931
  19.800   0.5195   0.19653   0.19400  -0.0312  0.0263  1.0000  -1.2969   0.0000   0.0000   0.0000   0.2937
  19.900   0.5221   0.19758   0.19506  -0.0318  0.0260  1.0000  -1.3149   0.0000   0.0000   0.0000   0.2943
  20.000   0.5250   0.19861   0.19609  -0.0322  0.0258  1.0000  -1.3375   0.0000   0.0000   0.0000   0.2947
  20.100   0.5282   0.19963   0.19712  -0.0326  0.0256  1.0000  -1.3661   0.0000   0.0000   0.0000   0.2949
  20.200   0.5321   0.20069   0.19818  -0.0329  0.0255  1.0000  -1.4036   0.0000   0.0000   0.0000   0.2948
  20.300   0.5372   0.20188   0.19938  -0.0329  0.0253  1.0000  -1.4561   0.0000   0.0000   0.0000   0.2941
  20.400   0.5452   0.20361   0.20112  -0.0325  0.0252  1.0000  -1.5391   0.0000   0.0000   0.0000   0.2922
  20.500   0.5468   0.20528   0.20278  -0.0332  0.0251  1.0000  -1.5283   0.0000   0.0000   0.0000   0.2931
  20.600   0.5456   0.20653   0.20403  -0.0343  0.0251  1.0000  -1.4787   0.0000   0.0000   0.0000   0.2954
  20.700   0.5432   0.20773   0.20523  -0.0357  0.0250  1.0000  -1.4142   0.0000   0.0000   0.0000   0.2982
  20.800   0.5408   0.20906   0.20656  -0.0371  0.0249  1.0000  -1.3424   0.0000   0.0000   0.0000   0.3012
  20.900   0.5393   0.21054   0.20804  -0.0386  0.0246  1.0000  -1.2676   0.0000   0.0000   0.0000   0.3041
  21.000   0.5399   0.21202   0.20953  -0.0396  0.0241  1.0000  -1.2280   0.0000   0.0000   0.0000   0.3059
  21.100   0.5414   0.21336   0.21087  -0.0403  0.0237  1.0000  -1.2126   0.0000   0.0000   0.0000   0.3070
  21.200   0.5431   0.21465   0.21216  -0.0411  0.0233  1.0000  -1.2047   0.0000   0.0000   0.0000   0.3080
  21.300   0.5450   0.21589   0.21341  -0.0417  0.0229  1.0000  -1.2001   0.0000   0.0000   0.0000   0.3089
  21.400   0.5469   0.21713   0.21465  -0.0424  0.0226  1.0000  -1.1975   0.0000   0.0000   0.0000   0.3098
  21.500   0.5488   0.21836   0.21588  -0.0431  0.0223  1.0000  -1.1966   0.0000   0.0000   0.0000   0.3106
  21.600   0.5508   0.21956   0.21710  -0.0437  0.0221  1.0000  -1.1971   0.0000   0.0000   0.0000   0.3114
  21.700   0.5528   0.22076   0.21829  -0.0444  0.0218  1.0000  -1.1991   0.0000   0.0000   0.0000   0.3122
  21.800   0.5549   0.22193   0.21947  -0.0450  0.0216  1.0000  -1.2024   0.0000   0.0000   0.0000   0.3129
  21.900   0.5570   0.22310   0.22064  -0.0456  0.0214  1.0000  -1.2074   0.0000   0.0000   0.0000   0.3136
  22.000   0.5591   0.22425   0.22180  -0.0463  0.0212  1.0000  -1.2141   0.0000   0.0000   0.0000   0.3142
  22.100   0.5614   0.22541   0.22296  -0.0469  0.0210  1.0000  -1.2229   0.0000   0.0000   0.0000   0.3148
  22.200   0.5637   0.22653   0.22409  -0.0474  0.0209  1.0000  -1.2346   0.0000   0.0000   0.0000   0.3153
  22.300   0.5661   0.22764   0.22520  -0.0480  0.0207  1.0000  -1.2503   0.0000   0.0000   0.0000   0.3158
  22.400   0.5688   0.22876   0.22632  -0.0484  0.0206  1.0000  -1.2717   0.0000   0.0000   0.0000   0.3160
  22.500   0.5719   0.22991   0.22748  -0.0488  0.0204  1.0000  -1.3033   0.0000   0.0000   0.0000   0.3161
  22.600   0.5757   0.23120   0.22878  -0.0491  0.0203  1.0000  -1.3462   0.0000   0.0000   0.0000   0.3157
  22.700   0.5816   0.23297   0.23055  -0.0489  0.0202  1.0000  -1.4125   0.0000   0.0000   0.0000   0.3144
  22.800   0.5850   0.23486   0.23244  -0.0493  0.0201  1.0000  -1.4293   0.0000   0.0000   0.0000   0.3144
  22.900   0.5838   0.23598   0.23356  -0.0505  0.0201  1.0000  -1.3821   0.0000   0.0000   0.0000   0.3165
  23.000   0.5828   0.23714   0.23472  -0.0517  0.0200  1.0000  -1.3332   0.0000   0.0000   0.0000   0.3187
  23.100   0.5823   0.23840   0.23599  -0.0528  0.0199  1.0000  -1.2866   0.0000   0.0000   0.0000   0.3207
  23.200   0.5824   0.23974   0.23733  -0.0539  0.0198  1.0000  -1.2439   0.0000   0.0000   0.0000   0.3225
  23.300   0.5829   0.24119   0.23878  -0.0549  0.0197  1.0000  -1.2032   0.0000   0.0000   0.0000   0.3241
  23.400   0.5842   0.24266   0.24025  -0.0558  0.0193  1.0000  -1.1752   0.0000   0.0000   0.0000   0.3254
  23.500   0.5858   0.24405   0.24165  -0.0565  0.0190  1.0000  -1.1609   0.0000   0.0000   0.0000   0.3263
  23.600   0.5875   0.24540   0.24300  -0.0572  0.0187  1.0000  -1.1532   0.0000   0.0000   0.0000   0.3271
  23.700   0.5893   0.24669   0.24430  -0.0579  0.0184  1.0000  -1.1486   0.0000   0.0000   0.0000   0.3279
  23.800   0.5911   0.24801   0.24563  -0.0586  0.0181  1.0000  -1.1458   0.0000   0.0000   0.0000   0.3286
  23.900   0.5929   0.24931   0.24693  -0.0593  0.0179  1.0000  -1.1442   0.0000   0.0000   0.0000   0.3293
  24.000   0.5948   0.25060   0.24822  -0.0599  0.0176  1.0000  -1.1436   0.0000   0.0000   0.0000   0.3300
  24.100   0.5966   0.25187   0.24950  -0.0606  0.0174  1.0000  -1.1440   0.0000   0.0000   0.0000   0.3306
  24.200   0.5985   0.25313   0.25077  -0.0613  0.0172  1.0000  -1.1453   0.0000   0.0000   0.0000   0.3313
  24.300   0.6004   0.25438   0.25202  -0.0619  0.0170  1.0000  -1.1476   0.0000   0.0000   0.0000   0.3319
  24.400   0.6023   0.25562   0.25327  -0.0626  0.0168  1.0000  -1.1510   0.0000   0.0000   0.0000   0.3325
  24.500   0.6042   0.25685   0.25450  -0.0632  0.0166  1.0000  -1.1557   0.0000   0.0000   0.0000   0.3331
  24.600   0.6061   0.25807   0.25572  -0.0639  0.0165  1.0000  -1.1616   0.0000   0.0000   0.0000   0.3336
  24.700   0.6081   0.25931   0.25696  -0.0645  0.0163  1.0000  -1.1692   0.0000   0.0000   0.0000   0.3342
  24.800   0.6100   0.26051   0.25817  -0.0651  0.0162  1.0000  -1.1785   0.0000   0.0000   0.0000   0.3346
  24.900   0.6121   0.26171   0.25937  -0.0657  0.0161  1.0000  -1.1900   0.0000   0.0000   0.0000   0.3351
  25.000   0.6142   0.26292   0.26059  -0.0663  0.0160  1.0000  -1.2041   0.0000   0.0000   0.0000   0.3354
  25.100   0.6164   0.26414   0.26182  -0.0668  0.0159  1.0000  -1.2214   0.0000   0.0000   0.0000   0.3357
  25.200   0.6188   0.26542   0.26310  -0.0673  0.0158  1.0000  -1.2430   0.0000   0.0000   0.0000   0.3359
  25.300   0.6216   0.26681   0.26450  -0.0677  0.0157  1.0000  -1.2714   0.0000   0.0000   0.0000   0.3358
  25.400   0.6251   0.26848   0.26618  -0.0679  0.0156  1.0000  -1.3114   0.0000   0.0000   0.0000   0.3353
  26.100   0.6319   0.27845   0.27616  -0.0737  0.0153  1.0000  -1.1793   0.0000   0.0000   0.0000   0.3425
  26.200   0.6330   0.27991   0.27762  -0.0745  0.0152  1.0000  -1.1524   0.0000   0.0000   0.0000   0.3436
  26.300   0.6344   0.28137   0.27910  -0.0753  0.0151  1.0000  -1.1316   0.0000   0.0000   0.0000   0.3444
  26.400   0.6359   0.28283   0.28056  -0.0761  0.0149  1.0000  -1.1166   0.0000   0.0000   0.0000   0.3452
  26.500   0.6375   0.28427   0.28200  -0.0768  0.0146  1.0000  -1.1071   0.0000   0.0000   0.0000   0.3459
  26.600   0.6391   0.28568   0.28341  -0.0775  0.0144  1.0000  -1.1010   0.0000   0.0000   0.0000   0.3465
  26.700   0.6407   0.28703   0.28477  -0.0781  0.0142  1.0000  -1.0968   0.0000   0.0000   0.0000   0.3471
  26.800   0.6424   0.28842   0.28617  -0.0788  0.0140  1.0000  -1.0939   0.0000   0.0000   0.0000   0.3477
  26.900   0.6440   0.28979   0.28755  -0.0795  0.0138  1.0000  -1.0918   0.0000   0.0000   0.0000   0.3483
  27.000   0.6456   0.29116   0.28892  -0.0802  0.0136  1.0000  -1.0904   0.0000   0.0000   0.0000   0.3488
  27.100   0.6472   0.29251   0.29028  -0.0808  0.0134  1.0000  -1.0895   0.0000   0.0000   0.0000   0.3494
  27.200   0.6488   0.29386   0.29163  -0.0815  0.0132  1.0000  -1.0892   0.0000   0.0000   0.0000   0.3499
  27.300   0.6504   0.29520   0.29298  -0.0822  0.0130  1.0000  -1.0894   0.0000   0.0000   0.0000   0.3505
  27.400   0.6520   0.29653   0.29431  -0.0828  0.0129  1.0000  -1.0902   0.0000   0.0000   0.0000   0.3510
  27.500   0.6535   0.29785   0.29564  -0.0835  0.0127  1.0000  -1.0917   0.0000   0.0000   0.0000   0.3515
  27.600   0.6551   0.29917   0.29696  -0.0842  0.0126  1.0000  -1.0938   0.0000   0.0000   0.0000   0.3520
  27.700   0.6567   0.30047   0.29827  -0.0848  0.0125  1.0000  -1.0967   0.0000   0.0000   0.0000   0.3525
  27.800   0.6583   0.30176   0.29956  -0.0855  0.0123  1.0000  -1.1004   0.0000   0.0000   0.0000   0.3530
  27.900   0.6599   0.30308   0.30089  -0.0861  0.0122  1.0000  -1.1052   0.0000   0.0000   0.0000   0.3535
  28.000   0.6614   0.30437   0.30218  -0.0868  0.0121  1.0000  -1.1112   0.0000   0.0000   0.0000   0.3539
  28.100   0.6630   0.30564   0.30345  -0.0874  0.0120  1.0000  -1.1190   0.0000   0.0000   0.0000   0.3544
  28.200   0.6646   0.30690   0.30472  -0.0880  0.0119  1.0000  -1.1290   0.0000   0.0000   0.0000   0.3548
  28.300   0.6663   0.30817   0.30600  -0.0886  0.0118  1.0000  -1.1418   0.0000   0.0000   0.0000   0.3551
  28.400   0.6680   0.30946   0.30730  -0.0892  0.0118  1.0000  -1.1578   0.0000   0.0000   0.0000   0.3554
  28.500   0.6699   0.31082   0.30866  -0.0897  0.0117  1.0000  -1.1782   0.0000   0.0000   0.0000   0.3555
  28.600   0.6720   0.31231   0.31016  -0.0902  0.0116  1.0000  -1.2043   0.0000   0.0000   0.0000   0.3555
  28.700   0.6747   0.31416   0.31201  -0.0905  0.0116  1.0000  -1.2398   0.0000   0.0000   0.0000   0.3551
  29.200   1.0717   0.35845   0.35559  -0.1559  0.0112  1.0000  -2.0808   0.0000   0.0000   0.0000   0.3490
  29.300   1.0749   0.35968   0.35682  -0.1571  0.0111  1.0000  -2.0657   0.0000   0.0000   0.0000   0.3494
  29.400   1.0780   0.36090   0.35805  -0.1583  0.0110  1.0000  -2.0545   0.0000   0.0000   0.0000   0.3498
  29.500   1.0810   0.36210   0.35926  -0.1594  0.0108  1.0000  -2.0481   0.0000   0.0000   0.0000   0.3502
  29.600   1.0840   0.36328   0.36044  -0.1605  0.0106  1.0000  -2.0455   0.0000   0.0000   0.0000   0.3505
  29.700   1.0869   0.36432   0.36148  -0.1616  0.0105  1.0000  -2.0455   0.0000   0.0000   0.0000   0.3508
  29.800   1.0897   0.36550   0.36266  -0.1627  0.0103  1.0000  -2.0470   0.0000   0.0000   0.0000   0.3511
  29.900   1.0926   0.36663   0.36379  -0.1638  0.0101  1.0000  -2.0497   0.0000   0.0000   0.0000   0.3515
  30.000   1.0954   0.36772   0.36489  -0.1648  0.0100  1.0000  -2.0532   0.0000   0.0000   0.0000   0.3518


