xflr5 v6.61

 Calculated polar for: NACA 4412

 1 1 Reynolds number fixed          Mach number fixed         

 xtrf =   1.000 (top)        1.000 (bottom)
 Mach =   0.000     Re =     0.688 e 6     Ncrit =   9.000

  alpha     CL        CD       CDp       Cm    Top Xtr Bot Xtr   Cpmin    Chinge    XCp    
 ------- -------- --------- --------- -------- ------- ------- -------- --------- ---------
 -10.000  -0.6129   0.02219   0.01795  -0.0918  0.9669  0.0125  -5.7957   0.0000   0.0000   0.0000   0.0872
  -9.900  -0.6041   0.02088   0.01646  -0.0924  0.9654  0.0125  -5.7495   0.0000   0.0000   0.0000   0.0840
  -9.800  -0.5946   0.01976   0.01518  -0.0929  0.9641  0.0125  -5.6951   0.0000   0.0000   0.0000   0.0807
  -9.700  -0.5844   0.01879   0.01406  -0.0935  0.9629  0.0125  -5.6341   0.0000   0.0000   0.0000   0.0771
  -9.600  -0.5735   0.01794   0.01307  -0.0940  0.9618  0.0126  -5.5673   0.0000   0.0000   0.0000   0.0731
  -9.500  -0.5619   0.01718   0.01218  -0.0946  0.9606  0.0126  -5.4952   0.0000   0.0000   0.0000   0.0687
  -9.400  -0.5496   0.01649   0.01138  -0.0953  0.9594  0.0126  -5.4186   0.0000   0.0000   0.0000   0.0636
  -9.300  -0.5368   0.01588   0.01067  -0.0960  0.9580  0.0127  -5.3382   0.0000   0.0000   0.0000   0.0581
  -9.200  -0.5237   0.01534   0.01002  -0.0968  0.9563  0.0128  -5.2554   0.0000   0.0000   0.0000   0.0522
  -9.100  -0.5115   0.01461   0.00917  -0.0974  0.9539  0.0134  -5.1762   0.0000   0.0000   0.0000   0.0465
  -9.000  -0.4997   0.01414   0.00860  -0.0979  0.9504  0.0149  -5.0826   0.0000   0.0000   0.0000   0.0411
  -8.900  -0.4556   0.02456   0.02069  -0.1010  0.9565  0.0314  -3.8671   0.0000   0.0000   0.0000   0.0155
  -8.800  -0.4423   0.02455   0.02069  -0.1018  0.9548  0.0320  -3.7440   0.0000   0.0000   0.0000   0.0071
  -8.700  -0.4293   0.02468   0.02085  -0.1024  0.9529  0.0327  -3.6200   0.0000   0.0000   0.0000  -0.0015
  -8.600  -0.4168   0.02485   0.02104  -0.1030  0.9506  0.0333  -3.5287   0.0000   0.0000   0.0000  -0.0099
  -8.500  -0.4063   0.02491   0.02112  -0.1031  0.9496  0.0339  -3.4552   0.0000   0.0000   0.0000  -0.0166
  -8.400  -0.3964   0.02485   0.02105  -0.1031  0.9489  0.0344  -3.3895   0.0000   0.0000   0.0000  -0.0231
  -8.300  -0.3868   0.02466   0.02084  -0.1031  0.9481  0.0349  -3.3315   0.0000   0.0000   0.0000  -0.0295
  -8.200  -0.3776   0.02437   0.02052  -0.1031  0.9472  0.0353  -3.2800   0.0000   0.0000   0.0000  -0.0360
  -8.100  -0.3686   0.02399   0.02011  -0.1031  0.9461  0.0357  -3.2342   0.0000   0.0000   0.0000  -0.0427
  -8.000  -0.3596   0.02354   0.01961  -0.1031  0.9449  0.0360  -3.1927   0.0000   0.0000   0.0000  -0.0496
  -7.900  -0.3507   0.02303   0.01906  -0.1031  0.9435  0.0363  -3.1548   0.0000   0.0000   0.0000  -0.0570
  -7.800  -0.3417   0.02249   0.01846  -0.1030  0.9420  0.0365  -3.1196   0.0000   0.0000   0.0000  -0.0647
  -7.700  -0.3326   0.02191   0.01782  -0.1030  0.9404  0.0367  -3.0863   0.0000   0.0000   0.0000  -0.0731
  -7.600  -0.3234   0.02132   0.01717  -0.1031  0.9387  0.0369  -3.0547   0.0000   0.0000   0.0000  -0.0821
  -7.500  -0.3140   0.02071   0.01650  -0.1031  0.9369  0.0370  -3.0242   0.0000   0.0000   0.0000  -0.0918
  -7.400  -0.3045   0.02010   0.01582  -0.1031  0.9351  0.0371  -2.9946   0.0000   0.0000   0.0000  -0.1022
  -7.300  -0.2949   0.01949   0.01513  -0.1031  0.9333  0.0371  -2.9658   0.0000   0.0000   0.0000  -0.1135
  -7.200  -0.2852   0.01887   0.01445  -0.1031  0.9314  0.0372  -2.9374   0.0000   0.0000   0.0000  -0.1257
  -7.100  -0.2753   0.01827   0.01377  -0.1032  0.9296  0.0372  -2.9093   0.0000   0.0000   0.0000  -0.1389
  -7.000  -0.2654   0.01768   0.01310  -0.1032  0.9277  0.0372  -2.8813   0.0000   0.0000   0.0000  -0.1534
  -6.900  -0.2550   0.01710   0.01245  -0.1033  0.9258  0.0371  -2.8528   0.0000   0.0000   0.0000  -0.1697
  -6.800  -0.2444   0.01654   0.01181  -0.1034  0.9238  0.0371  -2.8239   0.0000   0.0000   0.0000  -0.1880
  -6.700  -0.2336   0.01604   0.01124  -0.1035  0.9218  0.0371  -2.7916   0.0000   0.0000   0.0000  -0.2086
  -6.600  -0.2222   0.01580   0.01097  -0.1037  0.9199  0.0375  -2.7419   0.0000   0.0000   0.0000  -0.2328
  -6.500  -0.2106   0.01568   0.01084  -0.1040  0.9178  0.0382  -2.6844   0.0000   0.0000   0.0000  -0.2603
  -6.400  -0.1989   0.01557   0.01072  -0.1043  0.9155  0.0390  -2.6268   0.0000   0.0000   0.0000  -0.2912
  -6.300  -0.1874   0.01540   0.01053  -0.1045  0.9129  0.0396  -2.5749   0.0000   0.0000   0.0000  -0.3254
  -6.200  -0.1760   0.01507   0.01015  -0.1047  0.9098  0.0399  -2.5341   0.0000   0.0000   0.0000  -0.3632
  -6.100  -0.1650   0.01450   0.00950  -0.1048  0.9061  0.0396  -2.5113   0.0000   0.0000   0.0000  -0.4046
  -6.000  -0.1539   0.01394   0.00884  -0.1050  0.9016  0.0391  -2.4915   0.0000   0.0000   0.0000  -0.4522
  -5.900  -0.1439   0.01343   0.00825  -0.1049  0.8996  0.0387  -2.4710   0.0000   0.0000   0.0000  -0.4998
  -5.800  -0.1344   0.01297   0.00773  -0.1046  0.8989  0.0383  -2.4493   0.0000   0.0000   0.0000  -0.5502
  -5.700  -0.1249   0.01256   0.00725  -0.1043  0.8980  0.0380  -2.4260   0.0000   0.0000   0.0000  -0.6082
  -5.600  -0.1154   0.01218   0.00681  -0.1040  0.8969  0.0376  -2.4010   0.0000   0.0000   0.0000  -0.6758
  -5.500  -0.1059   0.01184   0.00642  -0.1037  0.8956  0.0373  -2.3746   0.0000   0.0000   0.0000  -0.7560
  -5.400  -0.0963   0.01153   0.00606  -0.1034  0.8939  0.0371  -2.3467   0.0000   0.0000   0.0000  -0.8528
  -5.300  -0.0866   0.01125   0.00573  -0.1032  0.8920  0.0368  -2.3174   0.0000   0.0000   0.0000  -0.9726
  -5.200  -0.0768   0.01100   0.00544  -0.1029  0.8898  0.0366  -2.2866   0.0000   0.0000   0.0000  -1.1250
  -5.100  -0.0668   0.01077   0.00517  -0.1027  0.8874  0.0364  -2.2541   0.0000   0.0000   0.0000  -1.3262
  -5.000  -0.0567   0.01057   0.00493  -0.1025  0.8849  0.0362  -2.2199   0.0000   0.0000   0.0000  -1.6029
  -4.900  -0.0465   0.01039   0.00471  -0.1024  0.8820  0.0360  -2.1845   0.0000   0.0000   0.0000  -2.0056
  -4.800  -0.0361   0.01022   0.00451  -0.1023  0.8788  0.0358  -2.1479   0.0000   0.0000   0.0000  -2.6477
  -4.700  -0.0256   0.01006   0.00431  -0.1022  0.8752  0.0356  -2.1104   0.0000   0.0000   0.0000  -3.8267
  -4.600  -0.0150   0.00991   0.00413  -0.1021  0.8713  0.0355  -2.0720   0.0000   0.0000   0.0000  -6.6973
  -4.500  -0.0043   0.00978   0.00396  -0.1021  0.8670  0.0353  -2.0330   0.0000   0.0000   0.0000  -24.0885
  -4.400   0.0066   0.00965   0.00380  -0.1020  0.8625  0.0352  -1.9934   0.0000   0.0000   0.0000  16.0842
  -4.300   0.0175   0.00953   0.00364  -0.1020  0.8576  0.0350  -1.9534   0.0000   0.0000   0.0000   6.1838
  -4.200   0.0286   0.00941   0.00349  -0.1020  0.8524  0.0349  -1.9131   0.0000   0.0000   0.0000   3.8909
  -4.100   0.0396   0.00931   0.00334  -0.1021  0.8468  0.0348  -1.8727   0.0000   0.0000   0.0000   2.8752
  -4.000   0.0506   0.00922   0.00320  -0.1021  0.8406  0.0347  -1.8326   0.0000   0.0000   0.0000   2.3050
  -3.900   0.0615   0.00913   0.00307  -0.1020  0.8336  0.0346  -1.7927   0.0000   0.0000   0.0000   1.9404
  -3.800   0.0724   0.00906   0.00295  -0.1020  0.8257  0.0346  -1.7528   0.0000   0.0000   0.0000   1.6845
  -3.700   0.0836   0.00899   0.00284  -0.1021  0.8165  0.0345  -1.7126   0.0000   0.0000   0.0000   1.4924
  -3.600   0.0952   0.00893   0.00275  -0.1023  0.8067  0.0344  -1.6720   0.0000   0.0000   0.0000   1.3426
  -3.500   0.1065   0.00887   0.00266  -0.1024  0.7996  0.0344  -1.6320   0.0000   0.0000   0.0000   1.2268
  -3.400   0.1170   0.00880   0.00256  -0.1023  0.7984  0.0344  -1.5938   0.0000   0.0000   0.0000   1.1378
  -3.300   0.1275   0.00872   0.00247  -0.1021  0.7966  0.0345  -1.5560   0.0000   0.0000   0.0000   1.0635
  -3.200   0.1380   0.00866   0.00238  -0.1020  0.7937  0.0345  -1.5186   0.0000   0.0000   0.0000   1.0003
  -3.100   0.1486   0.00860   0.00229  -0.1019  0.7894  0.0347  -1.4816   0.0000   0.0000   0.0000   0.9458
  -3.000   0.1592   0.00855   0.00219  -0.1018  0.7829  0.0349  -1.4453   0.0000   0.0000   0.0000   0.8982
  -2.900   0.1699   0.00851   0.00209  -0.1017  0.7737  0.0354  -1.4105   0.0000   0.0000   0.0000   0.8564
  -2.800   0.1805   0.00847   0.00197  -0.1015  0.7616  0.0366  -1.3796   0.0000   0.0000   0.0000   0.8195
  -2.700   0.1907   0.00834   0.00184  -0.1012  0.7469  0.0483  -1.3699   0.0000   0.0000   0.0000   0.7872
  -2.600   0.2005   0.00830   0.00177  -0.1010  0.7296  0.0612  -1.3324   0.0000   0.0000   0.0000   0.7596
  -2.500   0.2108   0.00826   0.00172  -0.1009  0.7107  0.0716  -1.2928   0.0000   0.0000   0.0000   0.7341
  -2.400   0.2218   0.00825   0.00169  -0.1010  0.6993  0.0753  -1.2517   0.0000   0.0000   0.0000   0.7102
  -2.300   0.2324   0.00818   0.00167  -0.1010  0.6967  0.0829  -1.2113   0.0000   0.0000   0.0000   0.6888
  -2.200   0.2431   0.00812   0.00164  -0.1010  0.6931  0.0885  -1.1710   0.0000   0.0000   0.0000   0.6694
  -2.100   0.2538   0.00808   0.00162  -0.1010  0.6882  0.0930  -1.1307   0.0000   0.0000   0.0000   0.6515
  -2.000   0.2645   0.00807   0.00160  -0.1010  0.6816  0.0966  -1.0907   0.0000   0.0000   0.0000   0.6350
  -1.900   0.2751   0.00808   0.00158  -0.1009  0.6733  0.0995  -1.0512   0.0000   0.0000   0.0000   0.6198
  -1.800   0.2855   0.00810   0.00156  -0.1008  0.6638  0.1044  -1.0122   0.0000   0.0000   0.0000   0.6057
  -1.700   0.2958   0.00812   0.00155  -0.1007  0.6546  0.1118  -0.9739   0.0000   0.0000   0.0000   0.5928
  -1.600   0.3058   0.00813   0.00153  -0.1006  0.6452  0.1193  -0.9363   0.0000   0.0000   0.0000   0.5809
  -1.500   0.3157   0.00815   0.00152  -0.1004  0.6351  0.1259  -0.8994   0.0000   0.0000   0.0000   0.5698
  -1.400   0.3256   0.00816   0.00151  -0.1002  0.6241  0.1316  -0.8627   0.0000   0.0000   0.0000   0.5594
  -1.300   0.3358   0.00817   0.00150  -0.1001  0.6127  0.1370  -0.8257   0.0000   0.0000   0.0000   0.5495
  -1.200   0.3464   0.00818   0.00149  -0.1001  0.6030  0.1413  -0.7885   0.0000   0.0000   0.0000   0.5401
  -1.100   0.3574   0.00817   0.00148  -0.1002  0.5988  0.1448  -0.7511   0.0000   0.0000   0.0000   0.5312
  -1.000   0.3684   0.00816   0.00148  -0.1002  0.5968  0.1478  -0.7138   0.0000   0.0000   0.0000   0.5228
  -0.900   0.3794   0.00816   0.00148  -0.1003  0.5945  0.1506  -0.6948   0.0000   0.0000   0.0000   0.5149
  -0.800   0.3904   0.00815   0.00148  -0.1003  0.5917  0.1580  -0.7026   0.0000   0.0000   0.0000   0.5074
  -0.700   0.4012   0.00814   0.00148  -0.1004  0.5885  0.1664  -0.7103   0.0000   0.0000   0.0000   0.5004
  -0.600   0.4120   0.00812   0.00149  -0.1004  0.5846  0.1747  -0.7180   0.0000   0.0000   0.0000   0.4937
  -0.500   0.4226   0.00812   0.00150  -0.1004  0.5796  0.1814  -0.7257   0.0000   0.0000   0.0000   0.4874
  -0.400   0.4331   0.00814   0.00150  -0.1003  0.5736  0.1876  -0.7334   0.0000   0.0000   0.0000   0.4814
  -0.300   0.4435   0.00817   0.00151  -0.1003  0.5665  0.1927  -0.7418   0.0000   0.0000   0.0000   0.4757
  -0.200   0.4537   0.00821   0.00152  -0.1002  0.5587  0.1971  -0.7504   0.0000   0.0000   0.0000   0.4702
  -0.100   0.4637   0.00827   0.00152  -0.1000  0.5503  0.2017  -0.7589   0.0000   0.0000   0.0000   0.4650
   0.000   0.4737   0.00831   0.00154  -0.0999  0.5417  0.2113  -0.7674   0.0000   0.0000   0.0000   0.4600
   0.100   0.4837   0.00833   0.00156  -0.0998  0.5328  0.2210  -0.7759   0.0000   0.0000   0.0000   0.4553
   0.200   0.4939   0.00834   0.00157  -0.0997  0.5241  0.2297  -0.7846   0.0000   0.0000   0.0000   0.4508
   0.300   0.5045   0.00835   0.00158  -0.0997  0.5165  0.2370  -0.7934   0.0000   0.0000   0.0000   0.4464
   0.400   0.5152   0.00835   0.00160  -0.0997  0.5097  0.2436  -0.8022   0.0000   0.0000   0.0000   0.4422
   0.500   0.5260   0.00836   0.00161  -0.0997  0.5039  0.2484  -0.8112   0.0000   0.0000   0.0000   0.4381
   0.600   0.5369   0.00837   0.00163  -0.0997  0.4998  0.2547  -0.8203   0.0000   0.0000   0.0000   0.4342
   0.700   0.5479   0.00832   0.00165  -0.0998  0.4991  0.2672  -0.8294   0.0000   0.0000   0.0000   0.4305
   0.800   0.5587   0.00817   0.00172  -0.1000  0.5029  0.3052  -0.8383   0.0000   0.0000   0.0000   0.4271
   0.900   0.5697   0.00814   0.00174  -0.1000  0.5020  0.3296  -0.8474   0.0000   0.0000   0.0000   0.4237
   1.000   0.5806   0.00809   0.00175  -0.1001  0.4999  0.3517  -0.8564   0.0000   0.0000   0.0000   0.4204
   1.100   0.5915   0.00803   0.00178  -0.1002  0.4995  0.3736  -0.8655   0.0000   0.0000   0.0000   0.4173
   1.200   0.6024   0.00800   0.00180  -0.1002  0.4991  0.3889  -0.8753   0.0000   0.0000   0.0000   0.4142
   1.300   0.6134   0.00798   0.00182  -0.1003  0.4986  0.4081  -0.8860   0.0000   0.0000   0.0000   0.4112
   1.400   0.6241   0.00788   0.00185  -0.1004  0.4980  0.4516  -0.8965   0.0000   0.0000   0.0000   0.4084
   1.600   0.6451   0.00770   0.00192  -0.1004  0.4965  0.5360  -0.9175   0.0000   0.0000   0.0000   0.4030
   1.700   0.6553   0.00758   0.00195  -0.1003  0.4956  0.5858  -0.9278   0.0000   0.0000   0.0000   0.4003
   1.800   0.6659   0.00753   0.00198  -0.1003  0.4947  0.6205  -0.9384   0.0000   0.0000   0.0000   0.3977
   2.000   0.6850   0.00727   0.00207  -0.0997  0.4927  0.7327  -0.9584   0.0000   0.0000   0.0000   0.3925
   2.100   0.6930   0.00711   0.00213  -0.0990  0.4914  0.8159  -0.9676   0.0000   0.0000   0.0000   0.3897
   2.200   0.7100   0.00694   0.00221  -0.1001  0.4893  0.9620  -0.9825   0.0000   0.0000   0.0000   0.3877
   2.300   0.7326   0.00697   0.00223  -0.1027  0.4863  1.0000  -1.0032   0.0000   0.0000   0.0000   0.3868
   2.400   0.7429   0.00701   0.00226  -0.1026  0.4833  1.0000  -1.0158   0.0000   0.0000   0.0000   0.3846
   2.500   0.7532   0.00706   0.00228  -0.1025  0.4798  1.0000  -1.0286   0.0000   0.0000   0.0000   0.3825
   2.600   0.7634   0.00711   0.00231  -0.1024  0.4761  1.0000  -1.0639   0.0000   0.0000   0.0000   0.3804
   2.700   0.7736   0.00716   0.00234  -0.1023  0.4723  1.0000  -1.0994   0.0000   0.0000   0.0000   0.3784
   2.800   0.7837   0.00722   0.00237  -0.1021  0.4680  1.0000  -1.1351   0.0000   0.0000   0.0000   0.3764
   2.900   0.7938   0.00729   0.00241  -0.1020  0.4632  1.0000  -1.1709   0.0000   0.0000   0.0000   0.3745
   3.000   0.8036   0.00736   0.00244  -0.1018  0.4577  1.0000  -1.2067   0.0000   0.0000   0.0000   0.3726
   3.100   0.8130   0.00746   0.00248  -0.1015  0.4500  1.0000  -1.2419   0.0000   0.0000   0.0000   0.3707
   3.200   0.8220   0.00758   0.00252  -0.1012  0.4401  1.0000  -1.2768   0.0000   0.0000   0.0000   0.3688
   3.300   0.8310   0.00770   0.00257  -0.1008  0.4283  1.0000  -1.3120   0.0000   0.0000   0.0000   0.3669
   3.400   0.8405   0.00780   0.00262  -0.1006  0.4155  1.0000  -1.3481   0.0000   0.0000   0.0000   0.3651
   3.500   0.8503   0.00788   0.00267  -0.1004  0.4046  1.0000  -1.3852   0.0000   0.0000   0.0000   0.3634
   3.600   0.8607   0.00793   0.00271  -0.1003  0.3995  1.0000  -1.4235   0.0000   0.0000   0.0000   0.3618
   3.700   0.8714   0.00797   0.00275  -0.1003  0.3986  1.0000  -1.4627   0.0000   0.0000   0.0000   0.3603
   3.800   0.8821   0.00801   0.00278  -0.1003  0.3977  1.0000  -1.5022   0.0000   0.0000   0.0000   0.3587
   3.900   0.8928   0.00805   0.00282  -0.1003  0.3968  1.0000  -1.5419   0.0000   0.0000   0.0000   0.3573
   4.000   0.9035   0.00809   0.00286  -0.1003  0.3957  1.0000  -1.5819   0.0000   0.0000   0.0000   0.3558
   4.100   0.9142   0.00814   0.00291  -0.1003  0.3944  1.0000  -1.6222   0.0000   0.0000   0.0000   0.3544
   4.200   0.9248   0.00818   0.00295  -0.1002  0.3930  1.0000  -1.6627   0.0000   0.0000   0.0000   0.3530
   4.300   0.9354   0.00823   0.00299  -0.1002  0.3913  1.0000  -1.7035   0.0000   0.0000   0.0000   0.3516
   4.400   0.9459   0.00828   0.00304  -0.1002  0.3893  1.0000  -1.7444   0.0000   0.0000   0.0000   0.3502
   4.500   0.9564   0.00834   0.00309  -0.1001  0.3867  1.0000  -1.7854   0.0000   0.0000   0.0000   0.3489
   4.600   0.9667   0.00841   0.00314  -0.1000  0.3828  1.0000  -1.8263   0.0000   0.0000   0.0000   0.3476
   4.700   0.9765   0.00851   0.00321  -0.0998  0.3763  1.0000  -1.8668   0.0000   0.0000   0.0000   0.3463
   4.800   0.9855   0.00866   0.00328  -0.0995  0.3647  1.0000  -1.9059   0.0000   0.0000   0.0000   0.3449
   4.900   0.9936   0.00887   0.00338  -0.0991  0.3493  1.0000  -1.9433   0.0000   0.0000   0.0000   0.3435
   5.000   1.0014   0.00910   0.00348  -0.0985  0.3324  1.0000  -1.9803   0.0000   0.0000   0.0000   0.3421
   5.100   1.0099   0.00929   0.00357  -0.0982  0.3114  1.0000  -2.0188   0.0000   0.0000   0.0000   0.3407
   5.200   1.0194   0.00941   0.00364  -0.0979  0.2976  1.0000  -2.0596   0.0000   0.0000   0.0000   0.3395
   5.300   1.0285   0.00956   0.00373  -0.0977  0.2886  1.0000  -2.0998   0.0000   0.0000   0.0000   0.3382
   5.400   1.0356   0.00987   0.00389  -0.0971  0.2724  1.0000  -2.1359   0.0000   0.0000   0.0000   0.3369
   5.500   1.0413   0.01029   0.00412  -0.0963  0.2505  1.0000  -2.1692   0.0000   0.0000   0.0000   0.3355
   5.600   1.0490   0.01055   0.00427  -0.0958  0.2360  1.0000  -2.2068   0.0000   0.0000   0.0000   0.3342
   5.700   1.0541   0.01104   0.00454  -0.0949  0.2064  1.0000  -2.2389   0.0000   0.0000   0.0000   0.3328
   5.800   1.0626   0.01127   0.00469  -0.0946  0.1896  1.0000  -2.2780   0.0000   0.0000   0.0000   0.3317
   5.900   1.0679   0.01177   0.00498  -0.0937  0.1584  1.0000  -2.3102   0.0000   0.0000   0.0000   0.3303
   6.000   1.0750   0.01210   0.00520  -0.0932  0.1362  1.0000  -2.3461   0.0000   0.0000   0.0000   0.3291
   6.100   1.0802   0.01258   0.00548  -0.0923  0.1100  1.0000  -2.3775   0.0000   0.0000   0.0000   0.3278
   6.200   1.0846   0.01314   0.00584  -0.0913  0.0805  1.0000  -2.4060   0.0000   0.0000   0.0000   0.3264
   6.300   1.0873   0.01382   0.00627  -0.0900  0.0493  1.0000  -2.4275   0.0000   0.0000   0.0000   0.3249
   6.400   1.0929   0.01428   0.00660  -0.0890  0.0386  1.0000  -2.4304   0.0000   0.0000   0.0000   0.3234
   6.500   1.1018   0.01444   0.00678  -0.0887  0.0371  1.0000  -2.4611   0.0000   0.0000   0.0000   0.3223
   6.600   1.1109   0.01459   0.00694  -0.0884  0.0365  1.0000  -2.4956   0.0000   0.0000   0.0000   0.3212
   6.700   1.1199   0.01474   0.00711  -0.0881  0.0361  1.0000  -2.5317   0.0000   0.0000   0.0000   0.3202
   6.800   1.1290   0.01489   0.00727  -0.0877  0.0358  1.0000  -2.5686   0.0000   0.0000   0.0000   0.3191
   6.900   1.1379   0.01504   0.00744  -0.0874  0.0356  1.0000  -2.6061   0.0000   0.0000   0.0000   0.3181
   7.000   1.1468   0.01519   0.00761  -0.0871  0.0355  1.0000  -2.6439   0.0000   0.0000   0.0000   0.3171
   7.100   1.1555   0.01534   0.00778  -0.0867  0.0353  1.0000  -2.6819   0.0000   0.0000   0.0000   0.3161
   7.200   1.1641   0.01551   0.00796  -0.0864  0.0349  1.0000  -2.7202   0.0000   0.0000   0.0000   0.3151
   7.300   1.1725   0.01568   0.00815  -0.0860  0.0342  1.0000  -2.7585   0.0000   0.0000   0.0000   0.3140
   7.400   1.1808   0.01586   0.00834  -0.0855  0.0335  1.0000  -2.7967   0.0000   0.0000   0.0000   0.3130
   7.500   1.1889   0.01605   0.00854  -0.0851  0.0327  1.0000  -2.8348   0.0000   0.0000   0.0000   0.3120
   7.600   1.1969   0.01624   0.00874  -0.0846  0.0321  1.0000  -2.8727   0.0000   0.0000   0.0000   0.3110
   7.700   1.2047   0.01643   0.00895  -0.0841  0.0317  1.0000  -2.9103   0.0000   0.0000   0.0000   0.3100
   7.800   1.2120   0.01661   0.00916  -0.0835  0.0315  1.0000  -2.9472   0.0000   0.0000   0.0000   0.3089
   7.900   1.2191   0.01681   0.00937  -0.0829  0.0313  1.0000  -2.9838   0.0000   0.0000   0.0000   0.3079
   8.000   1.2260   0.01701   0.00959  -0.0822  0.0312  1.0000  -3.0203   0.0000   0.0000   0.0000   0.3068
   8.100   1.2328   0.01722   0.00981  -0.0815  0.0311  1.0000  -3.0566   0.0000   0.0000   0.0000   0.3057
   8.200   1.2396   0.01743   0.01005  -0.0808  0.0309  1.0000  -3.0929   0.0000   0.0000   0.0000   0.3047
   8.300   1.2463   0.01765   0.01029  -0.0802  0.0308  1.0000  -3.1292   0.0000   0.0000   0.0000   0.3036
   8.400   1.2528   0.01788   0.01054  -0.0795  0.0306  1.0000  -3.1654   0.0000   0.0000   0.0000   0.3026
   8.500   1.2593   0.01812   0.01080  -0.0788  0.0305  1.0000  -3.2014   0.0000   0.0000   0.0000   0.3016
   8.600   1.2656   0.01837   0.01107  -0.0780  0.0303  1.0000  -3.2372   0.0000   0.0000   0.0000   0.3005
   8.700   1.2717   0.01862   0.01135  -0.0773  0.0302  1.0000  -3.2727   0.0000   0.0000   0.0000   0.2995
   8.800   1.2777   0.01889   0.01164  -0.0766  0.0300  1.0000  -3.3079   0.0000   0.0000   0.0000   0.2985
   8.900   1.2834   0.01916   0.01194  -0.0758  0.0299  1.0000  -3.3427   0.0000   0.0000   0.0000   0.2974
   9.000   1.3042   0.01845   0.01121  -0.0782  0.0207  1.0000  -3.7178   0.0000   0.0000   0.0000   0.2982
   9.100   1.3086   0.01881   0.01149  -0.0773  0.0184  1.0000  -3.7904   0.0000   0.0000   0.0000   0.2971
   9.200   1.3128   0.01917   0.01178  -0.0763  0.0166  1.0000  -3.8519   0.0000   0.0000   0.0000   0.2960
   9.300   1.3174   0.01948   0.01206  -0.0754  0.0151  1.0000  -3.9071   0.0000   0.0000   0.0000   0.2950
   9.400   1.3217   0.01978   0.01237  -0.0744  0.0140  1.0000  -3.9577   0.0000   0.0000   0.0000   0.2939
   9.500   1.3255   0.02011   0.01272  -0.0733  0.0132  1.0000  -4.0048   0.0000   0.0000   0.0000   0.2927
   9.600   1.3292   0.02046   0.01308  -0.0723  0.0127  1.0000  -4.0502   0.0000   0.0000   0.0000   0.2916
   9.700   1.3336   0.02079   0.01344  -0.0714  0.0126  1.0000  -4.0961   0.0000   0.0000   0.0000   0.2906
   9.800   1.3381   0.02112   0.01380  -0.0705  0.0125  1.0000  -4.1423   0.0000   0.0000   0.0000   0.2896
   9.900   1.3427   0.02147   0.01418  -0.0697  0.0124  1.0000  -4.1887   0.0000   0.0000   0.0000   0.2886
  10.000   1.3473   0.02183   0.01457  -0.0688  0.0124  1.0000  -4.2348   0.0000   0.0000   0.0000   0.2877
  10.100   1.3518   0.02220   0.01497  -0.0680  0.0123  1.0000  -4.2807   0.0000   0.0000   0.0000   0.2867
  10.200   1.3561   0.02259   0.01538  -0.0672  0.0123  1.0000  -4.3261   0.0000   0.0000   0.0000   0.2858
  10.300   1.3596   0.02302   0.01585  -0.0663  0.0122  1.0000  -4.3690   0.0000   0.0000   0.0000   0.2848
  10.400   1.3615   0.02353   0.01639  -0.0652  0.0122  1.0000  -4.4065   0.0000   0.0000   0.0000   0.2838
  10.500   1.3641   0.02403   0.01692  -0.0643  0.0122  1.0000  -4.4465   0.0000   0.0000   0.0000   0.2828
  10.600   1.3675   0.02450   0.01743  -0.0634  0.0121  1.0000  -4.4890   0.0000   0.0000   0.0000   0.2819
  10.700   1.3712   0.02497   0.01793  -0.0626  0.0121  1.0000  -4.5328   0.0000   0.0000   0.0000   0.2810
  10.800   1.3750   0.02544   0.01843  -0.0619  0.0121  1.0000  -4.5770   0.0000   0.0000   0.0000   0.2801
  10.900   1.3788   0.02592   0.01894  -0.0611  0.0120  1.0000  -4.6213   0.0000   0.0000   0.0000   0.2793
  11.000   1.3825   0.02641   0.01947  -0.0603  0.0120  1.0000  -4.6654   0.0000   0.0000   0.0000   0.2784
  11.100   1.3861   0.02692   0.02001  -0.0596  0.0120  1.0000  -4.7091   0.0000   0.0000   0.0000   0.2776
  11.200   1.3894   0.02744   0.02057  -0.0588  0.0119  1.0000  -4.7523   0.0000   0.0000   0.0000   0.2767
  11.300   1.3925   0.02799   0.02115  -0.0580  0.0119  1.0000  -4.7947   0.0000   0.0000   0.0000   0.2759
  11.400   1.3952   0.02856   0.02175  -0.0572  0.0119  1.0000  -4.8358   0.0000   0.0000   0.0000   0.2751
  11.500   1.3973   0.02914   0.02238  -0.0564  0.0119  1.0000  -4.8749   0.0000   0.0000   0.0000   0.2742
  11.600   1.3989   0.02976   0.02304  -0.0555  0.0119  1.0000  -4.9127   0.0000   0.0000   0.0000   0.2733
  11.700   1.4003   0.03042   0.02374  -0.0546  0.0119  1.0000  -4.9492   0.0000   0.0000   0.0000   0.2725
  11.800   1.4011   0.03115   0.02451  -0.0538  0.0118  1.0000  -4.9837   0.0000   0.0000   0.0000   0.2717
  11.900   1.3980   0.03222   0.02563  -0.0528  0.0118  1.0000  -5.0037   0.0000   0.0000   0.0000   0.2709
  12.000   1.3972   0.03316   0.02661  -0.0521  0.0118  1.0000  -5.0319   0.0000   0.0000   0.0000   0.2701
  12.100   1.3977   0.03401   0.02750  -0.0513  0.0118  1.0000  -5.0650   0.0000   0.0000   0.0000   0.2694
  12.200   1.3986   0.03484   0.02838  -0.0506  0.0118  1.0000  -5.0997   0.0000   0.0000   0.0000   0.2687
  12.300   1.3996   0.03567   0.02925  -0.0499  0.0118  1.0000  -5.1347   0.0000   0.0000   0.0000   0.2680
  12.400   1.4006   0.03652   0.03015  -0.0493  0.0118  1.0000  -5.1696   0.0000   0.0000   0.0000   0.2673
  12.500   1.4014   0.03739   0.03106  -0.0486  0.0118  1.0000  -5.2040   0.0000   0.0000   0.0000   0.2666
  12.600   1.4331   0.03534   0.02886  -0.0505  0.0118  1.0000  -5.2659   0.0000   0.0000   0.0000   0.2670
  12.700   1.4343   0.03617   0.02973  -0.0499  0.0118  1.0000  -5.3020   0.0000   0.0000   0.0000   0.2663
  12.800   1.4351   0.03704   0.03065  -0.0493  0.0118  1.0000  -5.3373   0.0000   0.0000   0.0000   0.2656
  12.900   1.4355   0.03795   0.03162  -0.0486  0.0117  1.0000  -5.3714   0.0000   0.0000   0.0000   0.2650
  13.000   1.4355   0.03893   0.03264  -0.0480  0.0117  1.0000  -5.4039   0.0000   0.0000   0.0000   0.2643
  13.100   1.4349   0.03996   0.03373  -0.0474  0.0117  1.0000  -5.4345   0.0000   0.0000   0.0000   0.2637
  13.200   1.4338   0.04108   0.03490  -0.0468  0.0117  1.0000  -5.4624   0.0000   0.0000   0.0000   0.2631
  13.300   1.4278   0.04283   0.03671  -0.0465  0.0117  1.0000  -5.4692   0.0000   0.0000   0.0000   0.2628
  13.400   1.4249   0.04422   0.03816  -0.0460  0.0117  1.0000  -5.4889   0.0000   0.0000   0.0000   0.2623
  13.500   1.4233   0.04543   0.03942  -0.0455  0.0117  1.0000  -5.5147   0.0000   0.0000   0.0000   0.2618
  13.600   1.4222   0.04660   0.04064  -0.0450  0.0117  1.0000  -5.5424   0.0000   0.0000   0.0000   0.2612
  13.700   1.4211   0.04776   0.04185  -0.0445  0.0117  1.0000  -5.5704   0.0000   0.0000   0.0000   0.2607
  13.800   1.4199   0.04892   0.04307  -0.0440  0.0117  1.0000  -5.5979   0.0000   0.0000   0.0000   0.2601
  13.900   1.4186   0.05010   0.04430  -0.0435  0.0117  1.0000  -5.6246   0.0000   0.0000   0.0000   0.2596
  14.000   1.4170   0.05131   0.04557  -0.0430  0.0117  1.0000  -5.6500   0.0000   0.0000   0.0000   0.2590
  14.100   1.4152   0.05256   0.04688  -0.0425  0.0117  1.0000  -5.6741   0.0000   0.0000   0.0000   0.2585
  14.200   1.4131   0.05387   0.04825  -0.0421  0.0117  1.0000  -5.6967   0.0000   0.0000   0.0000   0.2581
  14.300   1.4105   0.05525   0.04969  -0.0417  0.0117  1.0000  -5.7168   0.0000   0.0000   0.0000   0.2576
  14.400   1.4073   0.05670   0.05120  -0.0413  0.0117  1.0000  -5.7334   0.0000   0.0000   0.0000   0.2572
  14.500   1.3979   0.05914   0.05371  -0.0417  0.0117  1.0000  -5.7192   0.0000   0.0000   0.0000   0.2575
  14.600   1.3930   0.06084   0.05547  -0.0416  0.0117  1.0000  -5.7268   0.0000   0.0000   0.0000   0.2572
  14.700   1.3895   0.06235   0.05704  -0.0413  0.0117  1.0000  -5.7409   0.0000   0.0000   0.0000   0.2569
  14.800   1.3864   0.06381   0.05856  -0.0410  0.0117  1.0000  -5.7568   0.0000   0.0000   0.0000   0.2565
  14.900   1.3834   0.06528   0.06009  -0.0407  0.0117  1.0000  -5.7729   0.0000   0.0000   0.0000   0.2562
  15.000   1.3804   0.06679   0.06166  -0.0404  0.0117  1.0000  -5.7883   0.0000   0.0000   0.0000   0.2558
  15.100   1.3774   0.06835   0.06329  -0.0402  0.0117  1.0000  -5.8033   0.0000   0.0000   0.0000   0.2555
  15.200   1.3742   0.06998   0.06499  -0.0401  0.0118  1.0000  -5.8165   0.0000   0.0000   0.0000   0.2552
  15.300   1.3706   0.07169   0.06676  -0.0400  0.0118  1.0000  -5.8272   0.0000   0.0000   0.0000   0.2550
  15.400   1.3665   0.07350   0.06863  -0.0399  0.0118  1.0000  -5.8350   0.0000   0.0000   0.0000   0.2548
  15.500   1.3618   0.07542   0.07063  -0.0400  0.0118  1.0000  -5.8391   0.0000   0.0000   0.0000   0.2548
  15.600   1.3563   0.07750   0.07278  -0.0402  0.0118  1.0000  -5.8383   0.0000   0.0000   0.0000   0.2548
  15.700   1.3431   0.08115   0.07651  -0.0419  0.0118  1.0000  -5.7941   0.0000   0.0000   0.0000   0.2561
  15.800   1.3357   0.08366   0.07909  -0.0425  0.0118  1.0000  -5.7809   0.0000   0.0000   0.0000   0.2565
  15.900   1.3306   0.08576   0.08125  -0.0428  0.0118  1.0000  -5.7794   0.0000   0.0000   0.0000   0.2566
  16.000   1.3259   0.08779   0.08335  -0.0431  0.0118  1.0000  -5.7797   0.0000   0.0000   0.0000   0.2567
  16.100   1.3213   0.08981   0.08544  -0.0433  0.0118  1.0000  -5.7792   0.0000   0.0000   0.0000   0.2568
  16.200   1.3165   0.09186   0.08757  -0.0436  0.0119  1.0000  -5.7771   0.0000   0.0000   0.0000   0.2569
  16.300   1.3114   0.09397   0.08975  -0.0440  0.0119  1.0000  -5.7726   0.0000   0.0000   0.0000   0.2571
  16.400   1.3059   0.09615   0.09200  -0.0444  0.0119  1.0000  -5.7651   0.0000   0.0000   0.0000   0.2573
  16.500   1.3000   0.09844   0.09436  -0.0450  0.0119  1.0000  -5.7540   0.0000   0.0000   0.0000   0.2577
  16.600   1.2935   0.10085   0.09685  -0.0457  0.0119  1.0000  -5.7385   0.0000   0.0000   0.0000   0.2582
  16.700   1.2862   0.10345   0.09951  -0.0466  0.0119  1.0000  -5.7172   0.0000   0.0000   0.0000   0.2589
  16.800   1.2779   0.10630   0.10244  -0.0478  0.0119  1.0000  -5.6883   0.0000   0.0000   0.0000   0.2598
  16.900   1.2632   0.11097   0.10718  -0.0508  0.0119  1.0000  -5.6172   0.0000   0.0000   0.0000   0.2624
  17.000   1.2560   0.11371   0.10999  -0.0520  0.0119  1.0000  -5.5915   0.0000   0.0000   0.0000   0.2633
  17.100   1.2497   0.11623   0.11257  -0.0529  0.0120  1.0000  -5.5700   0.0000   0.0000   0.0000   0.2641
  17.200   1.2435   0.11869   0.11510  -0.0539  0.0120  1.0000  -5.5482   0.0000   0.0000   0.0000   0.2648
  17.300   1.2373   0.12117   0.11765  -0.0548  0.0120  1.0000  -5.5245   0.0000   0.0000   0.0000   0.2656
  17.400   1.2309   0.12371   0.12025  -0.0559  0.0120  1.0000  -5.4977   0.0000   0.0000   0.0000   0.2665
  17.500   1.2242   0.12627   0.12288  -0.0570  0.0120  1.0000  -5.4672   0.0000   0.0000   0.0000   0.2675
  17.600   1.2172   0.12880   0.12547  -0.0583  0.0121  1.0000  -5.4324   0.0000   0.0000   0.0000   0.2687
  17.700   1.2096   0.13147   0.12822  -0.0598  0.0121  1.0000  -5.3919   0.0000   0.0000   0.0000   0.2700
  17.800   1.2016   0.13452   0.13133  -0.0615  0.0121  1.0000  -5.3442   0.0000   0.0000   0.0000   0.2716
  17.900   1.1916   0.13846   0.13534  -0.0641  0.0121  1.0000  -5.2778   0.0000   0.0000   0.0000   0.2741
  18.000   1.1828   0.14206   0.13900  -0.0663  0.0121  1.0000  -5.2168   0.0000   0.0000   0.0000   0.2762
  18.100   1.1740   0.14565   0.14265  -0.0684  0.0121  1.0000  -5.1539   0.0000   0.0000   0.0000   0.2783
  18.200   1.1644   0.14964   0.14671  -0.0709  0.0121  1.0000  -5.0799   0.0000   0.0000   0.0000   0.2808
  18.300   1.1542   0.15396   0.15108  -0.0735  0.0122  1.0000  -4.9960   0.0000   0.0000   0.0000   0.2836
  18.400   1.1448   0.15808   0.15526  -0.0759  0.0122  1.0000  -4.9145   0.0000   0.0000   0.0000   0.2861
  18.500   1.1350   0.16253   0.15977  -0.0784  0.0122  1.0000  -4.8225   0.0000   0.0000   0.0000   0.2888
  18.600   1.1230   0.16796   0.16526  -0.0815  0.0122  1.0000  -4.7004   0.0000   0.0000   0.0000   0.2923
  18.700   1.1121   0.17296   0.17031  -0.0841  0.0122  1.0000  -4.5842   0.0000   0.0000   0.0000   0.2954
  18.800   1.1002   0.17843   0.17584  -0.0869  0.0122  1.0000  -4.4471   0.0000   0.0000   0.0000   0.2988
  18.900   1.0841   0.18569   0.18316  -0.0905  0.0123  1.0000  -4.2424   0.0000   0.0000   0.0000   0.3035
  19.000   1.0656   0.19389   0.19140  -0.0941  0.0124  1.0000  -3.9890   0.0000   0.0000   0.0000   0.3086


