xflr5 v6.61

 Calculated polar for: NACA 65-210

 1 1 Reynolds number fixed          Mach number fixed         

 xtrf =   1.000 (top)        1.000 (bottom)
 Mach =   0.000     Re =     0.563 e 6     Ncrit =   9.000

  alpha     CL        CD       CDp       Cm    Top Xtr Bot Xtr   Cpmin    Chinge    XCp    
 ------- -------- --------- --------- -------- ------- ------- -------- --------- ---------
 -10.000  -0.4529   0.08526   0.08294  -0.0413  1.0000  0.0152  -2.3375   0.0000   0.0000   0.0000   0.1514
  -9.900  -0.4543   0.08358   0.08127  -0.0421  1.0000  0.0152  -2.3564   0.0000   0.0000   0.0000   0.1502
  -9.800  -0.4559   0.08184   0.07954  -0.0429  1.0000  0.0153  -2.3785   0.0000   0.0000   0.0000   0.1489
  -9.700  -0.4579   0.08003   0.07774  -0.0438  1.0000  0.0153  -2.4048   0.0000   0.0000   0.0000   0.1474
  -9.600  -0.4602   0.07811   0.07582  -0.0449  1.0000  0.0153  -2.4368   0.0000   0.0000   0.0000   0.1456
  -9.500  -0.4631   0.07595   0.07368  -0.0463  1.0000  0.0154  -2.4787   0.0000   0.0000   0.0000   0.1432
  -9.400  -0.4671   0.07326   0.07099  -0.0486  1.0000  0.0154  -2.5451   0.0000   0.0000   0.0000   0.1394
  -9.300  -0.4727   0.07054   0.06826  -0.0509  1.0000  0.0153  -2.6207   0.0000   0.0000   0.0000   0.1358
  -9.200  -0.4791   0.06832   0.06602  -0.0525  1.0000  0.0153  -2.6826   0.0000   0.0000   0.0000   0.1340
  -9.100  -0.4860   0.06641   0.06409  -0.0537  1.0000  0.0153  -2.7367   0.0000   0.0000   0.0000   0.1335
  -9.000  -0.4937   0.06477   0.06244  -0.0543  1.0000  0.0153  -2.7850   0.0000   0.0000   0.0000   0.1340
  -8.900  -0.5017   0.06335   0.06100  -0.0546  1.0000  0.0153  -2.8276   0.0000   0.0000   0.0000   0.1355
  -8.800  -0.5101   0.06211   0.05974  -0.0543  1.0000  0.0153  -2.8655   0.0000   0.0000   0.0000   0.1379
  -8.700  -0.5193   0.06109   0.05870  -0.0536  1.0000  0.0152  -2.9002   0.0000   0.0000   0.0000   0.1413
  -8.600  -0.5298   0.06031   0.05791  -0.0523  1.0000  0.0152  -2.9336   0.0000   0.0000   0.0000   0.1460
  -8.500  -0.5416   0.05980   0.05739  -0.0502  1.0000  0.0152  -2.9661   0.0000   0.0000   0.0000   0.1521
  -8.400  -0.5548   0.05956   0.05714  -0.0475  1.0000  0.0152  -2.9983   0.0000   0.0000   0.0000   0.1593
  -8.300  -0.5633   0.05881   0.05637  -0.0459  0.9996  0.0152  -3.0189   0.0000   0.0000   0.0000   0.1635
  -8.200  -0.5629   0.05710   0.05461  -0.0466  0.9986  0.0153  -3.0193   0.0000   0.0000   0.0000   0.1623
  -8.100  -0.5620   0.05548   0.05294  -0.0472  0.9975  0.0153  -3.0161   0.0000   0.0000   0.0000   0.1612
  -8.000  -0.5604   0.05389   0.05129  -0.0477  0.9961  0.0154  -3.0094   0.0000   0.0000   0.0000   0.1601
  -7.900  -0.5582   0.05231   0.04966  -0.0482  0.9945  0.0155  -2.9993   0.0000   0.0000   0.0000   0.1590
  -7.800  -0.5553   0.05075   0.04804  -0.0487  0.9925  0.0156  -2.9865   0.0000   0.0000   0.0000   0.1578
  -7.700  -0.5519   0.04920   0.04643  -0.0491  0.9904  0.0158  -2.9711   0.0000   0.0000   0.0000   0.1565
  -7.600  -0.5478   0.04767   0.04483  -0.0495  0.9880  0.0159  -2.9537   0.0000   0.0000   0.0000   0.1551
  -7.500  -0.5433   0.04615   0.04324  -0.0499  0.9855  0.0160  -2.9348   0.0000   0.0000   0.0000   0.1537
  -7.400  -0.5383   0.04465   0.04167  -0.0503  0.9828  0.0162  -2.9145   0.0000   0.0000   0.0000   0.1521
  -6.700  -0.5087   0.02127   0.01619  -0.0476  0.9619  0.0086  -4.3154   0.0000   0.0000   0.0000   0.1513
  -6.600  -0.4963   0.02067   0.01551  -0.0481  0.9594  0.0085  -4.2251   0.0000   0.0000   0.0000   0.1481
  -6.500  -0.4841   0.02003   0.01478  -0.0485  0.9563  0.0084  -4.1381   0.0000   0.0000   0.0000   0.1449
  -6.400  -0.4726   0.01929   0.01395  -0.0488  0.9523  0.0084  -4.0649   0.0000   0.0000   0.0000   0.1418
  -6.300  -0.4634   0.01848   0.01304  -0.0485  0.9494  0.0083  -4.0138   0.0000   0.0000   0.0000   0.1403
  -6.200  -0.4555   0.01755   0.01201  -0.0480  0.9477  0.0084  -3.9814   0.0000   0.0000   0.0000   0.1398
  -6.100  -0.4478   0.01653   0.01088  -0.0474  0.9456  0.0084  -3.9603   0.0000   0.0000   0.0000   0.1394
  -6.000  -0.4400   0.01557   0.00982  -0.0468  0.9432  0.0086  -3.9348   0.0000   0.0000   0.0000   0.1389
  -5.900  -0.4319   0.01484   0.00902  -0.0463  0.9404  0.0088  -3.8823   0.0000   0.0000   0.0000   0.1381
  -5.800  -0.4231   0.01441   0.00856  -0.0459  0.9375  0.0090  -3.7919   0.0000   0.0000   0.0000   0.1367
  -5.700  -0.4138   0.01416   0.00829  -0.0457  0.9346  0.0094  -3.6544   0.0000   0.0000   0.0000   0.1349
  -5.600  -0.4038   0.01412   0.00828  -0.0456  0.9316  0.0097  -3.5051   0.0000   0.0000   0.0000   0.1325
  -5.500  -0.3935   0.01413   0.00831  -0.0455  0.9287  0.0101  -3.3477   0.0000   0.0000   0.0000   0.1297
  -5.400  -0.3830   0.01414   0.00833  -0.0455  0.9258  0.0107  -3.1861   0.0000   0.0000   0.0000   0.1267
  -5.200  -0.3615   0.01557   0.00989  -0.0461  0.9194  0.0203  -2.3790   0.0000   0.0000   0.0000   0.1182
  -5.100  -0.3517   0.01524   0.00953  -0.0459  0.9161  0.0206  -2.3309   0.0000   0.0000   0.0000   0.1152
  -5.000  -0.3418   0.01492   0.00916  -0.0457  0.9126  0.0208  -2.2851   0.0000   0.0000   0.0000   0.1121
  -4.900  -0.3317   0.01459   0.00880  -0.0455  0.9085  0.0210  -2.2410   0.0000   0.0000   0.0000   0.1086
  -4.800  -0.3214   0.01431   0.00848  -0.0454  0.9039  0.0213  -2.1940   0.0000   0.0000   0.0000   0.1045
  -4.700  -0.3109   0.01418   0.00835  -0.0455  0.9000  0.0219  -2.1284   0.0000   0.0000   0.0000   0.0996
  -4.600  -0.3007   0.01411   0.00827  -0.0454  0.8986  0.0227  -2.0578   0.0000   0.0000   0.0000   0.0950
  -4.500  -0.2905   0.01406   0.00822  -0.0453  0.8970  0.0234  -1.9882   0.0000   0.0000   0.0000   0.0900
  -4.400  -0.2802   0.01396   0.00811  -0.0452  0.8952  0.0239  -1.9255   0.0000   0.0000   0.0000   0.0846
  -4.300  -0.2702   0.01372   0.00786  -0.0450  0.8930  0.0242  -1.8785   0.0000   0.0000   0.0000   0.0792
  -4.200  -0.2605   0.01326   0.00737  -0.0448  0.8907  0.0241  -1.8549   0.0000   0.0000   0.0000   0.0741
  -4.100  -0.2510   0.01281   0.00688  -0.0444  0.8882  0.0240  -1.8338   0.0000   0.0000   0.0000   0.0688
  -4.000  -0.2415   0.01240   0.00644  -0.0441  0.8855  0.0239  -1.8111   0.0000   0.0000   0.0000   0.0632
  -3.900  -0.2320   0.01202   0.00602  -0.0438  0.8827  0.0239  -1.7871   0.0000   0.0000   0.0000   0.0571
  -3.800  -0.2226   0.01167   0.00564  -0.0435  0.8797  0.0238  -1.7619   0.0000   0.0000   0.0000   0.0505
  -3.700  -0.2132   0.01135   0.00528  -0.0432  0.8767  0.0238  -1.7355   0.0000   0.0000   0.0000   0.0434
  -3.600  -0.2037   0.01106   0.00495  -0.0429  0.8736  0.0239  -1.7081   0.0000   0.0000   0.0000   0.0354
  -3.500  -0.1942   0.01079   0.00464  -0.0426  0.8704  0.0239  -1.6795   0.0000   0.0000   0.0000   0.0266
  -3.400  -0.1845   0.01055   0.00435  -0.0423  0.8671  0.0240  -1.6498   0.0000   0.0000   0.0000   0.0166
  -3.300  -0.1748   0.01033   0.00409  -0.0421  0.8635  0.0242  -1.6187   0.0000   0.0000   0.0000   0.0050
  -3.200  -0.1647   0.01014   0.00386  -0.0419  0.8594  0.0244  -1.5858   0.0000   0.0000   0.0000  -0.0087
  -3.100  -0.1544   0.00999   0.00366  -0.0418  0.8549  0.0247  -1.5508   0.0000   0.0000   0.0000  -0.0253
  -3.000  -0.1437   0.00986   0.00350  -0.0418  0.8503  0.0250  -1.5131   0.0000   0.0000   0.0000  -0.0456
  -2.900  -0.1331   0.00972   0.00335  -0.0418  0.8492  0.0253  -1.4728   0.0000   0.0000   0.0000  -0.0687
  -2.800  -0.1224   0.00961   0.00323  -0.0418  0.8478  0.0257  -1.4292   0.0000   0.0000   0.0000  -0.0963
  -2.600  -0.1016   0.00898   0.00240  -0.0414  0.8444  0.0402  -1.4648   0.0000   0.0000   0.0000  -0.1631
  -2.500  -0.0909   0.00885   0.00231  -0.0414  0.8424  0.0467  -1.4210   0.0000   0.0000   0.0000  -0.2118
  -2.400  -0.0803   0.00868   0.00220  -0.0414  0.8402  0.0671  -1.3740   0.0000   0.0000   0.0000  -0.2724
  -2.300  -0.0710   0.00816   0.00205  -0.0415  0.8378  0.1615  -1.3269   0.0000   0.0000   0.0000  -0.3413
  -2.100  -0.0540   0.00673   0.00170  -0.0418  0.8327  0.4611  -1.2310   0.0000   0.0000   0.0000  -0.5316
  -2.000  -0.0445   0.00640   0.00169  -0.0417  0.8300  0.5512  -1.1778   0.0000   0.0000   0.0000  -0.6967
  -1.900  -0.0343   0.00625   0.00169  -0.0416  0.8273  0.5931  -1.1227   0.0000   0.0000   0.0000  -0.9738
  -1.800  -0.0239   0.00617   0.00169  -0.0415  0.8245  0.6182  -1.0672   0.0000   0.0000   0.0000  -1.5013
  -1.700  -0.0134   0.00612   0.00170  -0.0414  0.8215  0.6412  -1.0119   0.0000   0.0000   0.0000  -2.8532
  -1.600  -0.0029   0.00609   0.00170  -0.0412  0.8183  0.6593  -0.9569   0.0000   0.0000   0.0000  -14.1297
  -1.500   0.0072   0.00605   0.00174  -0.0410  0.8147  0.6802  -0.9035   0.0000   0.0000   0.0000   6.0110
  -1.400   0.0178   0.00607   0.00176  -0.0409  0.8106  0.6939  -0.8493   0.0000   0.0000   0.0000   2.5601
  -1.300   0.0288   0.00612   0.00179  -0.0409  0.8060  0.7018  -0.7949   0.0000   0.0000   0.0000   1.6762
  -1.200   0.0394   0.00612   0.00183  -0.0408  0.8011  0.7148  -0.7426   0.0000   0.0000   0.0000   1.2909
  -1.100   0.0500   0.00611   0.00187  -0.0407  0.7996  0.7241  -0.6905   0.0000   0.0000   0.0000   1.0671
  -1.000   0.0608   0.00610   0.00189  -0.0406  0.7984  0.7313  -0.6387   0.0000   0.0000   0.0000   0.9203
  -0.900   0.0718   0.00610   0.00190  -0.0406  0.7971  0.7370  -0.5873   0.0000   0.0000   0.0000   0.8171
  -0.800   0.0830   0.00611   0.00191  -0.0406  0.7956  0.7410  -0.5364   0.0000   0.0000   0.0000   0.7412
  -0.700   0.0942   0.00612   0.00192  -0.0407  0.7939  0.7445  -0.4862   0.0000   0.0000   0.0000   0.6832
  -0.600   0.1053   0.00615   0.00193  -0.0407  0.7921  0.7477  -0.4368   0.0000   0.0000   0.0000   0.6374
  -0.500   0.1164   0.00616   0.00195  -0.0407  0.7901  0.7518  -0.3884   0.0000   0.0000   0.0000   0.6005
  -0.400   0.1270   0.00611   0.00194  -0.0407  0.7880  0.7612  -0.3715   0.0000   0.0000   0.0000   0.5704
  -0.300   0.1375   0.00610   0.00197  -0.0405  0.7858  0.7685  -0.3760   0.0000   0.0000   0.0000   0.5447
  -0.200   0.1480   0.00611   0.00201  -0.0404  0.7836  0.7742  -0.3805   0.0000   0.0000   0.0000   0.5226
  -0.100   0.1587   0.00612   0.00203  -0.0403  0.7813  0.7788  -0.3851   0.0000   0.0000   0.0000   0.5035
   0.000   0.1696   0.00613   0.00205  -0.0402  0.7789  0.7824  -0.3897   0.0000   0.0000   0.0000   0.4869
   0.100   0.1806   0.00613   0.00205  -0.0403  0.7764  0.7849  -0.3944   0.0000   0.0000   0.0000   0.4725
   0.200   0.1917   0.00614   0.00205  -0.0403  0.7737  0.7872  -0.3992   0.0000   0.0000   0.0000   0.4597
   0.300   0.2028   0.00615   0.00205  -0.0403  0.7709  0.7894  -0.4046   0.0000   0.0000   0.0000   0.4483
   0.400   0.2138   0.00617   0.00205  -0.0404  0.7678  0.7914  -0.4099   0.0000   0.0000   0.0000   0.4381
   0.500   0.2249   0.00619   0.00205  -0.0404  0.7642  0.7934  -0.4152   0.0000   0.0000   0.0000   0.4289
   0.600   0.2359   0.00623   0.00205  -0.0404  0.7592  0.7951  -0.4205   0.0000   0.0000   0.0000   0.4205
   0.700   0.2470   0.00630   0.00208  -0.0405  0.7518  0.7967  -0.4330   0.0000   0.0000   0.0000   0.4130
   0.800   0.2581   0.00628   0.00207  -0.0405  0.7487  0.7980  -0.4853   0.0000   0.0000   0.0000   0.4059
   0.900   0.2690   0.00625   0.00203  -0.0405  0.7454  0.7992  -0.5384   0.0000   0.0000   0.0000   0.3993
   1.000   0.2799   0.00620   0.00198  -0.0404  0.7403  0.8025  -0.5922   0.0000   0.0000   0.0000   0.3933
   1.100   0.2905   0.00615   0.00193  -0.0403  0.7335  0.8071  -0.6462   0.0000   0.0000   0.0000   0.3876
   1.200   0.3009   0.00612   0.00188  -0.0401  0.7250  0.8112  -0.7005   0.0000   0.0000   0.0000   0.3821
   1.300   0.3109   0.00613   0.00185  -0.0399  0.7151  0.8151  -0.7547   0.0000   0.0000   0.0000   0.3769
   1.400   0.3209   0.00618   0.00184  -0.0396  0.7033  0.8186  -0.8096   0.0000   0.0000   0.0000   0.3720
   1.500   0.3314   0.00618   0.00185  -0.0395  0.6978  0.8220  -0.8667   0.0000   0.0000   0.0000   0.3677
   1.600   0.3421   0.00617   0.00186  -0.0394  0.6926  0.8253  -0.9249   0.0000   0.0000   0.0000   0.3637
   1.700   0.3527   0.00617   0.00186  -0.0393  0.6858  0.8284  -0.9837   0.0000   0.0000   0.0000   0.3598
   1.800   0.3632   0.00619   0.00187  -0.0392  0.6784  0.8314  -1.0432   0.0000   0.0000   0.0000   0.3563
   1.900   0.3737   0.00622   0.00188  -0.0391  0.6705  0.8342  -1.1032   0.0000   0.0000   0.0000   0.3529
   2.000   0.3840   0.00627   0.00188  -0.0389  0.6605  0.8369  -1.1634   0.0000   0.0000   0.0000   0.3496
   2.100   0.3944   0.00633   0.00189  -0.0388  0.6493  0.8394  -1.2246   0.0000   0.0000   0.0000   0.3466
   2.200   0.4052   0.00634   0.00191  -0.0388  0.6402  0.8417  -1.2877   0.0000   0.0000   0.0000   0.3439
   2.300   0.4155   0.00640   0.00191  -0.0387  0.6223  0.8439  -1.3499   0.0000   0.0000   0.0000   0.3411
   2.400   0.4250   0.00653   0.00192  -0.0384  0.5997  0.8459  -1.4104   0.0000   0.0000   0.0000   0.3383
   2.500   0.4356   0.00658   0.00194  -0.0383  0.5840  0.8475  -1.4746   0.0000   0.0000   0.0000   0.3359
   2.600   0.4453   0.00672   0.00197  -0.0381  0.5594  0.8489  -1.5364   0.0000   0.0000   0.0000   0.3334
   2.700   0.4551   0.00682   0.00200  -0.0380  0.5352  0.8518  -1.5991   0.0000   0.0000   0.0000   0.3312
   2.800   0.4611   0.00725   0.00206  -0.0372  0.4522  0.8574  -1.6500   0.0000   0.0000   0.0000   0.3284
   2.900   0.4654   0.00791   0.00227  -0.0363  0.3449  0.8626  -1.6948   0.0000   0.0000   0.0000   0.3256
   3.000   0.4705   0.00848   0.00249  -0.0355  0.2578  0.8670  -1.7415   0.0000   0.0000   0.0000   0.3229
   3.100   0.4765   0.00895   0.00268  -0.0348  0.1854  0.8710  -1.7907   0.0000   0.0000   0.0000   0.3204
   3.200   0.4819   0.00947   0.00291  -0.0340  0.1140  0.8749  -1.8367   0.0000   0.0000   0.0000   0.3179
   3.300   0.4877   0.00994   0.00311  -0.0332  0.0587  0.8787  -1.8823   0.0000   0.0000   0.0000   0.3154
   3.400   0.4960   0.01016   0.00324  -0.0327  0.0399  0.8822  -1.9280   0.0000   0.0000   0.0000   0.3133
   3.600   0.5132   0.01064   0.00381  -0.0316  0.0228  0.8888  -1.9244   0.0000   0.0000   0.0000   0.3087
   3.700   0.5225   0.01077   0.00397  -0.0312  0.0221  0.8917  -1.9679   0.0000   0.0000   0.0000   0.3069
   3.800   0.5317   0.01092   0.00416  -0.0309  0.0216  0.8943  -2.0086   0.0000   0.0000   0.0000   0.3051
   3.900   0.5408   0.01110   0.00436  -0.0305  0.0211  0.8967  -2.0478   0.0000   0.0000   0.0000   0.3034
   4.000   0.5497   0.01128   0.00459  -0.0301  0.0208  0.8987  -2.0860   0.0000   0.0000   0.0000   0.3016
   4.100   0.5584   0.01147   0.00481  -0.0297  0.0205  0.9021  -2.1234   0.0000   0.0000   0.0000   0.2999
   4.200   0.5662   0.01164   0.00503  -0.0290  0.0204  0.9083  -2.1587   0.0000   0.0000   0.0000   0.2980
   4.300   0.5731   0.01182   0.00526  -0.0282  0.0202  0.9139  -2.1917   0.0000   0.0000   0.0000   0.2958
   4.400   0.5794   0.01202   0.00551  -0.0272  0.0201  0.9191  -2.2234   0.0000   0.0000   0.0000   0.2935
   4.500   0.5856   0.01224   0.00577  -0.0262  0.0201  0.9242  -2.2542   0.0000   0.0000   0.0000   0.2912
   4.600   0.5918   0.01248   0.00605  -0.0252  0.0200  0.9293  -2.2844   0.0000   0.0000   0.0000   0.2890
   4.700   0.5978   0.01273   0.00635  -0.0241  0.0200  0.9342  -2.3137   0.0000   0.0000   0.0000   0.2868
   4.800   0.6038   0.01301   0.00667  -0.0231  0.0200  0.9389  -2.3421   0.0000   0.0000   0.0000   0.2846
   4.900   0.6099   0.01331   0.00700  -0.0221  0.0201  0.9431  -2.3699   0.0000   0.0000   0.0000   0.2825
   5.000   0.6160   0.01363   0.00736  -0.0211  0.0201  0.9467  -2.3972   0.0000   0.0000   0.0000   0.2805
   5.100   0.6222   0.01397   0.00774  -0.0202  0.0202  0.9494  -2.4238   0.0000   0.0000   0.0000   0.2785
   5.200   0.6318   0.01440   0.00820  -0.0200  0.0202  0.9551  -2.4548   0.0000   0.0000   0.0000   0.2777
   5.300   0.6427   0.01489   0.00873  -0.0201  0.0204  0.9615  -2.4866   0.0000   0.0000   0.0000   0.2772
   5.400   0.6541   0.01543   0.00931  -0.0202  0.0205  0.9675  -2.5178   0.0000   0.0000   0.0000   0.2769
   5.500   0.6660   0.01602   0.00995  -0.0205  0.0207  0.9730  -2.5481   0.0000   0.0000   0.0000   0.2766
   5.600   0.6782   0.01667   0.01065  -0.0208  0.0209  0.9780  -2.5771   0.0000   0.0000   0.0000   0.2764
   5.700   0.6907   0.01728   0.01130  -0.0212  0.0209  0.9829  -2.6142   0.0000   0.0000   0.0000   0.2764
   5.800   0.7031   0.01765   0.01170  -0.0216  0.0206  0.9884  -2.6753   0.0000   0.0000   0.0000   0.2763
   5.900   0.7152   0.01788   0.01194  -0.0220  0.0201  0.9952  -2.7507   0.0000   0.0000   0.0000   0.2763
   6.000   0.7203   0.01768   0.01179  -0.0220  0.0120  1.0000  -3.1534   0.0000   0.0000   0.0000   0.2759
   6.100   0.7312   0.01690   0.01097  -0.0222  0.0106  1.0000  -3.4348   0.0000   0.0000   0.0000   0.2756
   6.200   0.7416   0.01675   0.01079  -0.0222  0.0099  1.0000  -3.6156   0.0000   0.0000   0.0000   0.2752
   6.300   0.7515   0.01674   0.01077  -0.0223  0.0093  1.0000  -3.7701   0.0000   0.0000   0.0000   0.2747
   6.400   0.7609   0.01699   0.01104  -0.0221  0.0087  1.0000  -3.9522   0.0000   0.0000   0.0000   0.2740
   6.500   0.7710   0.01683   0.01082  -0.0222  0.0083  1.0000  -4.1210   0.0000   0.0000   0.0000   0.2736
   6.600   0.7809   0.01676   0.01071  -0.0223  0.0080  1.0000  -4.2729   0.0000   0.0000   0.0000   0.2733
   6.700   0.7905   0.01679   0.01072  -0.0223  0.0078  1.0000  -4.4111   0.0000   0.0000   0.0000   0.2728
   6.800   0.7996   0.01696   0.01088  -0.0222  0.0076  1.0000  -4.5318   0.0000   0.0000   0.0000   0.2723
   6.900   0.8080   0.01729   0.01122  -0.0219  0.0074  1.0000  -4.6307   0.0000   0.0000   0.0000   0.2716
   7.000   0.8159   0.01784   0.01180  -0.0215  0.0072  1.0000  -4.7035   0.0000   0.0000   0.0000   0.2707
   7.100   0.8233   0.01872   0.01275  -0.0211  0.0070  1.0000  -4.7441   0.0000   0.0000   0.0000   0.2698
   7.200   0.8308   0.02010   0.01425  -0.0206  0.0068  1.0000  -4.7396   0.0000   0.0000   0.0000   0.2689
   7.300   0.8398   0.02038   0.01455  -0.0204  0.0067  1.0000  -4.8506   0.0000   0.0000   0.0000   0.2683
   7.400   0.8490   0.02048   0.01467  -0.0202  0.0067  1.0000  -4.9808   0.0000   0.0000   0.0000   0.2677
   7.500   0.8580   0.02068   0.01490  -0.0200  0.0066  1.0000  -5.1030   0.0000   0.0000   0.0000   0.2671
   7.600   0.8668   0.02097   0.01521  -0.0197  0.0065  1.0000  -5.2182   0.0000   0.0000   0.0000   0.2665
   7.700   0.8754   0.02133   0.01562  -0.0195  0.0065  1.0000  -5.3267   0.0000   0.0000   0.0000   0.2659
   7.800   0.8839   0.02178   0.01611  -0.0192  0.0064  1.0000  -5.4282   0.0000   0.0000   0.0000   0.2652
   7.900   0.8921   0.02231   0.01670  -0.0188  0.0063  1.0000  -5.5219   0.0000   0.0000   0.0000   0.2645
   8.000   0.9000   0.02294   0.01740  -0.0184  0.0063  1.0000  -5.6063   0.0000   0.0000   0.0000   0.2638
   8.100   0.9075   0.02368   0.01822  -0.0179  0.0062  1.0000  -5.6785   0.0000   0.0000   0.0000   0.2630
   8.200   0.9144   0.02458   0.01921  -0.0174  0.0062  1.0000  -5.7350   0.0000   0.0000   0.0000   0.2622
   8.300   0.9167   0.02713   0.02208  -0.0160  0.0063  1.0000  -5.6608   0.0000   0.0000   0.0000   0.2605
   8.400   0.9171   0.02936   0.02455  -0.0144  0.0064  1.0000  -5.5634   0.0000   0.0000   0.0000   0.2588
   8.500   0.9138   0.03190   0.02732  -0.0125  0.0066  1.0000  -5.4130   0.0000   0.0000   0.0000   0.2567
   8.600   0.9124   0.03406   0.02960  -0.0110  0.0069  1.0000  -5.3382   0.0000   0.0000   0.0000   0.2550
   8.700   0.9205   0.03412   0.02968  -0.0105  0.0071  1.0000  -5.4895   0.0000   0.0000   0.0000   0.2542
  12.300   0.6462   0.10493   0.10264   0.0041  0.0133  1.0000  -2.8447   0.0000   0.0000   0.0000   0.2334
  12.400   0.6443   0.10732   0.10502   0.0030  0.0133  1.0000  -2.8023   0.0000   0.0000   0.0000   0.2351
  12.500   0.6427   0.10962   0.10732   0.0018  0.0133  1.0000  -2.7643   0.0000   0.0000   0.0000   0.2368
  12.600   0.6414   0.11186   0.10955   0.0008  0.0132  1.0000  -2.7298   0.0000   0.0000   0.0000   0.2384
  12.700   0.6403   0.11405   0.11174  -0.0003  0.0132  1.0000  -2.6982   0.0000   0.0000   0.0000   0.2399
  12.800   0.6395   0.11619   0.11387  -0.0013  0.0132  1.0000  -2.6691   0.0000   0.0000   0.0000   0.2414
  12.900   0.6388   0.11829   0.11596  -0.0023  0.0131  1.0000  -2.6421   0.0000   0.0000   0.0000   0.2429
  13.000   0.6383   0.12036   0.11803  -0.0033  0.0131  1.0000  -2.6169   0.0000   0.0000   0.0000   0.2444
  13.100   0.6380   0.12242   0.12009  -0.0042  0.0130  1.0000  -2.5932   0.0000   0.0000   0.0000   0.2458
  13.200   0.6378   0.12447   0.12213  -0.0052  0.0129  1.0000  -2.5707   0.0000   0.0000   0.0000   0.2472
  13.300   0.6377   0.12650   0.12416  -0.0061  0.0129  1.0000  -2.5489   0.0000   0.0000   0.0000   0.2486
  13.400   0.6377   0.12854   0.12619  -0.0071  0.0128  1.0000  -2.5275   0.0000   0.0000   0.0000   0.2500
  13.500   0.6377   0.13058   0.12823  -0.0080  0.0127  1.0000  -2.5059   0.0000   0.0000   0.0000   0.2513
  13.600   0.6378   0.13264   0.13028  -0.0089  0.0127  1.0000  -2.4832   0.0000   0.0000   0.0000   0.2527
  13.700   0.6379   0.13474   0.13237  -0.0098  0.0126  1.0000  -2.4585   0.0000   0.0000   0.0000   0.2541
  13.800   0.6379   0.13689   0.13453  -0.0108  0.0125  1.0000  -2.4298   0.0000   0.0000   0.0000   0.2555
  13.900   0.6376   0.13917   0.13680  -0.0118  0.0124  1.0000  -2.3938   0.0000   0.0000   0.0000   0.2570
  14.000   0.6367   0.14168   0.13930  -0.0128  0.0123  1.0000  -2.3426   0.0000   0.0000   0.0000   0.2586
  14.100   0.6337   0.14502   0.14264  -0.0142  0.0121  1.0000  -2.2383   0.0000   0.0000   0.0000   0.2607
  14.200   0.6243   0.15119   0.14878  -0.0164  0.0117  1.0000  -1.9516   0.0000   0.0000   0.0000   0.2648
  14.300   0.6259   0.15306   0.15064  -0.0172  0.0117  1.0000  -1.9367   0.0000   0.0000   0.0000   0.2659
  14.400   0.6275   0.15491   0.15249  -0.0180  0.0117  1.0000  -1.9224   0.0000   0.0000   0.0000   0.2670
  14.500   0.6292   0.15675   0.15433  -0.0188  0.0117  1.0000  -1.9085   0.0000   0.0000   0.0000   0.2682
  14.600   0.6309   0.15858   0.15616  -0.0196  0.0117  1.0000  -1.8951   0.0000   0.0000   0.0000   0.2693
  14.700   0.6327   0.16039   0.15797  -0.0204  0.0117  1.0000  -1.8822   0.0000   0.0000   0.0000   0.2704
  14.800   0.6345   0.16219   0.15976  -0.0212  0.0117  1.0000  -1.8697   0.0000   0.0000   0.0000   0.2714
  14.900   0.6363   0.16397   0.16154  -0.0220  0.0117  1.0000  -1.8576   0.0000   0.0000   0.0000   0.2725
  15.000   0.6382   0.16575   0.16332  -0.0228  0.0117  1.0000  -1.8459   0.0000   0.0000   0.0000   0.2736
  15.100   0.6402   0.16751   0.16508  -0.0236  0.0117  1.0000  -1.8347   0.0000   0.0000   0.0000   0.2746
  15.200   0.6421   0.16927   0.16683  -0.0244  0.0117  1.0000  -1.8238   0.0000   0.0000   0.0000   0.2756
  15.300   0.6442   0.17102   0.16858  -0.0251  0.0117  1.0000  -1.8134   0.0000   0.0000   0.0000   0.2766
  15.400   0.6462   0.17276   0.17032  -0.0259  0.0117  1.0000  -1.8033   0.0000   0.0000   0.0000   0.2776
  15.500   0.6483   0.17448   0.17204  -0.0267  0.0117  1.0000  -1.7935   0.0000   0.0000   0.0000   0.2785
  15.600   0.6501   0.17608   0.17364  -0.0275  0.0116  1.0000  -1.7833   0.0000   0.0000   0.0000   0.2795
  15.700   0.6520   0.17760   0.17516  -0.0283  0.0116  1.0000  -1.7747   0.0000   0.0000   0.0000   0.2806
  15.800   0.6540   0.17904   0.17660  -0.0291  0.0116  1.0000  -1.7688   0.0000   0.0000   0.0000   0.2815
  15.900   0.6561   0.18038   0.17793  -0.0298  0.0115  1.0000  -1.7668   0.0000   0.0000   0.0000   0.2824
  16.000   0.6585   0.18156   0.17910  -0.0306  0.0114  1.0000  -1.7706   0.0000   0.0000   0.0000   0.2833
  16.100   0.6613   0.18257   0.18011  -0.0313  0.0112  1.0000  -1.7807   0.0000   0.0000   0.0000   0.2840
  16.200   0.6643   0.18353   0.18107  -0.0320  0.0109  1.0000  -1.7905   0.0000   0.0000   0.0000   0.2847
  16.300   0.6661   0.18471   0.18225  -0.0328  0.0106  1.0000  -1.7753   0.0000   0.0000   0.0000   0.2858
  16.400   0.6680   0.18607   0.18361  -0.0336  0.0102  1.0000  -1.7551   0.0000   0.0000   0.0000   0.2868
  16.500   0.6702   0.18755   0.18509  -0.0344  0.0098  1.0000  -1.7387   0.0000   0.0000   0.0000   0.2877
  16.600   0.6725   0.18906   0.18660  -0.0351  0.0094  1.0000  -1.7292   0.0000   0.0000   0.0000   0.2885
  16.700   0.6748   0.19056   0.18809  -0.0358  0.0091  1.0000  -1.7261   0.0000   0.0000   0.0000   0.2893
  16.800   0.6772   0.19203   0.18956  -0.0366  0.0088  1.0000  -1.7285   0.0000   0.0000   0.0000   0.2900
  16.900   0.6797   0.19347   0.19100  -0.0372  0.0086  1.0000  -1.7358   0.0000   0.0000   0.0000   0.2907
  17.000   0.6822   0.19487   0.19240  -0.0379  0.0084  1.0000  -1.7476   0.0000   0.0000   0.0000   0.2914
  17.100   0.6847   0.19624   0.19377  -0.0386  0.0082  1.0000  -1.7640   0.0000   0.0000   0.0000   0.2920
  17.200   0.6873   0.19757   0.19510  -0.0393  0.0080  1.0000  -1.7851   0.0000   0.0000   0.0000   0.2926
  17.300   0.6900   0.19887   0.19639  -0.0399  0.0078  1.0000  -1.8112   0.0000   0.0000   0.0000   0.2932
  17.400   0.6928   0.20013   0.19765  -0.0405  0.0077  1.0000  -1.8426   0.0000   0.0000   0.0000   0.2937
  17.500   0.6964   0.20111   0.19865  -0.0410  0.0074  1.0000  -1.9257   0.0000   0.0000   0.0000   0.2939
  17.600   0.7001   0.20222   0.19976  -0.0415  0.0073  1.0000  -1.9959   0.0000   0.0000   0.0000   0.2941
  17.700   0.7047   0.20340   0.20093  -0.0418  0.0071  1.0000  -2.0858   0.0000   0.0000   0.0000   0.2940


