xflr5 v6.61

 Calculated polar for: NACA 65(1)-412

 1 1 Reynolds number fixed          Mach number fixed         

 xtrf =   1.000 (top)        1.000 (bottom)
 Mach =   0.000     Re =     0.200 e 6     Ncrit =   9.000

  alpha     CL        CD       CDp       Cm    Top Xtr Bot Xtr   Cpmin    Chinge    XCp    
 ------- -------- --------- --------- -------- ------- ------- -------- --------- ---------
 -10.000  -0.3843   0.09929   0.09569  -0.0428  1.0000  0.0354  -1.6112   0.0000   0.0000   0.0000   0.1283
  -9.900  -0.3878   0.09825   0.09468  -0.0425  1.0000  0.0355  -1.6226   0.0000   0.0000   0.0000   0.1304
  -9.800  -0.3915   0.09723   0.09368  -0.0421  1.0000  0.0356  -1.6347   0.0000   0.0000   0.0000   0.1325
  -9.700  -0.3955   0.09622   0.09268  -0.0418  1.0000  0.0357  -1.6476   0.0000   0.0000   0.0000   0.1348
  -9.600  -0.3998   0.09521   0.09171  -0.0414  1.0000  0.0358  -1.6612   0.0000   0.0000   0.0000   0.1372
  -9.500  -0.4044   0.09422   0.09074  -0.0409  1.0000  0.0359  -1.6756   0.0000   0.0000   0.0000   0.1396
  -9.400  -0.4093   0.09324   0.08978  -0.0405  1.0000  0.0360  -1.6909   0.0000   0.0000   0.0000   0.1421
  -9.300  -0.4144   0.09226   0.08883  -0.0401  1.0000  0.0361  -1.7069   0.0000   0.0000   0.0000   0.1446
  -9.200  -0.4198   0.09128   0.08787  -0.0396  1.0000  0.0362  -1.7237   0.0000   0.0000   0.0000   0.1471
  -9.100  -0.4192   0.08943   0.08603  -0.0411  0.9993  0.0364  -1.7392   0.0000   0.0000   0.0000   0.1436
  -9.000  -0.4173   0.08731   0.08391  -0.0431  0.9983  0.0366  -1.7563   0.0000   0.0000   0.0000   0.1383
  -8.900  -0.4157   0.08513   0.08174  -0.0453  0.9971  0.0368  -1.7760   0.0000   0.0000   0.0000   0.1328
  -8.800  -0.4145   0.08288   0.07949  -0.0476  0.9956  0.0370  -1.7990   0.0000   0.0000   0.0000   0.1271
  -8.700  -0.4138   0.08049   0.07710  -0.0501  0.9939  0.0371  -1.8266   0.0000   0.0000   0.0000   0.1209
  -8.600  -0.4138   0.07790   0.07452  -0.0530  0.9919  0.0372  -1.8613   0.0000   0.0000   0.0000   0.1140
  -8.500  -0.4154   0.07499   0.07161  -0.0565  0.9895  0.0373  -1.9081   0.0000   0.0000   0.0000   0.1061
  -8.400  -0.4181   0.07225   0.06885  -0.0599  0.9867  0.0373  -1.9550   0.0000   0.0000   0.0000   0.0990
  -8.300  -0.4216   0.06983   0.06639  -0.0629  0.9833  0.0372  -1.9975   0.0000   0.0000   0.0000   0.0934
  -8.200  -0.4257   0.06769   0.06421  -0.0654  0.9796  0.0372  -2.0354   0.0000   0.0000   0.0000   0.0892
  -8.100  -0.4302   0.06578   0.06226  -0.0674  0.9757  0.0373  -2.0689   0.0000   0.0000   0.0000   0.0863
  -8.000  -0.4346   0.06408   0.06052  -0.0688  0.9716  0.0373  -2.0977   0.0000   0.0000   0.0000   0.0847
  -7.900  -0.4381   0.06246   0.05884  -0.0700  0.9677  0.0373  -2.1218   0.0000   0.0000   0.0000   0.0835
  -7.800  -0.4385   0.06054   0.05685  -0.0715  0.9644  0.0375  -2.1410   0.0000   0.0000   0.0000   0.0803
  -7.700  -0.4368   0.05849   0.05472  -0.0731  0.9616  0.0376  -2.1566   0.0000   0.0000   0.0000   0.0760
  -7.600  -0.4338   0.05646   0.05260  -0.0747  0.9593  0.0378  -2.1696   0.0000   0.0000   0.0000   0.0712
  -7.500  -0.4298   0.05447   0.05051  -0.0762  0.9573  0.0380  -2.1809   0.0000   0.0000   0.0000   0.0662
  -7.400  -0.4249   0.05249   0.04842  -0.0776  0.9554  0.0381  -2.1912   0.0000   0.0000   0.0000   0.0608
  -7.300  -0.4193   0.05052   0.04633  -0.0790  0.9537  0.0380  -2.2018   0.0000   0.0000   0.0000   0.0551
  -7.200  -0.4132   0.04853   0.04420  -0.0802  0.9520  0.0378  -2.2167   0.0000   0.0000   0.0000   0.0492
  -7.100  -0.4092   0.04667   0.04220  -0.0807  0.9498  0.0372  -2.2417   0.0000   0.0000   0.0000   0.0461
  -7.000  -0.4153   0.04560   0.04106  -0.0783  0.9455  0.0367  -2.2644   0.0000   0.0000   0.0000   0.0550
  -6.900  -0.4194   0.04393   0.03925  -0.0764  0.9408  0.0355  -2.3193   0.0000   0.0000   0.0000   0.0613
  -6.800  -0.4112   0.04167   0.03657  -0.0743  0.9371  0.0252  -2.5202   0.0000   0.0000   0.0000   0.0627
  -6.700  -0.4117   0.03948   0.03421  -0.0735  0.9331  0.0246  -2.5635   0.0000   0.0000   0.0000   0.0649
  -6.600  -0.4085   0.03750   0.03204  -0.0731  0.9298  0.0242  -2.5885   0.0000   0.0000   0.0000   0.0645
  -6.500  -0.4024   0.03570   0.03006  -0.0729  0.9270  0.0240  -2.5969   0.0000   0.0000   0.0000   0.0623
  -6.400  -0.3942   0.03414   0.02833  -0.0729  0.9246  0.0242  -2.5864   0.0000   0.0000   0.0000   0.0584
  -6.300  -0.3839   0.03293   0.02696  -0.0731  0.9225  0.0247  -2.5523   0.0000   0.0000   0.0000   0.0529
  -6.200  -0.3715   0.03219   0.02609  -0.0735  0.9207  0.0255  -2.4912   0.0000   0.0000   0.0000   0.0454
  -6.100  -0.3568   0.03222   0.02607  -0.0742  0.9192  0.0264  -2.3923   0.0000   0.0000   0.0000   0.0353
  -6.000  -0.3439   0.03192   0.02564  -0.0748  0.9176  0.0279  -2.3180   0.0000   0.0000   0.0000   0.0256
  -5.900  -0.3373   0.02873   0.02212  -0.0750  0.9161  0.0290  -2.3829   0.0000   0.0000   0.0000   0.0204
  -5.800  -0.3266   0.02684   0.02005  -0.0756  0.9148  0.0303  -2.3851   0.0000   0.0000   0.0000   0.0114
  -5.700  -0.3140   0.02571   0.01883  -0.0763  0.9137  0.0314  -2.3495   0.0000   0.0000   0.0000  -0.0004
  -5.600  -0.3003   0.02493   0.01800  -0.0771  0.9126  0.0325  -2.2991   0.0000   0.0000   0.0000  -0.0142
  -5.500  -0.2864   0.02430   0.01732  -0.0779  0.9115  0.0332  -2.2491   0.0000   0.0000   0.0000  -0.0297
  -5.400  -0.2721   0.02369   0.01658  -0.0786  0.9105  0.0327  -2.2264   0.0000   0.0000   0.0000  -0.0467
  -5.300  -0.2582   0.02312   0.01597  -0.0793  0.9093  0.0336  -2.1749   0.0000   0.0000   0.0000  -0.0652
  -5.200  -0.2443   0.02261   0.01542  -0.0800  0.9081  0.0345  -2.1243   0.0000   0.0000   0.0000  -0.0859
  -5.100  -0.2305   0.02213   0.01490  -0.0807  0.9069  0.0353  -2.0753   0.0000   0.0000   0.0000  -0.1087
  -5.000  -0.2169   0.02176   0.01451  -0.0814  0.9055  0.0366  -2.0177   0.0000   0.0000   0.0000  -0.1340
  -4.900  -0.2038   0.02175   0.01453  -0.0821  0.9037  0.0400  -1.9270   0.0000   0.0000   0.0000  -0.1620
  -4.800  -0.1915   0.02199   0.01480  -0.0828  0.9013  0.0450  -1.8297   0.0000   0.0000   0.0000  -0.1917
  -4.700  -0.1833   0.02185   0.01463  -0.0822  0.8992  0.0478  -1.7809   0.0000   0.0000   0.0000  -0.2084
  -4.600  -0.1758   0.02106   0.01363  -0.0813  0.8972  0.0480  -1.7776   0.0000   0.0000   0.0000  -0.2223
  -4.500  -0.1685   0.02063   0.01315  -0.0805  0.8947  0.0479  -1.7637   0.0000   0.0000   0.0000  -0.2378
  -4.400  -0.1610   0.02022   0.01269  -0.0798  0.8921  0.0479  -1.7491   0.0000   0.0000   0.0000  -0.2559
  -4.300  -0.1529   0.01982   0.01225  -0.0792  0.8894  0.0479  -1.7334   0.0000   0.0000   0.0000  -0.2787
  -4.200  -0.1441   0.01943   0.01183  -0.0787  0.8868  0.0480  -1.7164   0.0000   0.0000   0.0000  -0.3074
  -4.100  -0.1347   0.01905   0.01141  -0.0784  0.8843  0.0481  -1.6984   0.0000   0.0000   0.0000  -0.3434
  -4.000  -0.1247   0.01868   0.01101  -0.0781  0.8819  0.0484  -1.6792   0.0000   0.0000   0.0000  -0.3885
  -3.900  -0.1143   0.01831   0.01062  -0.0780  0.8797  0.0487  -1.6590   0.0000   0.0000   0.0000  -0.4453
  -3.800  -0.1035   0.01796   0.01024  -0.0779  0.8776  0.0492  -1.6379   0.0000   0.0000   0.0000  -0.5168
  -3.700  -0.0924   0.01763   0.00988  -0.0780  0.8756  0.0498  -1.6155   0.0000   0.0000   0.0000  -0.6085
  -3.600  -0.0810   0.01731   0.00954  -0.0780  0.8737  0.0505  -1.5916   0.0000   0.0000   0.0000  -0.7293
  -3.500  -0.0694   0.01701   0.00921  -0.0782  0.8719  0.0512  -1.5656   0.0000   0.0000   0.0000  -0.8947
  -3.400  -0.0575   0.01675   0.00892  -0.0784  0.8702  0.0520  -1.5370   0.0000   0.0000   0.0000  -1.1347
  -3.300  -0.0456   0.01644   0.00859  -0.0786  0.8685  0.0530  -1.5117   0.0000   0.0000   0.0000  -1.4989
  -3.200  -0.0349   0.01584   0.00792  -0.0786  0.8668  0.0572  -1.5116   0.0000   0.0000   0.0000  -2.0390
  -3.100  -0.0230   0.01546   0.00754  -0.0790  0.8652  0.0640  -1.4876   0.0000   0.0000   0.0000  -3.2272
  -3.000  -0.0107   0.01520   0.00728  -0.0793  0.8637  0.0709  -1.4542   0.0000   0.0000   0.0000  -7.2841
  -2.900   0.0019   0.01499   0.00701  -0.0796  0.8622  0.0777  -1.4240   0.0000   0.0000   0.0000  42.2639
  -2.800   0.0108   0.01379   0.00652  -0.0801  0.8605  0.2335  -1.4280   0.0000   0.0000   0.0000   7.7543
  -2.700   0.0149   0.01241   0.00661  -0.0795  0.8587  0.5978  -1.4111   0.0000   0.0000   0.0000   5.6454
  -2.600   0.0249   0.01249   0.00684  -0.0789  0.8568  0.6511  -1.3676   0.0000   0.0000   0.0000   3.4553
  -2.500   0.0337   0.01266   0.00714  -0.0779  0.8547  0.6777  -1.3220   0.0000   0.0000   0.0000   2.5910
  -2.400   0.0442   0.01297   0.00741  -0.0776  0.8519  0.6958  -1.2718   0.0000   0.0000   0.0000   2.0265
  -2.300   0.0513   0.01312   0.00761  -0.0765  0.8498  0.7086  -1.2284   0.0000   0.0000   0.0000   1.7575
  -2.200   0.0571   0.01327   0.00783  -0.0750  0.8480  0.7214  -1.1872   0.0000   0.0000   0.0000   1.5778
  -2.100   0.0633   0.01349   0.00807  -0.0735  0.8459  0.7345  -1.1448   0.0000   0.0000   0.0000   1.4243
  -2.000   0.0705   0.01370   0.00827  -0.0725  0.8434  0.7452  -1.1004   0.0000   0.0000   0.0000   1.2877
  -1.900   0.0778   0.01377   0.00834  -0.0715  0.8408  0.7534  -1.0567   0.0000   0.0000   0.0000   1.1779
  -1.800   0.0840   0.01382   0.00842  -0.0702  0.8381  0.7601  -1.0154   0.0000   0.0000   0.0000   1.0927
  -1.700   0.0916   0.01389   0.00850  -0.0692  0.8354  0.7650  -0.9714   0.0000   0.0000   0.0000   1.0122
  -1.600   0.0985   0.01403   0.00865  -0.0679  0.8329  0.7714  -0.9286   0.0000   0.0000   0.0000   0.9455
  -1.500   0.1054   0.01422   0.00884  -0.0666  0.8305  0.7792  -0.8862   0.0000   0.0000   0.0000   0.8876
  -1.400   0.1130   0.01440   0.00902  -0.0655  0.8282  0.7874  -0.8423   0.0000   0.0000   0.0000   0.8343
  -1.300   0.1221   0.01458   0.00919  -0.0648  0.8262  0.7945  -0.7960   0.0000   0.0000   0.0000   0.7848
  -1.200   0.1324   0.01476   0.00935  -0.0644  0.8242  0.7989  -0.7476   0.0000   0.0000   0.0000   0.7400
  -1.100   0.1409   0.01458   0.00916  -0.0638  0.8223  0.8049  -0.7045   0.0000   0.0000   0.0000   0.7059
  -1.000   0.1508   0.01453   0.00910  -0.0635  0.8206  0.8080  -0.6587   0.0000   0.0000   0.0000   0.6733
  -0.900   0.1619   0.01448   0.00904  -0.0635  0.8189  0.8100  -0.6110   0.0000   0.0000   0.0000   0.6440
  -0.800   0.1732   0.01444   0.00898  -0.0635  0.8173  0.8120  -0.5636   0.0000   0.0000   0.0000   0.6182
  -0.700   0.1847   0.01441   0.00893  -0.0635  0.8158  0.8140  -0.5165   0.0000   0.0000   0.0000   0.5954
  -0.600   0.1962   0.01438   0.00889  -0.0636  0.8142  0.8160  -0.4863   0.0000   0.0000   0.0000   0.5753
  -0.500   0.2079   0.01436   0.00885  -0.0637  0.8127  0.8181  -0.4921   0.0000   0.0000   0.0000   0.5573
  -0.400   0.2195   0.01435   0.00882  -0.0638  0.8112  0.8203  -0.4979   0.0000   0.0000   0.0000   0.5413
  -0.300   0.2308   0.01436   0.00882  -0.0638  0.8096  0.8228  -0.5036   0.0000   0.0000   0.0000   0.5269
  -0.200   0.2421   0.01439   0.00883  -0.0639  0.8079  0.8254  -0.5092   0.0000   0.0000   0.0000   0.5140
  -0.100   0.2530   0.01446   0.00889  -0.0639  0.8061  0.8282  -0.5145   0.0000   0.0000   0.0000   0.5024
   0.000   0.2633   0.01460   0.00902  -0.0638  0.8037  0.8309  -0.5193   0.0000   0.0000   0.0000   0.4922
   0.100   0.2719   0.01487   0.00929  -0.0636  0.8008  0.8336  -0.5229   0.0000   0.0000   0.0000   0.4835
   0.200   0.2809   0.01489   0.00931  -0.0634  0.7996  0.8362  -0.5271   0.0000   0.0000   0.0000   0.4751
   0.300   0.2900   0.01491   0.00933  -0.0632  0.7983  0.8387  -0.5312   0.0000   0.0000   0.0000   0.4673
   0.400   0.2990   0.01492   0.00935  -0.0630  0.7966  0.8410  -0.5354   0.0000   0.0000   0.0000   0.4599
   0.500   0.3082   0.01494   0.00937  -0.0628  0.7947  0.8433  -0.5396   0.0000   0.0000   0.0000   0.4529
   0.600   0.3173   0.01497   0.00939  -0.0626  0.7925  0.8453  -0.5438   0.0000   0.0000   0.0000   0.4464
   0.700   0.3265   0.01499   0.00943  -0.0624  0.7902  0.8472  -0.5481   0.0000   0.0000   0.0000   0.4401
   0.800   0.3360   0.01503   0.00946  -0.0623  0.7878  0.8488  -0.5525   0.0000   0.0000   0.0000   0.4342
   0.900   0.3448   0.01494   0.00938  -0.0620  0.7855  0.8521  -0.5567   0.0000   0.0000   0.0000   0.4286
   1.000   0.3530   0.01489   0.00935  -0.0616  0.7832  0.8553  -0.5605   0.0000   0.0000   0.0000   0.4230
   1.100   0.3611   0.01489   0.00938  -0.0611  0.7811  0.8582  -0.5643   0.0000   0.0000   0.0000   0.4176
   1.200   0.3695   0.01490   0.00940  -0.0606  0.7790  0.8609  -0.5682   0.0000   0.0000   0.0000   0.4123
   1.300   0.3782   0.01491   0.00943  -0.0601  0.7771  0.8636  -0.5723   0.0000   0.0000   0.0000   0.4073
   1.400   0.3873   0.01493   0.00945  -0.0598  0.7752  0.8663  -0.5766   0.0000   0.0000   0.0000   0.4025
   1.500   0.3969   0.01494   0.00946  -0.0595  0.7734  0.8690  -0.5824   0.0000   0.0000   0.0000   0.3980
   1.600   0.4069   0.01495   0.00948  -0.0593  0.7717  0.8717  -0.5890   0.0000   0.0000   0.0000   0.3937
   1.700   0.4173   0.01495   0.00949  -0.0591  0.7700  0.8746  -0.5957   0.0000   0.0000   0.0000   0.3897
   1.800   0.4278   0.01496   0.00950  -0.0590  0.7685  0.8777  -0.6026   0.0000   0.0000   0.0000   0.3859
   1.900   0.4385   0.01497   0.00951  -0.0590  0.7669  0.8809  -0.6096   0.0000   0.0000   0.0000   0.3822
   2.000   0.4495   0.01497   0.00952  -0.0589  0.7655  0.8841  -0.6167   0.0000   0.0000   0.0000   0.3788
   2.100   0.4607   0.01498   0.00953  -0.0590  0.7640  0.8873  -0.6569   0.0000   0.0000   0.0000   0.3756
   2.200   0.4723   0.01499   0.00955  -0.0591  0.7626  0.8903  -0.7127   0.0000   0.0000   0.0000   0.3727
   2.300   0.4843   0.01500   0.00956  -0.0593  0.7611  0.8930  -0.7706   0.0000   0.0000   0.0000   0.3699
   2.400   0.4966   0.01501   0.00957  -0.0595  0.7594  0.8953  -0.8302   0.0000   0.0000   0.0000   0.3673
   2.500   0.5089   0.01504   0.00960  -0.0598  0.7575  0.8974  -0.8908   0.0000   0.0000   0.0000   0.3648
   2.600   0.5208   0.01514   0.00971  -0.0600  0.7550  0.8992  -0.9509   0.0000   0.0000   0.0000   0.3624
   2.700   0.5284   0.01544   0.01001  -0.0596  0.7509  0.9034  -0.9998   0.0000   0.0000   0.0000   0.3599
   2.800   0.5358   0.01533   0.00995  -0.0589  0.7494  0.9076  -1.0492   0.0000   0.0000   0.0000   0.3570
   2.900   0.5426   0.01530   0.00994  -0.0582  0.7476  0.9116  -1.0977   0.0000   0.0000   0.0000   0.3541
   3.000   0.5494   0.01529   0.00997  -0.0574  0.7455  0.9156  -1.1465   0.0000   0.0000   0.0000   0.3513
   3.100   0.5568   0.01527   0.00999  -0.0567  0.7429  0.9196  -1.1978   0.0000   0.0000   0.0000   0.3486
   3.200   0.5645   0.01527   0.01001  -0.0561  0.7400  0.9237  -1.2504   0.0000   0.0000   0.0000   0.3461
   3.300   0.5731   0.01526   0.01003  -0.0557  0.7370  0.9278  -1.3060   0.0000   0.0000   0.0000   0.3438
   3.400   0.5829   0.01522   0.01002  -0.0554  0.7340  0.9317  -1.3658   0.0000   0.0000   0.0000   0.3417
   3.500   0.5952   0.01506   0.00988  -0.0555  0.7305  0.9352  -1.4343   0.0000   0.0000   0.0000   0.3397
   3.600   0.6113   0.01469   0.00952  -0.0561  0.7260  0.9378  -1.5164   0.0000   0.0000   0.0000   0.3381
   3.700   0.6313   0.01413   0.00894  -0.0571  0.7205  0.9395  -1.6128   0.0000   0.0000   0.0000   0.3367
   3.800   0.6524   0.01352   0.00829  -0.0581  0.7139  0.9409  -1.7143   0.0000   0.0000   0.0000   0.3353
   3.900   0.6716   0.01313   0.00783  -0.0590  0.7059  0.9425  -1.8108   0.0000   0.0000   0.0000   0.3340
   4.000   0.6834   0.01307   0.00777  -0.0590  0.6991  0.9453  -1.8829   0.0000   0.0000   0.0000   0.3324
   4.100   0.6910   0.01290   0.00764  -0.0582  0.6943  0.9485  -1.9422   0.0000   0.0000   0.0000   0.3301
   4.200   0.7013   0.01265   0.00742  -0.0579  0.6869  0.9529  -2.0105   0.0000   0.0000   0.0000   0.3284
   4.300   0.7157   0.01228   0.00705  -0.0583  0.6761  0.9576  -2.0933   0.0000   0.0000   0.0000   0.3271
   4.400   0.7329   0.01187   0.00655  -0.0589  0.6621  0.9608  -2.1865   0.0000   0.0000   0.0000   0.3260
   4.500   0.7481   0.01167   0.00627  -0.0595  0.6463  0.9643  -2.2724   0.0000   0.0000   0.0000   0.3250
   4.600   0.7601   0.01152   0.00616  -0.0596  0.6303  0.9688  -2.3463   0.0000   0.0000   0.0000   0.3238
   4.700   0.7741   0.01137   0.00584  -0.0599  0.6045  0.9722  -2.4274   0.0000   0.0000   0.0000   0.3226
   4.800   0.7843   0.01134   0.00573  -0.0597  0.5679  0.9768  -2.4934   0.0000   0.0000   0.0000   0.3213
   4.900   0.7904   0.01155   0.00555  -0.0586  0.4997  0.9822  -2.5448   0.0000   0.0000   0.0000   0.3192
   5.000   0.7886   0.01219   0.00565  -0.0566  0.4018  0.9901  -2.5701   0.0000   0.0000   0.0000   0.3167
   5.100   0.7837   0.01307   0.00602  -0.0543  0.3102  0.9993  -2.5832   0.0000   0.0000   0.0000   0.3141
   5.200   0.7740   0.01331   0.00611  -0.0509  0.2833  1.0000  -2.5836   0.0000   0.0000   0.0000   0.3104
   5.300   0.7656   0.01375   0.00631  -0.0478  0.2428  1.0000  -2.5862   0.0000   0.0000   0.0000   0.3071
   5.400   0.7579   0.01434   0.00660  -0.0450  0.1878  1.0000  -2.5893   0.0000   0.0000   0.0000   0.3039
   5.500   0.7499   0.01493   0.00690  -0.0421  0.1375  1.0000  -2.5902   0.0000   0.0000   0.0000   0.3005
   5.600   0.7429   0.01556   0.00725  -0.0393  0.0908  1.0000  -2.5896   0.0000   0.0000   0.0000   0.2972
   5.700   0.7395   0.01616   0.00764  -0.0372  0.0661  1.0000  -2.5882   0.0000   0.0000   0.0000   0.2944
   5.800   0.7386   0.01670   0.00807  -0.0353  0.0535  1.0000  -2.5801   0.0000   0.0000   0.0000   0.2919
   5.900   0.7388   0.01720   0.00862  -0.0336  0.0469  1.0000  -2.5619   0.0000   0.0000   0.0000   0.2894
   6.000   0.7433   0.01750   0.00896  -0.0326  0.0449  1.0000  -2.5819   0.0000   0.0000   0.0000   0.2878
   6.100   0.7472   0.01783   0.00933  -0.0316  0.0430  1.0000  -2.5971   0.0000   0.0000   0.0000   0.2860
   6.200   0.7501   0.01818   0.00973  -0.0304  0.0414  1.0000  -2.6108   0.0000   0.0000   0.0000   0.2841
   6.300   0.7527   0.01855   0.01013  -0.0291  0.0401  1.0000  -2.6250   0.0000   0.0000   0.0000   0.2823
   6.400   0.7558   0.01892   0.01054  -0.0280  0.0390  1.0000  -2.6408   0.0000   0.0000   0.0000   0.2805
   6.500   0.7591   0.01931   0.01096  -0.0269  0.0381  1.0000  -2.6581   0.0000   0.0000   0.0000   0.2787
   6.600   0.7625   0.01970   0.01139  -0.0258  0.0374  1.0000  -2.6761   0.0000   0.0000   0.0000   0.2771
   6.700   0.7661   0.02012   0.01183  -0.0248  0.0367  1.0000  -2.6951   0.0000   0.0000   0.0000   0.2755
   6.800   0.7704   0.02053   0.01227  -0.0238  0.0361  1.0000  -2.7156   0.0000   0.0000   0.0000   0.2740
   6.900   0.7752   0.02095   0.01272  -0.0230  0.0356  1.0000  -2.7373   0.0000   0.0000   0.0000   0.2726
   7.000   0.7805   0.02139   0.01318  -0.0222  0.0352  1.0000  -2.7602   0.0000   0.0000   0.0000   0.2712
   7.100   0.7866   0.02184   0.01366  -0.0215  0.0349  1.0000  -2.7843   0.0000   0.0000   0.0000   0.2701
   7.200   0.7977   0.02311   0.01540  -0.0210  0.0344  1.0000  -2.7626   0.0000   0.0000   0.0000   0.2689
   7.300   0.8119   0.02387   0.01624  -0.0213  0.0344  1.0000  -2.7916   0.0000   0.0000   0.0000   0.2688
   7.400   0.8286   0.02464   0.01708  -0.0221  0.0345  1.0000  -2.8292   0.0000   0.0000   0.0000   0.2691
   7.500   0.8483   0.02551   0.01803  -0.0233  0.0347  1.0000  -2.8724   0.0000   0.0000   0.0000   0.2698
   7.600   0.8620   0.02615   0.01871  -0.0238  0.0341  1.0000  -2.9238   0.0000   0.0000   0.0000   0.2699
   7.700   0.8668   0.02643   0.01900  -0.0231  0.0323  1.0000  -2.9880   0.0000   0.0000   0.0000   0.2688
   7.800   0.8737   0.02681   0.01938  -0.0227  0.0311  1.0000  -3.0485   0.0000   0.0000   0.0000   0.2681
   7.900   0.8811   0.02723   0.01980  -0.0224  0.0300  1.0000  -3.1095   0.0000   0.0000   0.0000   0.2674
   8.000   0.8896   0.02775   0.02032  -0.0223  0.0288  1.0000  -3.1712   0.0000   0.0000   0.0000   0.2670
   8.100   0.9008   0.02850   0.02108  -0.0227  0.0275  1.0000  -3.2325   0.0000   0.0000   0.0000   0.2669
   8.200   0.9184   0.02990   0.02255  -0.0241  0.0259  1.0000  -3.2876   0.0000   0.0000   0.0000   0.2679
   8.300   0.9472   0.03271   0.02555  -0.0277  0.0245  1.0000  -3.3242   0.0000   0.0000   0.0000   0.2708
   8.400   0.9608   0.03426   0.02722  -0.0285  0.0242  1.0000  -3.3530   0.0000   0.0000   0.0000   0.2711
   8.500   0.9696   0.03539   0.02845  -0.0284  0.0241  1.0000  -3.3809   0.0000   0.0000   0.0000   0.2707
   8.600   0.9771   0.03652   0.02967  -0.0281  0.0240  1.0000  -3.4055   0.0000   0.0000   0.0000   0.2701
   8.700   0.9835   0.03766   0.03090  -0.0277  0.0239  1.0000  -3.4272   0.0000   0.0000   0.0000   0.2694
   8.800   0.9889   0.03880   0.03214  -0.0271  0.0238  1.0000  -3.4460   0.0000   0.0000   0.0000   0.2685
   8.900   0.9932   0.03995   0.03339  -0.0264  0.0238  1.0000  -3.4621   0.0000   0.0000   0.0000   0.2676
   9.000   0.9966   0.04110   0.03465  -0.0256  0.0237  1.0000  -3.4755   0.0000   0.0000   0.0000   0.2666
   9.100   0.9991   0.04226   0.03590  -0.0247  0.0236  1.0000  -3.4863   0.0000   0.0000   0.0000   0.2655
   9.200   1.0005   0.04341   0.03715  -0.0236  0.0236  1.0000  -3.4944   0.0000   0.0000   0.0000   0.2643
   9.300   1.0006   0.04452   0.03836  -0.0223  0.0235  1.0000  -3.4999   0.0000   0.0000   0.0000   0.2629
   9.400   0.9996   0.04559   0.03951  -0.0209  0.0235  1.0000  -3.5029   0.0000   0.0000   0.0000   0.2614
   9.500   0.9977   0.04663   0.04064  -0.0194  0.0234  1.0000  -3.5041   0.0000   0.0000   0.0000   0.2598
   9.600   0.9951   0.04766   0.04176  -0.0178  0.0234  1.0000  -3.5036   0.0000   0.0000   0.0000   0.2581
   9.700   0.9920   0.04870   0.04288  -0.0161  0.0233  1.0000  -3.5017   0.0000   0.0000   0.0000   0.2564
   9.800   0.9884   0.04975   0.04401  -0.0145  0.0233  1.0000  -3.4985   0.0000   0.0000   0.0000   0.2547
   9.900   0.9845   0.05081   0.04516  -0.0129  0.0233  1.0000  -3.4940   0.0000   0.0000   0.0000   0.2531
  10.000   0.9799   0.05185   0.04628  -0.0113  0.0232  1.0000  -3.4884   0.0000   0.0000   0.0000   0.2513
  10.100   0.9748   0.05290   0.04740  -0.0097  0.0232  1.0000  -3.4818   0.0000   0.0000   0.0000   0.2496
  10.200   0.9696   0.05397   0.04855  -0.0081  0.0232  1.0000  -3.4742   0.0000   0.0000   0.0000   0.2480
  10.300   0.9642   0.05505   0.04970  -0.0066  0.0231  1.0000  -3.4659   0.0000   0.0000   0.0000   0.2464
  10.400   0.9584   0.05613   0.05086  -0.0052  0.0231  1.0000  -3.4568   0.0000   0.0000   0.0000   0.2448
  10.500   0.9523   0.05721   0.05202  -0.0038  0.0231  1.0000  -3.4472   0.0000   0.0000   0.0000   0.2432
  10.600   0.9461   0.05833   0.05320  -0.0025  0.0231  1.0000  -3.4368   0.0000   0.0000   0.0000   0.2417
  10.700   0.9398   0.05948   0.05443  -0.0012  0.0230  1.0000  -3.4259   0.0000   0.0000   0.0000   0.2403
  10.800   0.9332   0.06063   0.05565  -0.0001  0.0230  1.0000  -3.4146   0.0000   0.0000   0.0000   0.2390
  10.900   0.9265   0.06179   0.05687   0.0010  0.0230  1.0000  -3.4030   0.0000   0.0000   0.0000   0.2377
  11.000   0.9198   0.06299   0.05814   0.0020  0.0230  1.0000  -3.3909   0.0000   0.0000   0.0000   0.2365
  11.100   0.9130   0.06422   0.05943   0.0028  0.0230  1.0000  -3.3784   0.0000   0.0000   0.0000   0.2354
  11.200   0.9060   0.06545   0.06073   0.0036  0.0230  1.0000  -3.3659   0.0000   0.0000   0.0000   0.2343
  11.300   0.8991   0.06673   0.06206   0.0043  0.0230  1.0000  -3.3531   0.0000   0.0000   0.0000   0.2334
  11.400   0.8922   0.06805   0.06344   0.0049  0.0230  1.0000  -3.3397   0.0000   0.0000   0.0000   0.2325
  11.500   0.8852   0.06939   0.06483   0.0055  0.0230  1.0000  -3.3264   0.0000   0.0000   0.0000   0.2317
  11.600   0.8782   0.07074   0.06625   0.0059  0.0230  1.0000  -3.3130   0.0000   0.0000   0.0000   0.2311
  11.700   0.8713   0.07214   0.06770   0.0062  0.0230  1.0000  -3.2991   0.0000   0.0000   0.0000   0.2305
  11.800   0.8644   0.07358   0.06919   0.0064  0.0230  1.0000  -3.2849   0.0000   0.0000   0.0000   0.2301
  11.900   0.8574   0.07504   0.07070   0.0065  0.0230  1.0000  -3.2709   0.0000   0.0000   0.0000   0.2297
  12.000   0.8506   0.07655   0.07227   0.0065  0.0230  1.0000  -3.2563   0.0000   0.0000   0.0000   0.2295
  12.100   0.8440   0.07812   0.07389   0.0064  0.0230  1.0000  -3.2412   0.0000   0.0000   0.0000   0.2294
  12.200   0.8373   0.07971   0.07552   0.0062  0.0230  1.0000  -3.2263   0.0000   0.0000   0.0000   0.2294
  12.300   0.8307   0.08135   0.07720   0.0059  0.0230  1.0000  -3.2110   0.0000   0.0000   0.0000   0.2295
  12.400   0.8243   0.08305   0.07895   0.0055  0.0231  1.0000  -3.1948   0.0000   0.0000   0.0000   0.2298
  12.500   0.8179   0.08478   0.08072   0.0051  0.0231  1.0000  -3.1787   0.0000   0.0000   0.0000   0.2302
  12.600   0.8116   0.08655   0.08253   0.0045  0.0231  1.0000  -3.1622   0.0000   0.0000   0.0000   0.2307
  12.700   0.8056   0.08838   0.08441   0.0038  0.0231  1.0000  -3.1447   0.0000   0.0000   0.0000   0.2313
  12.800   0.7997   0.09026   0.08632   0.0030  0.0232  1.0000  -3.1269   0.0000   0.0000   0.0000   0.2321
  12.900   0.7938   0.09217   0.08827   0.0022  0.0232  1.0000  -3.1086   0.0000   0.0000   0.0000   0.2330
  13.000   0.7882   0.09417   0.09030   0.0012  0.0232  1.0000  -3.0891   0.0000   0.0000   0.0000   0.2341
  13.100   0.7828   0.09622   0.09239   0.0002  0.0233  1.0000  -3.0688   0.0000   0.0000   0.0000   0.2352
  13.200   0.7775   0.09834   0.09454  -0.0010  0.0233  1.0000  -3.0478   0.0000   0.0000   0.0000   0.2366
  13.300   0.7726   0.10053   0.09676  -0.0021  0.0234  1.0000  -3.0252   0.0000   0.0000   0.0000   0.2380
  13.400   0.7677   0.10279   0.09905  -0.0034  0.0234  1.0000  -3.0016   0.0000   0.0000   0.0000   0.2395
  13.500   0.7632   0.10512   0.10140  -0.0048  0.0235  1.0000  -2.9764   0.0000   0.0000   0.0000   0.2412
  13.600   0.7591   0.10752   0.10383  -0.0062  0.0235  1.0000  -2.9494   0.0000   0.0000   0.0000   0.2430
  13.700   0.7551   0.11000   0.10633  -0.0077  0.0236  1.0000  -2.9207   0.0000   0.0000   0.0000   0.2449
  13.800   0.7516   0.11255   0.10891  -0.0092  0.0237  1.0000  -2.8897   0.0000   0.0000   0.0000   0.2469
  13.900   0.7484   0.11518   0.11155  -0.0108  0.0238  1.0000  -2.8566   0.0000   0.0000   0.0000   0.2489
  14.000   0.7455   0.11787   0.11426  -0.0123  0.0238  1.0000  -2.8210   0.0000   0.0000   0.0000   0.2510
  14.100   0.7431   0.12063   0.11702  -0.0139  0.0239  1.0000  -2.7830   0.0000   0.0000   0.0000   0.2531
  14.200   0.7410   0.12344   0.11984  -0.0155  0.0240  1.0000  -2.7422   0.0000   0.0000   0.0000   0.2552
  14.300   0.7394   0.12629   0.12270  -0.0170  0.0241  1.0000  -2.6989   0.0000   0.0000   0.0000   0.2572
  14.400   0.7382   0.12915   0.12555  -0.0185  0.0242  1.0000  -2.6544   0.0000   0.0000   0.0000   0.2592
  14.500   0.7371   0.13190   0.12831  -0.0198  0.0242  1.0000  -2.6118   0.0000   0.0000   0.0000   0.2611
  14.600   0.7360   0.13457   0.13097  -0.0211  0.0243  1.0000  -2.5716   0.0000   0.0000   0.0000   0.2628
  14.700   0.7351   0.13716   0.13355  -0.0224  0.0243  1.0000  -2.5333   0.0000   0.0000   0.0000   0.2645
  15.900   0.7368   0.16403   0.16035  -0.0348  0.0249  1.0000  -2.2156   0.0000   0.0000   0.0000   0.2802
  16.000   0.7378   0.16607   0.16239  -0.0358  0.0250  1.0000  -2.1934   0.0000   0.0000   0.0000   0.2813
  16.100   0.7386   0.16813   0.16444  -0.0367  0.0252  1.0000  -2.1701   0.0000   0.0000   0.0000   0.2824
  16.200   0.7395   0.17018   0.16648  -0.0376  0.0252  1.0000  -2.1476   0.0000   0.0000   0.0000   0.2835
  16.300   0.7404   0.17220   0.16850  -0.0385  0.0253  1.0000  -2.1271   0.0000   0.0000   0.0000   0.2845
  16.400   0.7414   0.17419   0.17049  -0.0393  0.0253  1.0000  -2.1090   0.0000   0.0000   0.0000   0.2855
  16.900   0.7462   0.18459   0.18090  -0.0435  0.0247  1.0000  -2.0390   0.0000   0.0000   0.0000   0.2902
  17.000   0.7473   0.18661   0.18291  -0.0443  0.0246  1.0000  -2.0246   0.0000   0.0000   0.0000   0.2911
  17.100   0.7485   0.18867   0.18497  -0.0451  0.0244  1.0000  -2.0087   0.0000   0.0000   0.0000   0.2920
  17.200   0.7495   0.19080   0.18710  -0.0460  0.0243  1.0000  -1.9904   0.0000   0.0000   0.0000   0.2929
  17.300   0.7503   0.19304   0.18932  -0.0468  0.0241  1.0000  -1.9680   0.0000   0.0000   0.0000   0.2939
  17.400   0.7509   0.19543   0.19172  -0.0477  0.0239  1.0000  -1.9394   0.0000   0.0000   0.0000   0.2949
  17.500   0.7511   0.19811   0.19438  -0.0487  0.0237  1.0000  -1.9000   0.0000   0.0000   0.0000   0.2961
  17.600   0.7501   0.20137   0.19764  -0.0499  0.0234  1.0000  -1.8378   0.0000   0.0000   0.0000   0.2977
  17.700   0.7469   0.20603   0.20228  -0.0514  0.0230  1.0000  -1.7216   0.0000   0.0000   0.0000   0.3000
  18.200   0.7563   0.21536   0.21154  -0.0551  0.0229  1.0000  -1.6697   0.0000   0.0000   0.0000   0.3034
  18.300   0.7584   0.21708   0.21325  -0.0558  0.0229  1.0000  -1.6641   0.0000   0.0000   0.0000   0.3040
  18.400   0.7605   0.21878   0.21495  -0.0565  0.0229  1.0000  -1.6587   0.0000   0.0000   0.0000   0.3046
  18.500   0.7627   0.22046   0.21663  -0.0572  0.0229  1.0000  -1.6535   0.0000   0.0000   0.0000   0.3051
  18.600   0.7648   0.22214   0.21830  -0.0578  0.0229  1.0000  -1.6484   0.0000   0.0000   0.0000   0.3057
  18.700   0.7669   0.22380   0.21995  -0.0585  0.0229  1.0000  -1.6435   0.0000   0.0000   0.0000   0.3062
  18.800   0.7691   0.22544   0.22159  -0.0592  0.0229  1.0000  -1.6388   0.0000   0.0000   0.0000   0.3068
  18.900   0.7712   0.22707   0.22322  -0.0599  0.0229  1.0000  -1.6342   0.0000   0.0000   0.0000   0.3073
  19.000   0.7734   0.22868   0.22483  -0.0606  0.0229  1.0000  -1.6298   0.0000   0.0000   0.0000   0.3078
  19.100   0.7755   0.23027   0.22642  -0.0612  0.0229  1.0000  -1.6255   0.0000   0.0000   0.0000   0.3083
  19.200   0.7777   0.23182   0.22796  -0.0619  0.0228  1.0000  -1.6214   0.0000   0.0000   0.0000   0.3088
  19.300   0.7798   0.23333   0.22947  -0.0625  0.0228  1.0000  -1.6175   0.0000   0.0000   0.0000   0.3092
  19.400   0.7819   0.23480   0.23094  -0.0632  0.0228  1.0000  -1.6138   0.0000   0.0000   0.0000   0.3097
  19.500   0.7841   0.23625   0.23238  -0.0638  0.0228  1.0000  -1.6102   0.0000   0.0000   0.0000   0.3102
  19.600   0.7862   0.23767   0.23380  -0.0645  0.0228  1.0000  -1.6067   0.0000   0.0000   0.0000   0.3106
  19.700   0.7883   0.23907   0.23520  -0.0651  0.0228  1.0000  -1.6034   0.0000   0.0000   0.0000   0.3110
  19.800   0.7904   0.24045   0.23657  -0.0657  0.0228  1.0000  -1.6003   0.0000   0.0000   0.0000   0.3115
  19.900   0.7925   0.24180   0.23792  -0.0663  0.0228  1.0000  -1.5972   0.0000   0.0000   0.0000   0.3119
  20.000   0.7946   0.24314   0.23925  -0.0670  0.0227  1.0000  -1.5943   0.0000   0.0000   0.0000   0.3123
  20.100   0.7967   0.24446   0.24057  -0.0676  0.0227  1.0000  -1.5915   0.0000   0.0000   0.0000   0.3127
  20.200   0.7988   0.24576   0.24187  -0.0682  0.0227  1.0000  -1.5889   0.0000   0.0000   0.0000   0.3131
  20.300   0.8009   0.24705   0.24316  -0.0688  0.0227  1.0000  -1.5864   0.0000   0.0000   0.0000   0.3135
  20.400   0.8029   0.24831   0.24442  -0.0694  0.0227  1.0000  -1.5840   0.0000   0.0000   0.0000   0.3139
  20.500   0.8050   0.24955   0.24566  -0.0701  0.0226  1.0000  -1.5818   0.0000   0.0000   0.0000   0.3143
  20.600   0.8071   0.25078   0.24688  -0.0707  0.0226  1.0000  -1.5797   0.0000   0.0000   0.0000   0.3146
  20.700   0.8091   0.25198   0.24808  -0.0713  0.0226  1.0000  -1.5779   0.0000   0.0000   0.0000   0.3150
  20.800   0.8112   0.25316   0.24926  -0.0719  0.0225  1.0000  -1.5762   0.0000   0.0000   0.0000   0.3154
  20.900   0.8132   0.25431   0.25040  -0.0725  0.0225  1.0000  -1.5746   0.0000   0.0000   0.0000   0.3158
  21.000   0.8152   0.25542   0.25151  -0.0731  0.0224  1.0000  -1.5732   0.0000   0.0000   0.0000   0.3161
  21.100   0.8172   0.25650   0.25258  -0.0737  0.0224  1.0000  -1.5720   0.0000   0.0000   0.0000   0.3165
  21.200   0.8192   0.25754   0.25362  -0.0744  0.0223  1.0000  -1.5712   0.0000   0.0000   0.0000   0.3168
  21.300   0.8211   0.25853   0.25461  -0.0750  0.0223  1.0000  -1.5705   0.0000   0.0000   0.0000   0.3172
  21.400   0.8231   0.25945   0.25553  -0.0756  0.0222  1.0000  -1.5699   0.0000   0.0000   0.0000   0.3175
  21.500   0.8250   0.26032   0.25639  -0.0762  0.0221  1.0000  -1.5696   0.0000   0.0000   0.0000   0.3179
  21.600   0.8269   0.26113   0.25720  -0.0768  0.0220  1.0000  -1.5697   0.0000   0.0000   0.0000   0.3182
  21.700   0.8287   0.26185   0.25792  -0.0774  0.0218  1.0000  -1.5694   0.0000   0.0000   0.0000   0.3186
  21.800   0.8304   0.26249   0.25856  -0.0780  0.0217  1.0000  -1.5684   0.0000   0.0000   0.0000   0.3189
  21.900   0.8317   0.26300   0.25906  -0.0787  0.0215  1.0000  -1.5630   0.0000   0.0000   0.0000   0.3194
  22.000   0.8330   0.26352   0.25958  -0.0793  0.0213  1.0000  -1.5569   0.0000   0.0000   0.0000   0.3198
  22.100   0.8344   0.26409   0.26015  -0.0800  0.0211  1.0000  -1.5506   0.0000   0.0000   0.0000   0.3203
  22.200   0.8359   0.26475   0.26080  -0.0807  0.0208  1.0000  -1.5441   0.0000   0.0000   0.0000   0.3207
  22.300   0.8376   0.26550   0.26155  -0.0813  0.0206  1.0000  -1.5375   0.0000   0.0000   0.0000   0.3212
  22.400   0.8393   0.26635   0.26240  -0.0820  0.0203  1.0000  -1.5311   0.0000   0.0000   0.0000   0.3216
  22.500   0.8412   0.26729   0.26334  -0.0826  0.0200  1.0000  -1.5251   0.0000   0.0000   0.0000   0.3219
  22.600   0.8431   0.26830   0.26435  -0.0833  0.0197  1.0000  -1.5195   0.0000   0.0000   0.0000   0.3223
  22.700   0.8450   0.26937   0.26542  -0.0839  0.0195  1.0000  -1.5146   0.0000   0.0000   0.0000   0.3227
  22.800   0.8470   0.27049   0.26653  -0.0845  0.0192  1.0000  -1.5103   0.0000   0.0000   0.0000   0.3230
  22.900   0.8491   0.27164   0.26768  -0.0852  0.0190  1.0000  -1.5067   0.0000   0.0000   0.0000   0.3233
  23.000   0.8511   0.27282   0.26886  -0.0858  0.0187  1.0000  -1.5036   0.0000   0.0000   0.0000   0.3236
  23.100   0.8532   0.27402   0.27006  -0.0864  0.0185  1.0000  -1.5010   0.0000   0.0000   0.0000   0.3239
  23.200   0.8553   0.27523   0.27127  -0.0870  0.0183  1.0000  -1.4988   0.0000   0.0000   0.0000   0.3242
  23.300   0.8574   0.27645   0.27249  -0.0876  0.0181  1.0000  -1.4971   0.0000   0.0000   0.0000   0.3245
  23.400   0.8594   0.27768   0.27371  -0.0882  0.0178  1.0000  -1.4957   0.0000   0.0000   0.0000   0.3248
  23.500   0.8615   0.27891   0.27494  -0.0888  0.0176  1.0000  -1.4947   0.0000   0.0000   0.0000   0.3250
  23.600   0.8636   0.28015   0.27618  -0.0894  0.0174  1.0000  -1.4940   0.0000   0.0000   0.0000   0.3253
  23.700   0.8657   0.28139   0.27743  -0.0901  0.0172  1.0000  -1.4936   0.0000   0.0000   0.0000   0.3256
  23.800   0.8678   0.28263   0.27867  -0.0907  0.0171  1.0000  -1.4934   0.0000   0.0000   0.0000   0.3258
  23.900   0.8698   0.28388   0.27992  -0.0913  0.0169  1.0000  -1.4934   0.0000   0.0000   0.0000   0.3261
  24.000   0.8719   0.28513   0.28117  -0.0919  0.0167  1.0000  -1.4937   0.0000   0.0000   0.0000   0.3263
  24.100   0.8740   0.28638   0.28242  -0.0925  0.0165  1.0000  -1.4941   0.0000   0.0000   0.0000   0.3266
  24.200   0.8760   0.28763   0.28367  -0.0931  0.0164  1.0000  -1.4948   0.0000   0.0000   0.0000   0.3268
  24.300   0.8781   0.28888   0.28492  -0.0937  0.0162  1.0000  -1.4956   0.0000   0.0000   0.0000   0.3271
  24.400   0.8801   0.29013   0.28617  -0.0943  0.0160  1.0000  -1.4965   0.0000   0.0000   0.0000   0.3273
  24.500   0.8822   0.29134   0.28738  -0.0949  0.0157  1.0000  -1.5007   0.0000   0.0000   0.0000   0.3275
  24.600   0.8843   0.29254   0.28858  -0.0955  0.0154  1.0000  -1.5057   0.0000   0.0000   0.0000   0.3278
  24.700   0.8863   0.29374   0.28978  -0.0961  0.0151  1.0000  -1.5115   0.0000   0.0000   0.0000   0.3280
  24.800   0.8884   0.29493   0.29098  -0.0966  0.0148  1.0000  -1.5181   0.0000   0.0000   0.0000   0.3282
  24.900   0.8905   0.29613   0.29217  -0.0972  0.0146  1.0000  -1.5256   0.0000   0.0000   0.0000   0.3284
  25.000   0.8926   0.29732   0.29337  -0.0978  0.0143  1.0000  -1.5338   0.0000   0.0000   0.0000   0.3286
  25.100   0.8947   0.29851   0.29456  -0.0984  0.0140  1.0000  -1.5430   0.0000   0.0000   0.0000   0.3288
  25.200   0.8968   0.29970   0.29575  -0.0990  0.0138  1.0000  -1.5532   0.0000   0.0000   0.0000   0.3289
  25.300   0.8989   0.30089   0.29693  -0.0996  0.0136  1.0000  -1.5644   0.0000   0.0000   0.0000   0.3291
  25.400   0.9009   0.30209   0.29822  -0.1002  0.0134  1.0000  -1.5720   0.0000   0.0000   0.0000   0.3293
  25.500   0.9030   0.30330   0.29943  -0.1007  0.0132  1.0000  -1.5844   0.0000   0.0000   0.0000   0.3294
  25.600   0.9052   0.30450   0.30064  -0.1013  0.0130  1.0000  -1.5983   0.0000   0.0000   0.0000   0.3296
  25.700   0.9074   0.30571   0.30185  -0.1019  0.0128  1.0000  -1.6137   0.0000   0.0000   0.0000   0.3297
  25.800   0.9096   0.30694   0.30308  -0.1024  0.0126  1.0000  -1.6308   0.0000   0.0000   0.0000   0.3298
  25.900   0.9118   0.30820   0.30435  -0.1030  0.0124  1.0000  -1.6496   0.0000   0.0000   0.0000   0.3299
  26.000   0.9141   0.30950   0.30565  -0.1035  0.0123  1.0000  -1.6706   0.0000   0.0000   0.0000   0.3299
  26.100   0.9166   0.31086   0.30701  -0.1040  0.0121  1.0000  -1.6938   0.0000   0.0000   0.0000   0.3300
  26.200   0.9191   0.31232   0.30847  -0.1045  0.0119  1.0000  -1.7196   0.0000   0.0000   0.0000   0.3300
  26.300   0.9219   0.31393   0.31009  -0.1050  0.0118  1.0000  -1.7483   0.0000   0.0000   0.0000   0.3299
  26.400   0.9249   0.31579   0.31196  -0.1055  0.0116  1.0000  -1.7806   0.0000   0.0000   0.0000   0.3298
  26.500   0.9285   0.31816   0.31434  -0.1059  0.0114  1.0000  -1.8179   0.0000   0.0000   0.0000   0.3296
  26.600   0.9336   0.32222   0.31840  -0.1062  0.0112  1.0000  -1.8653   0.0000   0.0000   0.0000   0.3291
  26.700   0.9365   0.33191   0.32806  -0.1071  0.0107  1.0000  -1.7541   0.0000   0.0000   0.0000   0.3298
  26.800   0.9377   0.33275   0.32890  -0.1078  0.0107  1.0000  -1.7485   0.0000   0.0000   0.0000   0.3301
  26.900   0.9389   0.33353   0.32968  -0.1084  0.0106  1.0000  -1.7427   0.0000   0.0000   0.0000   0.3304
  27.000   0.9400   0.33428   0.33043  -0.1090  0.0106  1.0000  -1.7371   0.0000   0.0000   0.0000   0.3307
  27.100   0.9412   0.33501   0.33116  -0.1097  0.0106  1.0000  -1.7317   0.0000   0.0000   0.0000   0.3310
  27.200   0.9424   0.33571   0.33187  -0.1103  0.0106  1.0000  -1.7265   0.0000   0.0000   0.0000   0.3313
  27.300   0.9435   0.33639   0.33254  -0.1109  0.0106  1.0000  -1.7216   0.0000   0.0000   0.0000   0.3316
  27.400   0.9445   0.33692   0.33307  -0.1116  0.0105  1.0000  -1.7152   0.0000   0.0000   0.0000   0.3319
  27.500   0.9455   0.33742   0.33357  -0.1122  0.0105  1.0000  -1.7090   0.0000   0.0000   0.0000   0.3322
  27.600   0.9465   0.33787   0.33402  -0.1129  0.0104  1.0000  -1.7029   0.0000   0.0000   0.0000   0.3325
  27.700   0.9473   0.33820   0.33435  -0.1135  0.0104  1.0000  -1.6948   0.0000   0.0000   0.0000   0.3329
  27.800   0.9479   0.33833   0.33448  -0.1142  0.0103  1.0000  -1.6826   0.0000   0.0000   0.0000   0.3333
  27.900   0.9485   0.33845   0.33460  -0.1149  0.0102  1.0000  -1.6699   0.0000   0.0000   0.0000   0.3337
  28.000   0.9492   0.33860   0.33474  -0.1156  0.0101  1.0000  -1.6566   0.0000   0.0000   0.0000   0.3341
  28.100   0.9501   0.33882   0.33497  -0.1162  0.0100  1.0000  -1.6426   0.0000   0.0000   0.0000   0.3344
  28.200   0.9512   0.33921   0.33535  -0.1169  0.0098  1.0000  -1.6281   0.0000   0.0000   0.0000   0.3347
  28.300   0.9525   0.33981   0.33596  -0.1176  0.0097  1.0000  -1.6142   0.0000   0.0000   0.0000   0.3350
  28.400   0.9540   0.34063   0.33678  -0.1182  0.0095  1.0000  -1.6020   0.0000   0.0000   0.0000   0.3353
  28.500   0.9556   0.34162   0.33777  -0.1188  0.0093  1.0000  -1.5924   0.0000   0.0000   0.0000   0.3355
  28.600   0.9573   0.34271   0.33886  -0.1194  0.0091  1.0000  -1.5851   0.0000   0.0000   0.0000   0.3357
  28.700   0.9590   0.34385   0.34001  -0.1200  0.0089  1.0000  -1.5799   0.0000   0.0000   0.0000   0.3359
  28.800   0.9607   0.34504   0.34120  -0.1206  0.0088  1.0000  -1.5763   0.0000   0.0000   0.0000   0.3360
  28.900   0.9623   0.34623   0.34240  -0.1212  0.0086  1.0000  -1.5739   0.0000   0.0000   0.0000   0.3362
  29.000   0.9640   0.34744   0.34361  -0.1218  0.0085  1.0000  -1.5727   0.0000   0.0000   0.0000   0.3364
  29.100   0.9656   0.34865   0.34482  -0.1224  0.0083  1.0000  -1.5723   0.0000   0.0000   0.0000   0.3365
  29.200   0.9672   0.34986   0.34604  -0.1230  0.0082  1.0000  -1.5726   0.0000   0.0000   0.0000   0.3367
  29.300   0.9688   0.35107   0.34725  -0.1236  0.0080  1.0000  -1.5736   0.0000   0.0000   0.0000   0.3369
  29.400   0.9704   0.35228   0.34846  -0.1242  0.0079  1.0000  -1.5752   0.0000   0.0000   0.0000   0.3370
  29.500   0.9720   0.35349   0.34967  -0.1248  0.0078  1.0000  -1.5773   0.0000   0.0000   0.0000   0.3372
  29.600   0.9736   0.35469   0.35088  -0.1254  0.0077  1.0000  -1.5800   0.0000   0.0000   0.0000   0.3373
  29.700   0.9751   0.35589   0.35208  -0.1260  0.0076  1.0000  -1.5831   0.0000   0.0000   0.0000   0.3375
  29.800   0.9766   0.35708   0.35328  -0.1266  0.0075  1.0000  -1.5868   0.0000   0.0000   0.0000   0.3376
  29.900   0.9781   0.35827   0.35447  -0.1271  0.0074  1.0000  -1.5910   0.0000   0.0000   0.0000   0.3378
  30.000   0.9796   0.35946   0.35566  -0.1277  0.0073  1.0000  -1.5957   0.0000   0.0000   0.0000   0.3379


