xflr5 v6.61

 Calculated polar for: NACA M19 AIRFOIL

 1 1 Reynolds number fixed          Mach number fixed         

 xtrf =   1.000 (top)        1.000 (bottom)
 Mach =   0.000     Re =     0.450 e 6     Ncrit =   9.000

  alpha     CL        CD       CDp       Cm    Top Xtr Bot Xtr   Cpmin    Chinge    XCp    
 ------- -------- --------- --------- -------- ------- ------- -------- --------- ---------
  -5.300  -0.2131   0.07346   0.06733  -0.0174  0.0491  0.0208  -1.1486   0.0000   0.0000   0.0000   0.1674
  -5.200  -0.1913   0.07452   0.06856  -0.0202  0.0496  0.0235  -1.1031   0.0000   0.0000   0.0000   0.1430
  -5.100  -0.1775   0.07393   0.06795  -0.0221  0.0498  0.0239  -1.0835   0.0000   0.0000   0.0000   0.1236
  -5.000  -0.1659   0.07287   0.06687  -0.0237  0.0498  0.0241  -1.0706   0.0000   0.0000   0.0000   0.1052
  -4.900  -0.1551   0.07165   0.06563  -0.0251  0.0498  0.0243  -1.0601   0.0000   0.0000   0.0000   0.0859
  -4.800  -0.1446   0.07032   0.06428  -0.0264  0.0499  0.0244  -1.0489   0.0000   0.0000   0.0000   0.0654
  -4.700  -0.1342   0.06893   0.06287  -0.0275  0.0499  0.0244  -1.0381   0.0000   0.0000   0.0000   0.0422
  -4.600  -0.1236   0.06752   0.06142  -0.0287  0.0500  0.0245  -1.0279   0.0000   0.0000   0.0000   0.0149
  -4.500  -0.1136   0.06582   0.05969  -0.0298  0.0499  0.0245  -1.0243   0.0000   0.0000   0.0000  -0.0158
  -4.400  -0.1035   0.06408   0.05791  -0.0309  0.0499  0.0245  -1.0216   0.0000   0.0000   0.0000  -0.0528
  -4.300  -0.0931   0.06233   0.05612  -0.0320  0.0498  0.0244  -1.0191   0.0000   0.0000   0.0000  -0.0984
  -4.200  -0.0826   0.06057   0.05431  -0.0331  0.0497  0.0244  -1.0171   0.0000   0.0000   0.0000  -0.1563
  -4.100  -0.0719   0.05879   0.05248  -0.0342  0.0497  0.0244  -1.0159   0.0000   0.0000   0.0000  -0.2316
  -4.000  -0.0612   0.05699   0.05062  -0.0352  0.0496  0.0243  -1.0158   0.0000   0.0000   0.0000  -0.3322
  -3.900  -0.0505   0.05513   0.04870  -0.0362  0.0494  0.0242  -1.0177   0.0000   0.0000   0.0000  -0.4757
  -3.800  -0.0397   0.05318   0.04666  -0.0372  0.0492  0.0241  -1.0235   0.0000   0.0000   0.0000  -0.6976
  -3.700  -0.0291   0.05099   0.04431  -0.0382  0.0488  0.0239  -1.0391   0.0000   0.0000   0.0000  -1.0795
  -3.600  -0.0193   0.04858   0.04174  -0.0393  0.0475  0.0231  -1.0809   0.0000   0.0000   0.0000  -1.8129
  -3.300   0.0294   0.04560   0.03846  -0.0414  0.0478  0.0250  -1.1366   0.0000   0.0000   0.0000   1.6780
  -2.900   0.0636   0.03683   0.02946  -0.0444  0.0478  0.0293  -1.0735   0.0000   0.0000   0.0000   0.9572
  -2.800   0.0732   0.03609   0.02893  -0.0447  0.0491  0.0297  -1.0426   0.0000   0.0000   0.0000   0.8688
  -2.700   0.0834   0.03549   0.02840  -0.0451  0.0499  0.0299  -1.0214   0.0000   0.0000   0.0000   0.7979
  -2.600   0.0940   0.03458   0.02758  -0.0454  0.1466  0.0300  -1.0056   0.0000   0.0000   0.0000   0.7387
  -2.500   0.1039   0.03404   0.02702  -0.0457  0.1485  0.0304  -0.9762   0.0000   0.0000   0.0000   0.6953
  -2.400   0.1135   0.03356   0.02652  -0.0460  0.1505  0.0310  -0.9409   0.0000   0.0000   0.0000   0.6601
  -2.300   0.1238   0.03298   0.02593  -0.0463  0.1638  0.0313  -0.9187   0.0000   0.0000   0.0000   0.6284
  -2.200   0.1350   0.03227   0.02519  -0.0467  0.1722  0.0312  -0.9148   0.0000   0.0000   0.0000   0.5996
  -2.100   0.1464   0.03152   0.02442  -0.0470  0.1784  0.0308  -0.9179   0.0000   0.0000   0.0000   0.5745
  -2.000   0.1579   0.03080   0.02366  -0.0473  0.1843  0.0305  -0.9213   0.0000   0.0000   0.0000   0.5529
  -1.900   0.1693   0.03011   0.02293  -0.0476  0.1897  0.0302  -0.9248   0.0000   0.0000   0.0000   0.5341
  -1.800   0.1807   0.02943   0.02221  -0.0478  0.1950  0.0300  -0.9283   0.0000   0.0000   0.0000   0.5175
  -1.500   0.2162   0.02683   0.01989  -0.0483  0.2885  0.0292  -0.9358   0.0000   0.0000   0.0000   0.4756
  -1.400   0.2274   0.02624   0.01924  -0.0485  0.2890  0.0290  -0.9368   0.0000   0.0000   0.0000   0.4653
  -1.300   0.2385   0.02568   0.01864  -0.0487  0.2895  0.0288  -0.9346   0.0000   0.0000   0.0000   0.4561
  -1.200   0.2495   0.02515   0.01805  -0.0489  0.2900  0.0287  -0.9313   0.0000   0.0000   0.0000   0.4476
  -1.100   0.2605   0.02463   0.01748  -0.0491  0.2907  0.0285  -0.9271   0.0000   0.0000   0.0000   0.4398
  -1.000   0.2716   0.02412   0.01693  -0.0492  0.2934  0.0283  -0.9221   0.0000   0.0000   0.0000   0.4326
  -0.900   0.2826   0.02363   0.01640  -0.0494  0.2961  0.0281  -0.9163   0.0000   0.0000   0.0000   0.4259
  -0.800   0.2936   0.02315   0.01589  -0.0495  0.2988  0.0280  -0.9095   0.0000   0.0000   0.0000   0.4198
  -0.700   0.3046   0.02270   0.01540  -0.0496  0.3037  0.0278  -0.9016   0.0000   0.0000   0.0000   0.4140
  -0.600   0.3156   0.02226   0.01493  -0.0498  0.3137  0.0277  -0.8924   0.0000   0.0000   0.0000   0.4086
  -0.500   0.3266   0.02184   0.01449  -0.0499  0.3234  0.0275  -0.8810   0.0000   0.0000   0.0000   0.4036
  -0.400   0.3376   0.02142   0.01408  -0.0500  0.3332  0.0273  -0.8677   0.0000   0.0000   0.0000   0.3988
  -0.300   0.3487   0.02103   0.01371  -0.0501  0.3429  0.0271  -0.8520   0.0000   0.0000   0.0000   0.3943
   0.200   0.4016   0.02231   0.01539  -0.0511  0.3852  0.0251  -0.8178   0.0000   0.0000   0.0000   0.3773
   0.300   0.4123   0.02188   0.01493  -0.0513  0.3858  0.0251  -0.8257   0.0000   0.0000   0.0000   0.3743
   0.400   0.4231   0.02146   0.01447  -0.0514  0.3863  0.0251  -0.8337   0.0000   0.0000   0.0000   0.3714
   0.500   0.4338   0.02105   0.01403  -0.0516  0.3866  0.0251  -0.8416   0.0000   0.0000   0.0000   0.3687
   0.600   0.4446   0.02065   0.01360  -0.0518  0.3868  0.0251  -0.8497   0.0000   0.0000   0.0000   0.3661
   0.700   0.4553   0.02027   0.01317  -0.0519  0.3869  0.0251  -0.8577   0.0000   0.0000   0.0000   0.3636
   0.800   0.4661   0.01989   0.01276  -0.0521  0.3869  0.0251  -0.8658   0.0000   0.0000   0.0000   0.3612
   0.900   0.4768   0.01953   0.01236  -0.0522  0.3869  0.0251  -0.8739   0.0000   0.0000   0.0000   0.3589
   1.000   0.4876   0.01918   0.01197  -0.0524  0.3868  0.0251  -0.8837   0.0000   0.0000   0.0000   0.3567
   1.100   0.4984   0.01883   0.01159  -0.0525  0.3867  0.0251  -0.8947   0.0000   0.0000   0.0000   0.3546
   1.200   0.5092   0.01850   0.01122  -0.0526  0.3866  0.0251  -0.9057   0.0000   0.0000   0.0000   0.3526
   1.300   0.5200   0.01818   0.01087  -0.0528  0.3866  0.0251  -0.9168   0.0000   0.0000   0.0000   0.3506
   1.400   0.5308   0.01787   0.01052  -0.0529  0.3865  0.0251  -0.9279   0.0000   0.0000   0.0000   0.3487
   1.700   0.5650   0.01439   0.00690  -0.0529  0.3988  0.0286  -0.9578   0.0000   0.0000   0.0000   0.3425
   1.800   0.5758   0.01417   0.00667  -0.0531  0.4013  0.0289  -0.9691   0.0000   0.0000   0.0000   0.3410
   1.900   0.5866   0.01396   0.00647  -0.0533  0.4070  0.0292  -0.9806   0.0000   0.0000   0.0000   0.3395
   2.000   0.5974   0.01376   0.00628  -0.0534  0.4137  0.0296  -0.9920   0.0000   0.0000   0.0000   0.3380
   2.100   0.6084   0.01355   0.00610  -0.0536  0.4245  0.0299  -1.0036   0.0000   0.0000   0.0000   0.3366
   2.200   0.6194   0.01334   0.00595  -0.0538  0.4361  0.0303  -1.0151   0.0000   0.0000   0.0000   0.3352
   2.300   0.6306   0.01313   0.00581  -0.0540  0.4460  0.0307  -1.0267   0.0000   0.0000   0.0000   0.3340
   2.400   0.6417   0.01295   0.00569  -0.0542  0.4537  0.0312  -1.0382   0.0000   0.0000   0.0000   0.3327
   2.500   0.6527   0.01279   0.00558  -0.0544  0.4590  0.0316  -1.0496   0.0000   0.0000   0.0000   0.3315
   2.600   0.6636   0.01265   0.00547  -0.0546  0.4621  0.0321  -1.0610   0.0000   0.0000   0.0000   0.3304
   2.700   0.6744   0.01253   0.00536  -0.0548  0.4631  0.0326  -1.0724   0.0000   0.0000   0.0000   0.3292
   2.800   0.6851   0.01243   0.00524  -0.0550  0.4620  0.0332  -1.0839   0.0000   0.0000   0.0000   0.3281
   2.900   0.6956   0.01234   0.00511  -0.0551  0.4584  0.0338  -1.0954   0.0000   0.0000   0.0000   0.3269
   3.000   0.7061   0.01226   0.00499  -0.0552  0.4541  0.0344  -1.1069   0.0000   0.0000   0.0000   0.3258
   3.100   0.7166   0.01218   0.00487  -0.0553  0.4497  0.0351  -1.1184   0.0000   0.0000   0.0000   0.3247
   3.200   0.7271   0.01212   0.00475  -0.0554  0.4449  0.0359  -1.1299   0.0000   0.0000   0.0000   0.3237
   3.300   0.7376   0.01206   0.00465  -0.0555  0.4396  0.0367  -1.1413   0.0000   0.0000   0.0000   0.3226
   3.400   0.7480   0.01201   0.00456  -0.0556  0.4334  0.0376  -1.1526   0.0000   0.0000   0.0000   0.3216
   3.500   0.7585   0.01197   0.00448  -0.0558  0.4264  0.0386  -1.1638   0.0000   0.0000   0.0000   0.3207
   3.600   0.7690   0.01196   0.00443  -0.0559  0.4189  0.0397  -1.1747   0.0000   0.0000   0.0000   0.3197
   3.700   0.7794   0.01197   0.00442  -0.0560  0.4118  0.0408  -1.1854   0.0000   0.0000   0.0000   0.3188
   3.800   0.7899   0.01201   0.00444  -0.0561  0.4059  0.0421  -1.1959   0.0000   0.0000   0.0000   0.3179
   3.900   0.8004   0.01206   0.00450  -0.0563  0.4014  0.0434  -1.2063   0.0000   0.0000   0.0000   0.3170
   5.600   0.9670   0.01308   0.00403  -0.0573  0.1786  0.0807  -1.4106   0.0000   0.0000   0.0000   0.3040
   5.700   0.9749   0.01365   0.00431  -0.0573  0.1393  0.0814  -1.4104   0.0000   0.0000   0.0000   0.3034
   5.800   0.9783   0.01516   0.00534  -0.0570  0.0388  0.0818  -1.4216   0.0000   0.0000   0.0000   0.3028
   5.900   0.9873   0.01557   0.00562  -0.0569  0.0198  0.0821  -1.4402   0.0000   0.0000   0.0000   0.3020
   6.000   0.9977   0.01573   0.00586  -0.0567  0.0174  0.0823  -1.4896   0.0000   0.0000   0.0000   0.3011
   6.100   1.0081   0.01587   0.00608  -0.0566  0.0170  0.0808  -1.5887   0.0000   0.0000   0.0000   0.3003
   6.200   1.0184   0.01605   0.00633  -0.0565  0.0173  0.0790  -1.6821   0.0000   0.0000   0.0000   0.2994
   6.300   1.0285   0.01625   0.00662  -0.0563  0.0180  0.0773  -1.7684   0.0000   0.0000   0.0000   0.2986
   6.400   1.0389   0.01648   0.00689  -0.0560  0.0193  0.0759  -1.8380   0.0000   0.0000   0.0000   0.2976
   6.500   1.0492   0.01676   0.00722  -0.0556  0.0213  0.0748  -1.8883   0.0000   0.0000   0.0000   0.2966
   6.600   1.0596   0.01709   0.00771  -0.0551  0.0237  0.0741  -1.9287   0.0000   0.0000   0.0000   0.2954
   6.700   1.0688   0.01759   0.00845  -0.0545  0.0268  0.0733  -1.9591   0.0000   0.0000   0.0000   0.2942
   6.800   1.0791   0.01778   0.00865  -0.0542  0.0307  0.0723  -2.0402   0.0000   0.0000   0.0000   0.2934
   6.900   1.0883   0.01821   0.00924  -0.0537  0.0385  0.0714  -2.0872   0.0000   0.0000   0.0000   0.2923
   7.300   1.1241   0.02011   0.01146  -0.0505  0.0611  0.0680  -2.2125   0.0000   0.0000   0.0000   0.2871
   7.400   1.1274   0.02112   0.01246  -0.0497  0.0567  0.0674  -2.2630   0.0000   0.0000   0.0000   0.2862
   7.500   1.1289   0.02240   0.01379  -0.0486  0.0530  0.0669  -2.2891   0.0000   0.0000   0.0000   0.2850
   8.200   1.1567   0.02835   0.01976  -0.0446  0.0204  0.0661  -2.8490   0.0000   0.0000   0.0000   0.2796
   8.300   1.1620   0.02896   0.02036  -0.0442  0.0189  0.0674  -2.9490   0.0000   0.0000   0.0000   0.2789
   8.400   1.1670   0.02967   0.02105  -0.0438  0.0176  0.0688  -3.0509   0.0000   0.0000   0.0000   0.2783
   8.500   1.1719   0.03047   0.02182  -0.0434  0.0165  0.0709  -3.1540   0.0000   0.0000   0.0000   0.2776
   8.600   1.1771   0.03147   0.02279  -0.0429  0.0154  0.0740  -3.2552   0.0000   0.0000   0.0000   0.2769
   8.700   1.1918   0.03889   0.03029  -0.0426  0.0125  0.0785  -3.1134   0.0000   0.0000   0.0000   0.2761
   8.800   1.2008   0.03894   0.03180  -0.0426  0.0125  1.0000  -3.1711   0.0000   0.0000   0.0000   0.2757
   8.900   1.2067   0.04015   0.03309  -0.0420  0.0125  1.0000  -3.2198   0.0000   0.0000   0.0000   0.2749
   9.000   1.2120   0.04138   0.03440  -0.0414  0.0124  1.0000  -3.2662   0.0000   0.0000   0.0000   0.2740
   9.100   1.2169   0.04263   0.03574  -0.0407  0.0124  1.0000  -3.3103   0.0000   0.0000   0.0000   0.2732
   9.200   1.2213   0.04389   0.03709  -0.0400  0.0124  1.0000  -3.3521   0.0000   0.0000   0.0000   0.2724
   9.300   1.2251   0.04518   0.03846  -0.0393  0.0124  1.0000  -3.3914   0.0000   0.0000   0.0000   0.2715
   9.400   1.2284   0.04647   0.03985  -0.0385  0.0123  1.0000  -3.4282   0.0000   0.0000   0.0000   0.2707
   9.500   1.2311   0.04778   0.04124  -0.0378  0.0123  1.0000  -3.4626   0.0000   0.0000   0.0000   0.2698
   9.600   1.2332   0.04909   0.04264  -0.0370  0.0123  1.0000  -3.4945   0.0000   0.0000   0.0000   0.2690
   9.700   1.2348   0.05041   0.04405  -0.0362  0.0123  1.0000  -3.5239   0.0000   0.0000   0.0000   0.2682
   9.800   1.2357   0.05173   0.04546  -0.0353  0.0122  1.0000  -3.5507   0.0000   0.0000   0.0000   0.2673
   9.900   1.2360   0.05305   0.04686  -0.0345  0.0122  1.0000  -3.5750   0.0000   0.0000   0.0000   0.2665
  10.000   1.2356   0.05436   0.04826  -0.0336  0.0122  1.0000  -3.5966   0.0000   0.0000   0.0000   0.2656
  10.100   1.2346   0.05566   0.04965  -0.0327  0.0122  1.0000  -3.6156   0.0000   0.0000   0.0000   0.2648
  10.200   1.2328   0.05695   0.05102  -0.0318  0.0122  1.0000  -3.6317   0.0000   0.0000   0.0000   0.2639
  10.300   1.2296   0.05816   0.05230  -0.0308  0.0122  1.0000  -3.6436   0.0000   0.0000   0.0000   0.2630
  10.400   1.2254   0.05931   0.05352  -0.0296  0.0122  1.0000  -3.6516   0.0000   0.0000   0.0000   0.2620
  10.500   1.2204   0.06046   0.05474  -0.0286  0.0121  1.0000  -3.6568   0.0000   0.0000   0.0000   0.2611
  10.600   1.2153   0.06167   0.05602  -0.0277  0.0121  1.0000  -3.6604   0.0000   0.0000   0.0000   0.2603
  10.700   1.2104   0.06295   0.05737  -0.0270  0.0121  1.0000  -3.6641   0.0000   0.0000   0.0000   0.2597
  10.800   1.2057   0.06430   0.05878  -0.0264  0.0121  1.0000  -3.6675   0.0000   0.0000   0.0000   0.2591
  10.900   1.1999   0.06565   0.06020  -0.0259  0.0121  1.0000  -3.6669   0.0000   0.0000   0.0000   0.2586
  11.000   1.1939   0.06703   0.06164  -0.0255  0.0121  1.0000  -3.6646   0.0000   0.0000   0.0000   0.2582
  11.100   1.1883   0.06847   0.06315  -0.0252  0.0121  1.0000  -3.6633   0.0000   0.0000   0.0000   0.2579
  11.200   1.1830   0.06999   0.06473  -0.0250  0.0121  1.0000  -3.6620   0.0000   0.0000   0.0000   0.2576
  11.300   1.1777   0.07155   0.06636  -0.0248  0.0121  1.0000  -3.6600   0.0000   0.0000   0.0000   0.2574
  11.400   1.1718   0.07317   0.06805  -0.0248  0.0121  1.0000  -3.6551   0.0000   0.0000   0.0000   0.2573
  11.500   1.1649   0.07488   0.06981  -0.0249  0.0121  1.0000  -3.6458   0.0000   0.0000   0.0000   0.2574
  11.600   1.1585   0.07661   0.07161  -0.0251  0.0121  1.0000  -3.6378   0.0000   0.0000   0.0000   0.2575
  11.700   1.1526   0.07838   0.07343  -0.0253  0.0121  1.0000  -3.6306   0.0000   0.0000   0.0000   0.2576
  11.800   1.1468   0.08016   0.07528  -0.0256  0.0121  1.0000  -3.6230   0.0000   0.0000   0.0000   0.2577
  11.900   1.1407   0.08196   0.07713  -0.0258  0.0121  1.0000  -3.6140   0.0000   0.0000   0.0000   0.2579
  12.000   1.1342   0.08374   0.07898  -0.0261  0.0121  1.0000  -3.6029   0.0000   0.0000   0.0000   0.2581
  12.100   1.1259   0.08568   0.08098  -0.0267  0.0121  1.0000  -3.5843   0.0000   0.0000   0.0000   0.2586
  12.200   1.1182   0.08769   0.08304  -0.0273  0.0121  1.0000  -3.5667   0.0000   0.0000   0.0000   0.2592
  12.300   1.1116   0.08972   0.08513  -0.0279  0.0121  1.0000  -3.5521   0.0000   0.0000   0.0000   0.2598
  12.400   1.1055   0.09177   0.08724  -0.0286  0.0121  1.0000  -3.5382   0.0000   0.0000   0.0000   0.2603
  12.500   1.0995   0.09387   0.08938  -0.0293  0.0121  1.0000  -3.5240   0.0000   0.0000   0.0000   0.2609
  12.600   1.0934   0.09600   0.09157  -0.0300  0.0121  1.0000  -3.5085   0.0000   0.0000   0.0000   0.2616
  12.700   1.0872   0.09819   0.09382  -0.0308  0.0121  1.0000  -3.4914   0.0000   0.0000   0.0000   0.2623
  12.800   1.0802   0.10050   0.09618  -0.0319  0.0121  1.0000  -3.4698   0.0000   0.0000   0.0000   0.2633
  12.900   1.0716   0.10302   0.09876  -0.0333  0.0121  1.0000  -3.4397   0.0000   0.0000   0.0000   0.2647
  13.000   1.0648   0.10545   0.10123  -0.0345  0.0121  1.0000  -3.4158   0.0000   0.0000   0.0000   0.2659
  13.100   1.0588   0.10781   0.10365  -0.0356  0.0121  1.0000  -3.3946   0.0000   0.0000   0.0000   0.2670
  13.200   1.0533   0.11020   0.10608  -0.0368  0.0121  1.0000  -3.3739   0.0000   0.0000   0.0000   0.2681
  13.300   1.0480   0.11262   0.10856  -0.0379  0.0121  1.0000  -3.3524   0.0000   0.0000   0.0000   0.2692
  13.400   1.0427   0.11508   0.11107  -0.0392  0.0121  1.0000  -3.3295   0.0000   0.0000   0.0000   0.2705
  13.500   1.0374   0.11764   0.11367  -0.0405  0.0121  1.0000  -3.3045   0.0000   0.0000   0.0000   0.2718
  13.600   1.0315   0.12033   0.11641  -0.0421  0.0121  1.0000  -3.2752   0.0000   0.0000   0.0000   0.2734
  13.700   1.0235   0.12346   0.11959  -0.0442  0.0121  1.0000  -3.2327   0.0000   0.0000   0.0000   0.2757
  13.800   1.0179   0.12632   0.12250  -0.0459  0.0121  1.0000  -3.1999   0.0000   0.0000   0.0000   0.2775
  13.900   1.0135   0.12906   0.12527  -0.0474  0.0121  1.0000  -3.1712   0.0000   0.0000   0.0000   0.2791
  14.000   1.0095   0.13174   0.12800  -0.0489  0.0121  1.0000  -3.1433   0.0000   0.0000   0.0000   0.2806
  14.100   1.0058   0.13443   0.13072  -0.0504  0.0121  1.0000  -3.1146   0.0000   0.0000   0.0000   0.2821
  14.200   1.0021   0.13712   0.13346  -0.0518  0.0121  1.0000  -3.0842   0.0000   0.0000   0.0000   0.2836
  14.300   0.9985   0.13977   0.13614  -0.0534  0.0121  1.0000  -3.0516   0.0000   0.0000   0.0000   0.2852
  14.400   0.9949   0.14248   0.13889  -0.0550  0.0121  1.0000  -3.0161   0.0000   0.0000   0.0000   0.2870
  14.500   0.9906   0.14552   0.14198  -0.0570  0.0121  1.0000  -2.9710   0.0000   0.0000   0.0000   0.2891
  14.600   0.9857   0.14888   0.14537  -0.0592  0.0121  1.0000  -2.9176   0.0000   0.0000   0.0000   0.2916
  14.700   0.9826   0.15187   0.14839  -0.0610  0.0121  1.0000  -2.8745   0.0000   0.0000   0.0000   0.2936
  14.800   0.9804   0.15473   0.15127  -0.0626  0.0121  1.0000  -2.8348   0.0000   0.0000   0.0000   0.2952
  14.900   0.9786   0.15754   0.15411  -0.0641  0.0121  1.0000  -2.7959   0.0000   0.0000   0.0000   0.2968
  15.000   0.9771   0.16037   0.15696  -0.0655  0.0121  1.0000  -2.7558   0.0000   0.0000   0.0000   0.2982
  15.100   0.9759   0.16327   0.15989  -0.0669  0.0121  1.0000  -2.7139   0.0000   0.0000   0.0000   0.2997
  15.200   0.9748   0.16634   0.16298  -0.0684  0.0121  1.0000  -2.6674   0.0000   0.0000   0.0000   0.3013
  15.300   0.9737   0.16966   0.16632  -0.0700  0.0121  1.0000  -2.6136   0.0000   0.0000   0.0000   0.3030
  15.400   0.9731   0.17296   0.16963  -0.0715  0.0121  1.0000  -2.5597   0.0000   0.0000   0.0000   0.3045
  15.500   0.9731   0.17607   0.17275  -0.0729  0.0120  1.0000  -2.5115   0.0000   0.0000   0.0000   0.3058
  15.600   0.9732   0.17900   0.17569  -0.0741  0.0120  1.0000  -2.4697   0.0000   0.0000   0.0000   0.3070
  15.700   0.9735   0.18181   0.17850  -0.0752  0.0120  1.0000  -2.4324   0.0000   0.0000   0.0000   0.3081
  15.800   0.9739   0.18453   0.18122  -0.0763  0.0120  1.0000  -2.3983   0.0000   0.0000   0.0000   0.3091
  15.900   0.9743   0.18719   0.18388  -0.0774  0.0120  1.0000  -2.3668   0.0000   0.0000   0.0000   0.3101
  16.000   0.9748   0.18979   0.18649  -0.0784  0.0120  1.0000  -2.3374   0.0000   0.0000   0.0000   0.3110
  16.100   0.9754   0.19236   0.18906  -0.0794  0.0120  1.0000  -2.3097   0.0000   0.0000   0.0000   0.3119
  16.200   0.9761   0.19489   0.19159  -0.0804  0.0120  1.0000  -2.2835   0.0000   0.0000   0.0000   0.3127
  16.300   0.9768   0.19740   0.19410  -0.0814  0.0119  1.0000  -2.2587   0.0000   0.0000   0.0000   0.3136
  16.400   0.9776   0.19989   0.19659  -0.0823  0.0119  1.0000  -2.2351   0.0000   0.0000   0.0000   0.3143
  16.500   0.9784   0.20235   0.19906  -0.0833  0.0119  1.0000  -2.2125   0.0000   0.0000   0.0000   0.3151
  16.600   0.9793   0.20480   0.20150  -0.0842  0.0119  1.0000  -2.1910   0.0000   0.0000   0.0000   0.3159
  16.700   0.9803   0.20722   0.20393  -0.0851  0.0119  1.0000  -2.1704   0.0000   0.0000   0.0000   0.3166
  16.800   0.9813   0.20963   0.20634  -0.0860  0.0119  1.0000  -2.1506   0.0000   0.0000   0.0000   0.3173
  16.900   0.9823   0.21203   0.20874  -0.0868  0.0119  1.0000  -2.1316   0.0000   0.0000   0.0000   0.3180
  17.000   0.9833   0.21441   0.21112  -0.0877  0.0118  1.0000  -2.1134   0.0000   0.0000   0.0000   0.3186
  17.100   0.9844   0.21679   0.21349  -0.0886  0.0118  1.0000  -2.0958   0.0000   0.0000   0.0000   0.3192
  17.200   0.9856   0.21915   0.21586  -0.0894  0.0118  1.0000  -2.0789   0.0000   0.0000   0.0000   0.3199
  17.300   0.9859   0.22151   0.21817  -0.0898  0.0118  0.9450  -2.0635   0.0000   0.0000   0.0000   0.3201
  17.400   0.9883   0.22448   0.22078  -0.0914  0.0118  0.7990  -2.0463   0.0000   0.0000   0.0000   0.3214
  17.500   0.9899   0.22714   0.22320  -0.0924  0.0118  0.7027  -2.0302   0.0000   0.0000   0.0000   0.3221
  17.600   0.9911   0.22959   0.22553  -0.0932  0.0117  0.6407  -2.0151   0.0000   0.0000   0.0000   0.3227
  17.700   0.9922   0.23196   0.22781  -0.0940  0.0117  0.5896  -2.0006   0.0000   0.0000   0.0000   0.3232
  20.600   1.0226   0.29790   0.29467  -0.1132  0.0111  1.0000  -1.6934   0.0000   0.0000   0.0000   0.3348
  20.700   1.0232   0.30019   0.29696  -0.1137  0.0111  1.0000  -1.6849   0.0000   0.0000   0.0000   0.3352
  20.800   1.0238   0.30247   0.29925  -0.1143  0.0111  1.0000  -1.6765   0.0000   0.0000   0.0000   0.3355
  20.900   1.0243   0.30475   0.30153  -0.1148  0.0111  1.0000  -1.6682   0.0000   0.0000   0.0000   0.3357
  21.000   1.0248   0.30702   0.30380  -0.1153  0.0111  1.0000  -1.6599   0.0000   0.0000   0.0000   0.3360
  21.100   1.0252   0.30928   0.30607  -0.1158  0.0110  1.0000  -1.6517   0.0000   0.0000   0.0000   0.3363
  21.200   1.0256   0.31154   0.30833  -0.1163  0.0110  1.0000  -1.6435   0.0000   0.0000   0.0000   0.3366
  21.300   1.0258   0.31378   0.31058  -0.1167  0.0110  1.0000  -1.6353   0.0000   0.0000   0.0000   0.3368
  21.400   1.0260   0.31602   0.31283  -0.1172  0.0110  1.0000  -1.6271   0.0000   0.0000   0.0000   0.3371
  21.500   1.0261   0.31825   0.31506  -0.1176  0.0110  1.0000  -1.6189   0.0000   0.0000   0.0000   0.3374
  21.600   1.0261   0.32046   0.31728  -0.1181  0.0109  1.0000  -1.6107   0.0000   0.0000   0.0000   0.3376
  21.700   1.0260   0.32267   0.31949  -0.1184  0.0109  1.0000  -1.6024   0.0000   0.0000   0.0000   0.3378
  21.800   1.0258   0.32485   0.32168  -0.1188  0.0109  1.0000  -1.5940   0.0000   0.0000   0.0000   0.3381
  21.900   1.0255   0.32702   0.32385  -0.1192  0.0109  1.0000  -1.5856   0.0000   0.0000   0.0000   0.3383
  22.000   1.0250   0.32916   0.32600  -0.1195  0.0109  1.0000  -1.5771   0.0000   0.0000   0.0000   0.3385
  22.100   1.0245   0.33129   0.32813  -0.1198  0.0108  1.0000  -1.5684   0.0000   0.0000   0.0000   0.3387
  22.200   1.0237   0.33338   0.33023  -0.1201  0.0108  1.0000  -1.5595   0.0000   0.0000   0.0000   0.3389
  22.300   1.0228   0.33544   0.33230  -0.1203  0.0108  1.0000  -1.5504   0.0000   0.0000   0.0000   0.3391
  22.400   1.0217   0.33746   0.33432  -0.1206  0.0108  1.0000  -1.5410   0.0000   0.0000   0.0000   0.3393
  22.500   1.0203   0.33943   0.33631  -0.1207  0.0108  1.0000  -1.5314   0.0000   0.0000   0.0000   0.3395
  22.600   1.0187   0.34135   0.33823  -0.1209  0.0107  1.0000  -1.5213   0.0000   0.0000   0.0000   0.3396
  22.700   1.0168   0.34320   0.34009  -0.1209  0.0107  1.0000  -1.5108   0.0000   0.0000   0.0000   0.3398
  22.800   1.0145   0.34497   0.34186  -0.1209  0.0107  1.0000  -1.4997   0.0000   0.0000   0.0000   0.3399
  22.900   1.0117   0.34662   0.34353  -0.1209  0.0107  1.0000  -1.4878   0.0000   0.0000   0.0000   0.3400
  23.000   1.0084   0.34813   0.34505  -0.1207  0.0107  1.0000  -1.4749   0.0000   0.0000   0.0000   0.3401
  23.100   1.0042   0.34944   0.34636  -0.1204  0.0106  1.0000  -1.4605   0.0000   0.0000   0.0000   0.3402
  23.200   0.9325   0.33340   0.33042  -0.1089  0.0107  1.0000  -1.3181   0.0000   0.0000   0.0000   0.3380
  23.300   0.9245   0.33267   0.32970  -0.1079  0.0107  1.0000  -1.2966   0.0000   0.0000   0.0000   0.3379
  23.400   0.9179   0.33225   0.32930  -0.1072  0.0107  1.0000  -1.2781   0.0000   0.0000   0.0000   0.3378
  23.500   0.9122   0.33202   0.32908  -0.1066  0.0107  1.0000  -1.2613   0.0000   0.0000   0.0000   0.3378
  23.600   0.9072   0.33192   0.32899  -0.1061  0.0106  1.0000  -1.2459   0.0000   0.0000   0.0000   0.3379
  23.700   0.9026   0.33191   0.32900  -0.1057  0.0106  1.0000  -1.2315   0.0000   0.0000   0.0000   0.3379
  23.800   0.8985   0.33198   0.32907  -0.1053  0.0106  1.0000  -1.2179   0.0000   0.0000   0.0000   0.3380
  23.900   0.8946   0.33210   0.32920  -0.1050  0.0106  1.0000  -1.2051   0.0000   0.0000   0.0000   0.3380
  24.000   0.8911   0.33227   0.32938  -0.1048  0.0106  1.0000  -1.1928   0.0000   0.0000   0.0000   0.3381
  24.100   0.8877   0.33246   0.32958  -0.1045  0.0105  1.0000  -1.1810   0.0000   0.0000   0.0000   0.3382
  24.200   0.8845   0.33269   0.32982  -0.1043  0.0105  1.0000  -1.1697   0.0000   0.0000   0.0000   0.3382
  24.300   0.8816   0.33294   0.33009  -0.1041  0.0105  1.0000  -1.1588   0.0000   0.0000   0.0000   0.3383
  24.400   0.8787   0.33323   0.33038  -0.1040  0.0105  1.0000  -1.1483   0.0000   0.0000   0.0000   0.3384
  24.500   0.8761   0.33354   0.33069  -0.1039  0.0105  1.0000  -1.1382   0.0000   0.0000   0.0000   0.3385
  24.600   0.8735   0.33386   0.33103  -0.1038  0.0104  1.0000  -1.1285   0.0000   0.0000   0.0000   0.3386
  24.700   0.8711   0.33421   0.33139  -0.1037  0.0104  1.0000  -1.1190   0.0000   0.0000   0.0000   0.3387
  24.800   0.8689   0.33457   0.33176  -0.1036  0.0104  1.0000  -1.1098   0.0000   0.0000   0.0000   0.3388
  24.900   0.8667   0.33495   0.33214  -0.1036  0.0104  1.0000  -1.1009   0.0000   0.0000   0.0000   0.3389
  25.000   0.8646   0.33534   0.33254  -0.1035  0.0104  1.0000  -1.0922   0.0000   0.0000   0.0000   0.3390
  25.100   0.8626   0.33575   0.33296  -0.1035  0.0103  1.0000  -1.0838   0.0000   0.0000   0.0000   0.3392
  25.200   0.8606   0.33616   0.33338  -0.1035  0.0103  1.0000  -1.0756   0.0000   0.0000   0.0000   0.3393
  25.300   0.8588   0.33659   0.33382  -0.1035  0.0103  1.0000  -1.0677   0.0000   0.0000   0.0000   0.3394
  25.400   0.8570   0.33703   0.33426  -0.1035  0.0103  1.0000  -1.0599   0.0000   0.0000   0.0000   0.3395
  25.500   0.8553   0.33748   0.33472  -0.1035  0.0103  1.0000  -1.0523   0.0000   0.0000   0.0000   0.3397
  25.600   0.8537   0.33793   0.33518  -0.1036  0.0102  1.0000  -1.0449   0.0000   0.0000   0.0000   0.3398
  25.700   0.8521   0.33840   0.33565  -0.1036  0.0102  1.0000  -1.0377   0.0000   0.0000   0.0000   0.3399
  25.800   0.8506   0.33887   0.33613  -0.1036  0.0102  1.0000  -1.0306   0.0000   0.0000   0.0000   0.3400
  25.900   0.8491   0.33935   0.33662  -0.1037  0.0102  1.0000  -1.0238   0.0000   0.0000   0.0000   0.3402
  26.000   0.8477   0.33983   0.33711  -0.1038  0.0102  1.0000  -1.0170   0.0000   0.0000   0.0000   0.3403
  26.100   0.8463   0.34033   0.33761  -0.1039  0.0101  1.0000  -1.0104   0.0000   0.0000   0.0000   0.3404
  26.200   0.8450   0.34083   0.33812  -0.1039  0.0101  1.0000  -1.0040   0.0000   0.0000   0.0000   0.3406
  26.300   0.8437   0.34133   0.33863  -0.1040  0.0101  1.0000  -0.9977   0.0000   0.0000   0.0000   0.3407
  26.400   0.8425   0.34184   0.33915  -0.1041  0.0101  1.0000  -0.9915   0.0000   0.0000   0.0000   0.3409
  26.500   0.8413   0.34236   0.33967  -0.1042  0.0101  1.0000  -0.9855   0.0000   0.0000   0.0000   0.3410
  26.600   0.8402   0.34288   0.34020  -0.1043  0.0100  1.0000  -0.9796   0.0000   0.0000   0.0000   0.3411
  26.700   0.8390   0.34340   0.34073  -0.1045  0.0100  1.0000  -0.9738   0.0000   0.0000   0.0000   0.3413
  26.800   0.8379   0.34393   0.34127  -0.1046  0.0100  1.0000  -0.9681   0.0000   0.0000   0.0000   0.3414
  26.900   0.8369   0.34447   0.34181  -0.1047  0.0100  1.0000  -0.9625   0.0000   0.0000   0.0000   0.3416
  27.000   0.8359   0.34500   0.34235  -0.1048  0.0100  1.0000  -0.9571   0.0000   0.0000   0.0000   0.3417
  27.100   0.8349   0.34555   0.34290  -0.1050  0.0099  1.0000  -0.9517   0.0000   0.0000   0.0000   0.3419
  27.200   0.8339   0.34609   0.34345  -0.1051  0.0099  1.0000  -0.9464   0.0000   0.0000   0.0000   0.3420
  27.300   0.8330   0.34664   0.34401  -0.1053  0.0099  1.0000  -0.9413   0.0000   0.0000   0.0000   0.3421
  27.400   0.8320   0.34720   0.34457  -0.1054  0.0099  1.0000  -0.9362   0.0000   0.0000   0.0000   0.3423
  27.500   0.8311   0.34776   0.34514  -0.1056  0.0099  1.0000  -0.9312   0.0000   0.0000   0.0000   0.3424
  27.600   0.8303   0.34832   0.34570  -0.1057  0.0098  1.0000  -0.9263   0.0000   0.0000   0.0000   0.3426
  27.700   0.8294   0.34888   0.34627  -0.1059  0.0098  1.0000  -0.9215   0.0000   0.0000   0.0000   0.3427
  27.800   0.8286   0.34945   0.34685  -0.1061  0.0098  1.0000  -0.9168   0.0000   0.0000   0.0000   0.3429
  27.900   0.8278   0.35002   0.34742  -0.1062  0.0098  1.0000  -0.9122   0.0000   0.0000   0.0000   0.3430
  28.000   0.8270   0.35059   0.34800  -0.1064  0.0098  1.0000  -0.9076   0.0000   0.0000   0.0000   0.3432
  28.100   0.8263   0.35116   0.34859  -0.1066  0.0097  1.0000  -0.9032   0.0000   0.0000   0.0000   0.3434
  28.200   0.8256   0.35174   0.34917  -0.1068  0.0097  1.0000  -0.8988   0.0000   0.0000   0.0000   0.3435
  28.300   0.8248   0.35232   0.34976  -0.1070  0.0097  1.0000  -0.8944   0.0000   0.0000   0.0000   0.3437
  28.400   0.8241   0.35291   0.35035  -0.1072  0.0097  1.0000  -0.8902   0.0000   0.0000   0.0000   0.3438
  28.500   0.8234   0.35349   0.35094  -0.1074  0.0096  1.0000  -0.8860   0.0000   0.0000   0.0000   0.3440
  28.600   0.8228   0.35408   0.35153  -0.1076  0.0096  1.0000  -0.8819   0.0000   0.0000   0.0000   0.3441
  28.700   0.8221   0.35467   0.35213  -0.1078  0.0096  1.0000  -0.8778   0.0000   0.0000   0.0000   0.3443
  28.800   0.8215   0.35526   0.35273  -0.1080  0.0096  1.0000  -0.8739   0.0000   0.0000   0.0000   0.3444
  28.900   0.8208   0.35586   0.35333  -0.1082  0.0096  1.0000  -0.8699   0.0000   0.0000   0.0000   0.3446
  29.000   0.8202   0.35645   0.35393  -0.1084  0.0095  1.0000  -0.8661   0.0000   0.0000   0.0000   0.3448
  29.100   0.8196   0.35705   0.35454  -0.1086  0.0095  1.0000  -0.8623   0.0000   0.0000   0.0000   0.3449
  29.200   0.8170   0.35774   0.35526  -0.1087  0.0106  1.0000  -0.8448   0.0000   0.0000   0.0000   0.3453
  29.300   0.8159   0.35832   0.35583  -0.1089  0.0108  1.0000  -0.8435   0.0000   0.0000   0.0000   0.3455
  29.400   0.8150   0.35892   0.35643  -0.1091  0.0109  1.0000  -0.8410   0.0000   0.0000   0.0000   0.3457
  29.500   0.8144   0.35954   0.35704  -0.1093  0.0109  1.0000  -0.8377   0.0000   0.0000   0.0000   0.3459
  29.600   0.8138   0.36016   0.35767  -0.1095  0.0109  1.0000  -0.8339   0.0000   0.0000   0.0000   0.3461
  29.700   0.8134   0.36080   0.35831  -0.1098  0.0108  1.0000  -0.8298   0.0000   0.0000   0.0000   0.3462
  29.800   0.8130   0.36144   0.35895  -0.1100  0.0108  1.0000  -0.8255   0.0000   0.0000   0.0000   0.3464
  29.900   0.8126   0.36208   0.35960  -0.1103  0.0107  1.0000  -0.8212   0.0000   0.0000   0.0000   0.3466
  30.000   0.8123   0.36271   0.36024  -0.1105  0.0107  1.0000  -0.8170   0.0000   0.0000   0.0000   0.3467


