xflr5 v6.61

 Calculated polar for: NACA 2412

 1 1 Reynolds number fixed          Mach number fixed         

 xtrf =   1.000 (top)        1.000 (bottom)
 Mach =   0.000     Re =     0.625 e 6     Ncrit =   9.000

  alpha     CL        CD       CDp       Cm    Top Xtr Bot Xtr   Cpmin    Chinge    XCp    
 ------- -------- --------- --------- -------- ------- ------- -------- --------- ---------
 -10.000  -0.8992   0.02035   0.01495  -0.0335  1.0000  0.0122  -5.8527   0.0000   0.0000   0.0000   0.2021
  -9.900  -0.8960   0.01985   0.01439  -0.0324  1.0000  0.0123  -5.8077   0.0000   0.0000   0.0000   0.2034
  -9.800  -0.8864   0.01923   0.01367  -0.0325  0.9995  0.0123  -5.7400   0.0000   0.0000   0.0000   0.2030
  -9.700  -0.8763   0.01866   0.01302  -0.0326  0.9990  0.0123  -5.6700   0.0000   0.0000   0.0000   0.2025
  -9.600  -0.8661   0.01814   0.01243  -0.0328  0.9985  0.0124  -5.5986   0.0000   0.0000   0.0000   0.2020
  -9.500  -0.8556   0.01766   0.01188  -0.0330  0.9979  0.0124  -5.5262   0.0000   0.0000   0.0000   0.2014
  -9.400  -0.8449   0.01722   0.01137  -0.0332  0.9972  0.0124  -5.4529   0.0000   0.0000   0.0000   0.2008
  -9.300  -0.8340   0.01681   0.01091  -0.0334  0.9965  0.0125  -5.3789   0.0000   0.0000   0.0000   0.2001
  -9.200  -0.8230   0.01643   0.01047  -0.0336  0.9957  0.0125  -5.3044   0.0000   0.0000   0.0000   0.1994
  -9.100  -0.8118   0.01608   0.01007  -0.0339  0.9949  0.0126  -5.2295   0.0000   0.0000   0.0000   0.1986
  -9.000  -0.8015   0.01554   0.00945  -0.0340  0.9939  0.0132  -5.1580   0.0000   0.0000   0.0000   0.1980
  -8.900  -0.7905   0.01515   0.00901  -0.0343  0.9929  0.0141  -5.0786   0.0000   0.0000   0.0000   0.1972
  -8.800  -0.7790   0.01488   0.00872  -0.0346  0.9918  0.0151  -4.9919   0.0000   0.0000   0.0000   0.1963
  -8.700  -0.7672   0.01468   0.00857  -0.0349  0.9908  0.0162  -4.8955   0.0000   0.0000   0.0000   0.1952
  -8.600  -0.7551   0.01457   0.00855  -0.0354  0.9898  0.0175  -4.7857   0.0000   0.0000   0.0000   0.1940
  -8.500  -0.7425   0.01459   0.00868  -0.0359  0.9888  0.0189  -4.6610   0.0000   0.0000   0.0000   0.1926
  -8.400  -0.7290   0.01483   0.00903  -0.0366  0.9879  0.0205  -4.5135   0.0000   0.0000   0.0000   0.1908
  -8.300  -0.7000   0.02045   0.01532  -0.0405  0.9882  0.0338  -3.6899   0.0000   0.0000   0.0000   0.1836
  -8.200  -0.6886   0.02012   0.01496  -0.0408  0.9870  0.0341  -3.6362   0.0000   0.0000   0.0000   0.1822
  -8.100  -0.6770   0.01977   0.01458  -0.0412  0.9857  0.0343  -3.5836   0.0000   0.0000   0.0000   0.1807
  -8.000  -0.6651   0.01942   0.01419  -0.0416  0.9843  0.0346  -3.5318   0.0000   0.0000   0.0000   0.1790
  -7.900  -0.6527   0.01904   0.01377  -0.0422  0.9828  0.0348  -3.4805   0.0000   0.0000   0.0000   0.1771
  -7.800  -0.6400   0.01865   0.01334  -0.0427  0.9812  0.0350  -3.4297   0.0000   0.0000   0.0000   0.1750
  -7.700  -0.6269   0.01825   0.01290  -0.0434  0.9795  0.0352  -3.3797   0.0000   0.0000   0.0000   0.1727
  -7.600  -0.6137   0.01784   0.01245  -0.0440  0.9778  0.0354  -3.3305   0.0000   0.0000   0.0000   0.1702
  -7.500  -0.6005   0.01744   0.01200  -0.0447  0.9761  0.0355  -3.2822   0.0000   0.0000   0.0000   0.1676
  -7.400  -0.5873   0.01704   0.01156  -0.0453  0.9744  0.0356  -3.2349   0.0000   0.0000   0.0000   0.1649
  -7.300  -0.5743   0.01665   0.01112  -0.0459  0.9729  0.0357  -3.1889   0.0000   0.0000   0.0000   0.1621
  -7.200  -0.5615   0.01627   0.01070  -0.0464  0.9715  0.0358  -3.1438   0.0000   0.0000   0.0000   0.1594
  -7.100  -0.5488   0.01590   0.01029  -0.0469  0.9702  0.0358  -3.0997   0.0000   0.0000   0.0000   0.1567
  -7.000  -0.5363   0.01558   0.00994  -0.0474  0.9689  0.0360  -3.0528   0.0000   0.0000   0.0000   0.1538
  -6.900  -0.5234   0.01539   0.00974  -0.0479  0.9678  0.0365  -2.9957   0.0000   0.0000   0.0000   0.1506
  -6.800  -0.5103   0.01525   0.00960  -0.0485  0.9667  0.0371  -2.9341   0.0000   0.0000   0.0000   0.1471
  -6.700  -0.4971   0.01512   0.00947  -0.0492  0.9656  0.0379  -2.8725   0.0000   0.0000   0.0000   0.1433
  -6.600  -0.4839   0.01495   0.00930  -0.0498  0.9645  0.0385  -2.8148   0.0000   0.0000   0.0000   0.1393
  -6.500  -0.4708   0.01469   0.00902  -0.0504  0.9634  0.0388  -2.7651   0.0000   0.0000   0.0000   0.1352
  -6.400  -0.4579   0.01430   0.00858  -0.0509  0.9624  0.0387  -2.7277   0.0000   0.0000   0.0000   0.1311
  -6.300  -0.4449   0.01391   0.00813  -0.0514  0.9613  0.0384  -2.6927   0.0000   0.0000   0.0000   0.1267
  -6.200  -0.4318   0.01354   0.00772  -0.0519  0.9602  0.0381  -2.6565   0.0000   0.0000   0.0000   0.1220
  -6.100  -0.4187   0.01320   0.00734  -0.0524  0.9590  0.0378  -2.6193   0.0000   0.0000   0.0000   0.1169
  -6.000  -0.4054   0.01290   0.00699  -0.0530  0.9576  0.0376  -2.5812   0.0000   0.0000   0.0000   0.1115
  -5.900  -0.3922   0.01262   0.00667  -0.0535  0.9562  0.0373  -2.5420   0.0000   0.0000   0.0000   0.1056
  -5.800  -0.3789   0.01236   0.00638  -0.0541  0.9546  0.0371  -2.5020   0.0000   0.0000   0.0000   0.0993
  -5.700  -0.3657   0.01214   0.00613  -0.0546  0.9526  0.0369  -2.4610   0.0000   0.0000   0.0000   0.0926
  -5.600  -0.3529   0.01197   0.00592  -0.0551  0.9500  0.0367  -2.4196   0.0000   0.0000   0.0000   0.0858
  -5.500  -0.3428   0.01177   0.00569  -0.0549  0.9490  0.0366  -2.3825   0.0000   0.0000   0.0000   0.0818
  -5.400  -0.3328   0.01158   0.00547  -0.0547  0.9478  0.0364  -2.3448   0.0000   0.0000   0.0000   0.0775
  -5.300  -0.3226   0.01139   0.00526  -0.0546  0.9462  0.0363  -2.3064   0.0000   0.0000   0.0000   0.0729
  -5.200  -0.3122   0.01122   0.00506  -0.0544  0.9443  0.0362  -2.2672   0.0000   0.0000   0.0000   0.0677
  -5.100  -0.3017   0.01105   0.00486  -0.0543  0.9420  0.0360  -2.2273   0.0000   0.0000   0.0000   0.0620
  -5.000  -0.2909   0.01089   0.00468  -0.0542  0.9393  0.0359  -2.1867   0.0000   0.0000   0.0000   0.0554
  -4.900  -0.2799   0.01074   0.00450  -0.0542  0.9364  0.0358  -2.1456   0.0000   0.0000   0.0000   0.0482
  -4.800  -0.2688   0.01059   0.00433  -0.0542  0.9334  0.0357  -2.1041   0.0000   0.0000   0.0000   0.0402
  -4.700  -0.2576   0.01045   0.00416  -0.0542  0.9303  0.0356  -2.0624   0.0000   0.0000   0.0000   0.0312
  -4.600  -0.2459   0.01031   0.00400  -0.0543  0.9273  0.0355  -2.0198   0.0000   0.0000   0.0000   0.0206
  -4.500  -0.2340   0.01019   0.00385  -0.0545  0.9246  0.0355  -1.9769   0.0000   0.0000   0.0000   0.0084
  -4.400  -0.2220   0.01007   0.00371  -0.0547  0.9218  0.0354  -1.9339   0.0000   0.0000   0.0000  -0.0054
  -4.300  -0.2098   0.00995   0.00357  -0.0550  0.9190  0.0354  -1.8909   0.0000   0.0000   0.0000  -0.0209
  -4.200  -0.1977   0.00984   0.00343  -0.0552  0.9160  0.0353  -1.8481   0.0000   0.0000   0.0000  -0.0384
  -4.100  -0.1855   0.00974   0.00330  -0.0554  0.9127  0.0353  -1.8056   0.0000   0.0000   0.0000  -0.0582
  -4.000  -0.1734   0.00965   0.00318  -0.0557  0.9090  0.0354  -1.7635   0.0000   0.0000   0.0000  -0.0807
  -3.900  -0.1612   0.00956   0.00307  -0.0559  0.9046  0.0354  -1.7218   0.0000   0.0000   0.0000  -0.1069
  -3.800  -0.1491   0.00950   0.00297  -0.0562  0.8999  0.0356  -1.6807   0.0000   0.0000   0.0000  -0.1372
  -3.700  -0.1387   0.00942   0.00288  -0.0560  0.8989  0.0358  -1.6434   0.0000   0.0000   0.0000  -0.1646
  -3.600  -0.1284   0.00935   0.00279  -0.0559  0.8977  0.0361  -1.6069   0.0000   0.0000   0.0000  -0.1965
  -3.500  -0.1180   0.00928   0.00270  -0.0557  0.8962  0.0366  -1.5717   0.0000   0.0000   0.0000  -0.2339
  -3.400  -0.1077   0.00921   0.00261  -0.0556  0.8944  0.0378  -1.5396   0.0000   0.0000   0.0000  -0.2786
  -3.300  -0.0978   0.00901   0.00250  -0.0552  0.8921  0.0473  -1.5279   0.0000   0.0000   0.0000  -0.3285
  -3.200  -0.0883   0.00879   0.00243  -0.0550  0.8894  0.0687  -1.4936   0.0000   0.0000   0.0000  -0.3876
  -3.100  -0.0790   0.00855   0.00234  -0.0548  0.8858  0.0885  -1.4563   0.0000   0.0000   0.0000  -0.4590
  -3.000  -0.0689   0.00844   0.00228  -0.0546  0.8811  0.0984  -1.4163   0.0000   0.0000   0.0000  -0.5596
  -2.900  -0.0584   0.00839   0.00223  -0.0545  0.8751  0.1040  -1.3754   0.0000   0.0000   0.0000  -0.7026
  -2.800  -0.0478   0.00832   0.00218  -0.0544  0.8674  0.1133  -1.3343   0.0000   0.0000   0.0000  -0.9106
  -2.700  -0.0372   0.00824   0.00211  -0.0543  0.8581  0.1217  -1.2934   0.0000   0.0000   0.0000  -1.2374
  -2.600  -0.0266   0.00815   0.00203  -0.0542  0.8467  0.1290  -1.2527   0.0000   0.0000   0.0000  -1.8252
  -2.500  -0.0162   0.00809   0.00195  -0.0540  0.8325  0.1355  -1.2126   0.0000   0.0000   0.0000  -3.1473
  -2.400  -0.0056   0.00806   0.00189  -0.0539  0.8148  0.1415  -1.1724   0.0000   0.0000   0.0000  -9.6202
  -2.300   0.0057   0.00803   0.00185  -0.0540  0.7997  0.1470  -1.1314   0.0000   0.0000   0.0000   9.8505
  -2.200   0.0161   0.00798   0.00182  -0.0539  0.7970  0.1556  -1.0922   0.0000   0.0000   0.0000   3.6535
  -2.100   0.0262   0.00788   0.00179  -0.0537  0.7924  0.1713  -1.0539   0.0000   0.0000   0.0000   2.3314
  -2.000   0.0364   0.00781   0.00175  -0.0536  0.7853  0.1832  -1.0157   0.0000   0.0000   0.0000   1.7415
  -1.900   0.0468   0.00777   0.00171  -0.0534  0.7748  0.1917  -0.9774   0.0000   0.0000   0.0000   1.4065
  -1.800   0.0572   0.00776   0.00166  -0.0533  0.7608  0.1973  -0.9394   0.0000   0.0000   0.0000   1.1930
  -1.700   0.0674   0.00778   0.00160  -0.0531  0.7444  0.2042  -0.9020   0.0000   0.0000   0.0000   1.0464
  -1.600   0.0772   0.00778   0.00156  -0.0528  0.7262  0.2164  -0.8657   0.0000   0.0000   0.0000   0.9415
  -1.500   0.0873   0.00775   0.00153  -0.0527  0.7079  0.2274  -0.8294   0.0000   0.0000   0.0000   0.8594
  -1.400   0.0980   0.00770   0.00151  -0.0527  0.6989  0.2366  -0.7923   0.0000   0.0000   0.0000   0.7923
  -1.300   0.1089   0.00767   0.00149  -0.0527  0.6961  0.2434  -0.7553   0.0000   0.0000   0.0000   0.7379
  -1.200   0.1198   0.00764   0.00148  -0.0527  0.6927  0.2486  -0.7185   0.0000   0.0000   0.0000   0.6931
  -1.100   0.1306   0.00761   0.00146  -0.0527  0.6881  0.2570  -0.6824   0.0000   0.0000   0.0000   0.6562
  -1.000   0.1411   0.00754   0.00144  -0.0527  0.6816  0.2683  -0.6473   0.0000   0.0000   0.0000   0.6255
  -0.900   0.1514   0.00750   0.00143  -0.0526  0.6725  0.2782  -0.6125   0.0000   0.0000   0.0000   0.5990
  -0.800   0.1617   0.00750   0.00142  -0.0525  0.6607  0.2863  -0.5783   0.0000   0.0000   0.0000   0.5758
  -0.700   0.1717   0.00753   0.00141  -0.0523  0.6475  0.2923  -0.5447   0.0000   0.0000   0.0000   0.5554
  -0.600   0.1817   0.00758   0.00140  -0.0521  0.6341  0.2969  -0.5161   0.0000   0.0000   0.0000   0.5373
  -0.500   0.1918   0.00762   0.00139  -0.0519  0.6204  0.3017  -0.5237   0.0000   0.0000   0.0000   0.5211
  -0.400   0.2021   0.00764   0.00139  -0.0518  0.6069  0.3146  -0.5317   0.0000   0.0000   0.0000   0.5065
  -0.300   0.2127   0.00761   0.00139  -0.0518  0.5990  0.3339  -0.5410   0.0000   0.0000   0.0000   0.4934
  -0.200   0.2233   0.00753   0.00138  -0.0518  0.5956  0.3530  -0.5503   0.0000   0.0000   0.0000   0.4817
  -0.100   0.2337   0.00747   0.00138  -0.0518  0.5912  0.3715  -0.5596   0.0000   0.0000   0.0000   0.4710
   0.000   0.2442   0.00744   0.00139  -0.0517  0.5852  0.3854  -0.5689   0.0000   0.0000   0.0000   0.4611
   0.200   0.2638   0.00731   0.00141  -0.0514  0.5682  0.4509  -0.5870   0.0000   0.0000   0.0000   0.4439
   0.300   0.2730   0.00723   0.00143  -0.0511  0.5582  0.4895  -0.5974   0.0000   0.0000   0.0000   0.4361
   0.400   0.2818   0.00697   0.00147  -0.0508  0.5591  0.5642  -0.6075   0.0000   0.0000   0.0000   0.4289
   0.500   0.2918   0.00691   0.00149  -0.0506  0.5549  0.5917  -0.6185   0.0000   0.0000   0.0000   0.4221
   0.600   0.3021   0.00691   0.00150  -0.0505  0.5493  0.6089  -0.6296   0.0000   0.0000   0.0000   0.4156
   0.700   0.3116   0.00687   0.00152  -0.0502  0.5422  0.6390  -0.6402   0.0000   0.0000   0.0000   0.4095
   0.800   0.3210   0.00684   0.00154  -0.0499  0.5335  0.6626  -0.6509   0.0000   0.0000   0.0000   0.4037
   0.900   0.3309   0.00683   0.00155  -0.0497  0.5231  0.6809  -0.6618   0.0000   0.0000   0.0000   0.3983
   1.000   0.3412   0.00685   0.00157  -0.0496  0.5123  0.6933  -0.6730   0.0000   0.0000   0.0000   0.3933
   1.100   0.3518   0.00686   0.00159  -0.0495  0.5031  0.7064  -0.6844   0.0000   0.0000   0.0000   0.3886
   1.200   0.3617   0.00680   0.00162  -0.0493  0.4992  0.7348  -0.6955   0.0000   0.0000   0.0000   0.3840
   1.300   0.3717   0.00674   0.00166  -0.0490  0.4979  0.7594  -0.7067   0.0000   0.0000   0.0000   0.3796
   1.400   0.3820   0.00671   0.00168  -0.0488  0.4961  0.7798  -0.7181   0.0000   0.0000   0.0000   0.3755
   1.500   0.3927   0.00671   0.00170  -0.0488  0.4935  0.7949  -0.7301   0.0000   0.0000   0.0000   0.3717
   1.600   0.4027   0.00670   0.00174  -0.0485  0.4900  0.8210  -0.7444   0.0000   0.0000   0.0000   0.3679
   1.700   0.4119   0.00666   0.00180  -0.0480  0.4851  0.8610  -0.7705   0.0000   0.0000   0.0000   0.3639
   1.800   0.4218   0.00669   0.00184  -0.0476  0.4776  0.8889  -0.8044   0.0000   0.0000   0.0000   0.3603
   1.900   0.4327   0.00676   0.00190  -0.0476  0.4668  0.9086  -0.8404   0.0000   0.0000   0.0000   0.3572
   2.000   0.4475   0.00688   0.00198  -0.0483  0.4529  0.9357  -0.8829   0.0000   0.0000   0.0000   0.3551
   2.100   0.4597   0.00700   0.00203  -0.0485  0.4410  0.9516  -0.9215   0.0000   0.0000   0.0000   0.3526
   2.200   0.4821   0.00712   0.00208  -0.0511  0.4253  0.9660  -0.9773   0.0000   0.0000   0.0000   0.3530
   2.300   0.5018   0.00721   0.00212  -0.0531  0.4109  0.9763  -1.0292   0.0000   0.0000   0.0000   0.3526
   2.400   0.5204   0.00727   0.00216  -0.0547  0.4009  0.9841  -1.0799   0.0000   0.0000   0.0000   0.3520
   2.500   0.5389   0.00732   0.00220  -0.0564  0.3984  0.9903  -1.1312   0.0000   0.0000   0.0000   0.3514
   2.600   0.5570   0.00736   0.00223  -0.0580  0.3964  0.9946  -1.1823   0.0000   0.0000   0.0000   0.3507
   2.700   0.5743   0.00741   0.00227  -0.0593  0.3941  0.9975  -1.2326   0.0000   0.0000   0.0000   0.3499
   2.800   0.5906   0.00746   0.00230  -0.0605  0.3913  0.9993  -1.2818   0.0000   0.0000   0.0000   0.3490
   2.900   0.6038   0.00750   0.00233  -0.0611  0.3881  1.0000  -1.3257   0.0000   0.0000   0.0000   0.3475
   3.000   0.6133   0.00754   0.00235  -0.0608  0.3843  1.0000  -1.3634   0.0000   0.0000   0.0000   0.3455
   3.100   0.6228   0.00759   0.00238  -0.0606  0.3791  1.0000  -1.4011   0.0000   0.0000   0.0000   0.3435
   3.200   0.6319   0.00767   0.00241  -0.0603  0.3712  1.0000  -1.4386   0.0000   0.0000   0.0000   0.3415
   3.300   0.6407   0.00777   0.00245  -0.0599  0.3609  1.0000  -1.4758   0.0000   0.0000   0.0000   0.3396
   3.400   0.6491   0.00790   0.00250  -0.0595  0.3476  1.0000  -1.5123   0.0000   0.0000   0.0000   0.3376
   3.500   0.6573   0.00805   0.00255  -0.0590  0.3330  1.0000  -1.5487   0.0000   0.0000   0.0000   0.3357
   3.600   0.6657   0.00818   0.00259  -0.0586  0.3143  1.0000  -1.5857   0.0000   0.0000   0.0000   0.3338
   3.700   0.6747   0.00826   0.00263  -0.0583  0.2988  1.0000  -1.6241   0.0000   0.0000   0.0000   0.3321
   3.800   0.6836   0.00836   0.00268  -0.0579  0.2907  1.0000  -1.6625   0.0000   0.0000   0.0000   0.3303
   3.900   0.6918   0.00850   0.00274  -0.0575  0.2787  1.0000  -1.6999   0.0000   0.0000   0.0000   0.3285
   4.000   0.6991   0.00873   0.00283  -0.0568  0.2647  1.0000  -1.7356   0.0000   0.0000   0.0000   0.3267
   4.100   0.7068   0.00892   0.00293  -0.0563  0.2499  1.0000  -1.7722   0.0000   0.0000   0.0000   0.3250
   4.200   0.7156   0.00903   0.00299  -0.0559  0.2429  1.0000  -1.8113   0.0000   0.0000   0.0000   0.3234
   4.300   0.7239   0.00917   0.00307  -0.0555  0.2329  1.0000  -1.8497   0.0000   0.0000   0.0000   0.3218
   4.400   0.7316   0.00937   0.00316  -0.0549  0.2195  1.0000  -1.8868   0.0000   0.0000   0.0000   0.3201
   4.500   0.7396   0.00956   0.00326  -0.0544  0.2023  1.0000  -1.9246   0.0000   0.0000   0.0000   0.3185
   4.600   0.7486   0.00967   0.00334  -0.0541  0.1939  1.0000  -1.9648   0.0000   0.0000   0.0000   0.3171
   4.700   0.7569   0.00983   0.00342  -0.0537  0.1821  1.0000  -2.0036   0.0000   0.0000   0.0000   0.3156
   4.800   0.7637   0.01011   0.00356  -0.0530  0.1594  1.0000  -2.0392   0.0000   0.0000   0.0000   0.3140
   4.900   0.7721   0.01027   0.00366  -0.0526  0.1445  1.0000  -2.0781   0.0000   0.0000   0.0000   0.3126
   5.000   0.7793   0.01053   0.00380  -0.0519  0.1269  1.0000  -2.1142   0.0000   0.0000   0.0000   0.3111
   5.100   0.7852   0.01091   0.00399  -0.0511  0.0944  1.0000  -2.1467   0.0000   0.0000   0.0000   0.3095
   5.200   0.7901   0.01139   0.00424  -0.0501  0.0690  1.0000  -2.1754   0.0000   0.0000   0.0000   0.3077
   5.300   0.7953   0.01189   0.00453  -0.0491  0.0430  1.0000  -2.1885   0.0000   0.0000   0.0000   0.3059
   5.400   0.8038   0.01209   0.00470  -0.0486  0.0392  1.0000  -2.2117   0.0000   0.0000   0.0000   0.3046
   5.500   0.8131   0.01222   0.00483  -0.0483  0.0380  1.0000  -2.2445   0.0000   0.0000   0.0000   0.3034
   5.600   0.8225   0.01233   0.00496  -0.0480  0.0373  1.0000  -2.2801   0.0000   0.0000   0.0000   0.3022
   5.700   0.8320   0.01245   0.00509  -0.0477  0.0369  1.0000  -2.3171   0.0000   0.0000   0.0000   0.3011
   5.800   0.8415   0.01256   0.00522  -0.0474  0.0366  1.0000  -2.3550   0.0000   0.0000   0.0000   0.3000
   5.900   0.8510   0.01268   0.00535  -0.0472  0.0365  1.0000  -2.3935   0.0000   0.0000   0.0000   0.2990
   6.000   0.8605   0.01280   0.00549  -0.0469  0.0363  1.0000  -2.4324   0.0000   0.0000   0.0000   0.2980
   6.100   0.8700   0.01293   0.00563  -0.0466  0.0362  1.0000  -2.4717   0.0000   0.0000   0.0000   0.2970
   6.200   0.8795   0.01306   0.00578  -0.0464  0.0362  1.0000  -2.5113   0.0000   0.0000   0.0000   0.2960
   6.300   0.8889   0.01319   0.00593  -0.0461  0.0361  1.0000  -2.5511   0.0000   0.0000   0.0000   0.2950
   6.400   0.8983   0.01333   0.00609  -0.0459  0.0361  1.0000  -2.5911   0.0000   0.0000   0.0000   0.2941
   6.500   0.9077   0.01347   0.00625  -0.0456  0.0361  1.0000  -2.6313   0.0000   0.0000   0.0000   0.2931
   6.600   0.9171   0.01361   0.00642  -0.0453  0.0361  1.0000  -2.6715   0.0000   0.0000   0.0000   0.2922
   6.700   0.9264   0.01376   0.00659  -0.0450  0.0361  1.0000  -2.7117   0.0000   0.0000   0.0000   0.2913
   6.800   0.9356   0.01392   0.00676  -0.0447  0.0362  1.0000  -2.7520   0.0000   0.0000   0.0000   0.2904
   6.900   0.9448   0.01408   0.00694  -0.0444  0.0362  1.0000  -2.7922   0.0000   0.0000   0.0000   0.2895
   7.000   0.9539   0.01425   0.00713  -0.0441  0.0361  1.0000  -2.8329   0.0000   0.0000   0.0000   0.2886
   7.100   0.9630   0.01442   0.00731  -0.0439  0.0358  1.0000  -2.8747   0.0000   0.0000   0.0000   0.2878
   7.200   0.9721   0.01459   0.00749  -0.0436  0.0352  1.0000  -2.9172   0.0000   0.0000   0.0000   0.2869
   7.300   0.9810   0.01477   0.00767  -0.0432  0.0345  1.0000  -2.9599   0.0000   0.0000   0.0000   0.2861
   7.400   0.9899   0.01495   0.00787  -0.0429  0.0339  1.0000  -3.0024   0.0000   0.0000   0.0000   0.2852
   7.500   0.9987   0.01514   0.00807  -0.0426  0.0333  1.0000  -3.0446   0.0000   0.0000   0.0000   0.2844
   7.600   1.0074   0.01534   0.00828  -0.0422  0.0329  1.0000  -3.0864   0.0000   0.0000   0.0000   0.2835
   7.700   1.0161   0.01554   0.00850  -0.0419  0.0327  1.0000  -3.1279   0.0000   0.0000   0.0000   0.2827
   7.800   1.0247   0.01574   0.00872  -0.0415  0.0326  1.0000  -3.1694   0.0000   0.0000   0.0000   0.2819
   7.900   1.0333   0.01595   0.00895  -0.0412  0.0325  1.0000  -3.2108   0.0000   0.0000   0.0000   0.2811
   8.000   1.0417   0.01617   0.00918  -0.0408  0.0324  1.0000  -3.2523   0.0000   0.0000   0.0000   0.2803
   8.100   1.0501   0.01639   0.00942  -0.0404  0.0322  1.0000  -3.2937   0.0000   0.0000   0.0000   0.2794
   8.200   1.0584   0.01662   0.00967  -0.0400  0.0321  1.0000  -3.3351   0.0000   0.0000   0.0000   0.2786
   8.300   1.0665   0.01685   0.00992  -0.0396  0.0319  1.0000  -3.3764   0.0000   0.0000   0.0000   0.2778
   8.400   1.0746   0.01709   0.01018  -0.0391  0.0318  1.0000  -3.4175   0.0000   0.0000   0.0000   0.2770
   8.500   1.0826   0.01733   0.01045  -0.0387  0.0316  1.0000  -3.4586   0.0000   0.0000   0.0000   0.2762
   8.600   1.0904   0.01759   0.01072  -0.0382  0.0315  1.0000  -3.4995   0.0000   0.0000   0.0000   0.2754
   8.700   1.1139   0.01632   0.00939  -0.0412  0.0215  1.0000  -3.9413   0.0000   0.0000   0.0000   0.2771
   8.800   1.1231   0.01644   0.00944  -0.0410  0.0197  1.0000  -4.0373   0.0000   0.0000   0.0000   0.2765
   8.900   1.1315   0.01664   0.00957  -0.0407  0.0181  1.0000  -4.1198   0.0000   0.0000   0.0000   0.2759
   9.000   1.1395   0.01687   0.00974  -0.0404  0.0168  1.0000  -4.1950   0.0000   0.0000   0.0000   0.2751
   9.100   1.1476   0.01710   0.00993  -0.0400  0.0156  1.0000  -4.2638   0.0000   0.0000   0.0000   0.2744
   9.200   1.1556   0.01733   0.01015  -0.0396  0.0146  1.0000  -4.3286   0.0000   0.0000   0.0000   0.2737
   9.300   1.1634   0.01757   0.01040  -0.0391  0.0137  1.0000  -4.3910   0.0000   0.0000   0.0000   0.2729
   9.400   1.1709   0.01785   0.01069  -0.0386  0.0131  1.0000  -4.4506   0.0000   0.0000   0.0000   0.2721
   9.500   1.1779   0.01815   0.01103  -0.0380  0.0126  1.0000  -4.5081   0.0000   0.0000   0.0000   0.2713
   9.600   1.1853   0.01840   0.01129  -0.0375  0.0125  1.0000  -4.5654   0.0000   0.0000   0.0000   0.2705
   9.700   1.1926   0.01867   0.01158  -0.0370  0.0124  1.0000  -4.6223   0.0000   0.0000   0.0000   0.2697
   9.800   1.1997   0.01894   0.01188  -0.0364  0.0124  1.0000  -4.6788   0.0000   0.0000   0.0000   0.2689
   9.900   1.2065   0.01922   0.01219  -0.0358  0.0123  1.0000  -4.7347   0.0000   0.0000   0.0000   0.2681
  10.000   1.2132   0.01951   0.01252  -0.0352  0.0123  1.0000  -4.7901   0.0000   0.0000   0.0000   0.2673
  10.100   1.2194   0.01982   0.01285  -0.0345  0.0122  1.0000  -4.8445   0.0000   0.0000   0.0000   0.2664
  10.200   1.2249   0.02012   0.01319  -0.0337  0.0122  1.0000  -4.8966   0.0000   0.0000   0.0000   0.2655
  10.300   1.2300   0.02045   0.01355  -0.0328  0.0122  1.0000  -4.9477   0.0000   0.0000   0.0000   0.2645
  10.400   1.2349   0.02078   0.01392  -0.0319  0.0121  1.0000  -4.9983   0.0000   0.0000   0.0000   0.2635
  10.500   1.2396   0.02114   0.01431  -0.0311  0.0121  1.0000  -5.0486   0.0000   0.0000   0.0000   0.2625
  10.600   1.2442   0.02151   0.01472  -0.0302  0.0121  1.0000  -5.0985   0.0000   0.0000   0.0000   0.2615
  10.700   1.2486   0.02190   0.01514  -0.0292  0.0120  1.0000  -5.1479   0.0000   0.0000   0.0000   0.2606
  10.800   1.2528   0.02231   0.01559  -0.0283  0.0120  1.0000  -5.1967   0.0000   0.0000   0.0000   0.2596
  10.900   1.2568   0.02274   0.01606  -0.0274  0.0120  1.0000  -5.2447   0.0000   0.0000   0.0000   0.2586
  11.000   1.2599   0.02319   0.01655  -0.0264  0.0120  1.0000  -5.2900   0.0000   0.0000   0.0000   0.2576
  11.100   1.2621   0.02366   0.01706  -0.0252  0.0120  1.0000  -5.3317   0.0000   0.0000   0.0000   0.2565
  11.200   1.2641   0.02415   0.01760  -0.0241  0.0119  1.0000  -5.3730   0.0000   0.0000   0.0000   0.2554
  11.300   1.2663   0.02466   0.01816  -0.0230  0.0119  1.0000  -5.4149   0.0000   0.0000   0.0000   0.2543
  11.400   1.2685   0.02521   0.01875  -0.0220  0.0119  1.0000  -5.4569   0.0000   0.0000   0.0000   0.2533
  11.500   1.2928   0.02410   0.01754  -0.0240  0.0120  1.0000  -5.5165   0.0000   0.0000   0.0000   0.2544
  11.600   1.2957   0.02458   0.01805  -0.0230  0.0120  1.0000  -5.5602   0.0000   0.0000   0.0000   0.2534
  11.700   1.2982   0.02510   0.01862  -0.0221  0.0119  1.0000  -5.6035   0.0000   0.0000   0.0000   0.2525
  11.800   1.3004   0.02566   0.01924  -0.0211  0.0119  1.0000  -5.6459   0.0000   0.0000   0.0000   0.2515
  11.900   1.3012   0.02631   0.01993  -0.0201  0.0119  1.0000  -5.6834   0.0000   0.0000   0.0000   0.2506
  12.000   1.3018   0.02699   0.02067  -0.0191  0.0119  1.0000  -5.7203   0.0000   0.0000   0.0000   0.2496
  12.100   1.3029   0.02769   0.02142  -0.0182  0.0119  1.0000  -5.7590   0.0000   0.0000   0.0000   0.2487
  12.200   1.3041   0.02841   0.02220  -0.0173  0.0119  1.0000  -5.7982   0.0000   0.0000   0.0000   0.2478
  12.300   1.3052   0.02916   0.02301  -0.0164  0.0119  1.0000  -5.8371   0.0000   0.0000   0.0000   0.2469
  12.400   1.3062   0.02994   0.02385  -0.0155  0.0119  1.0000  -5.8751   0.0000   0.0000   0.0000   0.2461
  12.500   1.3068   0.03076   0.02473  -0.0147  0.0118  1.0000  -5.9118   0.0000   0.0000   0.0000   0.2452
  12.600   1.3071   0.03162   0.02565  -0.0138  0.0118  1.0000  -5.9469   0.0000   0.0000   0.0000   0.2444
  12.700   1.3070   0.03252   0.02662  -0.0130  0.0118  1.0000  -5.9800   0.0000   0.0000   0.0000   0.2436
  12.800   1.3062   0.03345   0.02762  -0.0121  0.0118  1.0000  -6.0098   0.0000   0.0000   0.0000   0.2427
  12.900   1.3032   0.03453   0.02876  -0.0113  0.0118  1.0000  -6.0297   0.0000   0.0000   0.0000   0.2419
  13.000   1.3001   0.03567   0.02997  -0.0105  0.0118  1.0000  -6.0489   0.0000   0.0000   0.0000   0.2411
  13.100   1.2981   0.03679   0.03117  -0.0098  0.0118  1.0000  -6.0722   0.0000   0.0000   0.0000   0.2404
  13.200   1.2964   0.03794   0.03239  -0.0092  0.0118  1.0000  -6.0961   0.0000   0.0000   0.0000   0.2397
  13.300   1.2947   0.03914   0.03365  -0.0085  0.0118  1.0000  -6.1192   0.0000   0.0000   0.0000   0.2390
  13.400   1.2926   0.04038   0.03497  -0.0080  0.0118  1.0000  -6.1407   0.0000   0.0000   0.0000   0.2384
  13.500   1.2903   0.04169   0.03636  -0.0074  0.0118  1.0000  -6.1598   0.0000   0.0000   0.0000   0.2378
  13.600   1.2874   0.04308   0.03782  -0.0069  0.0118  1.0000  -6.1761   0.0000   0.0000   0.0000   0.2372
  13.700   1.2832   0.04463   0.03946  -0.0066  0.0118  1.0000  -6.1852   0.0000   0.0000   0.0000   0.2368
  13.800   1.2774   0.04640   0.04130  -0.0066  0.0118  1.0000  -6.1858   0.0000   0.0000   0.0000   0.2365
  13.900   1.2729   0.04806   0.04304  -0.0064  0.0118  1.0000  -6.1918   0.0000   0.0000   0.0000   0.2362
  14.000   1.2686   0.04971   0.04477  -0.0062  0.0118  1.0000  -6.1981   0.0000   0.0000   0.0000   0.2358
  14.100   1.2641   0.05140   0.04654  -0.0060  0.0119  1.0000  -6.2026   0.0000   0.0000   0.0000   0.2355
  14.200   1.2592   0.05316   0.04838  -0.0059  0.0119  1.0000  -6.2043   0.0000   0.0000   0.0000   0.2352
  14.300   1.2537   0.05500   0.05030  -0.0059  0.0119  1.0000  -6.2024   0.0000   0.0000   0.0000   0.2351
  14.400   1.2473   0.05699   0.05237  -0.0061  0.0119  1.0000  -6.1948   0.0000   0.0000   0.0000   0.2350
  14.500   1.2385   0.05941   0.05488  -0.0069  0.0119  1.0000  -6.1730   0.0000   0.0000   0.0000   0.2354
  14.600   1.2314   0.06159   0.05713  -0.0074  0.0119  1.0000  -6.1596   0.0000   0.0000   0.0000   0.2356
  14.700   1.2245   0.06366   0.05928  -0.0077  0.0119  1.0000  -6.1466   0.0000   0.0000   0.0000   0.2357
  14.800   1.2173   0.06576   0.06146  -0.0081  0.0119  1.0000  -6.1315   0.0000   0.0000   0.0000   0.2358
  14.900   1.2099   0.06800   0.06377  -0.0086  0.0119  1.0000  -6.1136   0.0000   0.0000   0.0000   0.2360
  15.000   1.2020   0.07042   0.06627  -0.0093  0.0119  1.0000  -6.0915   0.0000   0.0000   0.0000   0.2365
  15.100   1.1912   0.07360   0.06952  -0.0110  0.0119  1.0000  -6.0500   0.0000   0.0000   0.0000   0.2377
  15.200   1.1828   0.07632   0.07231  -0.0121  0.0119  1.0000  -6.0211   0.0000   0.0000   0.0000   0.2384
  15.300   1.1751   0.07895   0.07502  -0.0130  0.0119  1.0000  -5.9953   0.0000   0.0000   0.0000   0.2391
  15.400   1.1675   0.08162   0.07776  -0.0140  0.0120  1.0000  -5.9681   0.0000   0.0000   0.0000   0.2398
  15.500   1.1595   0.08440   0.08061  -0.0151  0.0120  1.0000  -5.9375   0.0000   0.0000   0.0000   0.2406
  15.600   1.1511   0.08732   0.08361  -0.0164  0.0120  1.0000  -5.9021   0.0000   0.0000   0.0000   0.2415
  15.700   1.1406   0.09086   0.08722  -0.0184  0.0120  1.0000  -5.8513   0.0000   0.0000   0.0000   0.2432
  15.800   1.1302   0.09459   0.09101  -0.0206  0.0120  1.0000  -5.7970   0.0000   0.0000   0.0000   0.2451
  15.900   1.1219   0.09770   0.09419  -0.0221  0.0120  1.0000  -5.7557   0.0000   0.0000   0.0000   0.2463
  16.000   1.1138   0.10072   0.09728  -0.0234  0.0120  1.0000  -5.7147   0.0000   0.0000   0.0000   0.2475
  16.100   1.1057   0.10378   0.10040  -0.0248  0.0120  1.0000  -5.6712   0.0000   0.0000   0.0000   0.2487
  16.200   1.0973   0.10700   0.10369  -0.0264  0.0120  1.0000  -5.6230   0.0000   0.0000   0.0000   0.2502
  16.300   1.0885   0.11043   0.10718  -0.0282  0.0120  1.0000  -5.5680   0.0000   0.0000   0.0000   0.2519
  16.400   1.0779   0.11456   0.11138  -0.0307  0.0120  1.0000  -5.4942   0.0000   0.0000   0.0000   0.2543
  16.500   1.0678   0.11854   0.11542  -0.0330  0.0120  1.0000  -5.4211   0.0000   0.0000   0.0000   0.2566
  16.600   1.0579   0.12249   0.11943  -0.0353  0.0120  1.0000  -5.3456   0.0000   0.0000   0.0000   0.2589
  16.700   1.0464   0.12713   0.12414  -0.0381  0.0121  1.0000  -5.2491   0.0000   0.0000   0.0000   0.2619
  16.800   1.0358   0.13137   0.12843  -0.0405  0.0121  1.0000  -5.1580   0.0000   0.0000   0.0000   0.2645
  16.900   1.0246   0.13582   0.13294  -0.0430  0.0121  1.0000  -5.0551   0.0000   0.0000   0.0000   0.2673
  17.000   1.0112   0.14104   0.13822  -0.0460  0.0121  1.0000  -4.9223   0.0000   0.0000   0.0000   0.2708
  17.100   0.9993   0.14582   0.14304  -0.0486  0.0121  1.0000  -4.7968   0.0000   0.0000   0.0000   0.2739
  17.200   0.9835   0.15153   0.14882  -0.0519  0.0121  1.0000  -4.6156   0.0000   0.0000   0.0000   0.2781
  17.300   0.9684   0.15699   0.15432  -0.0549  0.0121  1.0000  -4.4310   0.0000   0.0000   0.0000   0.2821
  17.400   0.9489   0.16386   0.16123  -0.0584  0.0122  1.0000  -4.1741   0.0000   0.0000   0.0000   0.2872


