xflr5 v6.61

 Calculated polar for: NACA65-012

 1 1 Reynolds number fixed          Mach number fixed         

 xtrf =   1.000 (top)        1.000 (bottom)
 Mach =   0.000     Re =     0.450 e 6     Ncrit =   9.000

  alpha     CL        CD       CDp       Cm    Top Xtr Bot Xtr   Cpmin    Chinge    XCp    
 ------- -------- --------- --------- -------- ------- ------- -------- --------- ---------
 -10.000  -0.8471   0.05671   0.05370  -0.0237  1.0000  0.0254  -4.0900   0.0000   0.0000   0.0000   0.2132
  -9.900  -0.8510   0.05526   0.05217  -0.0231  1.0000  0.0256  -4.1079   0.0000   0.0000   0.0000   0.2142
  -9.800  -0.8545   0.05374   0.05055  -0.0224  1.0000  0.0260  -4.1325   0.0000   0.0000   0.0000   0.2152
  -9.600  -0.9191   0.03688   0.03216  -0.0148  1.0000  0.0183  -5.5175   0.0000   0.0000   0.0000   0.2250
  -9.400  -0.8837   0.04172   0.03752  -0.0169  1.0000  0.0219  -4.7821   0.0000   0.0000   0.0000   0.2224
  -9.300  -0.8805   0.04018   0.03593  -0.0166  1.0000  0.0215  -4.7493   0.0000   0.0000   0.0000   0.2228
  -9.200  -0.8782   0.03856   0.03420  -0.0160  1.0000  0.0212  -4.7481   0.0000   0.0000   0.0000   0.2235
  -9.100  -0.8759   0.03688   0.03237  -0.0153  1.0000  0.0210  -4.7626   0.0000   0.0000   0.0000   0.2243
  -9.000  -0.8730   0.03522   0.03055  -0.0145  1.0000  0.0208  -4.7794   0.0000   0.0000   0.0000   0.2252
  -8.900  -0.8693   0.03362   0.02877  -0.0138  1.0000  0.0207  -4.7920   0.0000   0.0000   0.0000   0.2260
  -8.800  -0.8648   0.03202   0.02700  -0.0132  1.0000  0.0206  -4.8035   0.0000   0.0000   0.0000   0.2267
  -8.700  -0.8599   0.03030   0.02510  -0.0125  1.0000  0.0203  -4.8255   0.0000   0.0000   0.0000   0.2275
  -8.600  -0.8543   0.02859   0.02318  -0.0119  1.0000  0.0201  -4.8500   0.0000   0.0000   0.0000   0.2282
  -8.500  -0.8472   0.02731   0.02174  -0.0114  1.0000  0.0201  -4.8351   0.0000   0.0000   0.0000   0.2287
  -8.400  -0.8394   0.02629   0.02059  -0.0111  1.0000  0.0202  -4.7971   0.0000   0.0000   0.0000   0.2291
  -8.300  -0.8312   0.02540   0.01959  -0.0108  1.0000  0.0204  -4.7473   0.0000   0.0000   0.0000   0.2293
  -8.200  -0.8226   0.02460   0.01870  -0.0105  1.0000  0.0206  -4.6902   0.0000   0.0000   0.0000   0.2296
  -8.100  -0.8139   0.02388   0.01788  -0.0103  1.0000  0.0208  -4.6281   0.0000   0.0000   0.0000   0.2299
  -8.000  -0.8053   0.02322   0.01714  -0.0100  1.0000  0.0211  -4.5626   0.0000   0.0000   0.0000   0.2301
  -7.900  -0.7970   0.02262   0.01646  -0.0097  1.0000  0.0213  -4.4956   0.0000   0.0000   0.0000   0.2305
  -7.800  -0.7857   0.02200   0.01576  -0.0099  0.9968  0.0215  -4.4142   0.0000   0.0000   0.0000   0.2301
  -7.700  -0.7722   0.02141   0.01506  -0.0106  0.9926  0.0218  -4.3209   0.0000   0.0000   0.0000   0.2291
  -7.600  -0.7585   0.02089   0.01446  -0.0112  0.9890  0.0221  -4.2242   0.0000   0.0000   0.0000   0.2280
  -7.500  -0.7448   0.02048   0.01397  -0.0119  0.9853  0.0223  -4.1451   0.0000   0.0000   0.0000   0.2269
  -7.400  -0.7312   0.02021   0.01361  -0.0126  0.9816  0.0226  -4.0587   0.0000   0.0000   0.0000   0.2258
  -7.300  -0.7193   0.01888   0.01228  -0.0130  0.9791  0.0231  -4.0155   0.0000   0.0000   0.0000   0.2250
  -7.200  -0.7071   0.01836   0.01178  -0.0135  0.9753  0.0237  -3.9219   0.0000   0.0000   0.0000   0.2240
  -7.100  -0.6950   0.01806   0.01148  -0.0140  0.9710  0.0243  -3.8229   0.0000   0.0000   0.0000   0.2231
  -7.000  -0.6835   0.01780   0.01120  -0.0142  0.9665  0.0249  -3.7311   0.0000   0.0000   0.0000   0.2225
  -6.900  -0.6730   0.01753   0.01091  -0.0143  0.9617  0.0254  -3.6485   0.0000   0.0000   0.0000   0.2222
  -6.800  -0.6634   0.01725   0.01060  -0.0140  0.9568  0.0259  -3.5748   0.0000   0.0000   0.0000   0.2223
  -6.700  -0.6546   0.01696   0.01026  -0.0136  0.9519  0.0263  -3.5072   0.0000   0.0000   0.0000   0.2228
  -6.600  -0.6463   0.01670   0.00996  -0.0131  0.9466  0.0267  -3.4415   0.0000   0.0000   0.0000   0.2234
  -6.500  -0.6382   0.01645   0.00968  -0.0125  0.9416  0.0270  -3.3749   0.0000   0.0000   0.0000   0.2241
  -6.400  -0.6300   0.01625   0.00943  -0.0119  0.9371  0.0274  -3.3072   0.0000   0.0000   0.0000   0.2249
  -6.300  -0.6217   0.01607   0.00921  -0.0114  0.9325  0.0276  -3.2371   0.0000   0.0000   0.0000   0.2256
  -6.200  -0.6145   0.01565   0.00877  -0.0107  0.9280  0.0280  -3.1795   0.0000   0.0000   0.0000   0.2265
  -6.100  -0.6082   0.01519   0.00830  -0.0099  0.9239  0.0285  -3.1233   0.0000   0.0000   0.0000   0.2277
  -6.000  -0.6005   0.01487   0.00798  -0.0094  0.9195  0.0290  -3.0548   0.0000   0.0000   0.0000   0.2285
  -5.900  -0.5926   0.01463   0.00773  -0.0088  0.9159  0.0295  -2.9837   0.0000   0.0000   0.0000   0.2293
  -5.800  -0.5840   0.01441   0.00750  -0.0085  0.9119  0.0300  -2.9103   0.0000   0.0000   0.0000   0.2298
  -5.700  -0.5756   0.01421   0.00728  -0.0080  0.9083  0.0306  -2.8385   0.0000   0.0000   0.0000   0.2304
  -5.600  -0.5669   0.01401   0.00706  -0.0076  0.9047  0.0313  -2.7664   0.0000   0.0000   0.0000   0.2310
  -5.500  -0.5578   0.01384   0.00686  -0.0073  0.9010  0.0321  -2.6927   0.0000   0.0000   0.0000   0.2315
  -5.300  -0.5396   0.01350   0.00644  -0.0066  0.8941  0.0336  -2.5478   0.0000   0.0000   0.0000   0.2324
  -5.200  -0.5320   0.01315   0.00609  -0.0061  0.8907  0.0347  -2.4858   0.0000   0.0000   0.0000   0.2332
  -5.100  -0.5230   0.01295   0.00589  -0.0058  0.8876  0.0356  -2.4260   0.0000   0.0000   0.0000   0.2337
  -5.000  -0.5135   0.01277   0.00570  -0.0055  0.8840  0.0366  -2.3661   0.0000   0.0000   0.0000   0.2340
  -4.900  -0.5042   0.01261   0.00551  -0.0052  0.8811  0.0377  -2.3078   0.0000   0.0000   0.0000   0.2345
  -4.800  -0.4945   0.01247   0.00533  -0.0050  0.8783  0.0387  -2.2491   0.0000   0.0000   0.0000   0.2348
  -4.700  -0.4850   0.01225   0.00510  -0.0048  0.8749  0.0400  -2.1931   0.0000   0.0000   0.0000   0.2352
  -4.600  -0.4758   0.01204   0.00489  -0.0045  0.8720  0.0417  -2.1353   0.0000   0.0000   0.0000   0.2356
  -4.500  -0.4662   0.01189   0.00472  -0.0042  0.8696  0.0437  -2.0758   0.0000   0.0000   0.0000   0.2360
  -4.400  -0.4560   0.01175   0.00456  -0.0041  0.8662  0.0460  -2.0165   0.0000   0.0000   0.0000   0.2361
  -4.300  -0.4465   0.01153   0.00437  -0.0039  0.8632  0.0496  -1.9593   0.0000   0.0000   0.0000   0.2365
  -4.200  -0.4369   0.01135   0.00419  -0.0037  0.8606  0.0552  -1.9026   0.0000   0.0000   0.0000   0.2369
  -4.100  -0.4277   0.01109   0.00398  -0.0034  0.8577  0.0686  -1.8480   0.0000   0.0000   0.0000   0.2373
  -4.000  -0.4210   0.01046   0.00369  -0.0030  0.8543  0.1331  -1.8022   0.0000   0.0000   0.0000   0.2382
  -3.900  -0.4163   0.00959   0.00334  -0.0025  0.8513  0.2493  -1.7603   0.0000   0.0000   0.0000   0.2396
  -3.800  -0.4119   0.00872   0.00299  -0.0018  0.8487  0.3724  -1.7173   0.0000   0.0000   0.0000   0.2412
  -3.700  -0.4067   0.00801   0.00279  -0.0012  0.8452  0.4884  -1.6697   0.0000   0.0000   0.0000   0.2428
  -3.600  -0.3981   0.00777   0.00275  -0.0008  0.8424  0.5430  -1.6113   0.0000   0.0000   0.0000   0.2438
  -3.500  -0.3883   0.00767   0.00273  -0.0005  0.8401  0.5708  -1.5577   0.0000   0.0000   0.0000   0.2445
  -3.400  -0.3779   0.00763   0.00270  -0.0004  0.8380  0.5897  -1.5034   0.0000   0.0000   0.0000   0.2449
  -3.300  -0.3671   0.00758   0.00269  -0.0003  0.8350  0.6039  -1.4484   0.0000   0.0000   0.0000   0.2451
  -3.200  -0.3564   0.00755   0.00267  -0.0002  0.8324  0.6154  -1.3938   0.0000   0.0000   0.0000   0.2454
  -3.100  -0.3457   0.00753   0.00265  -0.0001  0.8300  0.6258  -1.3395   0.0000   0.0000   0.0000   0.2458
  -3.000  -0.3350   0.00753   0.00262   0.0000  0.8280  0.6355  -1.2853   0.0000   0.0000   0.0000   0.2461
  -2.900  -0.3241   0.00752   0.00262   0.0001  0.8253  0.6436  -1.2314   0.0000   0.0000   0.0000   0.2463
  -2.800  -0.3130   0.00751   0.00259   0.0001  0.8226  0.6509  -1.1775   0.0000   0.0000   0.0000   0.2464
  -2.700  -0.3021   0.00750   0.00259   0.0002  0.8201  0.6579  -1.1246   0.0000   0.0000   0.0000   0.2467
  -2.600  -0.2914   0.00751   0.00259   0.0003  0.8179  0.6667  -1.0724   0.0000   0.0000   0.0000   0.2472
  -2.500  -0.2807   0.00755   0.00261   0.0005  0.8160  0.6779  -1.0209   0.0000   0.0000   0.0000   0.2479
  -2.400  -0.2701   0.00759   0.00268   0.0006  0.8132  0.6899  -0.9698   0.0000   0.0000   0.0000   0.2487
  -2.300  -0.2596   0.00763   0.00276   0.0009  0.8107  0.7003  -0.9195   0.0000   0.0000   0.0000   0.2498
  -2.200  -0.2490   0.00766   0.00280   0.0011  0.8085  0.7083  -0.8696   0.0000   0.0000   0.0000   0.2508
  -2.100  -0.2382   0.00770   0.00283   0.0012  0.8064  0.7147  -0.8200   0.0000   0.0000   0.0000   0.2517
  -2.000  -0.2273   0.00772   0.00282   0.0013  0.8046  0.7192  -0.7710   0.0000   0.0000   0.0000   0.2524
  -1.900  -0.2160   0.00772   0.00284   0.0013  0.8019  0.7223  -0.7276   0.0000   0.0000   0.0000   0.2526
  -1.800  -0.2047   0.00772   0.00283   0.0013  0.7994  0.7254  -0.6856   0.0000   0.0000   0.0000   0.2528
  -1.700  -0.1934   0.00772   0.00279   0.0012  0.7971  0.7284  -0.6440   0.0000   0.0000   0.0000   0.2530
  -1.600  -0.1822   0.00772   0.00276   0.0012  0.7951  0.7310  -0.6031   0.0000   0.0000   0.0000   0.2532
  -1.500  -0.1710   0.00771   0.00274   0.0012  0.7933  0.7327  -0.5626   0.0000   0.0000   0.0000   0.2537
  -1.400  -0.1596   0.00770   0.00273   0.0011  0.7910  0.7345  -0.5223   0.0000   0.0000   0.0000   0.2537
  -1.300  -0.1481   0.00769   0.00272   0.0010  0.7886  0.7364  -0.4825   0.0000   0.0000   0.0000   0.2536
  -1.200  -0.1367   0.00768   0.00270   0.0009  0.7863  0.7385  -0.4433   0.0000   0.0000   0.0000   0.2536
  -1.100  -0.1253   0.00768   0.00268   0.0009  0.7842  0.7407  -0.4046   0.0000   0.0000   0.0000   0.2536
  -1.000  -0.1140   0.00768   0.00264   0.0008  0.7824  0.7429  -0.3951   0.0000   0.0000   0.0000   0.2536
  -0.900  -0.1027   0.00767   0.00262   0.0007  0.7806  0.7446  -0.3899   0.0000   0.0000   0.0000   0.2540
  -0.800  -0.0912   0.00766   0.00262   0.0006  0.7781  0.7462  -0.3847   0.0000   0.0000   0.0000   0.2538
  -0.700  -0.0798   0.00765   0.00262   0.0006  0.7758  0.7479  -0.3796   0.0000   0.0000   0.0000   0.2538
  -0.600  -0.0684   0.00764   0.00261   0.0005  0.7737  0.7499  -0.3746   0.0000   0.0000   0.0000   0.2539
  -0.500  -0.0570   0.00764   0.00260   0.0004  0.7718  0.7520  -0.3696   0.0000   0.0000   0.0000   0.2540
  -0.400  -0.0456   0.00765   0.00258   0.0003  0.7701  0.7542  -0.3647   0.0000   0.0000   0.0000   0.2540
  -0.300  -0.0342   0.00766   0.00256   0.0002  0.7684  0.7564  -0.3597   0.0000   0.0000   0.0000   0.2538
  -0.200  -0.0228   0.00764   0.00257   0.0001  0.7660  0.7580  -0.3547   0.0000   0.0000   0.0000   0.2532
  -0.100  -0.0114   0.00763   0.00258   0.0001  0.7637  0.7597  -0.3496   0.0000   0.0000   0.0000   0.2528
   0.000   0.0000   0.00763   0.00258  -0.0000  0.7616  0.7616  -0.3446   0.0000   0.0000   0.0000   0.3895
   0.100   0.0114   0.00763   0.00258  -0.0001  0.7597  0.7637  -0.3496   0.0000   0.0000   0.0000   0.2528
   0.200   0.0228   0.00764   0.00257  -0.0001  0.7580  0.7660  -0.3547   0.0000   0.0000   0.0000   0.2532
   0.300   0.0342   0.00766   0.00256  -0.0002  0.7564  0.7684  -0.3597   0.0000   0.0000   0.0000   0.2538
   0.400   0.0456   0.00765   0.00258  -0.0003  0.7542  0.7701  -0.3647   0.0000   0.0000   0.0000   0.2540
   0.500   0.0570   0.00764   0.00260  -0.0004  0.7520  0.7718  -0.3696   0.0000   0.0000   0.0000   0.2540
   0.600   0.0684   0.00764   0.00261  -0.0005  0.7499  0.7737  -0.3746   0.0000   0.0000   0.0000   0.2539
   0.700   0.0798   0.00765   0.00262  -0.0006  0.7479  0.7758  -0.3796   0.0000   0.0000   0.0000   0.2538
   0.800   0.0912   0.00766   0.00262  -0.0006  0.7462  0.7781  -0.3847   0.0000   0.0000   0.0000   0.2538
   0.900   0.1027   0.00767   0.00262  -0.0007  0.7446  0.7806  -0.3899   0.0000   0.0000   0.0000   0.2540
   1.000   0.1140   0.00768   0.00264  -0.0008  0.7429  0.7824  -0.3951   0.0000   0.0000   0.0000   0.2536
   1.100   0.1253   0.00768   0.00268  -0.0009  0.7407  0.7842  -0.4046   0.0000   0.0000   0.0000   0.2536
   1.200   0.1367   0.00768   0.00270  -0.0009  0.7385  0.7863  -0.4433   0.0000   0.0000   0.0000   0.2536
   1.300   0.1481   0.00769   0.00272  -0.0010  0.7364  0.7886  -0.4825   0.0000   0.0000   0.0000   0.2536
   1.400   0.1596   0.00770   0.00273  -0.0011  0.7345  0.7910  -0.5223   0.0000   0.0000   0.0000   0.2537
   1.500   0.1710   0.00771   0.00274  -0.0012  0.7327  0.7933  -0.5626   0.0000   0.0000   0.0000   0.2537
   1.600   0.1822   0.00772   0.00276  -0.0012  0.7310  0.7951  -0.6031   0.0000   0.0000   0.0000   0.2532
   1.700   0.1934   0.00772   0.00279  -0.0012  0.7284  0.7971  -0.6440   0.0000   0.0000   0.0000   0.2530
   1.800   0.2047   0.00772   0.00283  -0.0013  0.7254  0.7994  -0.6856   0.0000   0.0000   0.0000   0.2528
   1.900   0.2160   0.00772   0.00284  -0.0013  0.7223  0.8019  -0.7276   0.0000   0.0000   0.0000   0.2526
   2.000   0.2273   0.00772   0.00282  -0.0013  0.7192  0.8046  -0.7710   0.0000   0.0000   0.0000   0.2524
   2.100   0.2382   0.00770   0.00283  -0.0012  0.7147  0.8064  -0.8200   0.0000   0.0000   0.0000   0.2517
   2.200   0.2490   0.00766   0.00280  -0.0011  0.7083  0.8085  -0.8696   0.0000   0.0000   0.0000   0.2508
   2.300   0.2596   0.00763   0.00276  -0.0009  0.7003  0.8107  -0.9195   0.0000   0.0000   0.0000   0.2498
   2.400   0.2701   0.00759   0.00268  -0.0006  0.6899  0.8132  -0.9698   0.0000   0.0000   0.0000   0.2487
   2.500   0.2807   0.00755   0.00261  -0.0005  0.6779  0.8160  -1.0209   0.0000   0.0000   0.0000   0.2479
   2.600   0.2914   0.00751   0.00259  -0.0003  0.6667  0.8179  -1.0724   0.0000   0.0000   0.0000   0.2472
   2.700   0.3021   0.00750   0.00259  -0.0002  0.6579  0.8201  -1.1246   0.0000   0.0000   0.0000   0.2467
   2.800   0.3130   0.00751   0.00259  -0.0001  0.6509  0.8226  -1.1775   0.0000   0.0000   0.0000   0.2464
   2.900   0.3241   0.00752   0.00262  -0.0001  0.6436  0.8253  -1.2314   0.0000   0.0000   0.0000   0.2463
   3.000   0.3350   0.00753   0.00262  -0.0000  0.6355  0.8280  -1.2853   0.0000   0.0000   0.0000   0.2461
   3.100   0.3457   0.00753   0.00265   0.0001  0.6258  0.8300  -1.3395   0.0000   0.0000   0.0000   0.2458
   3.200   0.3564   0.00755   0.00267   0.0002  0.6154  0.8324  -1.3938   0.0000   0.0000   0.0000   0.2454
   3.300   0.3671   0.00758   0.00269   0.0003  0.6039  0.8350  -1.4484   0.0000   0.0000   0.0000   0.2451
   3.400   0.3779   0.00763   0.00270   0.0004  0.5897  0.8380  -1.5034   0.0000   0.0000   0.0000   0.2449
   3.500   0.3883   0.00767   0.00273   0.0005  0.5708  0.8401  -1.5577   0.0000   0.0000   0.0000   0.2445
   3.600   0.3981   0.00777   0.00275   0.0008  0.5430  0.8424  -1.6113   0.0000   0.0000   0.0000   0.2438
   3.700   0.4067   0.00801   0.00279   0.0012  0.4883  0.8452  -1.6698   0.0000   0.0000   0.0000   0.2428
   3.800   0.4119   0.00872   0.00299   0.0018  0.3724  0.8487  -1.7174   0.0000   0.0000   0.0000   0.2412
   3.900   0.4163   0.00960   0.00334   0.0025  0.2492  0.8513  -1.7603   0.0000   0.0000   0.0000   0.2396
   4.000   0.4210   0.01046   0.00369   0.0030  0.1331  0.8543  -1.8022   0.0000   0.0000   0.0000   0.2382
   4.100   0.4277   0.01109   0.00398   0.0034  0.0686  0.8577  -1.8480   0.0000   0.0000   0.0000   0.2373
   4.200   0.4370   0.01135   0.00419   0.0037  0.0552  0.8606  -1.9026   0.0000   0.0000   0.0000   0.2369
   4.300   0.4465   0.01153   0.00437   0.0039  0.0496  0.8632  -1.9593   0.0000   0.0000   0.0000   0.2365
   4.400   0.4560   0.01175   0.00456   0.0041  0.0460  0.8662  -2.0166   0.0000   0.0000   0.0000   0.2361
   4.500   0.4662   0.01189   0.00472   0.0042  0.0437  0.8696  -2.0758   0.0000   0.0000   0.0000   0.2360
   4.600   0.4758   0.01204   0.00489   0.0045  0.0417  0.8720  -2.1353   0.0000   0.0000   0.0000   0.2356
   4.700   0.4850   0.01225   0.00510   0.0048  0.0400  0.8749  -2.1931   0.0000   0.0000   0.0000   0.2352
   4.800   0.4945   0.01247   0.00533   0.0050  0.0387  0.8783  -2.2491   0.0000   0.0000   0.0000   0.2349
   4.900   0.5042   0.01261   0.00551   0.0052  0.0377  0.8811  -2.3078   0.0000   0.0000   0.0000   0.2345
   5.000   0.5135   0.01277   0.00570   0.0055  0.0366  0.8840  -2.3662   0.0000   0.0000   0.0000   0.2340
   5.100   0.5230   0.01295   0.00589   0.0058  0.0356  0.8876  -2.4260   0.0000   0.0000   0.0000   0.2337
   5.200   0.5320   0.01315   0.00609   0.0061  0.0347  0.8907  -2.4859   0.0000   0.0000   0.0000   0.2332
   5.300   0.5397   0.01350   0.00644   0.0066  0.0336  0.8941  -2.5478   0.0000   0.0000   0.0000   0.2324
   5.500   0.5578   0.01384   0.00686   0.0073  0.0321  0.9010  -2.6928   0.0000   0.0000   0.0000   0.2315
   5.600   0.5669   0.01401   0.00706   0.0076  0.0313  0.9047  -2.7665   0.0000   0.0000   0.0000   0.2310
   5.700   0.5756   0.01421   0.00728   0.0080  0.0306  0.9083  -2.8385   0.0000   0.0000   0.0000   0.2304
   5.800   0.5841   0.01441   0.00750   0.0084  0.0300  0.9118  -2.9103   0.0000   0.0000   0.0000   0.2298
   5.900   0.5927   0.01463   0.00773   0.0088  0.0295  0.9159  -2.9838   0.0000   0.0000   0.0000   0.2293
   6.000   0.6005   0.01487   0.00798   0.0094  0.0290  0.9195  -3.0549   0.0000   0.0000   0.0000   0.2285
   6.100   0.6082   0.01519   0.00830   0.0099  0.0285  0.9239  -3.1233   0.0000   0.0000   0.0000   0.2277
   6.200   0.6145   0.01565   0.00877   0.0107  0.0280  0.9280  -3.1795   0.0000   0.0000   0.0000   0.2265
   6.300   0.6217   0.01607   0.00921   0.0114  0.0276  0.9325  -3.2372   0.0000   0.0000   0.0000   0.2256
   6.400   0.6301   0.01625   0.00943   0.0119  0.0274  0.9371  -3.3073   0.0000   0.0000   0.0000   0.2249
   6.500   0.6382   0.01645   0.00968   0.0125  0.0270  0.9416  -3.3750   0.0000   0.0000   0.0000   0.2241
   6.600   0.6464   0.01670   0.00996   0.0130  0.0267  0.9467  -3.4416   0.0000   0.0000   0.0000   0.2234
   6.700   0.6546   0.01696   0.01026   0.0136  0.0263  0.9520  -3.5073   0.0000   0.0000   0.0000   0.2228
   6.800   0.6634   0.01725   0.01060   0.0140  0.0259  0.9568  -3.5749   0.0000   0.0000   0.0000   0.2223
   6.900   0.6730   0.01753   0.01091   0.0142  0.0254  0.9617  -3.6486   0.0000   0.0000   0.0000   0.2222
   7.000   0.6836   0.01780   0.01120   0.0142  0.0249  0.9665  -3.7312   0.0000   0.0000   0.0000   0.2225
   7.100   0.6950   0.01806   0.01148   0.0140  0.0243  0.9710  -3.8231   0.0000   0.0000   0.0000   0.2231
   7.200   0.7071   0.01836   0.01178   0.0135  0.0237  0.9753  -3.9221   0.0000   0.0000   0.0000   0.2240
   7.300   0.7194   0.01888   0.01228   0.0130  0.0231  0.9791  -4.0157   0.0000   0.0000   0.0000   0.2250
   7.400   0.7313   0.02021   0.01361   0.0126  0.0226  0.9816  -4.0589   0.0000   0.0000   0.0000   0.2258
   7.500   0.7449   0.02048   0.01397   0.0119  0.0223  0.9853  -4.1453   0.0000   0.0000   0.0000   0.2270
   7.600   0.7586   0.02089   0.01446   0.0112  0.0221  0.9890  -4.2244   0.0000   0.0000   0.0000   0.2281
   7.700   0.7722   0.02141   0.01506   0.0106  0.0218  0.9927  -4.3212   0.0000   0.0000   0.0000   0.2291
   7.800   0.7857   0.02200   0.01576   0.0099  0.0215  0.9968  -4.4144   0.0000   0.0000   0.0000   0.2301
   7.900   0.7970   0.02262   0.01646   0.0097  0.0213  1.0000  -4.4956   0.0000   0.0000   0.0000   0.2305
   8.000   0.8053   0.02322   0.01713   0.0100  0.0211  1.0000  -4.5627   0.0000   0.0000   0.0000   0.2301
   8.100   0.8140   0.02388   0.01788   0.0103  0.0208  1.0000  -4.6282   0.0000   0.0000   0.0000   0.2299
   8.200   0.8227   0.02460   0.01870   0.0105  0.0206  1.0000  -4.6903   0.0000   0.0000   0.0000   0.2296
   8.300   0.8312   0.02540   0.01960   0.0108  0.0204  1.0000  -4.7474   0.0000   0.0000   0.0000   0.2294
   8.400   0.8395   0.02629   0.02059   0.0111  0.0202  1.0000  -4.7972   0.0000   0.0000   0.0000   0.2291
   8.500   0.8473   0.02731   0.02174   0.0114  0.0201  1.0000  -4.8352   0.0000   0.0000   0.0000   0.2287
   8.600   0.8544   0.02859   0.02318   0.0119  0.0201  1.0000  -4.8500   0.0000   0.0000   0.0000   0.2282
   8.700   0.8600   0.03031   0.02510   0.0125  0.0203  1.0000  -4.8255   0.0000   0.0000   0.0000   0.2275
   8.800   0.8649   0.03202   0.02701   0.0132  0.0206  1.0000  -4.8035   0.0000   0.0000   0.0000   0.2267
   8.900   0.8694   0.03362   0.02878   0.0138  0.0207  1.0000  -4.7920   0.0000   0.0000   0.0000   0.2260
   9.000   0.8731   0.03523   0.03055   0.0145  0.0208  1.0000  -4.7794   0.0000   0.0000   0.0000   0.2252
   9.100   0.8760   0.03689   0.03238   0.0152  0.0210  1.0000  -4.7626   0.0000   0.0000   0.0000   0.2244
   9.200   0.8783   0.03857   0.03421   0.0159  0.0212  1.0000  -4.7481   0.0000   0.0000   0.0000   0.2235
   9.300   0.8806   0.04018   0.03593   0.0165  0.0215  1.0000  -4.7495   0.0000   0.0000   0.0000   0.2228
   9.400   0.8837   0.04173   0.03752   0.0169  0.0219  1.0000  -4.7824   0.0000   0.0000   0.0000   0.2225
   9.600   0.9192   0.03688   0.03216   0.0148  0.0183  1.0000  -5.5178   0.0000   0.0000   0.0000   0.2251
  19.100   0.8114   0.23875   0.23632  -0.0702  0.0134  1.0000  -2.1866   0.0000   0.0000   0.0000   0.3169
  19.200   0.8138   0.24037   0.23794  -0.0716  0.0134  1.0000  -2.1440   0.0000   0.0000   0.0000   0.3182
  19.300   0.8163   0.24202   0.23959  -0.0730  0.0133  1.0000  -2.0983   0.0000   0.0000   0.0000   0.3196
  19.400   0.8191   0.24372   0.24129  -0.0745  0.0132  1.0000  -2.0482   0.0000   0.0000   0.0000   0.3209
  19.500   0.8222   0.24547   0.24303  -0.0758  0.0130  1.0000  -2.0006   0.0000   0.0000   0.0000   0.3221
  19.600   0.8256   0.24709   0.24465  -0.0769  0.0128  1.0000  -1.9730   0.0000   0.0000   0.0000   0.3229
  19.700   0.8289   0.24862   0.24619  -0.0779  0.0126  1.0000  -1.9608   0.0000   0.0000   0.0000   0.3236
  19.800   0.8323   0.25009   0.24765  -0.0789  0.0123  1.0000  -1.9553   0.0000   0.0000   0.0000   0.3242
  19.900   0.8356   0.25155   0.24911  -0.0798  0.0122  1.0000  -1.9530   0.0000   0.0000   0.0000   0.3248
  20.000   0.8389   0.25298   0.25054  -0.0808  0.0120  1.0000  -1.9527   0.0000   0.0000   0.0000   0.3254
  20.100   0.8422   0.25439   0.25196  -0.0817  0.0118  1.0000  -1.9538   0.0000   0.0000   0.0000   0.3260
  20.200   0.8456   0.25579   0.25336  -0.0826  0.0116  1.0000  -1.9561   0.0000   0.0000   0.0000   0.3265
  20.300   0.8489   0.25717   0.25473  -0.0835  0.0115  1.0000  -1.9598   0.0000   0.0000   0.0000   0.3271
  20.400   0.8522   0.25853   0.25609  -0.0845  0.0113  1.0000  -1.9651   0.0000   0.0000   0.0000   0.3276
  20.500   0.8556   0.25986   0.25743  -0.0854  0.0112  1.0000  -1.9723   0.0000   0.0000   0.0000   0.3281
  20.600   0.8589   0.26118   0.25875  -0.0863  0.0110  1.0000  -1.9816   0.0000   0.0000   0.0000   0.3286
  20.700   0.8623   0.26246   0.26004  -0.0872  0.0109  1.0000  -1.9933   0.0000   0.0000   0.0000   0.3291
  20.800   0.8656   0.26373   0.26130  -0.0881  0.0107  1.0000  -2.0076   0.0000   0.0000   0.0000   0.3295
  20.900   0.8690   0.26496   0.26254  -0.0889  0.0106  1.0000  -2.0246   0.0000   0.0000   0.0000   0.3300
  21.000   0.8723   0.26617   0.26375  -0.0898  0.0105  1.0000  -2.0445   0.0000   0.0000   0.0000   0.3304
  21.100   0.8757   0.26737   0.26495  -0.0906  0.0104  1.0000  -2.0672   0.0000   0.0000   0.0000   0.3307
  21.200   0.8790   0.26855   0.26613  -0.0915  0.0103  1.0000  -2.0925   0.0000   0.0000   0.0000   0.3311
  21.300   0.8824   0.26973   0.26732  -0.0922  0.0102  1.0000  -2.1202   0.0000   0.0000   0.0000   0.3314
  21.400   0.8858   0.27093   0.26852  -0.0930  0.0101  1.0000  -2.1497   0.0000   0.0000   0.0000   0.3316
  21.500   0.8891   0.27214   0.26973  -0.0937  0.0100  1.0000  -2.1821   0.0000   0.0000   0.0000   0.3318
  21.600   0.8926   0.27338   0.27098  -0.0943  0.0100  1.0000  -2.2199   0.0000   0.0000   0.0000   0.3319
  21.700   0.8962   0.27472   0.27232  -0.0948  0.0099  1.0000  -2.2661   0.0000   0.0000   0.0000   0.3318
  21.800   0.9004   0.27647   0.27409  -0.0949  0.0098  1.0000  -2.3321   0.0000   0.0000   0.0000   0.3312
  27.400   0.7053   0.31241   0.31064  -0.0967  0.0065  1.0000  -1.2080   0.0000   0.0000   0.0000   0.3630
  27.500   0.7065   0.31390   0.31214  -0.0974  0.0065  1.0000  -1.1913   0.0000   0.0000   0.0000   0.3637
  27.600   0.7078   0.31536   0.31360  -0.0982  0.0065  1.0000  -1.1825   0.0000   0.0000   0.0000   0.3643
  27.700   0.7090   0.31682   0.31507  -0.0989  0.0065  1.0000  -1.1739   0.0000   0.0000   0.0000   0.3649
  27.800   0.7103   0.31830   0.31655  -0.0996  0.0065  1.0000  -1.1657   0.0000   0.0000   0.0000   0.3655
  27.900   0.7116   0.31978   0.31803  -0.1003  0.0065  1.0000  -1.1578   0.0000   0.0000   0.0000   0.3661
  28.000   0.7129   0.32126   0.31951  -0.1010  0.0065  1.0000  -1.1500   0.0000   0.0000   0.0000   0.3666
  28.100   0.7142   0.32274   0.32100  -0.1017  0.0064  1.0000  -1.1425   0.0000   0.0000   0.0000   0.3672
  28.200   0.7156   0.32423   0.32250  -0.1024  0.0064  1.0000  -1.1351   0.0000   0.0000   0.0000   0.3677
  28.300   0.7169   0.32573   0.32400  -0.1031  0.0064  1.0000  -1.1280   0.0000   0.0000   0.0000   0.3683
  28.400   0.7183   0.32723   0.32551  -0.1038  0.0064  1.0000  -1.1211   0.0000   0.0000   0.0000   0.3688
  28.500   0.7197   0.32873   0.32701  -0.1045  0.0064  1.0000  -1.1144   0.0000   0.0000   0.0000   0.3693
  28.600   0.7211   0.33024   0.32852  -0.1052  0.0063  1.0000  -1.1081   0.0000   0.0000   0.0000   0.3697
  28.700   0.7225   0.33175   0.33004  -0.1058  0.0063  1.0000  -1.1022   0.0000   0.0000   0.0000   0.3702
  28.800   0.7239   0.33325   0.33155  -0.1065  0.0062  1.0000  -1.0968   0.0000   0.0000   0.0000   0.3706
  28.900   0.7253   0.33474   0.33304  -0.1072  0.0062  1.0000  -1.0921   0.0000   0.0000   0.0000   0.3711
  29.000   0.7267   0.33626   0.33456  -0.1078  0.0061  1.0000  -1.0878   0.0000   0.0000   0.0000   0.3715
  29.100   0.7281   0.33776   0.33607  -0.1085  0.0060  1.0000  -1.0841   0.0000   0.0000   0.0000   0.3719
  29.200   0.7294   0.33926   0.33757  -0.1091  0.0059  1.0000  -1.0814   0.0000   0.0000   0.0000   0.3724
  29.300   0.7307   0.34074   0.33906  -0.1098  0.0057  1.0000  -1.0799   0.0000   0.0000   0.0000   0.3728
  29.400   0.7320   0.34221   0.34053  -0.1104  0.0056  1.0000  -1.0793   0.0000   0.0000   0.0000   0.3732
  29.500   0.7333   0.34364   0.34197  -0.1111  0.0054  1.0000  -1.0794   0.0000   0.0000   0.0000   0.3736
  29.600   0.7345   0.34511   0.34344  -0.1117  0.0053  1.0000  -1.0799   0.0000   0.0000   0.0000   0.3740
  29.700   0.7358   0.34657   0.34491  -0.1124  0.0052  1.0000  -1.0806   0.0000   0.0000   0.0000   0.3745
  29.800   0.7370   0.34803   0.34637  -0.1130  0.0051  1.0000  -1.0810   0.0000   0.0000   0.0000   0.3749
  29.900   0.7382   0.34947   0.34782  -0.1137  0.0050  1.0000  -1.0816   0.0000   0.0000   0.0000   0.3753
  30.000   0.7394   0.35092   0.34927  -0.1144  0.0049  1.0000  -1.0823   0.0000   0.0000   0.0000   0.3757


