xflr5 v6.61

 Calculated polar for: NACA 65(1)-212

 1 1 Reynolds number fixed          Mach number fixed         

 xtrf =   1.000 (top)        1.000 (bottom)
 Mach =   0.000     Re =     0.450 e 6     Ncrit =   9.000

  alpha     CL        CD       CDp       Cm    Top Xtr Bot Xtr   Cpmin    Chinge    XCp    
 ------- -------- --------- --------- -------- ------- ------- -------- --------- ---------
 -10.000  -0.5459   0.05643   0.05356  -0.0641  1.0000  0.0124  -3.5632   0.0000   0.0000   0.0000   0.1230
  -9.900  -0.5565   0.05515   0.05225  -0.0635  1.0000  0.0123  -3.6069   0.0000   0.0000   0.0000   0.1266
  -9.600  -0.7400   0.03571   0.03156  -0.0494  0.9936  0.0088  -5.7371   0.0000   0.0000   0.0000   0.1746
  -9.500  -0.7393   0.03403   0.02971  -0.0490  0.9909  0.0087  -5.7547   0.0000   0.0000   0.0000   0.1751
  -9.400  -0.7381   0.03234   0.02785  -0.0487  0.9879  0.0087  -5.7666   0.0000   0.0000   0.0000   0.1756
  -9.300  -0.7368   0.03051   0.02582  -0.0483  0.9848  0.0087  -5.7838   0.0000   0.0000   0.0000   0.1761
  -9.200  -0.7345   0.02866   0.02378  -0.0480  0.9816  0.0088  -5.7914   0.0000   0.0000   0.0000   0.1763
  -9.100  -0.7291   0.02725   0.02222  -0.0479  0.9789  0.0090  -5.7502   0.0000   0.0000   0.0000   0.1760
  -9.000  -0.7209   0.02636   0.02125  -0.0481  0.9765  0.0091  -5.6572   0.0000   0.0000   0.0000   0.1750
  -8.900  -0.7109   0.02580   0.02065  -0.0485  0.9744  0.0093  -5.5350   0.0000   0.0000   0.0000   0.1736
  -8.800  -0.7000   0.02541   0.02023  -0.0490  0.9725  0.0094  -5.3986   0.0000   0.0000   0.0000   0.1719
  -8.700  -0.6886   0.02510   0.01990  -0.0496  0.9707  0.0096  -5.2557   0.0000   0.0000   0.0000   0.1700
  -8.600  -0.6767   0.02483   0.01961  -0.0502  0.9690  0.0098  -5.1101   0.0000   0.0000   0.0000   0.1680
  -8.500  -0.6647   0.02457   0.01934  -0.0509  0.9673  0.0100  -4.9642   0.0000   0.0000   0.0000   0.1657
  -8.400  -0.6524   0.02432   0.01907  -0.0515  0.9655  0.0102  -4.8194   0.0000   0.0000   0.0000   0.1634
  -8.300  -0.6401   0.02407   0.01879  -0.0522  0.9636  0.0105  -4.6760   0.0000   0.0000   0.0000   0.1609
  -8.200  -0.6276   0.02384   0.01854  -0.0528  0.9616  0.0108  -4.5319   0.0000   0.0000   0.0000   0.1583
  -8.100  -0.6149   0.02363   0.01832  -0.0535  0.9595  0.0112  -4.3875   0.0000   0.0000   0.0000   0.1556
  -8.000  -0.6021   0.02349   0.01816  -0.0542  0.9570  0.0117  -4.2402   0.0000   0.0000   0.0000   0.1527
  -7.900  -0.5889   0.02356   0.01823  -0.0548  0.9539  0.0123  -4.0774   0.0000   0.0000   0.0000   0.1496
  -7.800  -0.5678   0.02648   0.02134  -0.0562  0.9514  0.0134  -3.6427   0.0000   0.0000   0.0000   0.1439
  -7.700  -0.5737   0.02254   0.01703  -0.0543  0.9479  0.0146  -3.8250   0.0000   0.0000   0.0000   0.1483
  -7.600  -0.5679   0.02166   0.01608  -0.0537  0.9456  0.0151  -3.7868   0.0000   0.0000   0.0000   0.1484
  -7.500  -0.5605   0.02122   0.01562  -0.0533  0.9429  0.0155  -3.7160   0.0000   0.0000   0.0000   0.1480
  -7.400  -0.5525   0.02095   0.01534  -0.0530  0.9400  0.0159  -3.6345   0.0000   0.0000   0.0000   0.1473
  -7.300  -0.5442   0.02074   0.01512  -0.0527  0.9369  0.0162  -3.5498   0.0000   0.0000   0.0000   0.1464
  -7.200  -0.5357   0.02055   0.01493  -0.0524  0.9337  0.0165  -3.4660   0.0000   0.0000   0.0000   0.1455
  -7.100  -0.5272   0.02036   0.01473  -0.0521  0.9303  0.0168  -3.3855   0.0000   0.0000   0.0000   0.1446
  -7.000  -0.5187   0.02016   0.01450  -0.0518  0.9270  0.0171  -3.3088   0.0000   0.0000   0.0000   0.1436
  -6.900  -0.5098   0.01993   0.01425  -0.0515  0.9235  0.0175  -3.2357   0.0000   0.0000   0.0000   0.1425
  -6.800  -0.5010   0.01969   0.01398  -0.0512  0.9201  0.0178  -3.1669   0.0000   0.0000   0.0000   0.1414
  -6.700  -0.4921   0.01942   0.01368  -0.0509  0.9166  0.0180  -3.1021   0.0000   0.0000   0.0000   0.1402
  -6.600  -0.4832   0.01915   0.01337  -0.0506  0.9129  0.0183  -3.0408   0.0000   0.0000   0.0000   0.1390
  -6.500  -0.4741   0.01886   0.01304  -0.0503  0.9088  0.0186  -2.9821   0.0000   0.0000   0.0000   0.1376
  -6.400  -0.4646   0.01858   0.01272  -0.0501  0.9042  0.0188  -2.9249   0.0000   0.0000   0.0000   0.1358
  -6.300  -0.4550   0.01829   0.01240  -0.0500  0.9000  0.0191  -2.8696   0.0000   0.0000   0.0000   0.1339
  -6.200  -0.4460   0.01797   0.01205  -0.0497  0.8985  0.0193  -2.8179   0.0000   0.0000   0.0000   0.1324
  -6.100  -0.4370   0.01764   0.01170  -0.0494  0.8968  0.0195  -2.7680   0.0000   0.0000   0.0000   0.1309
  -6.000  -0.4279   0.01731   0.01134  -0.0491  0.8947  0.0197  -2.7200   0.0000   0.0000   0.0000   0.1292
  -5.900  -0.4188   0.01697   0.01096  -0.0488  0.8924  0.0199  -2.6756   0.0000   0.0000   0.0000   0.1275
  -5.800  -0.4097   0.01652   0.01045  -0.0484  0.8900  0.0197  -2.6499   0.0000   0.0000   0.0000   0.1258
  -5.700  -0.4005   0.01623   0.01014  -0.0481  0.8873  0.0200  -2.5998   0.0000   0.0000   0.0000   0.1239
  -5.600  -0.3914   0.01595   0.00983  -0.0478  0.8846  0.0202  -2.5499   0.0000   0.0000   0.0000   0.1219
  -5.500  -0.3822   0.01569   0.00954  -0.0475  0.8818  0.0205  -2.4999   0.0000   0.0000   0.0000   0.1198
  -5.400  -0.3731   0.01543   0.00925  -0.0472  0.8789  0.0208  -2.4495   0.0000   0.0000   0.0000   0.1177
  -5.300  -0.3639   0.01519   0.00899  -0.0468  0.8760  0.0212  -2.3978   0.0000   0.0000   0.0000   0.1154
  -5.200  -0.3545   0.01504   0.00882  -0.0466  0.8731  0.0219  -2.3333   0.0000   0.0000   0.0000   0.1128
  -4.700  -0.3034   0.01577   0.00939  -0.0460  0.8560  0.0260  -1.8976   0.0000   0.0000   0.0000   0.0925
  -4.600  -0.2940   0.01516   0.00873  -0.0458  0.8514  0.0259  -1.8870   0.0000   0.0000   0.0000   0.0885
  -4.500  -0.2847   0.01467   0.00821  -0.0455  0.8495  0.0259  -1.8665   0.0000   0.0000   0.0000   0.0845
  -4.400  -0.2754   0.01425   0.00776  -0.0452  0.8482  0.0259  -1.8420   0.0000   0.0000   0.0000   0.0802
  -4.300  -0.2662   0.01388   0.00737  -0.0448  0.8467  0.0259  -1.8149   0.0000   0.0000   0.0000   0.0757
  -4.200  -0.2570   0.01355   0.00702  -0.0445  0.8449  0.0259  -1.7856   0.0000   0.0000   0.0000   0.0709
  -4.100  -0.2478   0.01326   0.00670  -0.0442  0.8429  0.0260  -1.7543   0.0000   0.0000   0.0000   0.0656
  -4.000  -0.2384   0.01300   0.00642  -0.0440  0.8407  0.0261  -1.7209   0.0000   0.0000   0.0000   0.0598
  -3.900  -0.2298   0.01265   0.00605  -0.0436  0.8384  0.0263  -1.6987   0.0000   0.0000   0.0000   0.0545
  -3.800  -0.2223   0.01213   0.00547  -0.0430  0.8359  0.0268  -1.6971   0.0000   0.0000   0.0000   0.0508
  -3.700  -0.2147   0.01164   0.00489  -0.0424  0.8334  0.0278  -1.7002   0.0000   0.0000   0.0000   0.0466
  -3.600  -0.2064   0.01121   0.00435  -0.0419  0.8309  0.0296  -1.7097   0.0000   0.0000   0.0000   0.0411
  -3.500  -0.1975   0.01083   0.00386  -0.0414  0.8284  0.0342  -1.7281   0.0000   0.0000   0.0000   0.0341
  -3.400  -0.1877   0.01060   0.00360  -0.0412  0.8259  0.0405  -1.7169   0.0000   0.0000   0.0000   0.0244
  -3.300  -0.1775   0.01045   0.00345  -0.0411  0.8234  0.0453  -1.6786   0.0000   0.0000   0.0000   0.0125
  -3.200  -0.1672   0.01033   0.00331  -0.0409  0.8209  0.0497  -1.6338   0.0000   0.0000   0.0000  -0.0013
  -3.100  -0.1573   0.01013   0.00317  -0.0408  0.8183  0.0702  -1.5924   0.0000   0.0000   0.0000  -0.0158
  -3.000  -0.1498   0.00955   0.00295  -0.0406  0.8154  0.1568  -1.5514   0.0000   0.0000   0.0000  -0.0277
  -2.900  -0.1430   0.00879   0.00269  -0.0405  0.8122  0.2878  -1.5099   0.0000   0.0000   0.0000  -0.0397
  -2.800  -0.1363   0.00800   0.00248  -0.0404  0.8086  0.4363  -1.4667   0.0000   0.0000   0.0000  -0.0528
  -2.700  -0.1279   0.00762   0.00250  -0.0402  0.8047  0.5390  -1.4165   0.0000   0.0000   0.0000  -0.0708
  -2.600  -0.1177   0.00755   0.00258  -0.0401  0.8005  0.5776  -1.3612   0.0000   0.0000   0.0000  -0.0977
  -2.500  -0.1067   0.00752   0.00257  -0.0401  0.7995  0.5988  -1.3038   0.0000   0.0000   0.0000  -0.1331
  -2.400  -0.0965   0.00744   0.00260  -0.0399  0.7984  0.6213  -1.2482   0.0000   0.0000   0.0000  -0.1716
  -2.300  -0.0857   0.00742   0.00263  -0.0398  0.7971  0.6369  -1.1916   0.0000   0.0000   0.0000  -0.2232
  -2.200  -0.0745   0.00743   0.00263  -0.0399  0.7955  0.6464  -1.1347   0.0000   0.0000   0.0000  -0.2938
  -2.100  -0.0637   0.00741   0.00264  -0.0398  0.7938  0.6574  -1.0790   0.0000   0.0000   0.0000  -0.3852
  -2.000  -0.0534   0.00739   0.00270  -0.0395  0.7919  0.6715  -1.0250   0.0000   0.0000   0.0000  -0.5022
  -1.900  -0.0428   0.00743   0.00278  -0.0393  0.7899  0.6832  -0.9707   0.0000   0.0000   0.0000  -0.6827
  -1.800  -0.0319   0.00748   0.00284  -0.0392  0.7879  0.6915  -0.9163   0.0000   0.0000   0.0000  -0.9976
  -1.700  -0.0208   0.00754   0.00288  -0.0392  0.7859  0.6965  -0.8622   0.0000   0.0000   0.0000  -1.6600
  -1.600  -0.0096   0.00759   0.00291  -0.0392  0.7840  0.6989  -0.8088   0.0000   0.0000   0.0000  -3.9017
  -1.500   0.0016   0.00756   0.00287  -0.0393  0.7820  0.7035  -0.7565   0.0000   0.0000   0.0000  25.0511
  -1.400   0.0126   0.00751   0.00284  -0.0393  0.7800  0.7087  -0.7051   0.0000   0.0000   0.0000   3.3898
  -1.300   0.0235   0.00750   0.00284  -0.0392  0.7780  0.7140  -0.6547   0.0000   0.0000   0.0000   1.9356
  -1.200   0.0342   0.00750   0.00286  -0.0391  0.7759  0.7191  -0.6052   0.0000   0.0000   0.0000   1.4028
  -1.100   0.0449   0.00753   0.00291  -0.0390  0.7738  0.7242  -0.5562   0.0000   0.0000   0.0000   1.1242
  -1.000   0.0557   0.00757   0.00295  -0.0388  0.7717  0.7288  -0.5078   0.0000   0.0000   0.0000   0.9521
  -0.900   0.0665   0.00761   0.00299  -0.0387  0.7695  0.7330  -0.4601   0.0000   0.0000   0.0000   0.8356
  -0.800   0.0774   0.00765   0.00302  -0.0387  0.7673  0.7367  -0.4129   0.0000   0.0000   0.0000   0.7516
  -0.700   0.0885   0.00768   0.00304  -0.0387  0.7649  0.7396  -0.4176   0.0000   0.0000   0.0000   0.6885
  -0.600   0.0998   0.00771   0.00305  -0.0387  0.7622  0.7416  -0.4223   0.0000   0.0000   0.0000   0.6394
  -0.500   0.1111   0.00774   0.00305  -0.0389  0.7593  0.7430  -0.4271   0.0000   0.0000   0.0000   0.6005
  -0.400   0.1225   0.00779   0.00308  -0.0390  0.7561  0.7445  -0.4318   0.0000   0.0000   0.0000   0.5688
  -0.300   0.1339   0.00786   0.00314  -0.0392  0.7526  0.7459  -0.4366   0.0000   0.0000   0.0000   0.5427
  -0.200   0.1453   0.00792   0.00320  -0.0393  0.7502  0.7472  -0.4420   0.0000   0.0000   0.0000   0.5206
  -0.100   0.1568   0.00792   0.00320  -0.0395  0.7494  0.7483  -0.4475   0.0000   0.0000   0.0000   0.5014
   0.000   0.1682   0.00793   0.00321  -0.0396  0.7486  0.7492  -0.4530   0.0000   0.0000   0.0000   0.4849
   0.100   0.1795   0.00788   0.00317  -0.0397  0.7475  0.7521  -0.4585   0.0000   0.0000   0.0000   0.4707
   0.200   0.1908   0.00782   0.00312  -0.0399  0.7463  0.7559  -0.4640   0.0000   0.0000   0.0000   0.4582
   0.300   0.2020   0.00778   0.00310  -0.0400  0.7449  0.7591  -0.4695   0.0000   0.0000   0.0000   0.4469
   0.400   0.2132   0.00776   0.00310  -0.0400  0.7433  0.7619  -0.4749   0.0000   0.0000   0.0000   0.4368
   0.500   0.2243   0.00774   0.00309  -0.0401  0.7416  0.7644  -0.4803   0.0000   0.0000   0.0000   0.4276
   0.600   0.2354   0.00773   0.00310  -0.0401  0.7398  0.7668  -0.4858   0.0000   0.0000   0.0000   0.4192
   0.700   0.2465   0.00773   0.00311  -0.0402  0.7381  0.7691  -0.4912   0.0000   0.0000   0.0000   0.4116
   0.800   0.2576   0.00773   0.00312  -0.0402  0.7364  0.7713  -0.4966   0.0000   0.0000   0.0000   0.4047
   0.900   0.2687   0.00774   0.00314  -0.0403  0.7347  0.7734  -0.5020   0.0000   0.0000   0.0000   0.3983
   1.000   0.2799   0.00775   0.00316  -0.0403  0.7330  0.7755  -0.5074   0.0000   0.0000   0.0000   0.3925
   1.100   0.2911   0.00776   0.00318  -0.0404  0.7313  0.7776  -0.5128   0.0000   0.0000   0.0000   0.3871
   1.200   0.3023   0.00777   0.00319  -0.0405  0.7296  0.7797  -0.5225   0.0000   0.0000   0.0000   0.3821
   1.300   0.3134   0.00778   0.00321  -0.0405  0.7277  0.7818  -0.5746   0.0000   0.0000   0.0000   0.3774
   1.400   0.3245   0.00778   0.00320  -0.0406  0.7252  0.7838  -0.6276   0.0000   0.0000   0.0000   0.3730
   1.500   0.3356   0.00777   0.00318  -0.0405  0.7220  0.7859  -0.6813   0.0000   0.0000   0.0000   0.3687
   1.600   0.3465   0.00776   0.00315  -0.0405  0.7180  0.7879  -0.7358   0.0000   0.0000   0.0000   0.3647
   1.700   0.3575   0.00777   0.00313  -0.0404  0.7130  0.7898  -0.7909   0.0000   0.0000   0.0000   0.3609
   1.800   0.3685   0.00783   0.00315  -0.0404  0.7060  0.7916  -0.8469   0.0000   0.0000   0.0000   0.3574
   1.900   0.3796   0.00789   0.00320  -0.0405  0.6999  0.7933  -0.9038   0.0000   0.0000   0.0000   0.3542
   2.000   0.3905   0.00783   0.00314  -0.0404  0.6974  0.7950  -0.9618   0.0000   0.0000   0.0000   0.3510
   2.100   0.4015   0.00778   0.00310  -0.0403  0.6938  0.7965  -1.0204   0.0000   0.0000   0.0000   0.3480
   2.200   0.4124   0.00774   0.00307  -0.0403  0.6891  0.7979  -1.0798   0.0000   0.0000   0.0000   0.3451
   2.300   0.4233   0.00772   0.00304  -0.0402  0.6834  0.7991  -1.1398   0.0000   0.0000   0.0000   0.3423
   2.400   0.4341   0.00766   0.00297  -0.0401  0.6763  0.8023  -1.2003   0.0000   0.0000   0.0000   0.3397
   2.500   0.4444   0.00761   0.00288  -0.0399  0.6668  0.8068  -1.2601   0.0000   0.0000   0.0000   0.3370
   2.600   0.4542   0.00764   0.00283  -0.0396  0.6533  0.8106  -1.3192   0.0000   0.0000   0.0000   0.3343
   2.700   0.4645   0.00760   0.00281  -0.0394  0.6453  0.8139  -1.3804   0.0000   0.0000   0.0000   0.3319
   2.800   0.4747   0.00758   0.00280  -0.0392  0.6349  0.8168  -1.4420   0.0000   0.0000   0.0000   0.3295
   2.900   0.4846   0.00759   0.00277  -0.0389  0.6219  0.8195  -1.5034   0.0000   0.0000   0.0000   0.3272
   3.000   0.4943   0.00765   0.00277  -0.0386  0.6098  0.8221  -1.5645   0.0000   0.0000   0.0000   0.3249
   3.100   0.5042   0.00770   0.00280  -0.0384  0.5995  0.8247  -1.6267   0.0000   0.0000   0.0000   0.3229
   3.200   0.5149   0.00771   0.00284  -0.0383  0.5925  0.8272  -1.6913   0.0000   0.0000   0.0000   0.3211
   3.300   0.5252   0.00775   0.00287  -0.0382  0.5801  0.8297  -1.7555   0.0000   0.0000   0.0000   0.3193
   3.400   0.5341   0.00786   0.00287  -0.0377  0.5578  0.8322  -1.8162   0.0000   0.0000   0.0000   0.3172
   3.500   0.5432   0.00798   0.00291  -0.0374  0.5308  0.8347  -1.8772   0.0000   0.0000   0.0000   0.3153
   3.600   0.5490   0.00832   0.00297  -0.0365  0.4701  0.8374  -1.9286   0.0000   0.0000   0.0000   0.3128
   3.700   0.5519   0.00890   0.00315  -0.0352  0.3864  0.8401  -1.9705   0.0000   0.0000   0.0000   0.3101
   3.800   0.5545   0.00957   0.00343  -0.0340  0.3040  0.8427  -2.0103   0.0000   0.0000   0.0000   0.3075
   3.900   0.5583   0.01014   0.00369  -0.0330  0.2303  0.8450  -2.0529   0.0000   0.0000   0.0000   0.3052
   4.000   0.5610   0.01079   0.00398  -0.0319  0.1573  0.8471  -2.0913   0.0000   0.0000   0.0000   0.3028
   4.100   0.5646   0.01135   0.00425  -0.0308  0.0910  0.8488  -2.1305   0.0000   0.0000   0.0000   0.3005
   4.200   0.5689   0.01181   0.00447  -0.0298  0.0543  0.8526  -2.1691   0.0000   0.0000   0.0000   0.2983
   4.300   0.5764   0.01199   0.00462  -0.0292  0.0422  0.8577  -2.2096   0.0000   0.0000   0.0000   0.2965
   4.400   0.5808   0.01239   0.00506  -0.0278  0.0281  0.8626  -2.1682   0.0000   0.0000   0.0000   0.2935
   4.600   0.5895   0.01308   0.00599  -0.0250  0.0237  0.8709  -2.1467   0.0000   0.0000   0.0000   0.2879
   4.700   0.5964   0.01322   0.00617  -0.0242  0.0234  0.8745  -2.1887   0.0000   0.0000   0.0000   0.2860
   4.800   0.6031   0.01339   0.00637  -0.0234  0.0232  0.8782  -2.2283   0.0000   0.0000   0.0000   0.2841
   4.900   0.6095   0.01357   0.00658  -0.0225  0.0230  0.8819  -2.2658   0.0000   0.0000   0.0000   0.2822
   5.000   0.6156   0.01377   0.00682  -0.0216  0.0228  0.8856  -2.3012   0.0000   0.0000   0.0000   0.2802
   5.100   0.6215   0.01399   0.00708  -0.0206  0.0226  0.8891  -2.3350   0.0000   0.0000   0.0000   0.2782
   5.200   0.6272   0.01422   0.00735  -0.0196  0.0224  0.8925  -2.3673   0.0000   0.0000   0.0000   0.2763
   5.300   0.6326   0.01447   0.00763  -0.0186  0.0223  0.8956  -2.3983   0.0000   0.0000   0.0000   0.2743
   5.400   0.6378   0.01474   0.00793  -0.0175  0.0222  0.8982  -2.4283   0.0000   0.0000   0.0000   0.2723
   5.500   0.6430   0.01500   0.00823  -0.0164  0.0221  0.9020  -2.4575   0.0000   0.0000   0.0000   0.2703
   5.600   0.6468   0.01523   0.00850  -0.0151  0.0220  0.9094  -2.4835   0.0000   0.0000   0.0000   0.2680
   5.700   0.6493   0.01545   0.00877  -0.0134  0.0220  0.9160  -2.5067   0.0000   0.0000   0.0000   0.2652
   5.800   0.6516   0.01569   0.00906  -0.0117  0.0219  0.9222  -2.5292   0.0000   0.0000   0.0000   0.2625
   5.900   0.6545   0.01596   0.00937  -0.0101  0.0219  0.9284  -2.5522   0.0000   0.0000   0.0000   0.2599
   6.000   0.6580   0.01625   0.00970  -0.0087  0.0219  0.9345  -2.5758   0.0000   0.0000   0.0000   0.2575
   6.100   0.6618   0.01657   0.01006  -0.0073  0.0219  0.9400  -2.5996   0.0000   0.0000   0.0000   0.2553
   6.200   0.6693   0.01759   0.01138  -0.0064  0.0220  0.9436  -2.5965   0.0000   0.0000   0.0000   0.2538
   6.300   0.6718   0.01730   0.01108  -0.0049  0.0210  0.9487  -2.6834   0.0000   0.0000   0.0000   0.2513
   6.400   0.6791   0.01706   0.01082  -0.0045  0.0197  0.9569  -2.7914   0.0000   0.0000   0.0000   0.2506
   6.500   0.6902   0.01700   0.01075  -0.0049  0.0185  0.9654  -2.9011   0.0000   0.0000   0.0000   0.2509
   6.600   0.7021   0.01711   0.01086  -0.0054  0.0177  0.9727  -2.9957   0.0000   0.0000   0.0000   0.2514
   6.700   0.7141   0.01739   0.01115  -0.0058  0.0173  0.9790  -3.0709   0.0000   0.0000   0.0000   0.2519
   6.800   0.7263   0.01776   0.01157  -0.0063  0.0171  0.9850  -3.1341   0.0000   0.0000   0.0000   0.2523
   6.900   0.7385   0.01814   0.01197  -0.0068  0.0169  0.9915  -3.1970   0.0000   0.0000   0.0000   0.2527
   7.000   0.7504   0.01852   0.01238  -0.0072  0.0167  0.9995  -3.2594   0.0000   0.0000   0.0000   0.2531
   7.100   0.7591   0.01886   0.01274  -0.0070  0.0165  1.0000  -3.3128   0.0000   0.0000   0.0000   0.2526
   7.200   0.7683   0.01921   0.01312  -0.0069  0.0164  1.0000  -3.3676   0.0000   0.0000   0.0000   0.2523
   7.300   0.7778   0.01959   0.01352  -0.0069  0.0163  1.0000  -3.4240   0.0000   0.0000   0.0000   0.2520
   7.400   0.7875   0.01998   0.01393  -0.0068  0.0161  1.0000  -3.4816   0.0000   0.0000   0.0000   0.2518
   7.500   0.7974   0.02038   0.01435  -0.0069  0.0160  1.0000  -3.5403   0.0000   0.0000   0.0000   0.2516
   7.600   0.8072   0.02079   0.01478  -0.0069  0.0158  1.0000  -3.5998   0.0000   0.0000   0.0000   0.2514
   7.700   0.8170   0.02120   0.01522  -0.0069  0.0157  1.0000  -3.6600   0.0000   0.0000   0.0000   0.2512
   7.800   0.8265   0.02162   0.01566  -0.0068  0.0156  1.0000  -3.7206   0.0000   0.0000   0.0000   0.2509
   7.900   0.8357   0.02203   0.01611  -0.0067  0.0154  1.0000  -3.7816   0.0000   0.0000   0.0000   0.2506
   8.000   0.8446   0.02244   0.01654  -0.0066  0.0153  1.0000  -3.8431   0.0000   0.0000   0.0000   0.2503
   8.100   0.8532   0.02285   0.01698  -0.0064  0.0151  1.0000  -3.9049   0.0000   0.0000   0.0000   0.2499
   8.200   0.8614   0.02325   0.01741  -0.0061  0.0150  1.0000  -3.9671   0.0000   0.0000   0.0000   0.2494
   8.300   0.8692   0.02365   0.01783  -0.0058  0.0148  1.0000  -4.0294   0.0000   0.0000   0.0000   0.2489
   8.400   0.8765   0.02404   0.01825  -0.0054  0.0147  1.0000  -4.0919   0.0000   0.0000   0.0000   0.2483
   8.500   0.8835   0.02442   0.01866  -0.0050  0.0145  1.0000  -4.1543   0.0000   0.0000   0.0000   0.2476
   8.600   0.8786   0.02401   0.01821  -0.0026  0.0137  1.0000  -4.2765   0.0000   0.0000   0.0000   0.2447
   8.700   0.8839   0.02466   0.01886  -0.0020  0.0129  1.0000  -4.3600   0.0000   0.0000   0.0000   0.2440
   8.800   0.9001   0.02687   0.02121  -0.0037  0.0122  1.0000  -4.3780   0.0000   0.0000   0.0000   0.2457
   9.000   0.9111   0.03087   0.02555  -0.0031  0.0115  1.0000  -4.3325   0.0000   0.0000   0.0000   0.2449
   9.100   0.9154   0.03055   0.02523  -0.0021  0.0114  1.0000  -4.4379   0.0000   0.0000   0.0000   0.2437
   9.200   0.9180   0.03044   0.02512  -0.0008  0.0112  1.0000  -4.5207   0.0000   0.0000   0.0000   0.2421
   9.300   0.9202   0.03043   0.02512   0.0005  0.0111  1.0000  -4.5967   0.0000   0.0000   0.0000   0.2406
   9.400   0.9228   0.03049   0.02520   0.0017  0.0110  1.0000  -4.6714   0.0000   0.0000   0.0000   0.2391
   9.500   0.9258   0.03060   0.02533   0.0028  0.0109  1.0000  -4.7456   0.0000   0.0000   0.0000   0.2378
   9.600   0.9290   0.03077   0.02551   0.0039  0.0108  1.0000  -4.8189   0.0000   0.0000   0.0000   0.2366
   9.700   0.9322   0.03096   0.02574   0.0049  0.0106  1.0000  -4.8916   0.0000   0.0000   0.0000   0.2354
   9.800   0.9350   0.03120   0.02599   0.0059  0.0105  1.0000  -4.9615   0.0000   0.0000   0.0000   0.2341
   9.900   0.9375   0.03145   0.02628   0.0070  0.0104  1.0000  -5.0296   0.0000   0.0000   0.0000   0.2329
  10.000   0.9400   0.03173   0.02659   0.0080  0.0102  1.0000  -5.0972   0.0000   0.0000   0.0000   0.2317
  10.100   0.9425   0.03203   0.02691   0.0090  0.0101  1.0000  -5.1653   0.0000   0.0000   0.0000   0.2305
  10.200   0.9451   0.03234   0.02725   0.0100  0.0099  1.0000  -5.2341   0.0000   0.0000   0.0000   0.2294
  10.300   0.9476   0.03267   0.02761   0.0110  0.0098  1.0000  -5.3035   0.0000   0.0000   0.0000   0.2283
  10.400   0.9500   0.03300   0.02797   0.0119  0.0096  1.0000  -5.3734   0.0000   0.0000   0.0000   0.2272
  10.500   0.9520   0.03335   0.02835   0.0129  0.0095  1.0000  -5.4416   0.0000   0.0000   0.0000   0.2261
  10.600   0.9536   0.03371   0.02874   0.0138  0.0094  1.0000  -5.5085   0.0000   0.0000   0.0000   0.2249
  10.700   0.9551   0.03406   0.02912   0.0148  0.0092  1.0000  -5.5760   0.0000   0.0000   0.0000   0.2238
  10.800   0.9567   0.03441   0.02950   0.0157  0.0091  1.0000  -5.6454   0.0000   0.0000   0.0000   0.2227
  10.900   0.9583   0.03477   0.02988   0.0166  0.0090  1.0000  -5.7168   0.0000   0.0000   0.0000   0.2216
  11.000   0.9600   0.03512   0.03026   0.0175  0.0088  1.0000  -5.7899   0.0000   0.0000   0.0000   0.2206
  11.100   0.9616   0.03548   0.03064   0.0184  0.0087  1.0000  -5.8641   0.0000   0.0000   0.0000   0.2196
  11.200   0.9625   0.03587   0.03106   0.0193  0.0086  1.0000  -5.9328   0.0000   0.0000   0.0000   0.2185
  11.300   0.9631   0.03627   0.03149   0.0202  0.0085  1.0000  -6.0008   0.0000   0.0000   0.0000   0.2175
  11.400   0.9638   0.03667   0.03192   0.0210  0.0084  1.0000  -6.0709   0.0000   0.0000   0.0000   0.2164
  11.500   0.9648   0.03707   0.03234   0.0218  0.0083  1.0000  -6.1439   0.0000   0.0000   0.0000   0.2155
  11.600   0.9659   0.03747   0.03277   0.0226  0.0082  1.0000  -6.2190   0.0000   0.0000   0.0000   0.2145
  11.700   0.9670   0.03788   0.03320   0.0233  0.0081  1.0000  -6.2954   0.0000   0.0000   0.0000   0.2137
  11.800   0.9676   0.03831   0.03365   0.0241  0.0081  1.0000  -6.3683   0.0000   0.0000   0.0000   0.2127
  11.900   0.9677   0.03876   0.03413   0.0249  0.0080  1.0000  -6.4378   0.0000   0.0000   0.0000   0.2118
  12.000   0.9680   0.03922   0.03461   0.0256  0.0079  1.0000  -6.5089   0.0000   0.0000   0.0000   0.2109
  12.100   0.9684   0.03968   0.03509   0.0262  0.0079  1.0000  -6.5824   0.0000   0.0000   0.0000   0.2100
  12.200   0.9691   0.04015   0.03557   0.0269  0.0078  1.0000  -6.6574   0.0000   0.0000   0.0000   0.2092
  12.300   0.9697   0.04063   0.03608   0.0275  0.0077  1.0000  -6.7325   0.0000   0.0000   0.0000   0.2085
  12.400   0.9698   0.04116   0.03663   0.0281  0.0077  1.0000  -6.8031   0.0000   0.0000   0.0000   0.2077
  12.500   0.9689   0.04176   0.03726   0.0287  0.0076  1.0000  -6.8652   0.0000   0.0000   0.0000   0.2068
  12.600   0.9681   0.04240   0.03792   0.0293  0.0075  1.0000  -6.9264   0.0000   0.0000   0.0000   0.2060
  12.700   0.9673   0.04306   0.03861   0.0298  0.0075  1.0000  -6.9876   0.0000   0.0000   0.0000   0.2053
  12.800   0.9664   0.04378   0.03935   0.0303  0.0074  1.0000  -7.0459   0.0000   0.0000   0.0000   0.2045
  12.900   0.9650   0.04457   0.04018   0.0308  0.0074  1.0000  -7.0981   0.0000   0.0000   0.0000   0.2038
  13.000   0.9621   0.04549   0.04114   0.0313  0.0073  1.0000  -7.1350   0.0000   0.0000   0.0000   0.2030
  13.100   0.9580   0.04654   0.04224   0.0318  0.0072  1.0000  -7.1585   0.0000   0.0000   0.0000   0.2022
  13.200   0.9535   0.04770   0.04345   0.0322  0.0072  1.0000  -7.1745   0.0000   0.0000   0.0000   0.2014
  13.300   0.9482   0.04900   0.04481   0.0326  0.0071  1.0000  -7.1786   0.0000   0.0000   0.0000   0.2006
  13.400   0.9417   0.05046   0.04635   0.0330  0.0071  1.0000  -7.1670   0.0000   0.0000   0.0000   0.1998
  13.500   0.9337   0.05205   0.04801   0.0332  0.0070  1.0000  -7.1409   0.0000   0.0000   0.0000   0.1990
  13.600   0.9252   0.05376   0.04979   0.0334  0.0070  1.0000  -7.1064   0.0000   0.0000   0.0000   0.1984
  13.700   0.9163   0.05561   0.05173   0.0334  0.0070  1.0000  -7.0628   0.0000   0.0000   0.0000   0.1978
  13.800   0.9071   0.05753   0.05373   0.0333  0.0069  1.0000  -7.0166   0.0000   0.0000   0.0000   0.1973
  13.900   0.8980   0.05950   0.05577   0.0331  0.0069  1.0000  -6.9708   0.0000   0.0000   0.0000   0.1970
  14.000   0.8888   0.06159   0.05794   0.0327  0.0069  1.0000  -6.9193   0.0000   0.0000   0.0000   0.1968
  14.100   0.8798   0.06373   0.06016   0.0322  0.0069  1.0000  -6.8683   0.0000   0.0000   0.0000   0.1968
  14.200   0.8712   0.06585   0.06234   0.0316  0.0069  1.0000  -6.8240   0.0000   0.0000   0.0000   0.1969
  14.300   0.8627   0.06810   0.06466   0.0309  0.0069  1.0000  -6.7742   0.0000   0.0000   0.0000   0.1972
  14.400   0.8544   0.07042   0.06704   0.0300  0.0069  1.0000  -6.7242   0.0000   0.0000   0.0000   0.1977
  14.500   0.8466   0.07272   0.06940   0.0290  0.0069  1.0000  -6.6807   0.0000   0.0000   0.0000   0.1983
  14.600   0.8388   0.07517   0.07191   0.0279  0.0069  1.0000  -6.6308   0.0000   0.0000   0.0000   0.1991
  14.700   0.8313   0.07768   0.07447   0.0266  0.0069  1.0000  -6.5817   0.0000   0.0000   0.0000   0.2002
  14.800   0.8240   0.08027   0.07712   0.0252  0.0069  1.0000  -6.5315   0.0000   0.0000   0.0000   0.2014
  14.900   0.8167   0.08301   0.07992   0.0237  0.0069  1.0000  -6.4743   0.0000   0.0000   0.0000   0.2028
  15.000   0.8095   0.08588   0.08284   0.0220  0.0070  1.0000  -6.4142   0.0000   0.0000   0.0000   0.2044
  15.100   0.8020   0.08897   0.08599   0.0202  0.0070  1.0000  -6.3409   0.0000   0.0000   0.0000   0.2063
  15.200   0.7937   0.09246   0.08953   0.0180  0.0070  1.0000  -6.2481   0.0000   0.0000   0.0000   0.2087
  15.300   0.7830   0.09681   0.09395   0.0153  0.0071  1.0000  -6.1014   0.0000   0.0000   0.0000   0.2117
  15.500   0.6258   0.15032   0.14766  -0.0083  0.0102  1.0000  -2.4486   0.0000   0.0000   0.0000   0.2473
  15.700   0.6355   0.15180   0.14916  -0.0085  0.0124  1.0000  -2.5631   0.0000   0.0000   0.0000   0.2470
  15.800   0.6287   0.15769   0.15504  -0.0107  0.0138  1.0000  -2.2060   0.0000   0.0000   0.0000   0.2510
  15.900   0.6284   0.16004   0.15739  -0.0118  0.0139  1.0000  -2.1490   0.0000   0.0000   0.0000   0.2526
  16.000   0.6290   0.16209   0.15944  -0.0127  0.0140  1.0000  -2.1159   0.0000   0.0000   0.0000   0.2539
  16.100   0.6300   0.16400   0.16134  -0.0135  0.0140  1.0000  -2.0936   0.0000   0.0000   0.0000   0.2552
  16.200   0.6312   0.16582   0.16316  -0.0143  0.0139  1.0000  -2.0777   0.0000   0.0000   0.0000   0.2563
  16.300   0.6326   0.16758   0.16491  -0.0151  0.0139  1.0000  -2.0660   0.0000   0.0000   0.0000   0.2574
  16.400   0.6341   0.16929   0.16662  -0.0159  0.0138  1.0000  -2.0572   0.0000   0.0000   0.0000   0.2584
  16.500   0.6357   0.17097   0.16830  -0.0166  0.0138  1.0000  -2.0505   0.0000   0.0000   0.0000   0.2594
  16.600   0.6374   0.17263   0.16995  -0.0173  0.0137  1.0000  -2.0456   0.0000   0.0000   0.0000   0.2604
  16.700   0.6392   0.17426   0.17158  -0.0181  0.0136  1.0000  -2.0422   0.0000   0.0000   0.0000   0.2613
  16.800   0.6411   0.17587   0.17319  -0.0188  0.0136  1.0000  -2.0400   0.0000   0.0000   0.0000   0.2622
  16.900   0.6430   0.17746   0.17478  -0.0195  0.0135  1.0000  -2.0389   0.0000   0.0000   0.0000   0.2631
  17.000   0.6450   0.17903   0.17635  -0.0202  0.0134  1.0000  -2.0388   0.0000   0.0000   0.0000   0.2640
  17.100   0.6470   0.18059   0.17791  -0.0209  0.0134  1.0000  -2.0397   0.0000   0.0000   0.0000   0.2648
  17.200   0.6491   0.18214   0.17945  -0.0215  0.0133  1.0000  -2.0416   0.0000   0.0000   0.0000   0.2656
  17.300   0.6513   0.18368   0.18099  -0.0222  0.0132  1.0000  -2.0444   0.0000   0.0000   0.0000   0.2664
  17.400   0.6535   0.18521   0.18251  -0.0229  0.0131  1.0000  -2.0481   0.0000   0.0000   0.0000   0.2672
  17.500   0.6558   0.18672   0.18403  -0.0235  0.0131  1.0000  -2.0528   0.0000   0.0000   0.0000   0.2679
  17.600   0.6581   0.18823   0.18554  -0.0242  0.0130  1.0000  -2.0583   0.0000   0.0000   0.0000   0.2687
  17.700   0.6605   0.18974   0.18704  -0.0248  0.0129  1.0000  -2.0646   0.0000   0.0000   0.0000   0.2694
  17.800   0.6629   0.19125   0.18855  -0.0254  0.0129  1.0000  -2.0717   0.0000   0.0000   0.0000   0.2700
  17.900   0.6651   0.19278   0.19008  -0.0261  0.0128  1.0000  -2.0755   0.0000   0.0000   0.0000   0.2708
  18.000   0.6672   0.19436   0.19166  -0.0268  0.0127  1.0000  -2.0756   0.0000   0.0000   0.0000   0.2715
  18.100   0.6693   0.19595   0.19325  -0.0274  0.0126  1.0000  -2.0751   0.0000   0.0000   0.0000   0.2723
  18.200   0.6713   0.19757   0.19487  -0.0281  0.0125  1.0000  -2.0733   0.0000   0.0000   0.0000   0.2730
  18.300   0.6733   0.19924   0.19654  -0.0288  0.0124  1.0000  -2.0693   0.0000   0.0000   0.0000   0.2738
  18.400   0.6751   0.20100   0.19829  -0.0295  0.0123  1.0000  -2.0613   0.0000   0.0000   0.0000   0.2746
  18.500   0.6767   0.20291   0.20019  -0.0302  0.0122  1.0000  -2.0455   0.0000   0.0000   0.0000   0.2754
  18.600   0.6777   0.20522   0.20250  -0.0310  0.0120  1.0000  -2.0092   0.0000   0.0000   0.0000   0.2764
  18.700   0.6723   0.21177   0.20903  -0.0325  0.0116  1.0000  -1.7500   0.0000   0.0000   0.0000   0.2792
  18.800   0.6745   0.21335   0.21060  -0.0332  0.0116  1.0000  -1.7432   0.0000   0.0000   0.0000   0.2799
  18.900   0.6768   0.21492   0.21217  -0.0338  0.0116  1.0000  -1.7365   0.0000   0.0000   0.0000   0.2806
  19.000   0.6790   0.21647   0.21372  -0.0345  0.0116  1.0000  -1.7300   0.0000   0.0000   0.0000   0.2813
  19.100   0.6812   0.21802   0.21527  -0.0352  0.0115  1.0000  -1.7237   0.0000   0.0000   0.0000   0.2820
  19.200   0.6835   0.21956   0.21680  -0.0358  0.0115  1.0000  -1.7176   0.0000   0.0000   0.0000   0.2826
  19.300   0.6857   0.22108   0.21832  -0.0365  0.0115  1.0000  -1.7117   0.0000   0.0000   0.0000   0.2833
  19.400   0.6880   0.22259   0.21984  -0.0371  0.0115  1.0000  -1.7059   0.0000   0.0000   0.0000   0.2839
  19.500   0.6902   0.22410   0.22134  -0.0378  0.0115  1.0000  -1.7003   0.0000   0.0000   0.0000   0.2845
  19.600   0.6925   0.22559   0.22283  -0.0384  0.0115  1.0000  -1.6949   0.0000   0.0000   0.0000   0.2852
  19.700   0.6944   0.22694   0.22418  -0.0391  0.0115  1.0000  -1.6879   0.0000   0.0000   0.0000   0.2858
  19.800   0.6963   0.22819   0.22542  -0.0397  0.0115  1.0000  -1.6807   0.0000   0.0000   0.0000   0.2865
  19.900   0.6981   0.22938   0.22661  -0.0404  0.0115  1.0000  -1.6743   0.0000   0.0000   0.0000   0.2872
  20.000   0.6999   0.23052   0.22775  -0.0411  0.0114  1.0000  -1.6691   0.0000   0.0000   0.0000   0.2879
  20.100   0.7018   0.23156   0.22879  -0.0417  0.0114  1.0000  -1.6655   0.0000   0.0000   0.0000   0.2885
  20.200   0.7037   0.23247   0.22970  -0.0424  0.0113  1.0000  -1.6635   0.0000   0.0000   0.0000   0.2891
  20.300   0.7056   0.23326   0.23049  -0.0430  0.0112  1.0000  -1.6638   0.0000   0.0000   0.0000   0.2896
  20.400   0.7075   0.23392   0.23114  -0.0436  0.0111  1.0000  -1.6656   0.0000   0.0000   0.0000   0.2902
  20.500   0.7095   0.23449   0.23171  -0.0443  0.0109  1.0000  -1.6662   0.0000   0.0000   0.0000   0.2907
  20.600   0.7109   0.23504   0.23226  -0.0450  0.0107  1.0000  -1.6534   0.0000   0.0000   0.0000   0.2914
  20.700   0.7126   0.23577   0.23299  -0.0456  0.0104  1.0000  -1.6359   0.0000   0.0000   0.0000   0.2921
  20.800   0.7147   0.23675   0.23396  -0.0463  0.0100  1.0000  -1.6189   0.0000   0.0000   0.0000   0.2927
  20.900   0.7170   0.23785   0.23506  -0.0469  0.0096  1.0000  -1.6071   0.0000   0.0000   0.0000   0.2932
  21.000   0.7193   0.23899   0.23620  -0.0475  0.0093  1.0000  -1.6010   0.0000   0.0000   0.0000   0.2937
  21.100   0.7216   0.24013   0.23734  -0.0481  0.0090  1.0000  -1.5993   0.0000   0.0000   0.0000   0.2941
  21.200   0.7240   0.24126   0.23847  -0.0486  0.0088  1.0000  -1.6010   0.0000   0.0000   0.0000   0.2946
  21.300   0.7263   0.24237   0.23958  -0.0492  0.0086  1.0000  -1.6055   0.0000   0.0000   0.0000   0.2950
  21.400   0.7287   0.24347   0.24068  -0.0498  0.0084  1.0000  -1.6125   0.0000   0.0000   0.0000   0.2954
  21.500   0.7311   0.24455   0.24176  -0.0504  0.0082  1.0000  -1.6217   0.0000   0.0000   0.0000   0.2958
  21.600   0.7335   0.24562   0.24283  -0.0510  0.0080  1.0000  -1.6330   0.0000   0.0000   0.0000   0.2962
  21.700   0.7359   0.24668   0.24389  -0.0515  0.0079  1.0000  -1.6465   0.0000   0.0000   0.0000   0.2966
  21.800   0.7384   0.24773   0.24493  -0.0521  0.0078  1.0000  -1.6621   0.0000   0.0000   0.0000   0.2969
  21.900   0.7408   0.24877   0.24597  -0.0527  0.0076  1.0000  -1.6799   0.0000   0.0000   0.0000   0.2973
  22.000   0.7433   0.24980   0.24700  -0.0533  0.0075  1.0000  -1.6999   0.0000   0.0000   0.0000   0.2976
  22.100   0.7459   0.25082   0.24802  -0.0538  0.0074  1.0000  -1.7223   0.0000   0.0000   0.0000   0.2980
  22.200   0.7485   0.25184   0.24904  -0.0544  0.0073  1.0000  -1.7473   0.0000   0.0000   0.0000   0.2983
  22.300   0.7511   0.25287   0.25007  -0.0549  0.0072  1.0000  -1.7750   0.0000   0.0000   0.0000   0.2985
  22.400   0.7539   0.25391   0.25112  -0.0555  0.0072  1.0000  -1.8058   0.0000   0.0000   0.0000   0.2988
  22.500   0.7568   0.25499   0.25220  -0.0560  0.0071  1.0000  -1.8401   0.0000   0.0000   0.0000   0.2990
  22.600   0.7599   0.25615   0.25335  -0.0565  0.0070  1.0000  -1.8790   0.0000   0.0000   0.0000   0.2991
  22.700   0.7634   0.25750   0.25470  -0.0569  0.0069  1.0000  -1.9260   0.0000   0.0000   0.0000   0.2991
  23.600   0.7774   0.26962   0.26680  -0.0627  0.0064  1.0000  -1.6838   0.0000   0.0000   0.0000   0.3040
  23.700   0.7794   0.27080   0.26798  -0.0634  0.0059  1.0000  -1.6196   0.0000   0.0000   0.0000   0.3045
  23.800   0.7817   0.27204   0.26922  -0.0640  0.0056  1.0000  -1.6091   0.0000   0.0000   0.0000   0.3049
  23.900   0.7840   0.27322   0.27040  -0.0645  0.0054  1.0000  -1.6111   0.0000   0.0000   0.0000   0.3052
  24.000   0.7863   0.27436   0.27154  -0.0651  0.0052  1.0000  -1.6182   0.0000   0.0000   0.0000   0.3056
  24.100   0.7885   0.27548   0.27266  -0.0657  0.0050  1.0000  -1.6287   0.0000   0.0000   0.0000   0.3059
  24.200   0.7908   0.27657   0.27376  -0.0663  0.0049  1.0000  -1.6419   0.0000   0.0000   0.0000   0.3062
  24.300   0.7930   0.27765   0.27484  -0.0669  0.0048  1.0000  -1.6576   0.0000   0.0000   0.0000   0.3066
  24.400   0.7952   0.27879   0.27604  -0.0675  0.0048  1.0000  -1.6645   0.0000   0.0000   0.0000   0.3069
  24.500   0.7975   0.27987   0.27712  -0.0681  0.0047  1.0000  -1.6803   0.0000   0.0000   0.0000   0.3072
  24.600   0.7997   0.28093   0.27818  -0.0687  0.0046  1.0000  -1.6995   0.0000   0.0000   0.0000   0.3075
  24.700   0.8019   0.28197   0.27922  -0.0693  0.0046  1.0000  -1.7213   0.0000   0.0000   0.0000   0.3078
  24.800   0.8042   0.28301   0.28026  -0.0700  0.0045  1.0000  -1.7456   0.0000   0.0000   0.0000   0.3081
  24.900   0.8064   0.28404   0.28129  -0.0706  0.0045  1.0000  -1.7724   0.0000   0.0000   0.0000   0.3084
  25.000   0.8087   0.28508   0.28233  -0.0711  0.0044  1.0000  -1.8020   0.0000   0.0000   0.0000   0.3086
  25.100   0.8111   0.28613   0.28339  -0.0717  0.0044  1.0000  -1.8349   0.0000   0.0000   0.0000   0.3089
  25.200   0.8135   0.28723   0.28449  -0.0723  0.0043  1.0000  -1.8725   0.0000   0.0000   0.0000   0.3090
  25.300   0.8163   0.28847   0.28573  -0.0728  0.0043  1.0000  -1.9188   0.0000   0.0000   0.0000   0.3091


