xflr5 v6.61

 Calculated polar for: NACA 65(1)-412

 1 1 Reynolds number fixed          Mach number fixed         

 xtrf =   1.000 (top)        1.000 (bottom)
 Mach =   0.000     Re =     0.688 e 6     Ncrit =   9.000

  alpha     CL        CD       CDp       Cm    Top Xtr Bot Xtr   Cpmin    Chinge    XCp    
 ------- -------- --------- --------- -------- ------- ------- -------- --------- ---------
  -8.800  -0.5608   0.02016   0.01535  -0.0835  0.9383  0.0077  -6.2132   0.0000   0.0000   0.0000   0.0920
  -8.700  -0.5563   0.01913   0.01417  -0.0826  0.9351  0.0077  -6.1741   0.0000   0.0000   0.0000   0.0923
  -8.600  -0.5495   0.01846   0.01341  -0.0821  0.9320  0.0077  -6.0917   0.0000   0.0000   0.0000   0.0915
  -8.500  -0.5418   0.01793   0.01281  -0.0817  0.9290  0.0078  -5.9922   0.0000   0.0000   0.0000   0.0902
  -8.400  -0.5336   0.01748   0.01230  -0.0814  0.9260  0.0079  -5.8838   0.0000   0.0000   0.0000   0.0886
  -8.300  -0.5251   0.01709   0.01184  -0.0811  0.9229  0.0080  -5.7699   0.0000   0.0000   0.0000   0.0867
  -8.200  -0.5164   0.01673   0.01144  -0.0808  0.9196  0.0081  -5.6526   0.0000   0.0000   0.0000   0.0847
  -8.100  -0.5076   0.01640   0.01106  -0.0805  0.9159  0.0083  -5.5329   0.0000   0.0000   0.0000   0.0826
  -8.000  -0.4986   0.01611   0.01072  -0.0803  0.9117  0.0084  -5.4103   0.0000   0.0000   0.0000   0.0803
  -7.900  -0.4892   0.01586   0.01042  -0.0802  0.9068  0.0086  -5.2838   0.0000   0.0000   0.0000   0.0775
  -7.800  -0.4793   0.01566   0.01018  -0.0801  0.9014  0.0088  -5.1522   0.0000   0.0000   0.0000   0.0743
  -7.700  -0.4700   0.01549   0.01000  -0.0799  0.8997  0.0089  -5.0219   0.0000   0.0000   0.0000   0.0715
  -7.600  -0.4606   0.01538   0.00988  -0.0797  0.8984  0.0091  -4.8868   0.0000   0.0000   0.0000   0.0686
  -7.500  -0.4507   0.01535   0.00985  -0.0795  0.8968  0.0092  -4.7439   0.0000   0.0000   0.0000   0.0651
  -7.400  -0.4439   0.01470   0.00913  -0.0789  0.8946  0.0097  -4.6573   0.0000   0.0000   0.0000   0.0638
  -7.300  -0.4360   0.01432   0.00875  -0.0786  0.8923  0.0103  -4.5429   0.0000   0.0000   0.0000   0.0615
  -7.200  -0.4214   0.01551   0.01015  -0.0793  0.8904  0.0115  -4.1674   0.0000   0.0000   0.0000   0.0536
  -7.100  -0.4113   0.01554   0.01019  -0.0793  0.8880  0.0117  -4.0302   0.0000   0.0000   0.0000   0.0492
  -7.000  -0.4012   0.01555   0.01020  -0.0792  0.8855  0.0120  -3.9026   0.0000   0.0000   0.0000   0.0445
  -6.900  -0.3911   0.01555   0.01020  -0.0791  0.8828  0.0123  -3.7906   0.0000   0.0000   0.0000   0.0397
  -6.800  -0.3811   0.01553   0.01017  -0.0790  0.8800  0.0126  -3.6831   0.0000   0.0000   0.0000   0.0346
  -6.700  -0.3710   0.01550   0.01014  -0.0789  0.8771  0.0129  -3.5796   0.0000   0.0000   0.0000   0.0292
  -6.600  -0.3609   0.01548   0.01010  -0.0788  0.8741  0.0132  -3.4795   0.0000   0.0000   0.0000   0.0236
  -6.500  -0.3508   0.01545   0.01006  -0.0787  0.8711  0.0135  -3.3820   0.0000   0.0000   0.0000   0.0176
  -6.400  -0.3407   0.01545   0.01003  -0.0786  0.8677  0.0137  -3.2862   0.0000   0.0000   0.0000   0.0112
  -6.300  -0.3305   0.01546   0.01002  -0.0786  0.8641  0.0140  -3.1912   0.0000   0.0000   0.0000   0.0043
  -6.200  -0.3201   0.01549   0.01003  -0.0785  0.8600  0.0141  -3.0959   0.0000   0.0000   0.0000  -0.0034
  -6.100  -0.3093   0.01556   0.01009  -0.0786  0.8556  0.0143  -2.9992   0.0000   0.0000   0.0000  -0.0120
  -6.000  -0.2983   0.01568   0.01019  -0.0787  0.8509  0.0144  -2.9003   0.0000   0.0000   0.0000  -0.0218
  -5.900  -0.2875   0.01583   0.01034  -0.0787  0.8500  0.0145  -2.7994   0.0000   0.0000   0.0000  -0.0320
  -5.800  -0.2796   0.01471   0.00914  -0.0783  0.8488  0.0149  -2.8119   0.0000   0.0000   0.0000  -0.0383
  -5.700  -0.2715   0.01384   0.00820  -0.0779  0.8475  0.0153  -2.8104   0.0000   0.0000   0.0000  -0.0454
  -5.600  -0.2626   0.01329   0.00760  -0.0777  0.8459  0.0156  -2.7836   0.0000   0.0000   0.0000  -0.0542
  -5.500  -0.2533   0.01289   0.00717  -0.0775  0.8441  0.0159  -2.7451   0.0000   0.0000   0.0000  -0.0644
  -5.400  -0.2425   0.01285   0.00711  -0.0775  0.8423  0.0155  -2.6839   0.0000   0.0000   0.0000  -0.0781
  -5.300  -0.2333   0.01243   0.00665  -0.0772  0.8402  0.0159  -2.6491   0.0000   0.0000   0.0000  -0.0898
  -5.200  -0.2239   0.01208   0.00628  -0.0771  0.8379  0.0162  -2.6067   0.0000   0.0000   0.0000  -0.1030
  -5.100  -0.2143   0.01181   0.00597  -0.0769  0.8355  0.0165  -2.5586   0.0000   0.0000   0.0000  -0.1180
  -5.000  -0.2044   0.01157   0.00572  -0.0768  0.8330  0.0169  -2.5053   0.0000   0.0000   0.0000  -0.1349
  -4.900  -0.1943   0.01138   0.00551  -0.0767  0.8304  0.0173  -2.4464   0.0000   0.0000   0.0000  -0.1541
  -4.800  -0.1840   0.01124   0.00536  -0.0767  0.8278  0.0178  -2.3800   0.0000   0.0000   0.0000  -0.1762
  -4.700  -0.1735   0.01116   0.00528  -0.0767  0.8250  0.0184  -2.3020   0.0000   0.0000   0.0000  -0.2017
  -4.600  -0.1582   0.01254   0.00679  -0.0778  0.8224  0.0238  -1.9692   0.0000   0.0000   0.0000  -0.2520
  -4.500  -0.1482   0.01228   0.00650  -0.0777  0.8194  0.0240  -1.9305   0.0000   0.0000   0.0000  -0.2849
  -4.400  -0.1383   0.01195   0.00611  -0.0775  0.8160  0.0239  -1.9042   0.0000   0.0000   0.0000  -0.3212
  -4.300  -0.1284   0.01164   0.00575  -0.0773  0.8122  0.0239  -1.8777   0.0000   0.0000   0.0000  -0.3636
  -4.200  -0.1183   0.01135   0.00542  -0.0772  0.8080  0.0239  -1.8502   0.0000   0.0000   0.0000  -0.4142
  -4.100  -0.1081   0.01109   0.00512  -0.0771  0.8037  0.0239  -1.8215   0.0000   0.0000   0.0000  -0.4760
  -4.000  -0.0978   0.01085   0.00483  -0.0770  0.8007  0.0239  -1.7919   0.0000   0.0000   0.0000  -0.5516
  -3.900  -0.0875   0.01059   0.00455  -0.0770  0.8000  0.0240  -1.7614   0.0000   0.0000   0.0000  -0.6446
  -3.800  -0.0771   0.01036   0.00429  -0.0769  0.7990  0.0241  -1.7300   0.0000   0.0000   0.0000  -0.7642
  -3.700  -0.0666   0.01014   0.00405  -0.0769  0.7980  0.0243  -1.6976   0.0000   0.0000   0.0000  -0.9235
  -3.600  -0.0559   0.00994   0.00383  -0.0769  0.7967  0.0246  -1.6641   0.0000   0.0000   0.0000  -1.1458
  -3.500  -0.0452   0.00977   0.00363  -0.0769  0.7953  0.0249  -1.6293   0.0000   0.0000   0.0000  -1.4775
  -3.400  -0.0343   0.00961   0.00345  -0.0770  0.7938  0.0253  -1.5929   0.0000   0.0000   0.0000  -2.0235
  -3.300  -0.0234   0.00948   0.00329  -0.0770  0.7922  0.0257  -1.5542   0.0000   0.0000   0.0000  -3.0875
  -3.200  -0.0124   0.00937   0.00316  -0.0771  0.7904  0.0262  -1.5126   0.0000   0.0000   0.0000  -6.0601
  -3.100  -0.0013   0.00928   0.00306  -0.0771  0.7886  0.0266  -1.4677   0.0000   0.0000   0.0000  -59.7307
  -3.000   0.0098   0.00921   0.00299  -0.0772  0.7866  0.0270  -1.4200   0.0000   0.0000   0.0000   8.2239
  -2.900   0.0209   0.00916   0.00293  -0.0773  0.7844  0.0273  -1.3703   0.0000   0.0000   0.0000   3.9877
  -2.800   0.0318   0.00877   0.00238  -0.0772  0.7821  0.0345  -1.3998   0.0000   0.0000   0.0000   2.7094
  -2.700   0.0429   0.00867   0.00224  -0.0773  0.7796  0.0398  -1.3652   0.0000   0.0000   0.0000   2.0703
  -2.600   0.0540   0.00858   0.00215  -0.0773  0.7770  0.0444  -1.3194   0.0000   0.0000   0.0000   1.6968
  -2.500   0.0651   0.00850   0.00208  -0.0774  0.7744  0.0495  -1.2712   0.0000   0.0000   0.0000   1.4509
  -2.400   0.0760   0.00835   0.00200  -0.0775  0.7715  0.0728  -1.2233   0.0000   0.0000   0.0000   1.2795
  -2.300   0.0863   0.00792   0.00187  -0.0778  0.7684  0.1588  -1.1758   0.0000   0.0000   0.0000   1.1595
  -2.200   0.0965   0.00739   0.00173  -0.0782  0.7651  0.2751  -1.1276   0.0000   0.0000   0.0000   1.0669
  -2.100   0.1069   0.00678   0.00158  -0.0787  0.7615  0.4161  -1.0787   0.0000   0.0000   0.0000   0.9926
  -2.000   0.1175   0.00639   0.00157  -0.0791  0.7579  0.5278  -1.0277   0.0000   0.0000   0.0000   0.9279
  -1.900   0.1287   0.00630   0.00161  -0.0792  0.7541  0.5691  -0.9752   0.0000   0.0000   0.0000   0.8700
  -1.800   0.1400   0.00629   0.00165  -0.0793  0.7509  0.5924  -0.9227   0.0000   0.0000   0.0000   0.8205
  -1.700   0.1514   0.00626   0.00164  -0.0795  0.7503  0.6043  -0.8704   0.0000   0.0000   0.0000   0.7780
  -1.600   0.1625   0.00621   0.00167  -0.0795  0.7496  0.6219  -0.8192   0.0000   0.0000   0.0000   0.7420
  -1.500   0.1737   0.00618   0.00169  -0.0796  0.7488  0.6363  -0.7684   0.0000   0.0000   0.0000   0.7103
  -1.400   0.1851   0.00620   0.00171  -0.0796  0.7479  0.6466  -0.7177   0.0000   0.0000   0.0000   0.6823
  -1.300   0.1963   0.00618   0.00173  -0.0797  0.7469  0.6590  -0.6682   0.0000   0.0000   0.0000   0.6577
  -1.200   0.2072   0.00615   0.00178  -0.0796  0.7457  0.6731  -0.6198   0.0000   0.0000   0.0000   0.6359
  -1.100   0.2182   0.00616   0.00182  -0.0796  0.7444  0.6824  -0.5717   0.0000   0.0000   0.0000   0.6161
  -1.000   0.2295   0.00618   0.00185  -0.0797  0.7431  0.6879  -0.5239   0.0000   0.0000   0.0000   0.5981
  -0.900   0.2409   0.00619   0.00185  -0.0798  0.7417  0.6911  -0.5262   0.0000   0.0000   0.0000   0.5819
  -0.800   0.2524   0.00620   0.00186  -0.0799  0.7401  0.6933  -0.5315   0.0000   0.0000   0.0000   0.5671
  -0.700   0.2638   0.00622   0.00186  -0.0800  0.7386  0.6950  -0.5367   0.0000   0.0000   0.0000   0.5537
  -0.600   0.2753   0.00623   0.00186  -0.0802  0.7369  0.6964  -0.5420   0.0000   0.0000   0.0000   0.5414
  -0.500   0.2867   0.00625   0.00187  -0.0803  0.7352  0.6977  -0.5473   0.0000   0.0000   0.0000   0.5300
  -0.400   0.2981   0.00627   0.00189  -0.0804  0.7334  0.6990  -0.5525   0.0000   0.0000   0.0000   0.5195
  -0.300   0.3093   0.00624   0.00187  -0.0804  0.7315  0.7063  -0.5576   0.0000   0.0000   0.0000   0.5098
  -0.200   0.3203   0.00623   0.00188  -0.0805  0.7295  0.7135  -0.5627   0.0000   0.0000   0.0000   0.5008
  -0.100   0.3312   0.00623   0.00190  -0.0804  0.7274  0.7194  -0.5678   0.0000   0.0000   0.0000   0.4923
   0.000   0.3422   0.00624   0.00193  -0.0804  0.7251  0.7242  -0.5735   0.0000   0.0000   0.0000   0.4844
   0.100   0.3532   0.00626   0.00195  -0.0804  0.7226  0.7282  -0.5793   0.0000   0.0000   0.0000   0.4769
   0.200   0.3642   0.00628   0.00197  -0.0804  0.7199  0.7314  -0.5851   0.0000   0.0000   0.0000   0.4700
   0.300   0.3754   0.00631   0.00198  -0.0805  0.7169  0.7337  -0.5909   0.0000   0.0000   0.0000   0.4635
   0.400   0.3866   0.00634   0.00200  -0.0806  0.7137  0.7357  -0.5967   0.0000   0.0000   0.0000   0.4574
   0.500   0.3980   0.00638   0.00202  -0.0807  0.7105  0.7376  -0.6025   0.0000   0.0000   0.0000   0.4516
   0.600   0.4094   0.00642   0.00207  -0.0808  0.7072  0.7393  -0.6083   0.0000   0.0000   0.0000   0.4462
   0.700   0.4209   0.00648   0.00211  -0.0810  0.7038  0.7409  -0.6140   0.0000   0.0000   0.0000   0.4412
   0.800   0.4324   0.00652   0.00215  -0.0812  0.7008  0.7424  -0.6199   0.0000   0.0000   0.0000   0.4364
   0.900   0.4437   0.00651   0.00214  -0.0813  0.7000  0.7438  -0.6259   0.0000   0.0000   0.0000   0.4317
   1.000   0.4550   0.00650   0.00212  -0.0813  0.6989  0.7450  -0.6320   0.0000   0.0000   0.0000   0.4272
   1.100   0.4663   0.00648   0.00210  -0.0814  0.6970  0.7462  -0.6381   0.0000   0.0000   0.0000   0.4229
   1.200   0.4774   0.00645   0.00208  -0.0814  0.6942  0.7471  -0.6442   0.0000   0.0000   0.0000   0.4188
   1.300   0.4885   0.00643   0.00206  -0.0814  0.6900  0.7480  -0.6504   0.0000   0.0000   0.0000   0.4149
   1.400   0.4995   0.00643   0.00203  -0.0814  0.6842  0.7487  -0.6566   0.0000   0.0000   0.0000   0.4111
   1.500   0.5102   0.00642   0.00197  -0.0814  0.6765  0.7514  -0.6627   0.0000   0.0000   0.0000   0.4075
   1.600   0.5204   0.00643   0.00193  -0.0812  0.6669  0.7553  -0.7104   0.0000   0.0000   0.0000   0.4040
   1.700   0.5306   0.00648   0.00192  -0.0811  0.6551  0.7591  -0.7645   0.0000   0.0000   0.0000   0.4006
   1.800   0.5414   0.00648   0.00192  -0.0811  0.6493  0.7626  -0.8212   0.0000   0.0000   0.0000   0.3975
   1.900   0.5524   0.00646   0.00192  -0.0811  0.6460  0.7657  -0.8792   0.0000   0.0000   0.0000   0.3944
   2.000   0.5634   0.00645   0.00194  -0.0811  0.6419  0.7686  -0.9379   0.0000   0.0000   0.0000   0.3915
   2.100   0.5744   0.00646   0.00195  -0.0811  0.6383  0.7713  -0.9974   0.0000   0.0000   0.0000   0.3887
   2.200   0.5853   0.00647   0.00198  -0.0811  0.6348  0.7738  -1.0577   0.0000   0.0000   0.0000   0.3860
   2.300   0.5962   0.00649   0.00200  -0.0811  0.6308  0.7763  -1.1186   0.0000   0.0000   0.0000   0.3834
   2.400   0.6069   0.00652   0.00202  -0.0811  0.6256  0.7788  -1.1799   0.0000   0.0000   0.0000   0.3809
   2.500   0.6173   0.00657   0.00204  -0.0810  0.6184  0.7814  -1.2410   0.0000   0.0000   0.0000   0.3784
   2.600   0.6271   0.00664   0.00206  -0.0808  0.6078  0.7840  -1.3014   0.0000   0.0000   0.0000   0.3759
   2.700   0.6375   0.00669   0.00209  -0.0807  0.5988  0.7864  -1.3642   0.0000   0.0000   0.0000   0.3736
   2.800   0.6484   0.00672   0.00211  -0.0807  0.5912  0.7886  -1.4289   0.0000   0.0000   0.0000   0.3714
   2.900   0.6585   0.00678   0.00214  -0.0805  0.5770  0.7907  -1.4923   0.0000   0.0000   0.0000   0.3691
   3.000   0.6673   0.00692   0.00217  -0.0801  0.5582  0.7927  -1.5526   0.0000   0.0000   0.0000   0.3668
   3.100   0.6773   0.00700   0.00221  -0.0800  0.5458  0.7944  -1.6166   0.0000   0.0000   0.0000   0.3648
   3.200   0.6874   0.00709   0.00225  -0.0799  0.5298  0.7959  -1.6815   0.0000   0.0000   0.0000   0.3628
   3.300   0.6949   0.00732   0.00232  -0.0793  0.4992  0.7972  -1.7391   0.0000   0.0000   0.0000   0.3605
   3.400   0.7034   0.00751   0.00240  -0.0789  0.4715  0.7983  -1.8001   0.0000   0.0000   0.0000   0.3585
   3.500   0.7101   0.00780   0.00252  -0.0782  0.4335  0.8001  -1.8557   0.0000   0.0000   0.0000   0.3564
   3.600   0.7145   0.00823   0.00270  -0.0771  0.3778  0.8052  -1.9037   0.0000   0.0000   0.0000   0.3541
   3.700   0.7178   0.00873   0.00293  -0.0759  0.3176  0.8102  -1.9482   0.0000   0.0000   0.0000   0.3518
   3.800   0.7211   0.00922   0.00317  -0.0747  0.2634  0.8147  -1.9927   0.0000   0.0000   0.0000   0.3496
   3.900   0.7263   0.00957   0.00337  -0.0737  0.2225  0.8185  -2.0434   0.0000   0.0000   0.0000   0.3474
   4.000   0.7302   0.00999   0.00359  -0.0726  0.1757  0.8222  -2.0896   0.0000   0.0000   0.0000   0.3452
   4.100   0.7347   0.01036   0.00380  -0.0715  0.1352  0.8257  -2.1374   0.0000   0.0000   0.0000   0.3431
   4.200   0.7386   0.01076   0.00400  -0.0703  0.0937  0.8292  -2.1827   0.0000   0.0000   0.0000   0.3409
   4.300   0.7422   0.01116   0.00423  -0.0691  0.0663  0.8326  -2.2267   0.0000   0.0000   0.0000   0.3386
   4.400   0.7475   0.01146   0.00442  -0.0681  0.0435  0.8358  -2.2745   0.0000   0.0000   0.0000   0.3366
   4.500   0.7540   0.01169   0.00459  -0.0673  0.0317  0.8387  -2.3183   0.0000   0.0000   0.0000   0.3347
   4.600   0.7617   0.01186   0.00478  -0.0666  0.0215  0.8413  -2.3376   0.0000   0.0000   0.0000   0.3328
   4.700   0.7699   0.01200   0.00493  -0.0661  0.0199  0.8436  -2.3828   0.0000   0.0000   0.0000   0.3311
   4.800   0.7779   0.01214   0.00510  -0.0656  0.0187  0.8457  -2.4271   0.0000   0.0000   0.0000   0.3294
   4.900   0.7858   0.01229   0.00526  -0.0650  0.0179  0.8474  -2.4725   0.0000   0.0000   0.0000   0.3278
   5.000   0.7936   0.01243   0.00542  -0.0644  0.0174  0.8489  -2.5187   0.0000   0.0000   0.0000   0.3261
   5.100   0.8010   0.01256   0.00558  -0.0638  0.0169  0.8541  -2.5642   0.0000   0.0000   0.0000   0.3244
   5.200   0.8076   0.01268   0.00574  -0.0629  0.0166  0.8602  -2.6081   0.0000   0.0000   0.0000   0.3226
   5.300   0.8136   0.01280   0.00591  -0.0619  0.0164  0.8657  -2.6505   0.0000   0.0000   0.0000   0.3208
   5.400   0.8190   0.01293   0.00610  -0.0608  0.0162  0.8707  -2.6916   0.0000   0.0000   0.0000   0.3188
   5.500   0.8240   0.01308   0.00629  -0.0596  0.0161  0.8755  -2.7315   0.0000   0.0000   0.0000   0.3168
   5.600   0.8288   0.01323   0.00648  -0.0584  0.0159  0.8802  -2.7706   0.0000   0.0000   0.0000   0.3148
   5.700   0.8332   0.01339   0.00668  -0.0571  0.0158  0.8848  -2.8085   0.0000   0.0000   0.0000   0.3128
   5.800   0.8366   0.01355   0.00688  -0.0556  0.0158  0.8894  -2.8434   0.0000   0.0000   0.0000   0.3107
   5.900   0.8382   0.01369   0.00707  -0.0538  0.0157  0.8937  -2.8734   0.0000   0.0000   0.0000   0.3082
   6.000   0.8395   0.01385   0.00726  -0.0519  0.0157  0.8974  -2.9025   0.0000   0.0000   0.0000   0.3058
   6.100   0.8410   0.01402   0.00747  -0.0501  0.0157  0.9028  -2.9313   0.0000   0.0000   0.0000   0.3034
   6.200   0.8394   0.01412   0.00763  -0.0476  0.0156  0.9140  -2.9525   0.0000   0.0000   0.0000   0.3005
   6.300   0.8371   0.01423   0.00779  -0.0449  0.0156  0.9242  -2.9720   0.0000   0.0000   0.0000   0.2974
   6.400   0.8359   0.01437   0.00798  -0.0426  0.0156  0.9338  -2.9936   0.0000   0.0000   0.0000   0.2945
   6.500   0.8355   0.01454   0.00819  -0.0404  0.0156  0.9422  -3.0169   0.0000   0.0000   0.0000   0.2918
   6.700   0.8407   0.01497   0.00882  -0.0376  0.0129  0.9601  -3.1850   0.0000   0.0000   0.0000   0.2880
   6.800   0.8454   0.01534   0.00925  -0.0368  0.0124  0.9802  -3.2270   0.0000   0.0000   0.0000   0.2867
   6.900   0.8501   0.01573   0.00969  -0.0360  0.0121  0.9971  -3.2663   0.0000   0.0000   0.0000   0.2854
   7.000   0.8537   0.01614   0.01014  -0.0350  0.0118  1.0000  -3.3014   0.0000   0.0000   0.0000   0.2839
   7.100   0.8570   0.01655   0.01059  -0.0339  0.0117  1.0000  -3.3344   0.0000   0.0000   0.0000   0.2824
   7.200   0.8606   0.01700   0.01107  -0.0329  0.0115  1.0000  -3.3666   0.0000   0.0000   0.0000   0.2809
   7.300   0.8645   0.01746   0.01157  -0.0319  0.0113  1.0000  -3.3982   0.0000   0.0000   0.0000   0.2795
   7.400   0.8674   0.01815   0.01232  -0.0308  0.0111  1.0000  -3.4130   0.0000   0.0000   0.0000   0.2779
   7.500   0.8728   0.01875   0.01297  -0.0300  0.0110  1.0000  -3.4408   0.0000   0.0000   0.0000   0.2768
   7.600   0.8799   0.01940   0.01366  -0.0296  0.0108  1.0000  -3.4706   0.0000   0.0000   0.0000   0.2759
   7.700   0.8894   0.02016   0.01447  -0.0295  0.0107  1.0000  -3.5019   0.0000   0.0000   0.0000   0.2753
   7.800   0.8976   0.02052   0.01484  -0.0292  0.0107  1.0000  -3.5641   0.0000   0.0000   0.0000   0.2746
   7.900   0.9046   0.02069   0.01502  -0.0287  0.0106  1.0000  -3.6378   0.0000   0.0000   0.0000   0.2737
   8.000   0.9117   0.02089   0.01523  -0.0283  0.0106  1.0000  -3.7098   0.0000   0.0000   0.0000   0.2729
   8.100   0.9189   0.02112   0.01547  -0.0279  0.0106  1.0000  -3.7808   0.0000   0.0000   0.0000   0.2720
   8.200   0.9262   0.02136   0.01573  -0.0274  0.0105  1.0000  -3.8511   0.0000   0.0000   0.0000   0.2712
   8.300   0.9334   0.02162   0.01601  -0.0270  0.0105  1.0000  -3.9209   0.0000   0.0000   0.0000   0.2704
   8.400   0.9406   0.02189   0.01629  -0.0266  0.0104  1.0000  -3.9904   0.0000   0.0000   0.0000   0.2696
   8.500   0.9478   0.02217   0.01659  -0.0262  0.0104  1.0000  -4.0597   0.0000   0.0000   0.0000   0.2689
   8.600   0.9549   0.02246   0.01690  -0.0258  0.0103  1.0000  -4.1289   0.0000   0.0000   0.0000   0.2681
   8.700   0.9619   0.02275   0.01722  -0.0253  0.0103  1.0000  -4.1980   0.0000   0.0000   0.0000   0.2673
   8.800   0.9689   0.02306   0.01754  -0.0249  0.0102  1.0000  -4.2671   0.0000   0.0000   0.0000   0.2666
   8.900   0.9758   0.02337   0.01788  -0.0245  0.0102  1.0000  -4.3358   0.0000   0.0000   0.0000   0.2658
   9.000   0.9824   0.02368   0.01822  -0.0240  0.0101  1.0000  -4.4040   0.0000   0.0000   0.0000   0.2650
   9.100   0.9889   0.02401   0.01856  -0.0235  0.0101  1.0000  -4.4716   0.0000   0.0000   0.0000   0.2642
   9.200   0.9951   0.02434   0.01892  -0.0230  0.0100  1.0000  -4.5389   0.0000   0.0000   0.0000   0.2634
   9.300   0.9936   0.02374   0.01830  -0.0214  0.0095  1.0000  -4.6967   0.0000   0.0000   0.0000   0.2617
   9.400   0.9973   0.02359   0.01814  -0.0206  0.0092  1.0000  -4.8297   0.0000   0.0000   0.0000   0.2607
   9.500   1.0027   0.02372   0.01826  -0.0200  0.0090  1.0000  -4.9310   0.0000   0.0000   0.0000   0.2599
   9.600   1.0082   0.02391   0.01846  -0.0195  0.0088  1.0000  -5.0243   0.0000   0.0000   0.0000   0.2591
   9.700   1.0138   0.02413   0.01869  -0.0189  0.0086  1.0000  -5.1134   0.0000   0.0000   0.0000   0.2583
   9.800   1.0194   0.02437   0.01895  -0.0184  0.0085  1.0000  -5.2005   0.0000   0.0000   0.0000   0.2575
   9.900   1.0248   0.02463   0.01922  -0.0178  0.0084  1.0000  -5.2865   0.0000   0.0000   0.0000   0.2567
  10.000   1.0298   0.02490   0.01950  -0.0172  0.0083  1.0000  -5.3697   0.0000   0.0000   0.0000   0.2559
  10.100   1.0344   0.02519   0.01980  -0.0166  0.0082  1.0000  -5.4507   0.0000   0.0000   0.0000   0.2551
  10.200   1.0387   0.02548   0.02011  -0.0159  0.0081  1.0000  -5.5315   0.0000   0.0000   0.0000   0.2542
  10.300   1.0432   0.02577   0.02042  -0.0153  0.0080  1.0000  -5.6136   0.0000   0.0000   0.0000   0.2534
  10.400   1.0477   0.02606   0.02072  -0.0147  0.0079  1.0000  -5.6972   0.0000   0.0000   0.0000   0.2526
  10.500   1.0524   0.02635   0.02103  -0.0141  0.0078  1.0000  -5.7825   0.0000   0.0000   0.0000   0.2519
  10.600   1.0571   0.02664   0.02133  -0.0135  0.0077  1.0000  -5.8692   0.0000   0.0000   0.0000   0.2511
  10.700   1.0617   0.02693   0.02162  -0.0129  0.0076  1.0000  -5.9572   0.0000   0.0000   0.0000   0.2504
  10.800   1.0664   0.02722   0.02192  -0.0124  0.0076  1.0000  -6.0464   0.0000   0.0000   0.0000   0.2496
  10.900   1.0710   0.02751   0.02222  -0.0118  0.0075  1.0000  -6.1364   0.0000   0.0000   0.0000   0.2489
  11.000   1.0755   0.02781   0.02253  -0.0113  0.0074  1.0000  -6.2271   0.0000   0.0000   0.0000   0.2482
  11.100   1.0800   0.02811   0.02284  -0.0107  0.0073  1.0000  -6.3183   0.0000   0.0000   0.0000   0.2475
  11.200   1.0840   0.02842   0.02316  -0.0101  0.0073  1.0000  -6.4075   0.0000   0.0000   0.0000   0.2468
  11.300   1.0873   0.02877   0.02353  -0.0095  0.0072  1.0000  -6.4920   0.0000   0.0000   0.0000   0.2460
  11.400   1.0904   0.02914   0.02390  -0.0089  0.0071  1.0000  -6.5757   0.0000   0.0000   0.0000   0.2452
  11.500   1.0937   0.02950   0.02427  -0.0083  0.0071  1.0000  -6.6609   0.0000   0.0000   0.0000   0.2445
  11.600   1.0971   0.02987   0.02465  -0.0077  0.0070  1.0000  -6.7473   0.0000   0.0000   0.0000   0.2438
  11.700   1.1007   0.03025   0.02504  -0.0071  0.0069  1.0000  -6.8334   0.0000   0.0000   0.0000   0.2431
  11.800   1.1042   0.03066   0.02547  -0.0066  0.0068  1.0000  -6.9177   0.0000   0.0000   0.0000   0.2424
  11.900   1.1076   0.03111   0.02593  -0.0060  0.0067  1.0000  -6.9988   0.0000   0.0000   0.0000   0.2417
  12.000   1.1107   0.03161   0.02645  -0.0055  0.0066  1.0000  -7.0749   0.0000   0.0000   0.0000   0.2410
  12.100   1.1134   0.03217   0.02704  -0.0049  0.0065  1.0000  -7.1436   0.0000   0.0000   0.0000   0.2403
  12.200   1.1156   0.03285   0.02776  -0.0043  0.0064  1.0000  -7.2006   0.0000   0.0000   0.0000   0.2396
  12.300   1.1166   0.03373   0.02870  -0.0036  0.0063  1.0000  -7.2356   0.0000   0.0000   0.0000   0.2388
  12.400   1.1134   0.03540   0.03050  -0.0026  0.0060  1.0000  -7.1868   0.0000   0.0000   0.0000   0.2379
  12.500   1.1114   0.03668   0.03188  -0.0018  0.0059  1.0000  -7.1844   0.0000   0.0000   0.0000   0.2370
  12.600   1.1136   0.03711   0.03233  -0.0013  0.0059  1.0000  -7.2717   0.0000   0.0000   0.0000   0.2363
  12.700   1.1161   0.03752   0.03276  -0.0008  0.0059  1.0000  -7.3627   0.0000   0.0000   0.0000   0.2357
  12.800   1.1191   0.03793   0.03319  -0.0003  0.0058  1.0000  -7.4570   0.0000   0.0000   0.0000   0.2351
  12.900   1.1223   0.03834   0.03361   0.0001  0.0058  1.0000  -7.5536   0.0000   0.0000   0.0000   0.2346
  13.000   1.1256   0.03876   0.03405   0.0005  0.0058  1.0000  -7.6514   0.0000   0.0000   0.0000   0.2341
  13.100   1.1289   0.03918   0.03449   0.0008  0.0058  1.0000  -7.7497   0.0000   0.0000   0.0000   0.2335
  13.200   1.1321   0.03962   0.03495   0.0012  0.0057  1.0000  -7.8479   0.0000   0.0000   0.0000   0.2330
  13.300   1.1353   0.04008   0.03542   0.0016  0.0057  1.0000  -7.9455   0.0000   0.0000   0.0000   0.2325
  13.500   1.1324   0.04219   0.03774   0.0027  0.0057  1.0000  -7.9460   0.0000   0.0000   0.0000   0.2312
  13.600   1.1323   0.04302   0.03861   0.0032  0.0057  1.0000  -7.9906   0.0000   0.0000   0.0000   0.2306
  13.700   1.1335   0.04370   0.03932   0.0035  0.0057  1.0000  -8.0596   0.0000   0.0000   0.0000   0.2301
  13.800   1.1354   0.04430   0.03995   0.0038  0.0057  1.0000  -8.1416   0.0000   0.0000   0.0000   0.2297
  13.900   1.1377   0.04488   0.04055   0.0041  0.0057  1.0000  -8.2310   0.0000   0.0000   0.0000   0.2292
  14.000   1.1403   0.04544   0.04114   0.0044  0.0056  1.0000  -8.3247   0.0000   0.0000   0.0000   0.2288
  14.100   1.1428   0.04601   0.04173   0.0046  0.0056  1.0000  -8.4202   0.0000   0.0000   0.0000   0.2284
  14.200   1.1452   0.04660   0.04233   0.0048  0.0055  1.0000  -8.5161   0.0000   0.0000   0.0000   0.2281
  14.300   1.1472   0.04723   0.04300   0.0050  0.0055  1.0000  -8.6078   0.0000   0.0000   0.0000   0.2277
  14.400   1.1475   0.04802   0.04381   0.0053  0.0054  1.0000  -8.6840   0.0000   0.0000   0.0000   0.2273
  14.500   1.1479   0.04882   0.04464   0.0055  0.0054  1.0000  -8.7613   0.0000   0.0000   0.0000   0.2269
  14.600   1.1490   0.04958   0.04543   0.0056  0.0053  1.0000  -8.8454   0.0000   0.0000   0.0000   0.2265
  14.700   1.1504   0.05034   0.04621   0.0058  0.0052  1.0000  -8.9328   0.0000   0.0000   0.0000   0.2262
  14.800   1.1519   0.05111   0.04700   0.0059  0.0052  1.0000  -9.0214   0.0000   0.0000   0.0000   0.2259
  14.900   1.1534   0.05189   0.04782   0.0060  0.0051  1.0000  -9.1096   0.0000   0.0000   0.0000   0.2256
  15.000   1.1547   0.05270   0.04865   0.0061  0.0051  1.0000  -9.1972   0.0000   0.0000   0.0000   0.2253
  15.100   1.1559   0.05354   0.04952   0.0062  0.0050  1.0000  -9.2836   0.0000   0.0000   0.0000   0.2251
  15.200   1.1561   0.05449   0.05050   0.0062  0.0049  1.0000  -9.3599   0.0000   0.0000   0.0000   0.2248
  15.300   1.1547   0.05562   0.05166   0.0062  0.0049  1.0000  -9.4183   0.0000   0.0000   0.0000   0.2246
  15.400   1.1541   0.05668   0.05276   0.0062  0.0048  1.0000  -9.4864   0.0000   0.0000   0.0000   0.2244
  15.500   1.1543   0.05768   0.05379   0.0061  0.0048  1.0000  -9.5632   0.0000   0.0000   0.0000   0.2242
  15.600   1.1549   0.05866   0.05479   0.0061  0.0047  1.0000  -9.6443   0.0000   0.0000   0.0000   0.2241
  15.700   1.1556   0.05964   0.05580   0.0060  0.0047  1.0000  -9.7278   0.0000   0.0000   0.0000   0.2239
  15.800   1.1563   0.06064   0.05682   0.0059  0.0046  1.0000  -9.8117   0.0000   0.0000   0.0000   0.2238
  15.900   1.1569   0.06166   0.05787   0.0057  0.0046  1.0000  -9.8944   0.0000   0.0000   0.0000   0.2237
  16.000   1.1563   0.06284   0.05908   0.0055  0.0045  1.0000  -9.9624   0.0000   0.0000   0.0000   0.2237
  16.100   1.1537   0.06427   0.06054   0.0052  0.0045  1.0000  -10.0073   0.0000   0.0000   0.0000   0.2237
  16.200   1.1527   0.06554   0.06184   0.0050  0.0045  1.0000  -10.0700   0.0000   0.0000   0.0000   0.2237
  16.300   1.1526   0.06672   0.06305   0.0047  0.0044  1.0000  -10.1445   0.0000   0.0000   0.0000   0.2237
  16.400   1.1529   0.06788   0.06422   0.0044  0.0044  1.0000  -10.2236   0.0000   0.0000   0.0000   0.2238
  16.500   1.1533   0.06903   0.06541   0.0040  0.0044  1.0000  -10.3034   0.0000   0.0000   0.0000   0.2238
  16.600   1.1535   0.07022   0.06662   0.0037  0.0043  1.0000  -10.3815   0.0000   0.0000   0.0000   0.2239
  16.700   1.1530   0.07153   0.06796   0.0033  0.0043  1.0000  -10.4494   0.0000   0.0000   0.0000   0.2240
  16.800   1.1491   0.07334   0.06981   0.0026  0.0043  1.0000  -10.4715   0.0000   0.0000   0.0000   0.2244
  16.900   1.1472   0.07491   0.07141   0.0020  0.0042  1.0000  -10.5193   0.0000   0.0000   0.0000   0.2247
  17.000   1.1464   0.07635   0.07287   0.0014  0.0042  1.0000  -10.5813   0.0000   0.0000   0.0000   0.2249
  17.100   1.1459   0.07777   0.07431   0.0008  0.0042  1.0000  -10.6462   0.0000   0.0000   0.0000   0.2252
  17.200   1.1452   0.07923   0.07580   0.0002  0.0042  1.0000  -10.7084   0.0000   0.0000   0.0000   0.2255
  17.300   1.1435   0.08087   0.07747  -0.0005  0.0041  1.0000  -10.7564   0.0000   0.0000   0.0000   0.2259
  17.400   1.1378   0.08324   0.07990  -0.0017  0.0041  1.0000  -10.7429   0.0000   0.0000   0.0000   0.2267
  17.500   1.1350   0.08519   0.08189  -0.0026  0.0041  1.0000  -10.7695   0.0000   0.0000   0.0000   0.2273
  17.600   1.1330   0.08702   0.08375  -0.0035  0.0041  1.0000  -10.8071   0.0000   0.0000   0.0000   0.2278
  17.700   1.1308   0.08891   0.08567  -0.0044  0.0041  1.0000  -10.8406   0.0000   0.0000   0.0000   0.2284
  17.800   1.1260   0.09131   0.08813  -0.0057  0.0041  1.0000  -10.8316   0.0000   0.0000   0.0000   0.2293
  17.900   1.1186   0.09429   0.09117  -0.0073  0.0041  1.0000  -10.7791   0.0000   0.0000   0.0000   0.2306
  18.000   1.1145   0.09670   0.09363  -0.0086  0.0041  1.0000  -10.7737   0.0000   0.0000   0.0000   0.2316
  18.100   1.1101   0.09917   0.09615  -0.0100  0.0040  1.0000  -10.7626   0.0000   0.0000   0.0000   0.2326
  18.200   1.0985   0.10324   0.10031  -0.0124  0.0041  1.0000  -10.6245   0.0000   0.0000   0.0000   0.2347
  18.300   1.0912   0.10649   0.10362  -0.0142  0.0041  1.0000  -10.5531   0.0000   0.0000   0.0000   0.2363
  18.400   1.0835   0.10987   0.10707  -0.0162  0.0041  1.0000  -10.4694   0.0000   0.0000   0.0000   0.2380
  18.500   1.0606   0.11686   0.11421  -0.0205  0.0041  1.0000  -10.0959   0.0000   0.0000   0.0000   0.2422


