xflr5 v6.61

 Calculated polar for: NACA65413a=0.8

 1 1 Reynolds number fixed          Mach number fixed         

 xtrf =   1.000 (top)        1.000 (bottom)
 Mach =   0.000     Re =     0.563 e 6     Ncrit =   9.000

  alpha     CL        CD       CDp       Cm    Top Xtr Bot Xtr   Cpmin    Chinge    XCp    
 ------- -------- --------- --------- -------- ------- ------- -------- --------- ---------
 -10.000  -0.3594   0.06799   0.06560  -0.0907  0.9497  0.0288  -2.6709   0.0000   0.0000   0.0000  -0.0174
  -9.900  -0.3664   0.06610   0.06366  -0.0919  0.9452  0.0288  -2.7151   0.0000   0.0000   0.0000  -0.0153
  -9.800  -0.3736   0.06441   0.06193  -0.0927  0.9409  0.0288  -2.7540   0.0000   0.0000   0.0000  -0.0122
  -9.700  -0.3810   0.06290   0.06037  -0.0932  0.9371  0.0288  -2.7880   0.0000   0.0000   0.0000  -0.0083
  -9.600  -0.3879   0.06145   0.05888  -0.0937  0.9329  0.0288  -2.8181   0.0000   0.0000   0.0000  -0.0048
  -9.500  -0.3951   0.06017   0.05755  -0.0939  0.9286  0.0288  -2.8442   0.0000   0.0000   0.0000  -0.0003
  -9.400  -0.4025   0.05905   0.05638  -0.0935  0.9247  0.0288  -2.8668   0.0000   0.0000   0.0000   0.0053
  -9.300  -0.4096   0.05806   0.05533  -0.0929  0.9212  0.0288  -2.8854   0.0000   0.0000   0.0000   0.0112
  -9.200  -0.4144   0.05694   0.05417  -0.0926  0.9179  0.0288  -2.8979   0.0000   0.0000   0.0000   0.0149
  -9.100  -0.4177   0.05573   0.05289  -0.0924  0.9147  0.0288  -2.9053   0.0000   0.0000   0.0000   0.0174
  -9.000  -0.4203   0.05453   0.05163  -0.0921  0.9118  0.0288  -2.9091   0.0000   0.0000   0.0000   0.0197
  -8.900  -0.4223   0.05335   0.05038  -0.0917  0.9092  0.0288  -2.9096   0.0000   0.0000   0.0000   0.0218
  -8.800  -0.4236   0.05219   0.04914  -0.0913  0.9068  0.0288  -2.9069   0.0000   0.0000   0.0000   0.0236
  -8.700  -0.4239   0.05100   0.04787  -0.0911  0.9044  0.0288  -2.9005   0.0000   0.0000   0.0000   0.0244
  -8.600  -0.4233   0.04977   0.04658  -0.0909  0.9019  0.0288  -2.8905   0.0000   0.0000   0.0000   0.0246
  -8.500  -0.4222   0.04857   0.04530  -0.0907  0.8992  0.0288  -2.8779   0.0000   0.0000   0.0000   0.0247
  -8.400  -0.4208   0.04739   0.04405  -0.0904  0.8967  0.0288  -2.8628   0.0000   0.0000   0.0000   0.0248
  -8.300  -0.4189   0.04623   0.04280  -0.0901  0.8942  0.0288  -2.8453   0.0000   0.0000   0.0000   0.0247
  -8.200  -0.4167   0.04509   0.04157  -0.0897  0.8920  0.0288  -2.8256   0.0000   0.0000   0.0000   0.0245
  -8.100  -0.4140   0.04397   0.04036  -0.0893  0.8899  0.0288  -2.8036   0.0000   0.0000   0.0000   0.0241
  -8.000  -0.4109   0.04288   0.03918  -0.0889  0.8878  0.0289  -2.7795   0.0000   0.0000   0.0000   0.0235
  -7.900  -0.4068   0.04174   0.03796  -0.0888  0.8857  0.0289  -2.7519   0.0000   0.0000   0.0000   0.0218
  -7.800  -0.4022   0.04062   0.03675  -0.0886  0.8834  0.0289  -2.7223   0.0000   0.0000   0.0000   0.0199
  -7.700  -0.4146   0.03533   0.03112  -0.0879  0.8800  0.0294  -2.8937   0.0000   0.0000   0.0000   0.0281
  -6.700  -0.3503   0.02096   0.01556  -0.0848  0.8611  0.0231  -2.9442   0.0000   0.0000   0.0000  -0.0020
  -6.600  -0.3426   0.01849   0.01276  -0.0839  0.8592  0.0212  -3.1113   0.0000   0.0000   0.0000  -0.0052
  -6.500  -0.3330   0.01765   0.01181  -0.0836  0.8574  0.0209  -3.1135   0.0000   0.0000   0.0000  -0.0114
  -6.400  -0.3233   0.01706   0.01111  -0.0834  0.8556  0.0208  -3.0895   0.0000   0.0000   0.0000  -0.0184
  -6.300  -0.3136   0.01651   0.01049  -0.0832  0.8539  0.0207  -3.0600   0.0000   0.0000   0.0000  -0.0258
  -6.200  -0.3039   0.01602   0.00994  -0.0830  0.8523  0.0207  -3.0254   0.0000   0.0000   0.0000  -0.0337
  -6.100  -0.2942   0.01556   0.00943  -0.0828  0.8507  0.0208  -2.9877   0.0000   0.0000   0.0000  -0.0420
  -6.000  -0.2845   0.01515   0.00897  -0.0825  0.8490  0.0210  -2.9471   0.0000   0.0000   0.0000  -0.0510
  -5.900  -0.2747   0.01479   0.00857  -0.0824  0.8472  0.0212  -2.9031   0.0000   0.0000   0.0000  -0.0608
  -5.800  -0.2646   0.01444   0.00821  -0.0823  0.8455  0.0215  -2.8551   0.0000   0.0000   0.0000  -0.0722
  -5.700  -0.2544   0.01414   0.00790  -0.0822  0.8436  0.0219  -2.8039   0.0000   0.0000   0.0000  -0.0845
  -5.600  -0.2442   0.01389   0.00763  -0.0822  0.8416  0.0224  -2.7501   0.0000   0.0000   0.0000  -0.0979
  -5.500  -0.2339   0.01366   0.00739  -0.0821  0.8395  0.0230  -2.6946   0.0000   0.0000   0.0000  -0.1127
  -5.400  -0.2235   0.01347   0.00718  -0.0821  0.8374  0.0238  -2.6379   0.0000   0.0000   0.0000  -0.1290
  -5.300  -0.2130   0.01331   0.00700  -0.0820  0.8353  0.0248  -2.5802   0.0000   0.0000   0.0000  -0.1471
  -5.200  -0.2024   0.01316   0.00684  -0.0819  0.8334  0.0257  -2.5201   0.0000   0.0000   0.0000  -0.1672
  -5.100  -0.1918   0.01303   0.00669  -0.0819  0.8315  0.0266  -2.4575   0.0000   0.0000   0.0000  -0.1896
  -5.000  -0.1812   0.01292   0.00656  -0.0818  0.8296  0.0273  -2.3925   0.0000   0.0000   0.0000  -0.2148
  -4.900  -0.1705   0.01283   0.00643  -0.0818  0.8277  0.0278  -2.3260   0.0000   0.0000   0.0000  -0.2431
  -4.800  -0.1598   0.01275   0.00633  -0.0818  0.8256  0.0282  -2.2585   0.0000   0.0000   0.0000  -0.2756
  -4.700  -0.1488   0.01266   0.00624  -0.0818  0.8238  0.0285  -2.1897   0.0000   0.0000   0.0000  -0.3144
  -4.600  -0.1378   0.01258   0.00615  -0.0819  0.8219  0.0287  -2.1208   0.0000   0.0000   0.0000  -0.3595
  -4.500  -0.1268   0.01250   0.00607  -0.0819  0.8198  0.0289  -2.0518   0.0000   0.0000   0.0000  -0.4124
  -4.400  -0.1173   0.01209   0.00563  -0.0818  0.8177  0.0293  -2.0058   0.0000   0.0000   0.0000  -0.4641
  -4.300  -0.1077   0.01172   0.00524  -0.0816  0.8155  0.0297  -1.9571   0.0000   0.0000   0.0000  -0.5260
  -4.200  -0.0977   0.01143   0.00492  -0.0815  0.8134  0.0302  -1.9036   0.0000   0.0000   0.0000  -0.6036
  -4.100  -0.0875   0.01120   0.00465  -0.0814  0.8114  0.0305  -1.8463   0.0000   0.0000   0.0000  -0.7019
  -4.000  -0.0771   0.01100   0.00439  -0.0814  0.8095  0.0308  -1.7850   0.0000   0.0000   0.0000  -0.8292
  -3.900  -0.0666   0.01081   0.00417  -0.0813  0.8075  0.0313  -1.7276   0.0000   0.0000   0.0000  -0.9967
  -3.800  -0.0561   0.01065   0.00397  -0.0813  0.8056  0.0317  -1.6694   0.0000   0.0000   0.0000  -1.2298
  -3.700  -0.0454   0.01051   0.00380  -0.0813  0.8036  0.0322  -1.6108   0.0000   0.0000   0.0000  -1.5751
  -3.600  -0.0346   0.01038   0.00365  -0.0813  0.8017  0.0328  -1.5519   0.0000   0.0000   0.0000  -2.1448
  -3.500  -0.0237   0.01025   0.00352  -0.0813  0.7999  0.0335  -1.4927   0.0000   0.0000   0.0000  -3.2504
  -3.400  -0.0127   0.01013   0.00339  -0.0814  0.7979  0.0342  -1.4337   0.0000   0.0000   0.0000  -6.2749
  -3.300  -0.0017   0.01002   0.00328  -0.0814  0.7959  0.0351  -1.3746   0.0000   0.0000   0.0000  -48.8798
  -3.200   0.0093   0.00992   0.00317  -0.0815  0.7938  0.0364  -1.3151   0.0000   0.0000   0.0000   9.1121
  -3.100   0.0204   0.00983   0.00307  -0.0815  0.7918  0.0379  -1.2722   0.0000   0.0000   0.0000   4.3099
  -3.000   0.0315   0.00974   0.00297  -0.0816  0.7897  0.0397  -1.2362   0.0000   0.0000   0.0000   2.8800
  -2.900   0.0424   0.00958   0.00279  -0.0816  0.7877  0.0453  -1.2198   0.0000   0.0000   0.0000   2.2033
  -2.800   0.0528   0.00931   0.00262  -0.0815  0.7858  0.0686  -1.2059   0.0000   0.0000   0.0000   1.8168
  -2.700   0.0609   0.00855   0.00239  -0.0816  0.7837  0.2074  -1.1809   0.0000   0.0000   0.0000   1.6077
  -2.600   0.0687   0.00776   0.00216  -0.0817  0.7815  0.3713  -1.1486   0.0000   0.0000   0.0000   1.4542
  -2.500   0.0772   0.00723   0.00210  -0.0816  0.7791  0.5052  -1.1114   0.0000   0.0000   0.0000   1.3203
  -2.400   0.0878   0.00712   0.00212  -0.0816  0.7772  0.5515  -1.0684   0.0000   0.0000   0.0000   1.1903
  -2.300   0.0987   0.00706   0.00214  -0.0816  0.7754  0.5748  -1.0242   0.0000   0.0000   0.0000   1.0856
  -2.200   0.1100   0.00705   0.00214  -0.0816  0.7735  0.5893  -0.9793   0.0000   0.0000   0.0000   1.0000
  -2.100   0.1211   0.00702   0.00216  -0.0816  0.7714  0.6020  -0.9347   0.0000   0.0000   0.0000   0.9309
  -2.000   0.1325   0.00702   0.00215  -0.0817  0.7693  0.6115  -0.8894   0.0000   0.0000   0.0000   0.8724
  -1.900   0.1438   0.00702   0.00215  -0.0818  0.7672  0.6188  -0.8442   0.0000   0.0000   0.0000   0.8235
  -1.800   0.1551   0.00700   0.00213  -0.0818  0.7653  0.6249  -0.7955   0.0000   0.0000   0.0000   0.7818
  -1.700   0.1664   0.00701   0.00213  -0.0818  0.7633  0.6329  -0.7520   0.0000   0.0000   0.0000   0.7456
  -1.600   0.1778   0.00705   0.00214  -0.0819  0.7614  0.6425  -0.7085   0.0000   0.0000   0.0000   0.7138
  -1.500   0.1885   0.00705   0.00220  -0.0817  0.7595  0.6557  -0.6666   0.0000   0.0000   0.0000   0.6864
  -1.400   0.1996   0.00713   0.00226  -0.0817  0.7576  0.6684  -0.6243   0.0000   0.0000   0.0000   0.6615
  -1.300   0.2104   0.00716   0.00232  -0.0815  0.7555  0.6791  -0.5830   0.0000   0.0000   0.0000   0.6395
  -1.100   0.2326   0.00730   0.00246  -0.0814  0.7518  0.6939  -0.5772   0.0000   0.0000   0.0000   0.6015
  -1.000   0.2440   0.00735   0.00250  -0.0815  0.7504  0.6980  -0.5827   0.0000   0.0000   0.0000   0.5851
  -0.900   0.2553   0.00733   0.00249  -0.0815  0.7488  0.7017  -0.5882   0.0000   0.0000   0.0000   0.5703
  -0.800   0.2666   0.00731   0.00249  -0.0816  0.7471  0.7042  -0.5937   0.0000   0.0000   0.0000   0.5568
  -0.700   0.2780   0.00730   0.00248  -0.0817  0.7453  0.7061  -0.5992   0.0000   0.0000   0.0000   0.5444
  -0.600   0.2895   0.00730   0.00248  -0.0818  0.7436  0.7078  -0.6047   0.0000   0.0000   0.0000   0.5329
  -0.500   0.3009   0.00730   0.00248  -0.0819  0.7418  0.7094  -0.6103   0.0000   0.0000   0.0000   0.5223
  -0.400   0.3124   0.00730   0.00247  -0.0820  0.7399  0.7110  -0.6158   0.0000   0.0000   0.0000   0.5125
  -0.300   0.3238   0.00731   0.00247  -0.0821  0.7380  0.7126  -0.6214   0.0000   0.0000   0.0000   0.5034
  -0.200   0.3353   0.00731   0.00246  -0.0822  0.7362  0.7144  -0.6270   0.0000   0.0000   0.0000   0.4949
  -0.100   0.3467   0.00733   0.00246  -0.0823  0.7342  0.7162  -0.6326   0.0000   0.0000   0.0000   0.4869
   0.000   0.3582   0.00735   0.00246  -0.0824  0.7322  0.7181  -0.6382   0.0000   0.0000   0.0000   0.4794
   0.100   0.3696   0.00738   0.00246  -0.0825  0.7301  0.7200  -0.6438   0.0000   0.0000   0.0000   0.4725
   0.200   0.3812   0.00743   0.00248  -0.0827  0.7278  0.7217  -0.6493   0.0000   0.0000   0.0000   0.4659
   0.300   0.3928   0.00746   0.00250  -0.0828  0.7263  0.7232  -0.6548   0.0000   0.0000   0.0000   0.4598
   0.400   0.4043   0.00747   0.00251  -0.0830  0.7251  0.7246  -0.6603   0.0000   0.0000   0.0000   0.4540
   0.600   0.4272   0.00745   0.00251  -0.0832  0.7223  0.7281  -0.6713   0.0000   0.0000   0.0000   0.4434
   0.700   0.4385   0.00744   0.00252  -0.0833  0.7208  0.7300  -0.6770   0.0000   0.0000   0.0000   0.4385
   0.800   0.4499   0.00744   0.00253  -0.0834  0.7192  0.7318  -0.6829   0.0000   0.0000   0.0000   0.4338
   0.900   0.4612   0.00744   0.00254  -0.0835  0.7176  0.7336  -0.6888   0.0000   0.0000   0.0000   0.4294
   1.000   0.4726   0.00745   0.00256  -0.0836  0.7160  0.7353  -0.6947   0.0000   0.0000   0.0000   0.4251
   1.100   0.4840   0.00746   0.00258  -0.0837  0.7144  0.7371  -0.7007   0.0000   0.0000   0.0000   0.4210
   1.200   0.4954   0.00747   0.00259  -0.0838  0.7127  0.7389  -0.7066   0.0000   0.0000   0.0000   0.4172
   1.300   0.5068   0.00748   0.00261  -0.0839  0.7110  0.7409  -0.7126   0.0000   0.0000   0.0000   0.4135
   1.400   0.5182   0.00750   0.00262  -0.0840  0.7093  0.7429  -0.7186   0.0000   0.0000   0.0000   0.4099
   1.500   0.5296   0.00753   0.00264  -0.0841  0.7075  0.7450  -0.7246   0.0000   0.0000   0.0000   0.4065
   1.600   0.5410   0.00756   0.00266  -0.0842  0.7056  0.7470  -0.7305   0.0000   0.0000   0.0000   0.4032
   1.700   0.5525   0.00760   0.00268  -0.0843  0.7036  0.7488  -0.7365   0.0000   0.0000   0.0000   0.4001
   1.800   0.5640   0.00766   0.00276  -0.0845  0.7015  0.7504  -0.7425   0.0000   0.0000   0.0000   0.3972
   2.000   0.5868   0.00770   0.00282  -0.0847  0.6987  0.7543  -0.7542   0.0000   0.0000   0.0000   0.3916
   2.100   0.5980   0.00770   0.00285  -0.0848  0.6976  0.7564  -0.7600   0.0000   0.0000   0.0000   0.3890
   2.200   0.6093   0.00770   0.00288  -0.0849  0.6963  0.7584  -0.7658   0.0000   0.0000   0.0000   0.3864
   2.300   0.6205   0.00771   0.00291  -0.0849  0.6948  0.7604  -0.7716   0.0000   0.0000   0.0000   0.3839
   2.400   0.6317   0.00771   0.00294  -0.0850  0.6931  0.7624  -0.7848   0.0000   0.0000   0.0000   0.3815
   2.500   0.6429   0.00772   0.00296  -0.0851  0.6910  0.7644  -0.8269   0.0000   0.0000   0.0000   0.3791
   2.600   0.6542   0.00772   0.00298  -0.0851  0.6888  0.7665  -0.8694   0.0000   0.0000   0.0000   0.3769
   2.700   0.6654   0.00773   0.00300  -0.0852  0.6864  0.7686  -0.9125   0.0000   0.0000   0.0000   0.3747
   2.800   0.6766   0.00774   0.00301  -0.0852  0.6839  0.7707  -0.9559   0.0000   0.0000   0.0000   0.3725
   2.900   0.6878   0.00775   0.00302  -0.0853  0.6813  0.7727  -0.9999   0.0000   0.0000   0.0000   0.3704
   3.000   0.6990   0.00778   0.00303  -0.0853  0.6784  0.7746  -1.0444   0.0000   0.0000   0.0000   0.3684
   3.100   0.7103   0.00784   0.00306  -0.0854  0.6752  0.7764  -1.0894   0.0000   0.0000   0.0000   0.3665
   3.200   0.7215   0.00787   0.00310  -0.0854  0.6715  0.7788  -1.1344   0.0000   0.0000   0.0000   0.3646
   3.300   0.7320   0.00781   0.00309  -0.0853  0.6681  0.7814  -1.1789   0.0000   0.0000   0.0000   0.3627
   3.400   0.7424   0.00776   0.00307  -0.0851  0.6623  0.7839  -1.2237   0.0000   0.0000   0.0000   0.3607
   3.500   0.7526   0.00772   0.00302  -0.0849  0.6544  0.7864  -1.2687   0.0000   0.0000   0.0000   0.3587
   3.600   0.7626   0.00777   0.00299  -0.0846  0.6448  0.7890  -1.3136   0.0000   0.0000   0.0000   0.3568
   3.700   0.7730   0.00774   0.00300  -0.0845  0.6378  0.7916  -1.3595   0.0000   0.0000   0.0000   0.3550
   3.800   0.7834   0.00774   0.00300  -0.0844  0.6299  0.7942  -1.4060   0.0000   0.0000   0.0000   0.3533
   3.900   0.7937   0.00777   0.00300  -0.0842  0.6220  0.7967  -1.4647   0.0000   0.0000   0.0000   0.3516
   4.000   0.8039   0.00785   0.00308  -0.0841  0.6154  0.7990  -1.5290   0.0000   0.0000   0.0000   0.3500
   4.100   0.8149   0.00786   0.00312  -0.0841  0.6104  0.8011  -1.5919   0.0000   0.0000   0.0000   0.3485
   4.200   0.8254   0.00785   0.00315  -0.0840  0.6039  0.8039  -1.6537   0.0000   0.0000   0.0000   0.3470
   4.300   0.8354   0.00788   0.00317  -0.0838  0.5953  0.8067  -1.7147   0.0000   0.0000   0.0000   0.3455
   4.400   0.8446   0.00796   0.00320  -0.0835  0.5854  0.8095  -1.7739   0.0000   0.0000   0.0000   0.3439
   4.500   0.8550   0.00798   0.00325  -0.0834  0.5757  0.8123  -1.8368   0.0000   0.0000   0.0000   0.3424
   4.600   0.8642   0.00806   0.00329  -0.0830  0.5613  0.8153  -1.8969   0.0000   0.0000   0.0000   0.3409
   4.700   0.8734   0.00815   0.00334  -0.0827  0.5467  0.8184  -1.9575   0.0000   0.0000   0.0000   0.3394
   4.800   0.8814   0.00832   0.00341  -0.0822  0.5257  0.8214  -2.0149   0.0000   0.0000   0.0000   0.3379
   4.900   0.8891   0.00851   0.00350  -0.0817  0.4986  0.8243  -2.0718   0.0000   0.0000   0.0000   0.3363
   5.000   0.8939   0.00882   0.00365  -0.0806  0.4602  0.8281  -2.1202   0.0000   0.0000   0.0000   0.3345
   5.100   0.8961   0.00932   0.00390  -0.0792  0.4069  0.8321  -2.1606   0.0000   0.0000   0.0000   0.3326
   5.200   0.8974   0.00990   0.00421  -0.0776  0.3526  0.8365  -2.1982   0.0000   0.0000   0.0000   0.3307
   5.300   0.8991   0.01047   0.00454  -0.0762  0.3019  0.8412  -2.2364   0.0000   0.0000   0.0000   0.3288
   5.400   0.9008   0.01105   0.00487  -0.0748  0.2530  0.8460  -2.2745   0.0000   0.0000   0.0000   0.3270
   5.500   0.9021   0.01159   0.00519  -0.0733  0.2077  0.8515  -2.3112   0.0000   0.0000   0.0000   0.3251
   5.600   0.9036   0.01210   0.00550  -0.0718  0.1651  0.8578  -2.3484   0.0000   0.0000   0.0000   0.3232
   5.700   0.9050   0.01261   0.00582  -0.0704  0.1258  0.8651  -2.3850   0.0000   0.0000   0.0000   0.3214
   5.800   0.9059   0.01308   0.00613  -0.0688  0.0911  0.8741  -2.4195   0.0000   0.0000   0.0000   0.3194
   5.900   0.9070   0.01350   0.00644  -0.0671  0.0642  0.8860  -2.4538   0.0000   0.0000   0.0000   0.3174
   6.000   0.9087   0.01377   0.00667  -0.0654  0.0495  0.9037  -2.4887   0.0000   0.0000   0.0000   0.3153
   6.100   0.9120   0.01393   0.00687  -0.0639  0.0432  0.9394  -2.5287   0.0000   0.0000   0.0000   0.3133
   6.200   0.9229   0.01423   0.00716  -0.0643  0.0369  1.0000  -2.5838   0.0000   0.0000   0.0000   0.3127
   6.300   0.9306   0.01441   0.00735  -0.0638  0.0357  1.0000  -2.6393   0.0000   0.0000   0.0000   0.3115
   6.400   0.9380   0.01460   0.00755  -0.0633  0.0345  1.0000  -2.6939   0.0000   0.0000   0.0000   0.3103
   6.500   0.9452   0.01479   0.00775  -0.0628  0.0334  1.0000  -2.7485   0.0000   0.0000   0.0000   0.3092
   6.600   0.9521   0.01501   0.00796  -0.0622  0.0323  1.0000  -2.8027   0.0000   0.0000   0.0000   0.3080
   6.700   0.9589   0.01523   0.00818  -0.0616  0.0314  1.0000  -2.8561   0.0000   0.0000   0.0000   0.3068
   6.800   0.9653   0.01547   0.00843  -0.0610  0.0304  1.0000  -2.9079   0.0000   0.0000   0.0000   0.3056
   6.900   0.9713   0.01574   0.00870  -0.0603  0.0293  1.0000  -2.9564   0.0000   0.0000   0.0000   0.3043
   7.000   0.9767   0.01605   0.00903  -0.0595  0.0283  1.0000  -2.9994   0.0000   0.0000   0.0000   0.3031
   7.100   0.9806   0.01645   0.00951  -0.0585  0.0272  1.0000  -3.0604   0.0000   0.0000   0.0000   0.3017
   7.200   0.9823   0.01699   0.01010  -0.0571  0.0261  1.0000  -3.1028   0.0000   0.0000   0.0000   0.3001
   7.300   0.9900   0.01717   0.01029  -0.0567  0.0258  1.0000  -3.1864   0.0000   0.0000   0.0000   0.2991
   7.400   0.9974   0.01736   0.01050  -0.0563  0.0255  1.0000  -3.2677   0.0000   0.0000   0.0000   0.2981
   7.500   1.0044   0.01759   0.01073  -0.0558  0.0250  1.0000  -3.3460   0.0000   0.0000   0.0000   0.2971
   7.600   1.0109   0.01784   0.01101  -0.0552  0.0245  1.0000  -3.4208   0.0000   0.0000   0.0000   0.2961
   7.700   1.0170   0.01813   0.01131  -0.0546  0.0239  1.0000  -3.4924   0.0000   0.0000   0.0000   0.2950
   7.800   1.0227   0.01845   0.01165  -0.0539  0.0234  1.0000  -3.5619   0.0000   0.0000   0.0000   0.2939
   7.900   1.0280   0.01879   0.01201  -0.0532  0.0229  1.0000  -3.6296   0.0000   0.0000   0.0000   0.2928
   8.000   1.0332   0.01915   0.01239  -0.0525  0.0225  1.0000  -3.6962   0.0000   0.0000   0.0000   0.2917
   8.100   1.0382   0.01952   0.01279  -0.0517  0.0222  1.0000  -3.7623   0.0000   0.0000   0.0000   0.2906
   8.200   1.0431   0.01990   0.01319  -0.0510  0.0219  1.0000  -3.8282   0.0000   0.0000   0.0000   0.2895
   8.300   1.0479   0.02030   0.01362  -0.0502  0.0216  1.0000  -3.8936   0.0000   0.0000   0.0000   0.2885
   8.400   1.0525   0.02071   0.01406  -0.0494  0.0214  1.0000  -3.9584   0.0000   0.0000   0.0000   0.2874
   8.500   1.0571   0.02114   0.01451  -0.0487  0.0213  1.0000  -4.0230   0.0000   0.0000   0.0000   0.2863
   8.600   1.0618   0.02158   0.01498  -0.0479  0.0211  1.0000  -4.0877   0.0000   0.0000   0.0000   0.2853
   8.700   1.0665   0.02202   0.01545  -0.0472  0.0210  1.0000  -4.1527   0.0000   0.0000   0.0000   0.2843
   8.800   1.0713   0.02248   0.01593  -0.0465  0.0209  1.0000  -4.2178   0.0000   0.0000   0.0000   0.2833
   8.900   1.0761   0.02294   0.01643  -0.0458  0.0208  1.0000  -4.2825   0.0000   0.0000   0.0000   0.2823
   9.000   1.0810   0.02342   0.01694  -0.0451  0.0208  1.0000  -4.3475   0.0000   0.0000   0.0000   0.2813
   9.100   1.0861   0.02390   0.01745  -0.0444  0.0207  1.0000  -4.4129   0.0000   0.0000   0.0000   0.2803
   9.200   1.0915   0.02439   0.01797  -0.0437  0.0207  1.0000  -4.4791   0.0000   0.0000   0.0000   0.2794
   9.300   1.0972   0.02489   0.01851  -0.0431  0.0207  1.0000  -4.5463   0.0000   0.0000   0.0000   0.2785
   9.400   1.1033   0.02535   0.01899  -0.0426  0.0206  1.0000  -4.6202   0.0000   0.0000   0.0000   0.2777
   9.500   1.1097   0.02574   0.01940  -0.0421  0.0204  1.0000  -4.7018   0.0000   0.0000   0.0000   0.2769
   9.600   1.1160   0.02611   0.01978  -0.0417  0.0201  1.0000  -4.7878   0.0000   0.0000   0.0000   0.2762
   9.700   1.1223   0.02647   0.02015  -0.0413  0.0198  1.0000  -4.8760   0.0000   0.0000   0.0000   0.2755
   9.800   1.1285   0.02684   0.02054  -0.0409  0.0194  1.0000  -4.9645   0.0000   0.0000   0.0000   0.2747
   9.900   1.1347   0.02725   0.02095  -0.0404  0.0191  1.0000  -5.0510   0.0000   0.0000   0.0000   0.2740
  10.000   1.1411   0.02771   0.02149  -0.0400  0.0190  1.0000  -5.1281   0.0000   0.0000   0.0000   0.2733
  10.100   1.1476   0.02818   0.02198  -0.0396  0.0188  1.0000  -5.2068   0.0000   0.0000   0.0000   0.2726
  10.200   1.1540   0.02867   0.02249  -0.0391  0.0186  1.0000  -5.2891   0.0000   0.0000   0.0000   0.2719
  10.300   1.1605   0.02919   0.02304  -0.0387  0.0183  1.0000  -5.3713   0.0000   0.0000   0.0000   0.2712
  10.400   1.1676   0.02981   0.02368  -0.0384  0.0179  1.0000  -5.4520   0.0000   0.0000   0.0000   0.2706
  10.500   1.1764   0.03066   0.02458  -0.0381  0.0175  1.0000  -5.5279   0.0000   0.0000   0.0000   0.2700
  10.600   1.1983   0.03328   0.02739  -0.0393  0.0165  1.0000  -5.5796   0.0000   0.0000   0.0000   0.2703
  10.700   1.1997   0.03327   0.02740  -0.0383  0.0164  1.0000  -5.6658   0.0000   0.0000   0.0000   0.2693
  10.800   1.2022   0.03333   0.02748  -0.0376  0.0163  1.0000  -5.7549   0.0000   0.0000   0.0000   0.2685
  10.900   1.2051   0.03347   0.02764  -0.0369  0.0161  1.0000  -5.8446   0.0000   0.0000   0.0000   0.2677
  11.000   1.2088   0.03365   0.02783  -0.0363  0.0160  1.0000  -5.9367   0.0000   0.0000   0.0000   0.2669
  11.100   1.2128   0.03387   0.02808  -0.0357  0.0158  1.0000  -6.0296   0.0000   0.0000   0.0000   0.2662
  11.200   1.2169   0.03414   0.02837  -0.0352  0.0156  1.0000  -6.1211   0.0000   0.0000   0.0000   0.2655
  11.300   1.2212   0.03444   0.02870  -0.0347  0.0153  1.0000  -6.2125   0.0000   0.0000   0.0000   0.2648
  11.400   1.2258   0.03477   0.02906  -0.0343  0.0151  1.0000  -6.3040   0.0000   0.0000   0.0000   0.2642
  11.500   1.2304   0.03513   0.02945  -0.0339  0.0148  1.0000  -6.3948   0.0000   0.0000   0.0000   0.2636
  11.600   1.2349   0.03552   0.02988  -0.0334  0.0145  1.0000  -6.4830   0.0000   0.0000   0.0000   0.2630
  11.700   1.2392   0.03595   0.03034  -0.0330  0.0142  1.0000  -6.5687   0.0000   0.0000   0.0000   0.2624
  11.800   1.2434   0.03640   0.03082  -0.0325  0.0139  1.0000  -6.6522   0.0000   0.0000   0.0000   0.2617
  11.900   1.2476   0.03687   0.03132  -0.0321  0.0136  1.0000  -6.7340   0.0000   0.0000   0.0000   0.2611
  12.000   1.2517   0.03734   0.03182  -0.0317  0.0133  1.0000  -6.8155   0.0000   0.0000   0.0000   0.2605
  12.100   1.2555   0.03782   0.03234  -0.0312  0.0129  1.0000  -6.9141   0.0000   0.0000   0.0000   0.2599
  12.200   1.2589   0.03833   0.03288  -0.0308  0.0126  1.0000  -7.0134   0.0000   0.0000   0.0000   0.2594
  12.300   1.2623   0.03884   0.03342  -0.0304  0.0123  1.0000  -7.1135   0.0000   0.0000   0.0000   0.2588
  12.400   1.2656   0.03935   0.03395  -0.0300  0.0120  1.0000  -7.2155   0.0000   0.0000   0.0000   0.2582
  12.500   1.2690   0.03986   0.03448  -0.0296  0.0117  1.0000  -7.3193   0.0000   0.0000   0.0000   0.2577
  12.600   1.2722   0.04039   0.03504  -0.0293  0.0115  1.0000  -7.4225   0.0000   0.0000   0.0000   0.2572
  12.700   1.2751   0.04094   0.03563  -0.0289  0.0112  1.0000  -7.5223   0.0000   0.0000   0.0000   0.2567
  12.800   1.2779   0.04152   0.03623  -0.0286  0.0110  1.0000  -7.6227   0.0000   0.0000   0.0000   0.2562
  12.900   1.2807   0.04214   0.03688  -0.0283  0.0108  1.0000  -7.7222   0.0000   0.0000   0.0000   0.2557
  13.000   1.2833   0.04283   0.03759  -0.0279  0.0106  1.0000  -7.8171   0.0000   0.0000   0.0000   0.2552
  13.100   1.2849   0.04367   0.03846  -0.0275  0.0103  1.0000  -7.8986   0.0000   0.0000   0.0000   0.2547
  13.200   1.2849   0.04482   0.03967  -0.0270  0.0100  1.0000  -7.9514   0.0000   0.0000   0.0000   0.2541
  13.300   1.2790   0.04711   0.04213  -0.0260  0.0095  1.0000  -7.8983   0.0000   0.0000   0.0000   0.2533
  13.400   1.2538   0.05277   0.04824  -0.0240  0.0090  1.0000  -7.5523   0.0000   0.0000   0.0000   0.2521
  13.500   1.2469   0.05492   0.05051  -0.0234  0.0089  1.0000  -7.5163   0.0000   0.0000   0.0000   0.2515
  13.600   1.2470   0.05586   0.05150  -0.0232  0.0089  1.0000  -7.5854   0.0000   0.0000   0.0000   0.2512
  13.700   1.2466   0.05688   0.05258  -0.0230  0.0089  1.0000  -7.6483   0.0000   0.0000   0.0000   0.2508
  13.800   1.2461   0.05794   0.05370  -0.0228  0.0089  1.0000  -7.7100   0.0000   0.0000   0.0000   0.2504
  13.900   1.2456   0.05904   0.05485  -0.0226  0.0088  1.0000  -7.7703   0.0000   0.0000   0.0000   0.2501
  14.000   1.2445   0.06022   0.05609  -0.0225  0.0088  1.0000  -7.8239   0.0000   0.0000   0.0000   0.2498
  14.100   1.2429   0.06149   0.05742  -0.0224  0.0088  1.0000  -7.8723   0.0000   0.0000   0.0000   0.2496
  14.200   1.2413   0.06278   0.05877  -0.0223  0.0088  1.0000  -7.9199   0.0000   0.0000   0.0000   0.2494
  14.300   1.2397   0.06413   0.06018  -0.0223  0.0087  1.0000  -7.9653   0.0000   0.0000   0.0000   0.2492
  14.400   1.2370   0.06560   0.06171  -0.0223  0.0087  1.0000  -8.0009   0.0000   0.0000   0.0000   0.2490
  14.500   1.2341   0.06712   0.06330  -0.0224  0.0087  1.0000  -8.0329   0.0000   0.0000   0.0000   0.2489
  14.600   1.2312   0.06868   0.06492  -0.0225  0.0086  1.0000  -8.0639   0.0000   0.0000   0.0000   0.2489
  14.700   1.2276   0.07036   0.06667  -0.0227  0.0086  1.0000  -8.0870   0.0000   0.0000   0.0000   0.2489
  14.800   1.2235   0.07215   0.06853  -0.0229  0.0086  1.0000  -8.1035   0.0000   0.0000   0.0000   0.2489
  14.900   1.2195   0.07398   0.07043  -0.0233  0.0086  1.0000  -8.1199   0.0000   0.0000   0.0000   0.2490
  15.000   1.2150   0.07593   0.07245  -0.0236  0.0086  1.0000  -8.1292   0.0000   0.0000   0.0000   0.2492
  15.100   1.2097   0.07804   0.07463  -0.0242  0.0085  1.0000  -8.1292   0.0000   0.0000   0.0000   0.2495
  15.200   1.2046   0.08017   0.07684  -0.0247  0.0085  1.0000  -8.1294   0.0000   0.0000   0.0000   0.2499
  15.300   1.1987   0.08248   0.07921  -0.0254  0.0085  1.0000  -8.1195   0.0000   0.0000   0.0000   0.2503
  15.400   1.1922   0.08493   0.08174  -0.0262  0.0085  1.0000  -8.1016   0.0000   0.0000   0.0000   0.2509
  15.500   1.1859   0.08741   0.08430  -0.0271  0.0085  1.0000  -8.0826   0.0000   0.0000   0.0000   0.2516
  15.600   1.1782   0.09020   0.08716  -0.0282  0.0085  1.0000  -8.0464   0.0000   0.0000   0.0000   0.2524
  15.700   1.1707   0.09302   0.09005  -0.0294  0.0085  1.0000  -8.0091   0.0000   0.0000   0.0000   0.2534
  15.800   1.1621   0.09614   0.09325  -0.0308  0.0085  1.0000  -7.9556   0.0000   0.0000   0.0000   0.2546
  15.900   1.1533   0.09937   0.09656  -0.0323  0.0085  1.0000  -7.8961   0.0000   0.0000   0.0000   0.2559
  16.000   1.1431   0.10298   0.10026  -0.0342  0.0085  1.0000  -7.8155   0.0000   0.0000   0.0000   0.2576
  16.100   1.1326   0.10679   0.10416  -0.0362  0.0085  1.0000  -7.7245   0.0000   0.0000   0.0000   0.2594
  16.200   1.1202   0.11110   0.10855  -0.0386  0.0085  1.0000  -7.6042   0.0000   0.0000   0.0000   0.2618
  16.300   1.1058   0.11604   0.11358  -0.0415  0.0085  1.0000  -7.4463   0.0000   0.0000   0.0000   0.2647
  16.400   1.0880   0.12206   0.11971  -0.0452  0.0086  1.0000  -7.2273   0.0000   0.0000   0.0000   0.2685
  16.500   1.0543   0.13275   0.13055  -0.0518  0.0087  1.0000  -6.7314   0.0000   0.0000   0.0000   0.2762
  16.800   0.9946   0.15859   0.15662  -0.0671  0.0091  1.0000  -5.6353   0.0000   0.0000   0.0000   0.2948
  16.900   0.9883   0.16365   0.16170  -0.0698  0.0092  1.0000  -5.4691   0.0000   0.0000   0.0000   0.2980
  17.000   0.9778   0.17049   0.16856  -0.0730  0.0094  1.0000  -5.1644   0.0000   0.0000   0.0000   0.3021
  17.100   0.9145   0.20288   0.20087  -0.0856  0.0123  1.0000  -2.9481   0.0000   0.0000   0.0000   0.3229
  17.200   0.9150   0.20543   0.20342  -0.0869  0.0124  1.0000  -2.8989   0.0000   0.0000   0.0000   0.3241
  17.300   0.9159   0.20773   0.20572  -0.0880  0.0123  1.0000  -2.8659   0.0000   0.0000   0.0000   0.3251
  17.400   0.9174   0.20974   0.20773  -0.0891  0.0121  1.0000  -2.8532   0.0000   0.0000   0.0000   0.3260
  17.500   0.9196   0.21135   0.20934  -0.0900  0.0118  1.0000  -2.8690   0.0000   0.0000   0.0000   0.3266
  17.600   0.9226   0.21240   0.21039  -0.0908  0.0113  1.0000  -2.9257   0.0000   0.0000   0.0000   0.3269
  17.700   0.9269   0.21268   0.21067  -0.0912  0.0109  1.0000  -3.0398   0.0000   0.0000   0.0000   0.3266
  17.800   0.9324   0.21216   0.21016  -0.0914  0.0104  1.0000  -3.2174   0.0000   0.0000   0.0000   0.3259
  17.900   0.9381   0.21144   0.20945  -0.0915  0.0101  1.0000  -3.4151   0.0000   0.0000   0.0000   0.3251
  18.000   0.9412   0.21213   0.21014  -0.0922  0.0098  1.0000  -3.5032   0.0000   0.0000   0.0000   0.3253
  18.100   0.9433   0.21330   0.21131  -0.0931  0.0096  1.0000  -3.5497   0.0000   0.0000   0.0000   0.3258
  18.200   0.9434   0.21539   0.21339  -0.0943  0.0094  1.0000  -3.5173   0.0000   0.0000   0.0000   0.3269
  18.300   0.9364   0.22141   0.21938  -0.0973  0.0087  1.0000  -3.1752   0.0000   0.0000   0.0000   0.3309
  18.400   0.9399   0.22289   0.22086  -0.0982  0.0085  1.0000  -3.1906   0.0000   0.0000   0.0000   0.3314
  18.500   0.9427   0.22477   0.22274  -0.0993  0.0082  1.0000  -3.1633   0.0000   0.0000   0.0000   0.3320
  18.600   0.9447   0.22708   0.22505  -0.1004  0.0079  1.0000  -3.0935   0.0000   0.0000   0.0000   0.3329
  18.700   0.9462   0.22961   0.22757  -0.1017  0.0076  1.0000  -3.0005   0.0000   0.0000   0.0000   0.3340
  18.800   0.9474   0.23215   0.23011  -0.1029  0.0075  1.0000  -2.9057   0.0000   0.0000   0.0000   0.3351
  18.900   0.9487   0.23464   0.23259  -0.1042  0.0074  1.0000  -2.8168   0.0000   0.0000   0.0000   0.3361
  19.000   0.9501   0.23697   0.23492  -0.1053  0.0074  1.0000  -2.7434   0.0000   0.0000   0.0000   0.3370
  19.100   0.9518   0.23918   0.23713  -0.1065  0.0074  1.0000  -2.6820   0.0000   0.0000   0.0000   0.3379
  19.200   0.9535   0.24129   0.23924  -0.1075  0.0075  1.0000  -2.6308   0.0000   0.0000   0.0000   0.3386
  19.300   0.9554   0.24331   0.24125  -0.1085  0.0077  1.0000  -2.5890   0.0000   0.0000   0.0000   0.3393
  19.400   0.9573   0.24523   0.24318  -0.1095  0.0079  1.0000  -2.5567   0.0000   0.0000   0.0000   0.3399
  19.500   0.9591   0.24717   0.24511  -0.1104  0.0081  1.0000  -2.5275   0.0000   0.0000   0.0000   0.3405
  19.600   0.9576   0.25057   0.24851  -0.1112  0.0089  1.0000  -2.4060   0.0000   0.0000   0.0000   0.3414
  19.700   0.9599   0.25253   0.25046  -0.1121  0.0089  1.0000  -2.3824   0.0000   0.0000   0.0000   0.3419
  19.800   0.9623   0.25446   0.25240  -0.1131  0.0089  1.0000  -2.3611   0.0000   0.0000   0.0000   0.3424
  19.900   0.9647   0.25638   0.25431  -0.1140  0.0089  1.0000  -2.3413   0.0000   0.0000   0.0000   0.3429
  20.000   0.9672   0.25829   0.25622  -0.1150  0.0089  1.0000  -2.3228   0.0000   0.0000   0.0000   0.3434
  20.100   0.9697   0.26019   0.25812  -0.1159  0.0089  1.0000  -2.3055   0.0000   0.0000   0.0000   0.3439
  20.200   0.9721   0.26207   0.26001  -0.1168  0.0089  1.0000  -2.2891   0.0000   0.0000   0.0000   0.3444
  20.300   0.9747   0.26395   0.26189  -0.1178  0.0089  1.0000  -2.2736   0.0000   0.0000   0.0000   0.3449
  20.400   0.9772   0.26583   0.26376  -0.1187  0.0089  1.0000  -2.2589   0.0000   0.0000   0.0000   0.3453
  20.500   0.9797   0.26770   0.26563  -0.1196  0.0089  1.0000  -2.2448   0.0000   0.0000   0.0000   0.3458
  20.600   0.9823   0.26956   0.26750  -0.1206  0.0089  1.0000  -2.2314   0.0000   0.0000   0.0000   0.3463
  20.700   0.9848   0.27142   0.26936  -0.1215  0.0089  1.0000  -2.2186   0.0000   0.0000   0.0000   0.3467
  20.800   0.9874   0.27328   0.27121  -0.1224  0.0089  1.0000  -2.2063   0.0000   0.0000   0.0000   0.3471
  20.900   0.9900   0.27513   0.27307  -0.1234  0.0088  1.0000  -2.1945   0.0000   0.0000   0.0000   0.3476
  21.000   0.9926   0.27698   0.27492  -0.1243  0.0088  1.0000  -2.1832   0.0000   0.0000   0.0000   0.3480
  21.100   0.9952   0.27883   0.27676  -0.1252  0.0088  1.0000  -2.1723   0.0000   0.0000   0.0000   0.3484
  21.200   0.9977   0.28067   0.27861  -0.1262  0.0088  1.0000  -2.1618   0.0000   0.0000   0.0000   0.3488
  21.300   1.0003   0.28251   0.28045  -0.1271  0.0088  1.0000  -2.1517   0.0000   0.0000   0.0000   0.3492
  21.400   1.0029   0.28435   0.28229  -0.1280  0.0088  1.0000  -2.1420   0.0000   0.0000   0.0000   0.3496
  21.500   1.0055   0.28619   0.28413  -0.1289  0.0088  1.0000  -2.1327   0.0000   0.0000   0.0000   0.3500
  21.600   1.0081   0.28802   0.28596  -0.1299  0.0088  1.0000  -2.1236   0.0000   0.0000   0.0000   0.3504
  21.700   1.0107   0.28986   0.28779  -0.1308  0.0088  1.0000  -2.1147   0.0000   0.0000   0.0000   0.3508
  21.800   1.0134   0.29169   0.28963  -0.1317  0.0088  1.0000  -2.1062   0.0000   0.0000   0.0000   0.3512
  21.900   1.0160   0.29352   0.29145  -0.1327  0.0088  1.0000  -2.0980   0.0000   0.0000   0.0000   0.3516
  22.000   1.0186   0.29534   0.29328  -0.1336  0.0088  1.0000  -2.0900   0.0000   0.0000   0.0000   0.3520
  22.100   1.0212   0.29717   0.29511  -0.1345  0.0088  1.0000  -2.0823   0.0000   0.0000   0.0000   0.3524
  22.200   1.0238   0.29900   0.29694  -0.1354  0.0088  1.0000  -2.0749   0.0000   0.0000   0.0000   0.3527
  22.300   1.0264   0.30082   0.29876  -0.1364  0.0088  1.0000  -2.0676   0.0000   0.0000   0.0000   0.3531
  22.400   1.0290   0.30264   0.30058  -0.1373  0.0088  1.0000  -2.0604   0.0000   0.0000   0.0000   0.3535
  22.500   1.0315   0.30446   0.30240  -0.1382  0.0088  1.0000  -2.0535   0.0000   0.0000   0.0000   0.3538
  22.600   1.0341   0.30628   0.30422  -0.1392  0.0088  1.0000  -2.0468   0.0000   0.0000   0.0000   0.3542
  22.700   1.0367   0.30809   0.30605  -0.1401  0.0088  1.0000  -2.0393   0.0000   0.0000   0.0000   0.3545
  22.800   1.0393   0.30991   0.30787  -0.1410  0.0088  1.0000  -2.0327   0.0000   0.0000   0.0000   0.3549
  22.900   1.0419   0.31172   0.30969  -0.1419  0.0088  1.0000  -2.0265   0.0000   0.0000   0.0000   0.3552
  23.000   1.0445   0.31353   0.31150  -0.1429  0.0088  1.0000  -2.0204   0.0000   0.0000   0.0000   0.3556
  23.100   1.0470   0.31535   0.31332  -0.1438  0.0087  1.0000  -2.0143   0.0000   0.0000   0.0000   0.3559
  23.200   1.0496   0.31716   0.31513  -0.1447  0.0087  1.0000  -2.0085   0.0000   0.0000   0.0000   0.3562
  23.300   1.0521   0.31897   0.31694  -0.1457  0.0087  1.0000  -2.0028   0.0000   0.0000   0.0000   0.3566
  23.400   1.0547   0.32077   0.31875  -0.1466  0.0087  1.0000  -1.9973   0.0000   0.0000   0.0000   0.3569
  23.500   1.0572   0.32258   0.32056  -0.1475  0.0087  1.0000  -1.9920   0.0000   0.0000   0.0000   0.3572
  23.600   1.0598   0.32439   0.32237  -0.1485  0.0087  1.0000  -1.9868   0.0000   0.0000   0.0000   0.3576
  23.700   1.0623   0.32619   0.32417  -0.1494  0.0087  1.0000  -1.9812   0.0000   0.0000   0.0000   0.3579
  23.800   1.0648   0.32800   0.32598  -0.1504  0.0087  1.0000  -1.9764   0.0000   0.0000   0.0000   0.3582
  23.900   1.0674   0.32980   0.32778  -0.1513  0.0087  1.0000  -1.9717   0.0000   0.0000   0.0000   0.3586
  24.000   1.0699   0.33161   0.32959  -0.1523  0.0087  1.0000  -1.9666   0.0000   0.0000   0.0000   0.3589
  24.100   1.0723   0.33342   0.33140  -0.1532  0.0087  1.0000  -1.9606   0.0000   0.0000   0.0000   0.3592
  24.200   1.0748   0.33523   0.33321  -0.1542  0.0086  1.0000  -1.9547   0.0000   0.0000   0.0000   0.3596
  24.300   1.0773   0.33703   0.33502  -0.1552  0.0086  1.0000  -1.9489   0.0000   0.0000   0.0000   0.3599
  24.400   1.0797   0.33884   0.33683  -0.1561  0.0086  1.0000  -1.9432   0.0000   0.0000   0.0000   0.3603
  24.500   1.0822   0.34064   0.33863  -0.1571  0.0086  1.0000  -1.9376   0.0000   0.0000   0.0000   0.3606
  24.600   1.0847   0.34244   0.34044  -0.1581  0.0086  1.0000  -1.9320   0.0000   0.0000   0.0000   0.3609
  24.700   1.0871   0.34424   0.34224  -0.1591  0.0086  1.0000  -1.9264   0.0000   0.0000   0.0000   0.3613
  24.800   1.0896   0.34603   0.34402  -0.1600  0.0085  1.0000  -1.9209   0.0000   0.0000   0.0000   0.3616
  24.900   1.0921   0.34782   0.34582  -0.1610  0.0085  1.0000  -1.9153   0.0000   0.0000   0.0000   0.3619
  25.000   1.0946   0.34961   0.34761  -0.1620  0.0085  1.0000  -1.9097   0.0000   0.0000   0.0000   0.3623
  25.100   1.0971   0.35140   0.34940  -0.1630  0.0084  1.0000  -1.9039   0.0000   0.0000   0.0000   0.3626
  25.200   1.0996   0.35319   0.35119  -0.1639  0.0084  1.0000  -1.8980   0.0000   0.0000   0.0000   0.3629
  25.300   1.1021   0.35498   0.35298  -0.1649  0.0084  1.0000  -1.8919   0.0000   0.0000   0.0000   0.3632
  25.400   1.1047   0.35677   0.35477  -0.1659  0.0083  1.0000  -1.8854   0.0000   0.0000   0.0000   0.3635
  25.500   1.1073   0.35856   0.35657  -0.1669  0.0082  1.0000  -1.8785   0.0000   0.0000   0.0000   0.3638
  25.600   1.1099   0.36037   0.35839  -0.1679  0.0082  1.0000  -1.8712   0.0000   0.0000   0.0000   0.3641
  25.700   1.1125   0.36218   0.36019  -0.1688  0.0081  1.0000  -1.8636   0.0000   0.0000   0.0000   0.3644
  25.800   1.1151   0.36399   0.36201  -0.1698  0.0079  1.0000  -1.8561   0.0000   0.0000   0.0000   0.3646
  25.900   1.1177   0.36582   0.36384  -0.1707  0.0078  1.0000  -1.8495   0.0000   0.0000   0.0000   0.3649
  26.000   1.1203   0.36767   0.36569  -0.1717  0.0077  1.0000  -1.8441   0.0000   0.0000   0.0000   0.3651
  26.100   1.1228   0.36952   0.36755  -0.1726  0.0075  1.0000  -1.8400   0.0000   0.0000   0.0000   0.3654
  26.200   1.1252   0.37138   0.36941  -0.1735  0.0074  1.0000  -1.8370   0.0000   0.0000   0.0000   0.3656
  26.300   1.1276   0.37324   0.37127  -0.1744  0.0073  1.0000  -1.8349   0.0000   0.0000   0.0000   0.3658
  26.400   1.1300   0.37510   0.37313  -0.1753  0.0071  1.0000  -1.8336   0.0000   0.0000   0.0000   0.3661
  26.500   1.1323   0.37695   0.37499  -0.1763  0.0070  1.0000  -1.8329   0.0000   0.0000   0.0000   0.3663
  26.600   1.1346   0.37881   0.37685  -0.1772  0.0069  1.0000  -1.8326   0.0000   0.0000   0.0000   0.3665
  26.700   1.1369   0.38066   0.37870  -0.1781  0.0068  1.0000  -1.8327   0.0000   0.0000   0.0000   0.3668
  26.800   1.1392   0.38251   0.38056  -0.1790  0.0067  1.0000  -1.8331   0.0000   0.0000   0.0000   0.3670
  26.900   1.1414   0.38437   0.38243  -0.1799  0.0066  1.0000  -1.8339   0.0000   0.0000   0.0000   0.3672
  27.000   1.1437   0.38622   0.38429  -0.1808  0.0065  1.0000  -1.8349   0.0000   0.0000   0.0000   0.3674
  27.100   1.1459   0.38808   0.38615  -0.1817  0.0064  1.0000  -1.8361   0.0000   0.0000   0.0000   0.3676
  27.200   1.1481   0.38993   0.38801  -0.1826  0.0063  1.0000  -1.8375   0.0000   0.0000   0.0000   0.3679
  27.300   1.1503   0.39179   0.38986  -0.1835  0.0062  1.0000  -1.8392   0.0000   0.0000   0.0000   0.3681
  27.400   1.1524   0.39364   0.39172  -0.1845  0.0061  1.0000  -1.8409   0.0000   0.0000   0.0000   0.3683
  27.500   1.1546   0.39550   0.39358  -0.1854  0.0060  1.0000  -1.8429   0.0000   0.0000   0.0000   0.3685
  27.600   1.1567   0.39735   0.39544  -0.1863  0.0060  1.0000  -1.8450   0.0000   0.0000   0.0000   0.3687
  27.700   1.1588   0.39921   0.39730  -0.1872  0.0059  1.0000  -1.8473   0.0000   0.0000   0.0000   0.3689
  27.800   1.1609   0.40107   0.39916  -0.1881  0.0058  1.0000  -1.8497   0.0000   0.0000   0.0000   0.3691
  27.900   1.1630   0.40293   0.40103  -0.1890  0.0058  1.0000  -1.8522   0.0000   0.0000   0.0000   0.3694
  28.000   1.1651   0.40479   0.40289  -0.1899  0.0057  1.0000  -1.8549   0.0000   0.0000   0.0000   0.3696
  28.100   1.1671   0.40665   0.40475  -0.1908  0.0056  1.0000  -1.8577   0.0000   0.0000   0.0000   0.3698
  28.200   1.1692   0.40851   0.40662  -0.1917  0.0056  1.0000  -1.8606   0.0000   0.0000   0.0000   0.3700
  28.300   1.1712   0.41037   0.40849  -0.1926  0.0055  1.0000  -1.8637   0.0000   0.0000   0.0000   0.3702
  28.400   1.1732   0.41224   0.41035  -0.1935  0.0054  1.0000  -1.8669   0.0000   0.0000   0.0000   0.3704
  28.500   1.1752   0.41410   0.41222  -0.1944  0.0054  1.0000  -1.8702   0.0000   0.0000   0.0000   0.3706
  28.600   1.1772   0.41597   0.41409  -0.1953  0.0053  1.0000  -1.8736   0.0000   0.0000   0.0000   0.3708
  28.700   1.1791   0.41784   0.41596  -0.1963  0.0053  1.0000  -1.8772   0.0000   0.0000   0.0000   0.3710
  28.800   1.1811   0.41971   0.41784  -0.1972  0.0052  1.0000  -1.8808   0.0000   0.0000   0.0000   0.3712
  28.900   1.1830   0.42158   0.41971  -0.1981  0.0052  1.0000  -1.8846   0.0000   0.0000   0.0000   0.3714
  29.000   1.1849   0.42345   0.42159  -0.1990  0.0051  1.0000  -1.8886   0.0000   0.0000   0.0000   0.3715
  29.100   1.1868   0.42532   0.42346  -0.1999  0.0051  1.0000  -1.8926   0.0000   0.0000   0.0000   0.3717
  29.200   1.1887   0.42719   0.42534  -0.2008  0.0050  1.0000  -1.8968   0.0000   0.0000   0.0000   0.3719
  29.300   1.1906   0.42907   0.42722  -0.2017  0.0050  1.0000  -1.9018   0.0000   0.0000   0.0000   0.3721
  29.400   1.1924   0.43094   0.42910  -0.2026  0.0050  1.0000  -1.9164   0.0000   0.0000   0.0000   0.3723
  29.500   1.1942   0.43282   0.43098  -0.2035  0.0049  1.0000  -1.9311   0.0000   0.0000   0.0000   0.3725
  29.600   1.1960   0.43469   0.43286  -0.2044  0.0049  1.0000  -1.9459   0.0000   0.0000   0.0000   0.3727
  29.700   1.1978   0.43657   0.43474  -0.2053  0.0048  1.0000  -1.9608   0.0000   0.0000   0.0000   0.3729
  29.800   1.1996   0.43845   0.43662  -0.2062  0.0048  1.0000  -1.9757   0.0000   0.0000   0.0000   0.3730
  29.900   1.2014   0.44033   0.43850  -0.2071  0.0048  1.0000  -1.9907   0.0000   0.0000   0.0000   0.3732
  30.000   1.2031   0.44220   0.44038  -0.2080  0.0047  1.0000  -2.0059   0.0000   0.0000   0.0000   0.3734


