xflr5 v6.61

 Calculated polar for: NACA M6 AIRFOIL

 1 1 Reynolds number fixed          Mach number fixed         

 xtrf =   1.000 (top)        1.000 (bottom)
 Mach =   0.000     Re =     0.200 e 6     Ncrit =   9.000

  alpha     CL        CD       CDp       Cm    Top Xtr Bot Xtr   Cpmin    Chinge    XCp    
 ------- -------- --------- --------- -------- ------- ------- -------- --------- ---------
 -10.000  -0.5058   0.11335   0.10934  -0.0075  1.0000  0.0744  -1.5475   0.0000   0.0000   0.0000   0.2274
  -9.900  -0.5057   0.11179   0.10779  -0.0087  1.0000  0.0745  -1.5626   0.0000   0.0000   0.0000   0.2250
  -9.800  -0.5059   0.11017   0.10618  -0.0101  1.0000  0.0746  -1.5788   0.0000   0.0000   0.0000   0.2225
  -9.700  -0.5065   0.10847   0.10449  -0.0116  1.0000  0.0746  -1.5970   0.0000   0.0000   0.0000   0.2197
  -9.600  -0.5075   0.10666   0.10269  -0.0133  1.0000  0.0747  -1.6178   0.0000   0.0000   0.0000   0.2166
  -9.500  -0.5090   0.10470   0.10073  -0.0153  1.0000  0.0747  -1.6421   0.0000   0.0000   0.0000   0.2128
  -9.400  -0.5110   0.10280   0.09882  -0.0172  1.0000  0.0748  -1.6667   0.0000   0.0000   0.0000   0.2095
  -9.300  -0.5134   0.10107   0.09708  -0.0185  1.0000  0.0748  -1.6887   0.0000   0.0000   0.0000   0.2073
  -9.200  -0.5163   0.09945   0.09544  -0.0195  1.0000  0.0748  -1.7096   0.0000   0.0000   0.0000   0.2057
  -9.100  -0.5196   0.09794   0.09393  -0.0201  1.0000  0.0748  -1.7291   0.0000   0.0000   0.0000   0.2049
  -9.000  -0.5229   0.09649   0.09247  -0.0206  1.0000  0.0749  -1.7471   0.0000   0.0000   0.0000   0.2045
  -8.900  -0.5256   0.09507   0.09102  -0.0209  1.0000  0.0749  -1.7638   0.0000   0.0000   0.0000   0.2042
  -8.800  -0.5277   0.09364   0.08958  -0.0212  1.0000  0.0749  -1.7791   0.0000   0.0000   0.0000   0.2039
  -8.700  -0.5290   0.09218   0.08809  -0.0215  1.0000  0.0749  -1.7926   0.0000   0.0000   0.0000   0.2034
  -8.600  -0.5300   0.09074   0.08663  -0.0218  1.0000  0.0750  -1.8047   0.0000   0.0000   0.0000   0.2030
  -8.500  -0.5547   0.08199   0.07787  -0.0236  1.0000  0.0764  -1.9554   0.0000   0.0000   0.0000   0.2018
  -8.400  -0.5562   0.07897   0.07487  -0.0238  1.0000  0.0772  -1.9644   0.0000   0.0000   0.0000   0.2016
  -8.300  -0.5527   0.07729   0.07321  -0.0238  1.0000  0.0777  -1.9480   0.0000   0.0000   0.0000   0.2015
  -8.200  -0.5476   0.07598   0.07192  -0.0236  1.0000  0.0780  -1.9231   0.0000   0.0000   0.0000   0.2014
  -8.100  -0.5427   0.07477   0.07073  -0.0235  1.0000  0.0784  -1.8997   0.0000   0.0000   0.0000   0.2014
  -8.000  -0.5382   0.07362   0.06959  -0.0234  1.0000  0.0788  -1.8775   0.0000   0.0000   0.0000   0.2014
  -7.900  -0.5338   0.07250   0.06849  -0.0232  1.0000  0.0792  -1.8566   0.0000   0.0000   0.0000   0.2013
  -7.800  -0.5296   0.07141   0.06741  -0.0231  1.0000  0.0796  -1.8368   0.0000   0.0000   0.0000   0.2013
  -7.700  -0.5255   0.07034   0.06634  -0.0230  1.0000  0.0801  -1.8181   0.0000   0.0000   0.0000   0.2012
  -7.600  -0.5215   0.06928   0.06529  -0.0230  1.0000  0.0805  -1.8004   0.0000   0.0000   0.0000   0.2011
  -7.500  -0.5175   0.06824   0.06424  -0.0229  1.0000  0.0810  -1.7837   0.0000   0.0000   0.0000   0.2010
  -7.400  -0.5136   0.06720   0.06320  -0.0228  1.0000  0.0815  -1.7678   0.0000   0.0000   0.0000   0.2009
  -7.300  -0.5097   0.06616   0.06217  -0.0228  1.0000  0.0821  -1.7527   0.0000   0.0000   0.0000   0.2007
  -7.200  -0.5058   0.06514   0.06115  -0.0227  1.0000  0.0827  -1.7383   0.0000   0.0000   0.0000   0.2005
  -7.100  -0.5019   0.06413   0.06013  -0.0227  1.0000  0.0833  -1.7247   0.0000   0.0000   0.0000   0.2003
  -7.000  -0.4980   0.06314   0.05913  -0.0226  1.0000  0.0840  -1.7118   0.0000   0.0000   0.0000   0.2002
  -6.900  -0.4941   0.06216   0.05815  -0.0226  1.0000  0.0847  -1.6996   0.0000   0.0000   0.0000   0.2000
  -6.800  -0.4904   0.06122   0.05720  -0.0225  1.0000  0.0855  -1.6882   0.0000   0.0000   0.0000   0.2000
  -6.700  -0.4870   0.06034   0.05631  -0.0222  1.0000  0.0863  -1.6778   0.0000   0.0000   0.0000   0.2002
  -6.600  -0.4850   0.05956   0.05553  -0.0217  1.0000  0.0871  -1.6695   0.0000   0.0000   0.0000   0.2011
  -6.500  -0.4874   0.05904   0.05503  -0.0204  0.9997  0.0877  -1.6671   0.0000   0.0000   0.0000   0.2041
  -6.400  -0.4761   0.05798   0.05392  -0.0216  0.9940  0.0892  -1.6475   0.0000   0.0000   0.0000   0.2005
  -6.300  -0.4638   0.05704   0.05294  -0.0229  0.9874  0.0908  -1.6267   0.0000   0.0000   0.0000   0.1967
  -6.200  -0.4501   0.05633   0.05218  -0.0242  0.9809  0.0926  -1.6029   0.0000   0.0000   0.0000   0.1923
  -6.100  -0.4348   0.05598   0.05178  -0.0255  0.9745  0.0945  -1.5738   0.0000   0.0000   0.0000   0.1874
  -6.000  -0.4176   0.05623   0.05197  -0.0268  0.9682  0.0965  -1.5357   0.0000   0.0000   0.0000   0.1819
  -5.900  -0.3983   0.05730   0.05297  -0.0280  0.9620  0.0983  -1.4858   0.0000   0.0000   0.0000   0.1757
  -5.800  -0.3812   0.05789   0.05349  -0.0292  0.9554  0.0993  -1.4450   0.0000   0.0000   0.0000   0.1692
  -5.700  -0.3689   0.05753   0.05306  -0.0301  0.9479  0.0996  -1.4213   0.0000   0.0000   0.0000   0.1643
  -5.500  -0.3893   0.04627   0.04143  -0.0299  0.9301  0.1051  -1.5691   0.0000   0.0000   0.0000   0.1691
  -5.400  -0.3844   0.04422   0.03936  -0.0299  0.9229  0.1071  -1.5569   0.0000   0.0000   0.0000   0.1682
  -5.300  -0.3771   0.04299   0.03812  -0.0298  0.9160  0.1087  -1.5335   0.0000   0.0000   0.0000   0.1670
  -5.200  -0.3695   0.04205   0.03717  -0.0296  0.9090  0.1102  -1.5077   0.0000   0.0000   0.0000   0.1660
  -5.100  -0.3614   0.04128   0.03640  -0.0294  0.9011  0.1117  -1.4798   0.0000   0.0000   0.0000   0.1647
  -5.000  -0.3538   0.04058   0.03571  -0.0291  0.8970  0.1131  -1.4521   0.0000   0.0000   0.0000   0.1640
  -4.900  -0.3465   0.03992   0.03506  -0.0287  0.8927  0.1146  -1.4255   0.0000   0.0000   0.0000   0.1634
  -4.800  -0.3393   0.03929   0.03444  -0.0283  0.8875  0.1161  -1.3997   0.0000   0.0000   0.0000   0.1629
  -4.700  -0.3321   0.03868   0.03383  -0.0278  0.8816  0.1178  -1.3748   0.0000   0.0000   0.0000   0.1626
  -4.600  -0.3250   0.03809   0.03322  -0.0273  0.8749  0.1197  -1.3508   0.0000   0.0000   0.0000   0.1623
  -4.500  -0.3178   0.03752   0.03263  -0.0268  0.8677  0.1217  -1.3277   0.0000   0.0000   0.0000   0.1620
  -4.400  -0.3106   0.03696   0.03204  -0.0262  0.8602  0.1240  -1.3055   0.0000   0.0000   0.0000   0.1619
  -4.300  -0.3033   0.03643   0.03146  -0.0257  0.8526  0.1264  -1.2840   0.0000   0.0000   0.0000   0.1617
  -4.200  -0.2959   0.03592   0.03090  -0.0251  0.8449  0.1291  -1.2632   0.0000   0.0000   0.0000   0.1616
  -4.100  -0.2882   0.03547   0.03038  -0.0245  0.8369  0.1321  -1.2428   0.0000   0.0000   0.0000   0.1614
  -4.000  -0.2800   0.03511   0.02995  -0.0239  0.8283  0.1354  -1.2221   0.0000   0.0000   0.0000   0.1608
  -3.900  -0.2706   0.03493   0.02971  -0.0236  0.8185  0.1390  -1.1996   0.0000   0.0000   0.0000   0.1591
  -3.800  -0.2592   0.03520   0.02992  -0.0235  0.8076  0.1429  -1.1719   0.0000   0.0000   0.0000   0.1555
  -3.700  -0.2401   0.03852   0.03325  -0.0235  0.7993  0.1487  -1.1061   0.0000   0.0000   0.0000   0.1483
  -3.600  -0.2286   0.03924   0.03393  -0.0231  0.7975  0.1496  -1.0752   0.0000   0.0000   0.0000   0.1450
  -3.500  -0.2396   0.03188   0.02637  -0.0227  0.7962  0.1579  -1.1374   0.0000   0.0000   0.0000   0.1514
  -3.400  -0.2322   0.03085   0.02538  -0.0224  0.7941  0.1609  -1.1142   0.0000   0.0000   0.0000   0.1496
  -3.300  -0.2237   0.03019   0.02475  -0.0221  0.7916  0.1636  -1.0880   0.0000   0.0000   0.0000   0.1472
  -3.200  -0.2149   0.02965   0.02424  -0.0219  0.7887  0.1663  -1.0614   0.0000   0.0000   0.0000   0.1445
  -3.100  -0.2058   0.02919   0.02381  -0.0216  0.7857  0.1691  -1.0354   0.0000   0.0000   0.0000   0.1414
  -2.900  -0.1752   0.02256   0.01514  -0.0182  0.7812  0.0775  -1.3663   0.0000   0.0000   0.0000   0.1396
  -2.800  -0.1637   0.02301   0.01559  -0.0180  0.7776  0.0761  -1.3270   0.0000   0.0000   0.0000   0.1333
  -2.700  -0.1538   0.02108   0.01354  -0.0176  0.7744  0.0706  -1.3490   0.0000   0.0000   0.0000   0.1282
  -2.600  -0.1433   0.02022   0.01257  -0.0173  0.7709  0.0683  -1.3443   0.0000   0.0000   0.0000   0.1217
  -2.500  -0.1326   0.01949   0.01173  -0.0170  0.7674  0.0661  -1.3381   0.0000   0.0000   0.0000   0.1138
  -2.400  -0.1215   0.01884   0.01097  -0.0167  0.7639  0.0639  -1.3321   0.0000   0.0000   0.0000   0.1042
  -2.300  -0.1104   0.01827   0.01026  -0.0164  0.7602  0.0618  -1.3258   0.0000   0.0000   0.0000   0.0926
  -2.200  -0.0993   0.01777   0.00965  -0.0161  0.7565  0.0599  -1.3168   0.0000   0.0000   0.0000   0.0782
  -2.100  -0.0883   0.01736   0.00913  -0.0158  0.7528  0.0583  -1.3048   0.0000   0.0000   0.0000   0.0605
  -2.000  -0.0775   0.01704   0.00873  -0.0155  0.7490  0.0570  -1.2877   0.0000   0.0000   0.0000   0.0382
  -1.900  -0.0668   0.01680   0.00842  -0.0152  0.7451  0.0559  -1.2655   0.0000   0.0000   0.0000   0.0090
  -1.800  -0.0563   0.01661   0.00818  -0.0150  0.7411  0.0551  -1.2398   0.0000   0.0000   0.0000  -0.0308
  -1.700  -0.0459   0.01645   0.00797  -0.0147  0.7369  0.0543  -1.2118   0.0000   0.0000   0.0000  -0.0888
  -1.600  -0.0354   0.01631   0.00781  -0.0145  0.7323  0.0537  -1.1824   0.0000   0.0000   0.0000  -0.1821
  -1.500  -0.0249   0.01620   0.00767  -0.0144  0.7273  0.0531  -1.1523   0.0000   0.0000   0.0000  -0.3564
  -1.400  -0.0143   0.01612   0.00756  -0.0143  0.7218  0.0526  -1.1217   0.0000   0.0000   0.0000  -0.7948
  -1.300  -0.0036   0.01607   0.00750  -0.0142  0.7158  0.0521  -1.0908   0.0000   0.0000   0.0000  -3.8379
  -1.200   0.0071   0.01606   0.00750  -0.0143  0.7091  0.0516  -1.0600   0.0000   0.0000   0.0000   2.3550
  -1.100   0.0178   0.01614   0.00759  -0.0144  0.7016  0.0512  -1.0295   0.0000   0.0000   0.0000   1.0959
  -1.000   0.0283   0.01604   0.00750  -0.0144  0.6993  0.0507  -0.9991   0.0000   0.0000   0.0000   0.7781
  -0.900   0.0387   0.01588   0.00734  -0.0142  0.6984  0.0504  -0.9690   0.0000   0.0000   0.0000   0.6308
  -0.800   0.0490   0.01571   0.00713  -0.0140  0.6973  0.0500  -0.9399   0.0000   0.0000   0.0000   0.5462
  -0.700   0.0589   0.01545   0.00686  -0.0137  0.6960  0.0498  -0.9170   0.0000   0.0000   0.0000   0.4911
  -0.600   0.0687   0.01522   0.00661  -0.0134  0.6945  0.0496  -0.8930   0.0000   0.0000   0.0000   0.4519
  -0.500   0.0786   0.01503   0.00640  -0.0132  0.6928  0.0494  -0.8680   0.0000   0.0000   0.0000   0.4226
  -0.400   0.0887   0.01487   0.00622  -0.0129  0.6908  0.0493  -0.8421   0.0000   0.0000   0.0000   0.4000
  -0.300   0.0988   0.01473   0.00606  -0.0127  0.6886  0.0491  -0.8156   0.0000   0.0000   0.0000   0.3820
  -0.200   0.1090   0.01461   0.00591  -0.0125  0.6862  0.0489  -0.7887   0.0000   0.0000   0.0000   0.3675
  -0.100   0.1193   0.01451   0.00578  -0.0124  0.6835  0.0488  -0.7612   0.0000   0.0000   0.0000   0.3555
   0.000   0.1297   0.01442   0.00568  -0.0122  0.6806  0.0486  -0.7333   0.0000   0.0000   0.0000   0.3456
   0.100   0.1401   0.01435   0.00558  -0.0121  0.6776  0.0485  -0.7052   0.0000   0.0000   0.0000   0.3371
   0.200   0.1507   0.01430   0.00550  -0.0119  0.6744  0.0484  -0.6768   0.0000   0.0000   0.0000   0.3299
   0.300   0.1612   0.01425   0.00542  -0.0118  0.6711  0.0483  -0.6483   0.0000   0.0000   0.0000   0.3236
   0.400   0.1717   0.01420   0.00535  -0.0117  0.6676  0.0482  -0.6199   0.0000   0.0000   0.0000   0.3180
   0.500   0.1822   0.01415   0.00527  -0.0115  0.6640  0.0482  -0.6074   0.0000   0.0000   0.0000   0.3130
   0.600   0.1926   0.01410   0.00520  -0.0113  0.6603  0.0483  -0.6167   0.0000   0.0000   0.0000   0.3084
   0.700   0.2031   0.01406   0.00525  -0.0111  0.6562  0.0490  -0.6262   0.0000   0.0000   0.0000   0.3043
   0.800   0.2136   0.01401   0.00517  -0.0109  0.6522  0.0493  -0.6357   0.0000   0.0000   0.0000   0.3005
   0.900   0.2241   0.01398   0.00510  -0.0107  0.6481  0.0496  -0.6452   0.0000   0.0000   0.0000   0.2970
   1.100   0.2451   0.01394   0.00499  -0.0104  0.6396  0.0514  -0.6644   0.0000   0.0000   0.0000   0.2911
   1.200   0.2556   0.01394   0.00495  -0.0102  0.6351  0.0536  -0.6740   0.0000   0.0000   0.0000   0.2886
   1.300   0.2661   0.01396   0.00494  -0.0101  0.6306  0.0581  -0.6840   0.0000   0.0000   0.0000   0.2865
   1.400   0.2762   0.01393   0.00496  -0.0100  0.6259  0.0740  -0.6949   0.0000   0.0000   0.0000   0.2845
   1.500   0.2719   0.01234   0.00489  -0.0077  0.6220  0.5168  -0.6967   0.0000   0.0000   0.0000   0.2766
   1.700   0.3049   0.01197   0.00574  -0.0091  0.6101  0.8963  -0.7272   0.0000   0.0000   0.0000   0.2780
   1.800   0.3185   0.01237   0.00615  -0.0100  0.6030  0.9042  -0.7397   0.0000   0.0000   0.0000   0.2792
   1.900   0.3412   0.01264   0.00643  -0.0124  0.5995  0.9188  -0.7587   0.0000   0.0000   0.0000   0.2842
   2.000   0.3577   0.01271   0.00649  -0.0133  0.5987  0.9339  -0.7745   0.0000   0.0000   0.0000   0.2849
   2.100   0.3661   0.01278   0.00656  -0.0124  0.5978  0.9459  -0.7852   0.0000   0.0000   0.0000   0.2816
   2.200   0.3985   0.01285   0.00663  -0.0166  0.5962  0.9590  -0.8119   0.0000   0.0000   0.0000   0.2891
   2.300   0.4349   0.01284   0.00661  -0.0217  0.5939  0.9709  -0.8417   0.0000   0.0000   0.0000   0.2973
   2.400   0.4601   0.01280   0.00655  -0.0245  0.5911  0.9790  -0.8640   0.0000   0.0000   0.0000   0.3006
   2.500   0.4812   0.01275   0.00649  -0.0266  0.5879  0.9852  -0.8837   0.0000   0.0000   0.0000   0.3024
   2.600   0.5003   0.01270   0.00642  -0.0282  0.5839  0.9901  -0.9022   0.0000   0.0000   0.0000   0.3035
   2.700   0.5280   0.01266   0.00635  -0.0315  0.5781  0.9975  -0.9629   0.0000   0.0000   0.0000   0.3067
   2.800   0.5465   0.01259   0.00625  -0.0330  0.5720  1.0000  -1.0125   0.0000   0.0000   0.0000   0.3073
   2.900   0.5560   0.01252   0.00615  -0.0327  0.5666  1.0000  -1.0475   0.0000   0.0000   0.0000   0.3056
   3.000   0.5656   0.01246   0.00605  -0.0324  0.5605  1.0000  -1.0827   0.0000   0.0000   0.0000   0.3040
   3.100   0.5751   0.01241   0.00595  -0.0321  0.5541  1.0000  -1.1182   0.0000   0.0000   0.0000   0.3024
   3.200   0.5846   0.01237   0.00585  -0.0318  0.5476  1.0000  -1.1540   0.0000   0.0000   0.0000   0.3008
   3.300   0.5942   0.01235   0.00577  -0.0315  0.5410  1.0000  -1.1900   0.0000   0.0000   0.0000   0.2994
   3.400   0.6038   0.01236   0.00570  -0.0312  0.5340  1.0000  -1.2262   0.0000   0.0000   0.0000   0.2980
   3.500   0.6135   0.01238   0.00566  -0.0310  0.5262  1.0000  -1.2626   0.0000   0.0000   0.0000   0.2967
   3.600   0.6233   0.01246   0.00568  -0.0308  0.5174  1.0000  -1.2994   0.0000   0.0000   0.0000   0.2956
   3.700   0.6335   0.01259   0.00578  -0.0308  0.5079  1.0000  -1.3367   0.0000   0.0000   0.0000   0.2947
   3.800   0.6438   0.01275   0.00594  -0.0309  0.4998  1.0000  -1.3743   0.0000   0.0000   0.0000   0.2939
   3.900   0.6536   0.01271   0.00591  -0.0307  0.4988  1.0000  -1.4121   0.0000   0.0000   0.0000   0.2928
   4.000   0.6633   0.01267   0.00589  -0.0305  0.4975  1.0000  -1.4501   0.0000   0.0000   0.0000   0.2918
   4.100   0.6730   0.01264   0.00587  -0.0303  0.4958  1.0000  -1.4884   0.0000   0.0000   0.0000   0.2907
   4.200   0.6827   0.01261   0.00585  -0.0302  0.4937  1.0000  -1.5268   0.0000   0.0000   0.0000   0.2897
   4.300   0.6923   0.01259   0.00585  -0.0300  0.4910  1.0000  -1.5655   0.0000   0.0000   0.0000   0.2888
   4.400   0.7020   0.01258   0.00585  -0.0298  0.4879  1.0000  -1.6043   0.0000   0.0000   0.0000   0.2878
   4.500   0.7116   0.01257   0.00585  -0.0296  0.4841  1.0000  -1.6434   0.0000   0.0000   0.0000   0.2869
   4.600   0.7212   0.01257   0.00585  -0.0294  0.4796  1.0000  -1.6826   0.0000   0.0000   0.0000   0.2860
   4.700   0.7307   0.01258   0.00584  -0.0292  0.4745  1.0000  -1.7219   0.0000   0.0000   0.0000   0.2850
   4.800   0.7402   0.01259   0.00584  -0.0290  0.4687  1.0000  -1.7614   0.0000   0.0000   0.0000   0.2841
   4.900   0.7496   0.01261   0.00583  -0.0287  0.4625  1.0000  -1.8010   0.0000   0.0000   0.0000   0.2832
   5.000   0.7589   0.01264   0.00582  -0.0285  0.4559  1.0000  -1.8407   0.0000   0.0000   0.0000   0.2823
   5.100   0.7682   0.01268   0.00581  -0.0282  0.4491  1.0000  -1.8805   0.0000   0.0000   0.0000   0.2814
   5.200   0.7774   0.01272   0.00581  -0.0279  0.4421  1.0000  -1.9204   0.0000   0.0000   0.0000   0.2805
   5.300   0.7866   0.01278   0.00580  -0.0276  0.4345  1.0000  -1.9602   0.0000   0.0000   0.0000   0.2796
   5.400   0.7956   0.01286   0.00582  -0.0273  0.4261  1.0000  -1.9999   0.0000   0.0000   0.0000   0.2787
   5.500   0.8047   0.01294   0.00586  -0.0271  0.4168  1.0000  -2.0396   0.0000   0.0000   0.0000   0.2779
   5.600   0.8140   0.01306   0.00595  -0.0268  0.4072  1.0000  -2.0795   0.0000   0.0000   0.0000   0.2771
   5.700   0.8234   0.01316   0.00605  -0.0266  0.3997  1.0000  -2.1199   0.0000   0.0000   0.0000   0.2764
   5.800   0.8329   0.01318   0.00611  -0.0264  0.3981  1.0000  -2.1609   0.0000   0.0000   0.0000   0.2757
   5.900   0.8424   0.01321   0.00618  -0.0262  0.3959  1.0000  -2.2020   0.0000   0.0000   0.0000   0.2750
   6.000   0.8518   0.01325   0.00624  -0.0260  0.3928  1.0000  -2.2429   0.0000   0.0000   0.0000   0.2742
   6.100   0.8611   0.01330   0.00631  -0.0258  0.3881  1.0000  -2.2836   0.0000   0.0000   0.0000   0.2735
   6.200   0.8703   0.01336   0.00636  -0.0255  0.3800  1.0000  -2.3238   0.0000   0.0000   0.0000   0.2728
   6.300   0.8791   0.01344   0.00640  -0.0252  0.3683  1.0000  -2.3633   0.0000   0.0000   0.0000   0.2720
   6.400   0.8875   0.01357   0.00644  -0.0248  0.3534  1.0000  -2.4015   0.0000   0.0000   0.0000   0.2712
   6.500   0.8951   0.01377   0.00647  -0.0243  0.3339  1.0000  -2.4375   0.0000   0.0000   0.0000   0.2702
   6.600   0.9019   0.01401   0.00655  -0.0237  0.3089  1.0000  -2.4707   0.0000   0.0000   0.0000   0.2692
   6.700   0.9102   0.01418   0.00669  -0.0233  0.2934  1.0000  -2.5050   0.0000   0.0000   0.0000   0.2684
   6.800   0.9178   0.01442   0.00684  -0.0228  0.2745  1.0000  -2.5364   0.0000   0.0000   0.0000   0.2676
   6.900   0.9223   0.01493   0.00707  -0.0220  0.2382  1.0000  -2.5602   0.0000   0.0000   0.0000   0.2664
   7.000   0.9253   0.01559   0.00740  -0.0209  0.1855  1.0000  -2.5770   0.0000   0.0000   0.0000   0.2651
   7.100   0.9233   0.01672   0.00802  -0.0195  0.1308  1.0000  -2.5825   0.0000   0.0000   0.0000   0.2634
   7.200   0.9222   0.01780   0.00868  -0.0180  0.0875  1.0000  -2.5863   0.0000   0.0000   0.0000   0.2617
   7.300   0.9259   0.01843   0.00919  -0.0169  0.0733  1.0000  -2.5888   0.0000   0.0000   0.0000   0.2603
   7.400   0.9323   0.01872   0.00951  -0.0161  0.0703  1.0000  -2.6100   0.0000   0.0000   0.0000   0.2593
   7.500   0.9384   0.01902   0.00984  -0.0154  0.0680  1.0000  -2.6326   0.0000   0.0000   0.0000   0.2582
   7.600   0.9443   0.01932   0.01017  -0.0146  0.0663  1.0000  -2.6560   0.0000   0.0000   0.0000   0.2572
   7.700   0.9498   0.01963   0.01051  -0.0137  0.0650  1.0000  -2.6797   0.0000   0.0000   0.0000   0.2561
   7.800   0.9552   0.01995   0.01085  -0.0129  0.0638  1.0000  -2.7044   0.0000   0.0000   0.0000   0.2550
   7.900   0.9603   0.02027   0.01119  -0.0120  0.0625  1.0000  -2.7303   0.0000   0.0000   0.0000   0.2538
   8.000   0.9651   0.02060   0.01152  -0.0111  0.0612  1.0000  -2.7570   0.0000   0.0000   0.0000   0.2527
   8.100   0.9696   0.02094   0.01187  -0.0102  0.0598  1.0000  -2.7838   0.0000   0.0000   0.0000   0.2516
   8.200   0.9740   0.02129   0.01222  -0.0092  0.0583  1.0000  -2.8104   0.0000   0.0000   0.0000   0.2504
   8.300   0.9779   0.02167   0.01260  -0.0082  0.0568  1.0000  -2.8353   0.0000   0.0000   0.0000   0.2492
   8.400   0.9811   0.02207   0.01302  -0.0070  0.0552  1.0000  -2.8578   0.0000   0.0000   0.0000   0.2479
   8.500   0.9835   0.02252   0.01349  -0.0058  0.0538  1.0000  -2.8773   0.0000   0.0000   0.0000   0.2464
   8.600   0.9853   0.02302   0.01401  -0.0044  0.0525  1.0000  -2.8942   0.0000   0.0000   0.0000   0.2449
   8.700   0.9865   0.02354   0.01457  -0.0030  0.0513  1.0000  -2.9087   0.0000   0.0000   0.0000   0.2433
   8.800   0.9876   0.02411   0.01518  -0.0016  0.0503  1.0000  -2.9214   0.0000   0.0000   0.0000   0.2417
   8.900   0.9917   0.02442   0.01549  -0.0006  0.0498  1.0000  -2.9521   0.0000   0.0000   0.0000   0.2406
   9.000   0.9966   0.02466   0.01575   0.0002  0.0496  1.0000  -2.9873   0.0000   0.0000   0.0000   0.2396
   9.100   1.0008   0.02497   0.01607   0.0012  0.0494  1.0000  -3.0174   0.0000   0.0000   0.0000   0.2385
   9.200   1.0048   0.02529   0.01642   0.0021  0.0493  1.0000  -3.0467   0.0000   0.0000   0.0000   0.2375
   9.300   1.0089   0.02562   0.01677   0.0031  0.0491  1.0000  -3.0763   0.0000   0.0000   0.0000   0.2364
   9.400   1.0125   0.02595   0.01712   0.0041  0.0489  1.0000  -3.1049   0.0000   0.0000   0.0000   0.2353
   9.500   1.0156   0.02628   0.01747   0.0052  0.0487  1.0000  -3.1328   0.0000   0.0000   0.0000   0.2340
   9.600   1.0187   0.02661   0.01783   0.0062  0.0485  1.0000  -3.1607   0.0000   0.0000   0.0000   0.2329
   9.700   1.0219   0.02696   0.01821   0.0072  0.0483  1.0000  -3.1890   0.0000   0.0000   0.0000   0.2317
   9.800   1.0252   0.02733   0.01860   0.0082  0.0481  1.0000  -3.2177   0.0000   0.0000   0.0000   0.2307
  10.000   1.0246   0.02801   0.01961   0.0101  0.0310  1.0000  -3.5355   0.0000   0.0000   0.0000   0.2284
  10.100   1.0211   0.02892   0.02055   0.0116  0.0292  1.0000  -3.5549   0.0000   0.0000   0.0000   0.2268
  10.200   1.0179   0.02997   0.02164   0.0130  0.0277  1.0000  -3.5675   0.0000   0.0000   0.0000   0.2252
  10.300   1.0152   0.03118   0.02292   0.0144  0.0263  1.0000  -3.5738   0.0000   0.0000   0.0000   0.2236
  10.400   1.0130   0.03268   0.02453   0.0159  0.0252  1.0000  -3.5709   0.0000   0.0000   0.0000   0.2219
  10.500   1.0191   0.03275   0.02455   0.0161  0.0245  1.0000  -3.6847   0.0000   0.0000   0.0000   0.2217
  10.600   1.0248   0.03295   0.02475   0.0163  0.0240  1.0000  -3.7825   0.0000   0.0000   0.0000   0.2214
  10.700   1.0293   0.03336   0.02517   0.0166  0.0235  1.0000  -3.8594   0.0000   0.0000   0.0000   0.2209
  10.800   1.0328   0.03391   0.02574   0.0171  0.0230  1.0000  -3.9231   0.0000   0.0000   0.0000   0.2204
  10.900   1.0358   0.03453   0.02639   0.0175  0.0226  1.0000  -3.9800   0.0000   0.0000   0.0000   0.2198
  11.000   1.0389   0.03518   0.02707   0.0180  0.0223  1.0000  -4.0335   0.0000   0.0000   0.0000   0.2192
  11.100   1.0419   0.03585   0.02777   0.0184  0.0220  1.0000  -4.0845   0.0000   0.0000   0.0000   0.2187
  11.200   1.0450   0.03654   0.02849   0.0189  0.0217  1.0000  -4.1335   0.0000   0.0000   0.0000   0.2181
  11.300   1.0480   0.03725   0.02924   0.0194  0.0214  1.0000  -4.1806   0.0000   0.0000   0.0000   0.2175
  11.400   1.0509   0.03799   0.03002   0.0199  0.0212  1.0000  -4.2257   0.0000   0.0000   0.0000   0.2169
  11.500   1.0537   0.03875   0.03082   0.0203  0.0210  1.0000  -4.2690   0.0000   0.0000   0.0000   0.2163
  11.600   1.0563   0.03953   0.03165   0.0208  0.0208  1.0000  -4.3105   0.0000   0.0000   0.0000   0.2158
  11.700   1.0587   0.04033   0.03250   0.0213  0.0206  1.0000  -4.3496   0.0000   0.0000   0.0000   0.2152
  11.800   1.0609   0.04117   0.03339   0.0218  0.0205  1.0000  -4.3867   0.0000   0.0000   0.0000   0.2146
  11.900   1.0629   0.04204   0.03432   0.0223  0.0204  1.0000  -4.4217   0.0000   0.0000   0.0000   0.2140
  12.000   1.0647   0.04296   0.03530   0.0228  0.0203  1.0000  -4.4544   0.0000   0.0000   0.0000   0.2134
  12.100   1.0662   0.04393   0.03633   0.0232  0.0202  1.0000  -4.4845   0.0000   0.0000   0.0000   0.2128
  12.200   1.0670   0.04498   0.03745   0.0236  0.0201  1.0000  -4.5102   0.0000   0.0000   0.0000   0.2122
  12.300   1.0671   0.04612   0.03866   0.0240  0.0201  1.0000  -4.5319   0.0000   0.0000   0.0000   0.2117
  12.400   1.0669   0.04730   0.03992   0.0244  0.0201  1.0000  -4.5510   0.0000   0.0000   0.0000   0.2112
  12.500   1.0666   0.04854   0.04123   0.0247  0.0201  1.0000  -4.5680   0.0000   0.0000   0.0000   0.2107
  12.600   1.0659   0.04983   0.04261   0.0250  0.0201  1.0000  -4.5822   0.0000   0.0000   0.0000   0.2102
  12.700   1.0649   0.05118   0.04405   0.0253  0.0201  1.0000  -4.5932   0.0000   0.0000   0.0000   0.2097
  12.800   1.0633   0.05260   0.04556   0.0256  0.0201  1.0000  -4.6007   0.0000   0.0000   0.0000   0.2092
  12.900   1.0613   0.05410   0.04714   0.0258  0.0202  1.0000  -4.6046   0.0000   0.0000   0.0000   0.2088
  13.000   1.0586   0.05567   0.04881   0.0259  0.0203  1.0000  -4.6048   0.0000   0.0000   0.0000   0.2084
  13.100   1.0552   0.05732   0.05055   0.0260  0.0203  1.0000  -4.6011   0.0000   0.0000   0.0000   0.2080
  13.200   1.0512   0.05905   0.05239   0.0260  0.0204  1.0000  -4.5935   0.0000   0.0000   0.0000   0.2077
  13.300   1.0461   0.06090   0.05433   0.0259  0.0205  1.0000  -4.5812   0.0000   0.0000   0.0000   0.2075
  13.400   1.0393   0.06292   0.05644   0.0256  0.0206  1.0000  -4.5622   0.0000   0.0000   0.0000   0.2074
  13.500   1.0329   0.06495   0.05857   0.0252  0.0206  1.0000  -4.5430   0.0000   0.0000   0.0000   0.2074
  13.600   1.0267   0.06700   0.06071   0.0249  0.0207  1.0000  -4.5230   0.0000   0.0000   0.0000   0.2074
  13.700   1.0202   0.06907   0.06287   0.0245  0.0208  1.0000  -4.5009   0.0000   0.0000   0.0000   0.2074
  13.800   1.0132   0.07117   0.06507   0.0241  0.0209  1.0000  -4.4762   0.0000   0.0000   0.0000   0.2074
  13.900   1.0058   0.07337   0.06736   0.0235  0.0210  1.0000  -4.4487   0.0000   0.0000   0.0000   0.2076
  14.000   0.9978   0.07570   0.06977   0.0228  0.0211  1.0000  -4.4181   0.0000   0.0000   0.0000   0.2078
  14.100   0.9884   0.07830   0.07246   0.0218  0.0211  1.0000  -4.3813   0.0000   0.0000   0.0000   0.2085
  14.200   0.9789   0.08105   0.07530   0.0205  0.0212  1.0000  -4.3421   0.0000   0.0000   0.0000   0.2093
  14.300   0.9704   0.08378   0.07811   0.0194  0.0213  1.0000  -4.3037   0.0000   0.0000   0.0000   0.2101
  14.400   0.9621   0.08655   0.08096   0.0182  0.0214  1.0000  -4.2638   0.0000   0.0000   0.0000   0.2109
  14.500   0.9535   0.08944   0.08393   0.0170  0.0214  1.0000  -4.2209   0.0000   0.0000   0.0000   0.2118
  14.600   0.9446   0.09248   0.08705   0.0155  0.0215  1.0000  -4.1740   0.0000   0.0000   0.0000   0.2129
  14.700   0.9347   0.09575   0.09040   0.0138  0.0216  1.0000  -4.1213   0.0000   0.0000   0.0000   0.2144
  14.800   0.9230   0.09953   0.09426   0.0115  0.0216  1.0000  -4.0578   0.0000   0.0000   0.0000   0.2165
  14.900   0.9131   0.10310   0.09791   0.0096  0.0217  1.0000  -3.9969   0.0000   0.0000   0.0000   0.2183
  15.000   0.9035   0.10667   0.10154   0.0077  0.0218  1.0000  -3.9332   0.0000   0.0000   0.0000   0.2201
  15.100   0.8934   0.11039   0.10534   0.0057  0.0219  1.0000  -3.8629   0.0000   0.0000   0.0000   0.2220
  15.200   0.8824   0.11444   0.10947   0.0035  0.0220  1.0000  -3.7818   0.0000   0.0000   0.0000   0.2244
  15.300   0.8683   0.11956   0.11466   0.0003  0.0221  1.0000  -3.6728   0.0000   0.0000   0.0000   0.2278
  15.400   0.8551   0.12458   0.11975  -0.0026  0.0222  1.0000  -3.5583   0.0000   0.0000   0.0000   0.2312
  15.500   0.8424   0.12954   0.12477  -0.0053  0.0224  1.0000  -3.4362   0.0000   0.0000   0.0000   0.2343
  15.600   0.8283   0.13512   0.13040  -0.0082  0.0227  1.0000  -3.2865   0.0000   0.0000   0.0000   0.2380
  15.700   0.8105   0.14237   0.13771  -0.0119  0.0230  1.0000  -3.0711   0.0000   0.0000   0.0000   0.2429
  15.800   0.7948   0.14917   0.14454  -0.0149  0.0235  1.0000  -2.8538   0.0000   0.0000   0.0000   0.2473
  15.900   0.7818   0.15499   0.15037  -0.0174  0.0240  1.0000  -2.6535   0.0000   0.0000   0.0000   0.2508
  16.300   0.7902   0.16104   0.15645  -0.0191  0.0267  1.0000  -2.6442   0.0000   0.0000   0.0000   0.2522
  17.800   0.7700   0.21319   0.20861  -0.0349  0.0495  1.0000  -1.6568   0.0000   0.0000   0.0000   0.2732
  17.900   0.7716   0.21516   0.21057  -0.0358  0.0494  1.0000  -1.6487   0.0000   0.0000   0.0000   0.2741
  18.000   0.7731   0.21706   0.21247  -0.0366  0.0494  1.0000  -1.6410   0.0000   0.0000   0.0000   0.2749
  18.100   0.7748   0.21889   0.21430  -0.0375  0.0492  1.0000  -1.6338   0.0000   0.0000   0.0000   0.2758
  18.200   0.7765   0.22063   0.21603  -0.0384  0.0491  1.0000  -1.6272   0.0000   0.0000   0.0000   0.2767
  18.300   0.7784   0.22224   0.21764  -0.0393  0.0489  1.0000  -1.6212   0.0000   0.0000   0.0000   0.2777
  18.400   0.7804   0.22365   0.21903  -0.0403  0.0485  1.0000  -1.6155   0.0000   0.0000   0.0000   0.2787
  18.500   0.7821   0.22490   0.22028  -0.0416  0.0479  1.0000  -1.6039   0.0000   0.0000   0.0000   0.2801
  18.600   0.7827   0.22627   0.22165  -0.0431  0.0471  1.0000  -1.5814   0.0000   0.0000   0.0000   0.2818
  18.700   0.7832   0.22790   0.22328  -0.0445  0.0462  1.0000  -1.5583   0.0000   0.0000   0.0000   0.2834
  18.800   0.7842   0.22972   0.22510  -0.0457  0.0454  1.0000  -1.5406   0.0000   0.0000   0.0000   0.2847
  18.900   0.7855   0.23163   0.22700  -0.0467  0.0447  1.0000  -1.5271   0.0000   0.0000   0.0000   0.2858
  19.000   0.7869   0.23357   0.22894  -0.0477  0.0440  1.0000  -1.5163   0.0000   0.0000   0.0000   0.2868
  19.100   0.7884   0.23551   0.23088  -0.0485  0.0434  1.0000  -1.5075   0.0000   0.0000   0.0000   0.2876
  19.200   0.7900   0.23746   0.23283  -0.0494  0.0428  1.0000  -1.5000   0.0000   0.0000   0.0000   0.2884
  19.300   0.7916   0.23941   0.23477  -0.0501  0.0423  1.0000  -1.4936   0.0000   0.0000   0.0000   0.2891
  19.400   0.7933   0.24136   0.23672  -0.0509  0.0418  1.0000  -1.4879   0.0000   0.0000   0.0000   0.2898
  19.500   0.7949   0.24331   0.23867  -0.0517  0.0413  1.0000  -1.4828   0.0000   0.0000   0.0000   0.2905
  19.600   0.7966   0.24526   0.24062  -0.0524  0.0408  1.0000  -1.4781   0.0000   0.0000   0.0000   0.2912
  19.700   0.7983   0.24721   0.24256  -0.0531  0.0404  1.0000  -1.4739   0.0000   0.0000   0.0000   0.2918
  19.800   0.8000   0.24916   0.24451  -0.0539  0.0400  1.0000  -1.4700   0.0000   0.0000   0.0000   0.2924
  19.900   0.8017   0.25111   0.24646  -0.0546  0.0397  1.0000  -1.4663   0.0000   0.0000   0.0000   0.2930
  20.000   0.8034   0.25307   0.24842  -0.0553  0.0393  1.0000  -1.4629   0.0000   0.0000   0.0000   0.2936
  20.100   0.8051   0.25502   0.25037  -0.0559  0.0390  1.0000  -1.4596   0.0000   0.0000   0.0000   0.2941
  20.200   0.8068   0.25698   0.25233  -0.0566  0.0387  1.0000  -1.4565   0.0000   0.0000   0.0000   0.2947
  20.300   0.8085   0.25886   0.25421  -0.0573  0.0380  1.0000  -1.4566   0.0000   0.0000   0.0000   0.2952
  20.400   0.8104   0.26062   0.25597  -0.0579  0.0369  1.0000  -1.4622   0.0000   0.0000   0.0000   0.2956
  20.500   0.8123   0.26234   0.25769  -0.0586  0.0359  1.0000  -1.4696   0.0000   0.0000   0.0000   0.2961
  20.600   0.8143   0.26403   0.25937  -0.0591  0.0349  1.0000  -1.4790   0.0000   0.0000   0.0000   0.2964
  20.700   0.8163   0.26568   0.26102  -0.0597  0.0340  1.0000  -1.4904   0.0000   0.0000   0.0000   0.2967
  20.800   0.8184   0.26728   0.26263  -0.0602  0.0332  1.0000  -1.5041   0.0000   0.0000   0.0000   0.2970
  20.900   0.8206   0.26885   0.26419  -0.0607  0.0324  1.0000  -1.5202   0.0000   0.0000   0.0000   0.2972
  21.000   0.8229   0.27037   0.26571  -0.0611  0.0316  1.0000  -1.5393   0.0000   0.0000   0.0000   0.2973
  21.100   0.8253   0.27185   0.26719  -0.0615  0.0310  1.0000  -1.5613   0.0000   0.0000   0.0000   0.2973
  21.200   0.8278   0.27328   0.26862  -0.0618  0.0303  1.0000  -1.5867   0.0000   0.0000   0.0000   0.2973
  21.300   0.8305   0.27468   0.27002  -0.0620  0.0297  1.0000  -1.6161   0.0000   0.0000   0.0000   0.2971
  21.400   0.8333   0.27606   0.27140  -0.0622  0.0291  1.0000  -1.6498   0.0000   0.0000   0.0000   0.2968
  21.500   0.8365   0.27745   0.27279  -0.0622  0.0286  1.0000  -1.6883   0.0000   0.0000   0.0000   0.2964
  21.600   0.8399   0.27889   0.27423  -0.0621  0.0280  1.0000  -1.7324   0.0000   0.0000   0.0000   0.2957
  21.700   0.8439   0.28052   0.27586  -0.0619  0.0275  1.0000  -1.7832   0.0000   0.0000   0.0000   0.2948
  21.800   0.8461   0.28275   0.27810  -0.0618  0.0269  1.0000  -1.8150   0.0000   0.0000   0.0000   0.2943
  21.900   0.8305   0.29616   0.29146  -0.0626  0.0250  1.0000  -1.5772   0.0000   0.0000   0.0000   0.2971
  22.000   0.8316   0.29809   0.29339  -0.0633  0.0249  1.0000  -1.5712   0.0000   0.0000   0.0000   0.2977
  22.100   0.8326   0.29998   0.29529  -0.0640  0.0249  1.0000  -1.5654   0.0000   0.0000   0.0000   0.2982
  22.200   0.8336   0.30185   0.29716  -0.0647  0.0249  1.0000  -1.5599   0.0000   0.0000   0.0000   0.2988
  22.300   0.8347   0.30369   0.29900  -0.0653  0.0248  1.0000  -1.5548   0.0000   0.0000   0.0000   0.2994
  22.400   0.8357   0.30550   0.30081  -0.0660  0.0248  1.0000  -1.5501   0.0000   0.0000   0.0000   0.2999
  22.500   0.8367   0.30727   0.30259  -0.0667  0.0247  1.0000  -1.5458   0.0000   0.0000   0.0000   0.3005
  22.600   0.8377   0.30900   0.30431  -0.0674  0.0247  1.0000  -1.5421   0.0000   0.0000   0.0000   0.3010
  22.700   0.8387   0.31065   0.30597  -0.0681  0.0246  1.0000  -1.5389   0.0000   0.0000   0.0000   0.3016
  22.800   0.8397   0.31222   0.30755  -0.0688  0.0245  1.0000  -1.5364   0.0000   0.0000   0.0000   0.3022
  22.900   0.8408   0.31368   0.30901  -0.0695  0.0244  1.0000  -1.5351   0.0000   0.0000   0.0000   0.3027
  23.000   0.8421   0.31499   0.31031  -0.0702  0.0243  1.0000  -1.5356   0.0000   0.0000   0.0000   0.3033
  23.100   0.8436   0.31604   0.31137  -0.0710  0.0240  1.0000  -1.5381   0.0000   0.0000   0.0000   0.3039
  23.200   0.8455   0.31675   0.31208  -0.0720  0.0236  1.0000  -1.5414   0.0000   0.0000   0.0000   0.3047
  23.300   0.8470   0.31737   0.31271  -0.0734  0.0228  1.0000  -1.5308   0.0000   0.0000   0.0000   0.3060
  23.400   0.8491   0.31859   0.31393  -0.0747  0.0217  1.0000  -1.5162   0.0000   0.0000   0.0000   0.3071
  23.500   0.8507   0.32033   0.31568  -0.0756  0.0206  1.0000  -1.5063   0.0000   0.0000   0.0000   0.3079
  23.600   0.8518   0.32218   0.31753  -0.0763  0.0197  1.0000  -1.5028   0.0000   0.0000   0.0000   0.3084
  23.700   0.8528   0.32400   0.31936  -0.0769  0.0189  1.0000  -1.5037   0.0000   0.0000   0.0000   0.3089
  23.800   0.8536   0.32578   0.32114  -0.0774  0.0182  1.0000  -1.5077   0.0000   0.0000   0.0000   0.3092
  23.900   0.8543   0.32751   0.32288  -0.0779  0.0176  1.0000  -1.5144   0.0000   0.0000   0.0000   0.3095
  24.000   0.8550   0.32919   0.32456  -0.0783  0.0171  1.0000  -1.5233   0.0000   0.0000   0.0000   0.3098
  24.100   0.8556   0.33082   0.32619  -0.0787  0.0166  1.0000  -1.5343   0.0000   0.0000   0.0000   0.3101
  24.200   0.8561   0.33239   0.32777  -0.0791  0.0161  1.0000  -1.5474   0.0000   0.0000   0.0000   0.3103
  24.300   0.8566   0.33391   0.32929  -0.0795  0.0157  1.0000  -1.5625   0.0000   0.0000   0.0000   0.3104
  24.400   0.8571   0.33538   0.33076  -0.0798  0.0154  1.0000  -1.5796   0.0000   0.0000   0.0000   0.3106
  24.500   0.8575   0.33679   0.33218  -0.0801  0.0151  1.0000  -1.5986   0.0000   0.0000   0.0000   0.3106
  24.600   0.8562   0.33922   0.33475  -0.0805  0.0154  1.0000  -1.5586   0.0000   0.0000   0.0000   0.3112
  24.700   0.8557   0.34101   0.33657  -0.0808  0.0154  1.0000  -1.5516   0.0000   0.0000   0.0000   0.3115
  24.800   0.8552   0.34257   0.33816  -0.0810  0.0152  1.0000  -1.5556   0.0000   0.0000   0.0000   0.3116
  24.900   0.8547   0.34402   0.33962  -0.0812  0.0150  1.0000  -1.5636   0.0000   0.0000   0.0000   0.3118
  25.000   0.8541   0.34538   0.34099  -0.0814  0.0148  1.0000  -1.5742   0.0000   0.0000   0.0000   0.3119
  25.100   0.8533   0.34665   0.34228  -0.0815  0.0146  1.0000  -1.5867   0.0000   0.0000   0.0000   0.3119
  25.200   0.8522   0.34783   0.34347  -0.0815  0.0144  1.0000  -1.6007   0.0000   0.0000   0.0000   0.3119
  25.300   0.8510   0.34892   0.34456  -0.0815  0.0142  1.0000  -1.6160   0.0000   0.0000   0.0000   0.3118
  25.400   0.8494   0.34989   0.34555  -0.0813  0.0140  1.0000  -1.6324   0.0000   0.0000   0.0000   0.3117
  25.500   0.8473   0.35074   0.34641  -0.0811  0.0138  1.0000  -1.6493   0.0000   0.0000   0.0000   0.3115
  26.000   0.7767   0.33707   0.33291  -0.0703  0.0133  1.0000  -1.5456   0.0000   0.0000   0.0000   0.3079
  26.100   0.7564   0.33835   0.33418  -0.0672  0.0125  1.0000  -1.3959   0.0000   0.0000   0.0000   0.3071
  26.200   0.7529   0.33839   0.33423  -0.0671  0.0125  1.0000  -1.3784   0.0000   0.0000   0.0000   0.3074
  26.300   0.7497   0.33849   0.33434  -0.0670  0.0125  1.0000  -1.3618   0.0000   0.0000   0.0000   0.3077
  26.400   0.7468   0.33862   0.33449  -0.0670  0.0124  1.0000  -1.3458   0.0000   0.0000   0.0000   0.3080
  26.500   0.7441   0.33879   0.33468  -0.0670  0.0124  1.0000  -1.3304   0.0000   0.0000   0.0000   0.3083
  26.600   0.7414   0.33898   0.33488  -0.0670  0.0124  1.0000  -1.3154   0.0000   0.0000   0.0000   0.3086
  26.700   0.7390   0.33919   0.33510  -0.0670  0.0124  1.0000  -1.3009   0.0000   0.0000   0.0000   0.3089
  26.800   0.7367   0.33942   0.33535  -0.0671  0.0124  1.0000  -1.2869   0.0000   0.0000   0.0000   0.3093
  26.900   0.7345   0.33968   0.33562  -0.0672  0.0124  1.0000  -1.2734   0.0000   0.0000   0.0000   0.3096
  27.000   0.7325   0.33996   0.33591  -0.0673  0.0124  1.0000  -1.2603   0.0000   0.0000   0.0000   0.3099
  27.100   0.7306   0.34026   0.33622  -0.0674  0.0124  1.0000  -1.2477   0.0000   0.0000   0.0000   0.3103
  27.200   0.7288   0.34057   0.33655  -0.0675  0.0124  1.0000  -1.2355   0.0000   0.0000   0.0000   0.3106
  27.300   0.7271   0.34090   0.33689  -0.0676  0.0123  1.0000  -1.2236   0.0000   0.0000   0.0000   0.3110
  27.400   0.7254   0.34124   0.33724  -0.0678  0.0123  1.0000  -1.2121   0.0000   0.0000   0.0000   0.3113
  27.500   0.7239   0.34160   0.33761  -0.0679  0.0123  1.0000  -1.2010   0.0000   0.0000   0.0000   0.3117
  27.600   0.7224   0.34197   0.33799  -0.0681  0.0123  1.0000  -1.1901   0.0000   0.0000   0.0000   0.3120
  27.700   0.7210   0.34233   0.33837  -0.0683  0.0123  1.0000  -1.1791   0.0000   0.0000   0.0000   0.3124
  27.800   0.7196   0.34270   0.33875  -0.0684  0.0123  1.0000  -1.1682   0.0000   0.0000   0.0000   0.3128
  27.900   0.7183   0.34309   0.33914  -0.0686  0.0123  1.0000  -1.1577   0.0000   0.0000   0.0000   0.3132
  28.000   0.7170   0.34348   0.33955  -0.0688  0.0123  1.0000  -1.1474   0.0000   0.0000   0.0000   0.3136
  28.100   0.7158   0.34388   0.33996  -0.0691  0.0122  1.0000  -1.1374   0.0000   0.0000   0.0000   0.3139
  28.200   0.7147   0.34429   0.34038  -0.0693  0.0122  1.0000  -1.1276   0.0000   0.0000   0.0000   0.3143
  28.300   0.7136   0.34471   0.34081  -0.0695  0.0122  1.0000  -1.1182   0.0000   0.0000   0.0000   0.3147
  28.400   0.7126   0.34513   0.34125  -0.0697  0.0122  1.0000  -1.1089   0.0000   0.0000   0.0000   0.3151
  28.500   0.7116   0.34556   0.34169  -0.0700  0.0122  1.0000  -1.0999   0.0000   0.0000   0.0000   0.3155
  28.600   0.7107   0.34600   0.34214  -0.0702  0.0122  1.0000  -1.0911   0.0000   0.0000   0.0000   0.3159
  28.700   0.7098   0.34645   0.34259  -0.0705  0.0122  1.0000  -1.0825   0.0000   0.0000   0.0000   0.3163
  28.800   0.7089   0.34690   0.34306  -0.0707  0.0121  1.0000  -1.0742   0.0000   0.0000   0.0000   0.3166
  28.900   0.7081   0.34735   0.34352  -0.0710  0.0121  1.0000  -1.0655   0.0000   0.0000   0.0000   0.3170
  29.000   0.7072   0.34780   0.34398  -0.0713  0.0121  1.0000  -1.0563   0.0000   0.0000   0.0000   0.3175
  29.100   0.7064   0.34826   0.34445  -0.0715  0.0121  1.0000  -1.0474   0.0000   0.0000   0.0000   0.3179
  29.200   0.7056   0.34873   0.34493  -0.0718  0.0121  1.0000  -1.0388   0.0000   0.0000   0.0000   0.3183
  29.300   0.7049   0.34920   0.34541  -0.0721  0.0121  1.0000  -1.0303   0.0000   0.0000   0.0000   0.3187
  29.400   0.7042   0.34968   0.34590  -0.0724  0.0121  1.0000  -1.0221   0.0000   0.0000   0.0000   0.3191
  29.500   0.7035   0.35016   0.34639  -0.0727  0.0121  1.0000  -1.0140   0.0000   0.0000   0.0000   0.3195
  29.600   0.7029   0.35065   0.34689  -0.0730  0.0120  1.0000  -1.0062   0.0000   0.0000   0.0000   0.3200
  29.700   0.7023   0.35114   0.34739  -0.0733  0.0120  1.0000  -0.9985   0.0000   0.0000   0.0000   0.3204
  29.800   0.7017   0.35164   0.34790  -0.0736  0.0120  1.0000  -0.9911   0.0000   0.0000   0.0000   0.3208
  29.900   0.7012   0.35214   0.34841  -0.0739  0.0120  1.0000  -0.9838   0.0000   0.0000   0.0000   0.3212
  30.000   0.7007   0.35264   0.34893  -0.0743  0.0120  1.0000  -0.9766   0.0000   0.0000   0.0000   0.3216


