xflr5 v6.61

 Calculated polar for: NACA 2412

 1 1 Reynolds number fixed          Mach number fixed         

 xtrf =   1.000 (top)        1.000 (bottom)
 Mach =   0.000     Re =     0.100 e 6     Ncrit =   9.000

  alpha     CL        CD       CDp       Cm    Top Xtr Bot Xtr   Cpmin    Chinge    XCp    
 ------- -------- --------- --------- -------- ------- ------- -------- --------- ---------
 -10.000  -0.4621   0.12057   0.11475  -0.0225  1.0000  0.1498  -1.2769   0.0000   0.0000   0.0000   0.1920
  -9.900  -0.4619   0.11911   0.11331  -0.0232  1.0000  0.1499  -1.2856   0.0000   0.0000   0.0000   0.1906
  -9.800  -0.4618   0.11762   0.11183  -0.0239  1.0000  0.1499  -1.2948   0.0000   0.0000   0.0000   0.1892
  -9.700  -0.4620   0.11610   0.11033  -0.0247  1.0000  0.1500  -1.3045   0.0000   0.0000   0.0000   0.1877
  -9.600  -0.4848   0.10566   0.09998  -0.0267  1.0000  0.1534  -1.4035   0.0000   0.0000   0.0000   0.1862
  -9.500  -0.4836   0.10271   0.09704  -0.0264  1.0000  0.1549  -1.4019   0.0000   0.0000   0.0000   0.1868
  -9.400  -0.4782   0.10084   0.09518  -0.0259  1.0000  0.1559  -1.3877   0.0000   0.0000   0.0000   0.1872
  -9.300  -0.4721   0.09928   0.09362  -0.0254  1.0000  0.1568  -1.3717   0.0000   0.0000   0.0000   0.1876
  -9.200  -0.4668   0.09784   0.09219  -0.0250  1.0000  0.1576  -1.3579   0.0000   0.0000   0.0000   0.1878
  -9.100  -0.4620   0.09649   0.09084  -0.0247  1.0000  0.1585  -1.3461   0.0000   0.0000   0.0000   0.1880
  -9.000  -0.4579   0.09517   0.08954  -0.0245  1.0000  0.1593  -1.3361   0.0000   0.0000   0.0000   0.1880
  -8.900  -0.4542   0.09389   0.08827  -0.0244  1.0000  0.1601  -1.3279   0.0000   0.0000   0.0000   0.1880
  -8.800  -0.4510   0.09263   0.08702  -0.0243  1.0000  0.1609  -1.3213   0.0000   0.0000   0.0000   0.1879
  -8.700  -0.4483   0.09137   0.08578  -0.0242  1.0000  0.1617  -1.3164   0.0000   0.0000   0.0000   0.1878
  -8.600  -0.4461   0.09012   0.08454  -0.0242  1.0000  0.1625  -1.3129   0.0000   0.0000   0.0000   0.1877
  -8.500  -0.4441   0.08887   0.08330  -0.0242  1.0000  0.1633  -1.3104   0.0000   0.0000   0.0000   0.1875
  -8.400  -0.4426   0.08761   0.08206  -0.0243  1.0000  0.1641  -1.3094   0.0000   0.0000   0.0000   0.1873
  -8.300  -0.4417   0.08634   0.08081  -0.0244  1.0000  0.1649  -1.3101   0.0000   0.0000   0.0000   0.1872
  -8.200  -0.4415   0.08506   0.07955  -0.0245  1.0000  0.1657  -1.3126   0.0000   0.0000   0.0000   0.1870
  -8.100  -0.4419   0.08377   0.07829  -0.0246  1.0000  0.1664  -1.3167   0.0000   0.0000   0.0000   0.1870
  -8.000  -0.4431   0.08248   0.07702  -0.0247  1.0000  0.1671  -1.3227   0.0000   0.0000   0.0000   0.1870
  -7.900  -0.4452   0.08116   0.07573  -0.0248  1.0000  0.1677  -1.3307   0.0000   0.0000   0.0000   0.1872
  -7.600  -0.5737   0.05747   0.05144  -0.0378  1.0000  0.1055  -2.0839   0.0000   0.0000   0.0000   0.1777
  -7.500  -0.5661   0.05790   0.05181  -0.0370  1.0000  0.1034  -2.0649   0.0000   0.0000   0.0000   0.1783
  -7.400  -0.5576   0.05843   0.05233  -0.0362  1.0000  0.1022  -2.0330   0.0000   0.0000   0.0000   0.1788
  -7.300  -0.5480   0.05705   0.05098  -0.0356  1.0000  0.0977  -2.0208   0.0000   0.0000   0.0000   0.1786
  -7.200  -0.5583   0.05366   0.04750  -0.0349  1.0000  0.0959  -2.0764   0.0000   0.0000   0.0000   0.1812
  -7.100  -0.5643   0.05119   0.04493  -0.0342  1.0000  0.0945  -2.1127   0.0000   0.0000   0.0000   0.1833
  -7.000  -0.5685   0.04898   0.04260  -0.0334  1.0000  0.0932  -2.1434   0.0000   0.0000   0.0000   0.1852
  -6.900  -0.5714   0.04690   0.04040  -0.0326  1.0000  0.0920  -2.1710   0.0000   0.0000   0.0000   0.1869
  -6.800  -0.5731   0.04490   0.03827  -0.0318  1.0000  0.0907  -2.1967   0.0000   0.0000   0.0000   0.1884
  -6.700  -0.5737   0.04298   0.03619  -0.0311  1.0000  0.0895  -2.2209   0.0000   0.0000   0.0000   0.1898
  -6.600  -0.5732   0.04111   0.03416  -0.0303  1.0000  0.0883  -2.2437   0.0000   0.0000   0.0000   0.1911
  -6.500  -0.5717   0.03931   0.03219  -0.0296  1.0000  0.0872  -2.2648   0.0000   0.0000   0.0000   0.1921
  -6.400  -0.5692   0.03760   0.03029  -0.0290  1.0000  0.0861  -2.2838   0.0000   0.0000   0.0000   0.1931
  -6.300  -0.5659   0.03597   0.02846  -0.0283  1.0000  0.0852  -2.3010   0.0000   0.0000   0.0000   0.1939
  -6.200  -0.5617   0.03446   0.02675  -0.0277  1.0000  0.0843  -2.3150   0.0000   0.0000   0.0000   0.1947
  -6.100  -0.5565   0.03312   0.02522  -0.0272  1.0000  0.0836  -2.3231   0.0000   0.0000   0.0000   0.1952
  -6.000  -0.5505   0.03194   0.02386  -0.0266  1.0000  0.0831  -2.3260   0.0000   0.0000   0.0000   0.1956
  -5.900  -0.5440   0.03086   0.02263  -0.0261  1.0000  0.0826  -2.3253   0.0000   0.0000   0.0000   0.1960
  -5.800  -0.5371   0.02989   0.02151  -0.0257  1.0000  0.0823  -2.3214   0.0000   0.0000   0.0000   0.1962
  -5.700  -0.5297   0.02900   0.02049  -0.0253  1.0000  0.0821  -2.3145   0.0000   0.0000   0.0000   0.1964
  -5.600  -0.5220   0.02819   0.01956  -0.0249  1.0000  0.0820  -2.3050   0.0000   0.0000   0.0000   0.1965
  -5.500  -0.5141   0.02745   0.01871  -0.0245  1.0000  0.0820  -2.2935   0.0000   0.0000   0.0000   0.1965
  -5.400  -0.5059   0.02676   0.01792  -0.0241  1.0000  0.0821  -2.2800   0.0000   0.0000   0.0000   0.1964
  -5.300  -0.4976   0.02613   0.01720  -0.0238  1.0000  0.0823  -2.2650   0.0000   0.0000   0.0000   0.1963
  -5.200  -0.4891   0.02554   0.01653  -0.0235  1.0000  0.0826  -2.2487   0.0000   0.0000   0.0000   0.1961
  -5.100  -0.4805   0.02499   0.01592  -0.0232  1.0000  0.0830  -2.2312   0.0000   0.0000   0.0000   0.1959
  -5.000  -0.4717   0.02448   0.01536  -0.0229  1.0000  0.0835  -2.2127   0.0000   0.0000   0.0000   0.1956
  -4.900  -0.4628   0.02400   0.01483  -0.0227  1.0000  0.0842  -2.1934   0.0000   0.0000   0.0000   0.1952
  -4.800  -0.4537   0.02356   0.01435  -0.0225  1.0000  0.0851  -2.1737   0.0000   0.0000   0.0000   0.1948
  -4.700  -0.4446   0.02314   0.01390  -0.0223  1.0000  0.0862  -2.1539   0.0000   0.0000   0.0000   0.1943
  -4.600  -0.4355   0.02275   0.01348  -0.0220  1.0000  0.0875  -2.1343   0.0000   0.0000   0.0000   0.1938
  -4.500  -0.4263   0.02238   0.01308  -0.0218  1.0000  0.0892  -2.1153   0.0000   0.0000   0.0000   0.1932
  -4.400  -0.4171   0.02204   0.01270  -0.0216  1.0000  0.0912  -2.0974   0.0000   0.0000   0.0000   0.1926
  -4.300  -0.4079   0.02171   0.01235  -0.0214  1.0000  0.0938  -2.0809   0.0000   0.0000   0.0000   0.1920
  -4.200  -0.3987   0.02145   0.01205  -0.0211  1.0000  0.0969  -2.0651   0.0000   0.0000   0.0000   0.1914
  -4.100  -0.3897   0.02132   0.01188  -0.0209  1.0000  0.0998  -2.0472   0.0000   0.0000   0.0000   0.1909
  -4.000  -0.3776   0.01943   0.01017  -0.0209  1.0000  0.1412  -2.1210   0.0000   0.0000   0.0000   0.1890
  -3.900  -0.3680   0.01886   0.00976  -0.0209  1.0000  0.1701  -2.1153   0.0000   0.0000   0.0000   0.1877
  -3.800  -0.3593   0.01870   0.00969  -0.0208  1.0000  0.1883  -2.0859   0.0000   0.0000   0.0000   0.1866
  -3.700  -0.3506   0.01869   0.00961  -0.0206  1.0000  0.1994  -2.0532   0.0000   0.0000   0.0000   0.1857
  -3.600  -0.3418   0.01836   0.00950  -0.0206  1.0000  0.2171  -2.0203   0.0000   0.0000   0.0000   0.1843
  -3.500  -0.3333   0.01823   0.00950  -0.0205  1.0000  0.2315  -1.9845   0.0000   0.0000   0.0000   0.1831
  -3.400  -0.3249   0.01820   0.00947  -0.0203  1.0000  0.2443  -1.9486   0.0000   0.0000   0.0000   0.1820
  -3.300  -0.3164   0.01808   0.00945  -0.0202  1.0000  0.2581  -1.9125   0.0000   0.0000   0.0000   0.1807
  -3.200  -0.3083   0.01793   0.00950  -0.0201  1.0000  0.2732  -1.8753   0.0000   0.0000   0.0000   0.1794
  -3.100  -0.3002   0.01790   0.00952  -0.0200  1.0000  0.2868  -1.8387   0.0000   0.0000   0.0000   0.1783
  -3.000  -0.2895   0.01794   0.00952  -0.0203  0.9992  0.2983  -1.7970   0.0000   0.0000   0.0000   0.1748
  -2.900  -0.2744   0.01770   0.00943  -0.0214  0.9972  0.3303  -1.7490   0.0000   0.0000   0.0000   0.1670
  -2.800  -0.2598   0.01752   0.00949  -0.0224  0.9947  0.3605  -1.6991   0.0000   0.0000   0.0000   0.1586
  -2.700  -0.2447   0.01747   0.00954  -0.0235  0.9917  0.3864  -1.6482   0.0000   0.0000   0.0000   0.1488
  -2.600  -0.2292   0.01743   0.00956  -0.0246  0.9882  0.4144  -1.5968   0.0000   0.0000   0.0000   0.1371
  -2.500  -0.2144   0.01720   0.00968  -0.0255  0.9847  0.4608  -1.5467   0.0000   0.0000   0.0000   0.1253
  -2.400  -0.1983   0.01716   0.00976  -0.0267  0.9804  0.4978  -1.4942   0.0000   0.0000   0.0000   0.1094
  -2.300  -0.1832   0.01694   0.00990  -0.0275  0.9764  0.5531  -1.4439   0.0000   0.0000   0.0000   0.0942
  -2.200  -0.1663   0.01690   0.00998  -0.0286  0.9719  0.5988  -1.3909   0.0000   0.0000   0.0000   0.0718
  -2.100  -0.1510   0.01673   0.01014  -0.0291  0.9678  0.6564  -1.3405   0.0000   0.0000   0.0000   0.0511
  -2.000  -0.1334   0.01672   0.01024  -0.0302  0.9635  0.7031  -1.2870   0.0000   0.0000   0.0000   0.0171
  -1.900  -0.1175   0.01669   0.01044  -0.0304  0.9598  0.7564  -1.2361   0.0000   0.0000   0.0000  -0.0164
  -1.800  -0.0995   0.01679   0.01059  -0.0315  0.9562  0.7985  -1.1826   0.0000   0.0000   0.0000  -0.0746
  -1.700  -0.0798   0.01691   0.01082  -0.0325  0.9535  0.8448  -1.1261   0.0000   0.0000   0.0000  -0.1672
  -1.600  -0.0591   0.01715   0.01108  -0.0340  0.9510  0.8864  -1.0685   0.0000   0.0000   0.0000  -0.3384
  -1.500  -0.0378   0.01725   0.01119  -0.0357  0.9486  0.9188  -1.0109   0.0000   0.0000   0.0000  -0.7110
  -1.400  -0.0173   0.01725   0.01117  -0.0373  0.9459  0.9508  -0.9554   0.0000   0.0000   0.0000  -1.9443
  -1.300   0.0286   0.01734   0.01120  -0.0442  0.9471  0.9781  -0.8568   0.0000   0.0000   0.0000   1.8125
  -1.200   0.0699   0.01740   0.01120  -0.0502  0.9482  0.9975  -0.7685   0.0000   0.0000   0.0000   0.9748
  -1.100   0.0761   0.01724   0.01099  -0.0498  0.9411  1.0000  -0.7419   0.0000   0.0000   0.0000   0.9101
  -1.000   0.0848   0.01715   0.01086  -0.0498  0.9339  1.0000  -0.7109   0.0000   0.0000   0.0000   0.8417
  -0.900   0.0984   0.01710   0.01077  -0.0507  0.9279  1.0000  -0.6721   0.0000   0.0000   0.0000   0.7686
  -0.800   0.1149   0.01707   0.01068  -0.0521  0.9228  1.0000  -0.6287   0.0000   0.0000   0.0000   0.7056
  -0.700   0.1336   0.01703   0.01061  -0.0538  0.9184  1.0000  -0.5821   0.0000   0.0000   0.0000   0.6545
  -0.600   0.1541   0.01699   0.01053  -0.0559  0.9148  1.0000  -0.5333   0.0000   0.0000   0.0000   0.6137
  -0.500   0.1761   0.01695   0.01045  -0.0582  0.9116  1.0000  -0.4985   0.0000   0.0000   0.0000   0.5810
  -0.400   0.1990   0.01689   0.01037  -0.0606  0.9088  1.0000  -0.5143   0.0000   0.0000   0.0000   0.5550
  -0.300   0.2218   0.01684   0.01029  -0.0630  0.9059  1.0000  -0.5302   0.0000   0.0000   0.0000   0.5341
  -0.200   0.2447   0.01679   0.01022  -0.0654  0.9031  1.0000  -0.5462   0.0000   0.0000   0.0000   0.5171
  -0.100   0.2666   0.01680   0.01021  -0.0676  0.8999  1.0000  -0.5618   0.0000   0.0000   0.0000   0.5031
   0.000   0.2579   0.01688   0.01027  -0.0641  0.8923  1.0000  -0.5593   0.0000   0.0000   0.0000   0.4979
   0.100   0.2554   0.01696   0.01033  -0.0617  0.8837  1.0000  -0.5605   0.0000   0.0000   0.0000   0.4909
   0.200   0.2593   0.01701   0.01036  -0.0605  0.8754  1.0000  -0.5659   0.0000   0.0000   0.0000   0.4825
   0.300   0.2676   0.01704   0.01037  -0.0601  0.8677  1.0000  -0.5751   0.0000   0.0000   0.0000   0.4736
   0.400   0.2786   0.01704   0.01036  -0.0601  0.8607  1.0000  -0.5862   0.0000   0.0000   0.0000   0.4648
   0.500   0.2919   0.01701   0.01036  -0.0606  0.8539  1.0000  -0.5987   0.0000   0.0000   0.0000   0.4563
   0.600   0.3067   0.01695   0.01027  -0.0612  0.8476  1.0000  -0.6125   0.0000   0.0000   0.0000   0.4483
   0.700   0.3229   0.01685   0.01015  -0.0621  0.8415  1.0000  -0.6273   0.0000   0.0000   0.0000   0.4409
   0.800   0.3397   0.01674   0.01001  -0.0630  0.8356  1.0000  -0.6426   0.0000   0.0000   0.0000   0.4340
   0.900   0.3566   0.01661   0.00986  -0.0639  0.8298  1.0000  -0.6581   0.0000   0.0000   0.0000   0.4276
   1.000   0.3737   0.01649   0.00972  -0.0648  0.8238  1.0000  -0.6738   0.0000   0.0000   0.0000   0.4218
   1.100   0.3915   0.01642   0.00961  -0.0659  0.8173  1.0000  -0.6899   0.0000   0.0000   0.0000   0.4166
   1.200   0.4083   0.01650   0.00966  -0.0669  0.8091  1.0000  -0.7051   0.0000   0.0000   0.0000   0.4121
   1.300   0.4192   0.01692   0.01007  -0.0672  0.7991  1.0000  -0.7158   0.0000   0.0000   0.0000   0.4084
   1.400   0.4252   0.01693   0.01006  -0.0662  0.7955  1.0000  -0.7252   0.0000   0.0000   0.0000   0.4038
   1.500   0.4314   0.01694   0.01006  -0.0653  0.7908  1.0000  -0.7362   0.0000   0.0000   0.0000   0.3993
   1.600   0.4383   0.01695   0.01006  -0.0645  0.7852  1.0000  -0.7476   0.0000   0.0000   0.0000   0.3950
   1.700   0.4461   0.01696   0.01005  -0.0638  0.7789  1.0000  -0.7638   0.0000   0.0000   0.0000   0.3908
   1.800   0.4549   0.01694   0.01003  -0.0633  0.7722  1.0000  -0.7954   0.0000   0.0000   0.0000   0.3868
   1.900   0.4649   0.01690   0.00997  -0.0630  0.7653  1.0000  -0.8291   0.0000   0.0000   0.0000   0.3830
   2.000   0.4757   0.01684   0.00990  -0.0627  0.7585  1.0000  -0.8648   0.0000   0.0000   0.0000   0.3793
   2.100   0.4872   0.01677   0.00980  -0.0626  0.7519  1.0000  -0.9019   0.0000   0.0000   0.0000   0.3758
   2.200   0.4990   0.01668   0.00970  -0.0625  0.7456  1.0000  -0.9400   0.0000   0.0000   0.0000   0.3725
   2.300   0.5109   0.01661   0.00961  -0.0624  0.7396  1.0000  -0.9785   0.0000   0.0000   0.0000   0.3693
   2.400   0.5236   0.01653   0.00951  -0.0624  0.7335  1.0000  -1.0188   0.0000   0.0000   0.0000   0.3663
   2.500   0.5370   0.01646   0.00940  -0.0626  0.7269  1.0000  -1.0608   0.0000   0.0000   0.0000   0.3635
   2.600   0.5504   0.01645   0.00934  -0.0627  0.7193  1.0000  -1.1031   0.0000   0.0000   0.0000   0.3609
   2.700   0.5632   0.01664   0.00949  -0.0630  0.7090  1.0000  -1.1439   0.0000   0.0000   0.0000   0.3587
   2.800   0.5722   0.01707   0.00991  -0.0628  0.6989  1.0000  -1.1776   0.0000   0.0000   0.0000   0.3566
   2.900   0.5803   0.01705   0.00990  -0.0622  0.6955  1.0000  -1.2113   0.0000   0.0000   0.0000   0.3539
   3.000   0.5884   0.01705   0.00990  -0.0616  0.6913  1.0000  -1.2452   0.0000   0.0000   0.0000   0.3512
   3.100   0.5967   0.01707   0.00993  -0.0610  0.6862  1.0000  -1.2795   0.0000   0.0000   0.0000   0.3487
   3.200   0.6052   0.01711   0.00997  -0.0604  0.6805  1.0000  -1.3145   0.0000   0.0000   0.0000   0.3463
   3.300   0.6142   0.01716   0.01003  -0.0600  0.6744  1.0000  -1.3504   0.0000   0.0000   0.0000   0.3440
   3.400   0.6235   0.01721   0.01007  -0.0596  0.6679  1.0000  -1.3874   0.0000   0.0000   0.0000   0.3418
   3.500   0.6334   0.01722   0.01008  -0.0592  0.6611  1.0000  -1.4259   0.0000   0.0000   0.0000   0.3396
   3.600   0.6438   0.01720   0.01005  -0.0588  0.6541  1.0000  -1.4657   0.0000   0.0000   0.0000   0.3375
   3.700   0.6544   0.01715   0.00999  -0.0585  0.6470  1.0000  -1.5066   0.0000   0.0000   0.0000   0.3354
   3.800   0.6656   0.01709   0.00989  -0.0582  0.6396  1.0000  -1.5491   0.0000   0.0000   0.0000   0.3333
   3.900   0.6775   0.01702   0.00977  -0.0580  0.6316  1.0000  -1.5935   0.0000   0.0000   0.0000   0.3314
   4.000   0.6897   0.01702   0.00969  -0.0578  0.6218  1.0000  -1.6386   0.0000   0.0000   0.0000   0.3295
   4.100   0.7012   0.01731   0.00990  -0.0578  0.6083  1.0000  -1.6815   0.0000   0.0000   0.0000   0.3280
   4.200   0.7100   0.01768   0.01026  -0.0575  0.5983  1.0000  -1.7187   0.0000   0.0000   0.0000   0.3265
   4.300   0.7186   0.01760   0.01020  -0.0569  0.5944  1.0000  -1.7576   0.0000   0.0000   0.0000   0.3246
   4.400   0.7272   0.01755   0.01016  -0.0562  0.5892  1.0000  -1.7966   0.0000   0.0000   0.0000   0.3227
   4.500   0.7359   0.01750   0.01012  -0.0556  0.5826  1.0000  -1.8362   0.0000   0.0000   0.0000   0.3208
   4.600   0.7449   0.01744   0.01006  -0.0550  0.5746  1.0000  -1.8768   0.0000   0.0000   0.0000   0.3190
   4.700   0.7543   0.01735   0.00996  -0.0544  0.5654  1.0000  -1.9188   0.0000   0.0000   0.0000   0.3172
   4.800   0.7638   0.01723   0.00979  -0.0538  0.5552  1.0000  -1.9620   0.0000   0.0000   0.0000   0.3153
   4.900   0.7740   0.01710   0.00957  -0.0532  0.5434  1.0000  -2.0070   0.0000   0.0000   0.0000   0.3135
   5.000   0.7843   0.01702   0.00934  -0.0526  0.5298  1.0000  -2.0529   0.0000   0.0000   0.0000   0.3117
   5.100   0.7949   0.01715   0.00930  -0.0522  0.5120  1.0000  -2.0985   0.0000   0.0000   0.0000   0.3103
   5.200   0.8045   0.01736   0.00944  -0.0519  0.4981  1.0000  -2.1408   0.0000   0.0000   0.0000   0.3090
   5.300   0.8123   0.01726   0.00937  -0.0511  0.4924  1.0000  -2.1811   0.0000   0.0000   0.0000   0.3073
   5.400   0.8203   0.01723   0.00936  -0.0505  0.4848  1.0000  -2.2214   0.0000   0.0000   0.0000   0.3058
   5.500   0.8286   0.01725   0.00941  -0.0499  0.4762  1.0000  -2.2623   0.0000   0.0000   0.0000   0.3044
   5.600   0.8374   0.01731   0.00948  -0.0494  0.4676  1.0000  -2.3036   0.0000   0.0000   0.0000   0.3030
   5.700   0.8463   0.01738   0.00955  -0.0489  0.4583  1.0000  -2.3455   0.0000   0.0000   0.0000   0.3017
   5.800   0.8551   0.01746   0.00958  -0.0484  0.4478  1.0000  -2.3875   0.0000   0.0000   0.0000   0.3004
   5.900   0.8637   0.01755   0.00957  -0.0478  0.4359  1.0000  -2.4295   0.0000   0.0000   0.0000   0.2991
   6.000   0.8719   0.01769   0.00957  -0.0472  0.4220  1.0000  -2.4706   0.0000   0.0000   0.0000   0.2977
   6.100   0.8805   0.01796   0.00972  -0.0466  0.4049  1.0000  -2.5115   0.0000   0.0000   0.0000   0.2964
   6.200   0.8893   0.01808   0.00984  -0.0462  0.3967  1.0000  -2.5529   0.0000   0.0000   0.0000   0.2953
   6.300   0.8977   0.01813   0.00997  -0.0458  0.3903  1.0000  -2.5936   0.0000   0.0000   0.0000   0.2942
   6.400   0.9061   0.01821   0.01010  -0.0453  0.3812  1.0000  -2.6341   0.0000   0.0000   0.0000   0.2931
   6.500   0.9142   0.01832   0.01020  -0.0447  0.3686  1.0000  -2.6738   0.0000   0.0000   0.0000   0.2919
   6.600   0.9219   0.01846   0.01027  -0.0441  0.3524  1.0000  -2.7124   0.0000   0.0000   0.0000   0.2907
   6.700   0.9287   0.01866   0.01031  -0.0432  0.3327  1.0000  -2.7487   0.0000   0.0000   0.0000   0.2893
   6.800   0.9336   0.01897   0.01041  -0.0421  0.3086  1.0000  -2.7797   0.0000   0.0000   0.0000   0.2878
   6.900   0.9402   0.01921   0.01061  -0.0414  0.2872  1.0000  -2.8118   0.0000   0.0000   0.0000   0.2865
   7.000   0.9433   0.01962   0.01076  -0.0401  0.2604  1.0000  -2.8363   0.0000   0.0000   0.0000   0.2848
   7.100   0.9448   0.02022   0.01105  -0.0387  0.2250  1.0000  -2.8515   0.0000   0.0000   0.0000   0.2831
   7.200   0.9424   0.02123   0.01160  -0.0367  0.1743  1.0000  -2.8472   0.0000   0.0000   0.0000   0.2810
   7.300   0.9386   0.02259   0.01255  -0.0345  0.1283  1.0000  -2.8097   0.0000   0.0000   0.0000   0.2787
   7.400   0.9363   0.02388   0.01359  -0.0323  0.1070  1.0000  -2.7728   0.0000   0.0000   0.0000   0.2763
   7.500   0.9391   0.02494   0.01466  -0.0308  0.0985  1.0000  -2.7505   0.0000   0.0000   0.0000   0.2745
   7.600   0.9463   0.02538   0.01515  -0.0302  0.0960  1.0000  -2.7673   0.0000   0.0000   0.0000   0.2734
   7.700   0.9533   0.02587   0.01566  -0.0295  0.0936  1.0000  -2.7845   0.0000   0.0000   0.0000   0.2724
   7.800   0.9604   0.02638   0.01620  -0.0288  0.0917  1.0000  -2.8029   0.0000   0.0000   0.0000   0.2713
   7.900   0.9677   0.02690   0.01674  -0.0282  0.0900  1.0000  -2.8229   0.0000   0.0000   0.0000   0.2704
   8.000   0.9754   0.02743   0.01729  -0.0277  0.0886  1.0000  -2.8441   0.0000   0.0000   0.0000   0.2695
   8.100   0.9830   0.02798   0.01786  -0.0272  0.0874  1.0000  -2.8658   0.0000   0.0000   0.0000   0.2686
   8.200   0.9908   0.02854   0.01844  -0.0267  0.0864  1.0000  -2.8883   0.0000   0.0000   0.0000   0.2678
   8.300   0.9989   0.02913   0.01905  -0.0262  0.0855  1.0000  -2.9113   0.0000   0.0000   0.0000   0.2670
   8.400   1.0072   0.02974   0.01969  -0.0258  0.0847  1.0000  -2.9349   0.0000   0.0000   0.0000   0.2662
   8.500   1.0154   0.03038   0.02036  -0.0254  0.0841  1.0000  -2.9581   0.0000   0.0000   0.0000   0.2655
   8.600   1.0237   0.03104   0.02106  -0.0250  0.0836  1.0000  -2.9812   0.0000   0.0000   0.0000   0.2648
   8.700   1.0322   0.03174   0.02179  -0.0247  0.0831  1.0000  -3.0042   0.0000   0.0000   0.0000   0.2642
   8.800   1.0407   0.03246   0.02257  -0.0243  0.0827  1.0000  -3.0268   0.0000   0.0000   0.0000   0.2635
   8.900   1.0490   0.03323   0.02339  -0.0240  0.0824  1.0000  -3.0487   0.0000   0.0000   0.0000   0.2629
   9.000   1.0573   0.03402   0.02424  -0.0236  0.0822  1.0000  -3.0700   0.0000   0.0000   0.0000   0.2622
   9.100   1.0655   0.03485   0.02515  -0.0233  0.0821  1.0000  -3.0905   0.0000   0.0000   0.0000   0.2616
   9.200   1.0732   0.03571   0.02609  -0.0228  0.0820  1.0000  -3.1095   0.0000   0.0000   0.0000   0.2609
   9.300   1.0596   0.03542   0.02625  -0.0204  0.0632  1.0000  -3.2914   0.0000   0.0000   0.0000   0.2587
   9.400   1.0605   0.03580   0.02652  -0.0193  0.0585  1.0000  -3.3672   0.0000   0.0000   0.0000   0.2574
   9.500   1.0627   0.03652   0.02714  -0.0185  0.0552  1.0000  -3.4267   0.0000   0.0000   0.0000   0.2565
   9.600   1.0674   0.03815   0.02876  -0.0180  0.0522  1.0000  -3.4586   0.0000   0.0000   0.0000   0.2558
   9.800   1.0763   0.04073   0.03148  -0.0168  0.0491  1.0000  -3.5198   0.0000   0.0000   0.0000   0.2543
   9.900   1.0804   0.04088   0.03167  -0.0159  0.0481  1.0000  -3.5782   0.0000   0.0000   0.0000   0.2533
  10.000   1.0838   0.04121   0.03205  -0.0150  0.0470  1.0000  -3.6280   0.0000   0.0000   0.0000   0.2523
  10.100   1.0870   0.04167   0.03256  -0.0141  0.0460  1.0000  -3.6736   0.0000   0.0000   0.0000   0.2512
  10.200   1.0903   0.04223   0.03317  -0.0132  0.0449  1.0000  -3.7164   0.0000   0.0000   0.0000   0.2503
  10.300   1.0933   0.04286   0.03386  -0.0124  0.0439  1.0000  -3.7566   0.0000   0.0000   0.0000   0.2493
  10.400   1.0960   0.04355   0.03461  -0.0115  0.0430  1.0000  -3.7947   0.0000   0.0000   0.0000   0.2483
  10.500   1.0984   0.04428   0.03540  -0.0107  0.0421  1.0000  -3.8305   0.0000   0.0000   0.0000   0.2474
  10.600   1.1003   0.04506   0.03624  -0.0098  0.0414  1.0000  -3.8639   0.0000   0.0000   0.0000   0.2464
  10.700   1.1016   0.04588   0.03713  -0.0089  0.0406  1.0000  -3.8941   0.0000   0.0000   0.0000   0.2454
  10.800   1.1024   0.04674   0.03806  -0.0080  0.0400  1.0000  -3.9224   0.0000   0.0000   0.0000   0.2444
  10.900   1.1030   0.04765   0.03904  -0.0071  0.0394  1.0000  -3.9489   0.0000   0.0000   0.0000   0.2435
  11.000   1.1032   0.04859   0.04006  -0.0062  0.0388  1.0000  -3.9737   0.0000   0.0000   0.0000   0.2426
  11.100   1.1030   0.04958   0.04112  -0.0054  0.0383  1.0000  -3.9963   0.0000   0.0000   0.0000   0.2416
  11.200   1.1021   0.05061   0.04223  -0.0046  0.0379  1.0000  -4.0159   0.0000   0.0000   0.0000   0.2408
  11.300   1.1008   0.05169   0.04338  -0.0038  0.0375  1.0000  -4.0334   0.0000   0.0000   0.0000   0.2399
  11.400   1.0992   0.05280   0.04458  -0.0031  0.0371  1.0000  -4.0494   0.0000   0.0000   0.0000   0.2391
  11.500   1.0972   0.05395   0.04581  -0.0024  0.0368  1.0000  -4.0631   0.0000   0.0000   0.0000   0.2383
  11.600   1.0948   0.05515   0.04709  -0.0017  0.0365  1.0000  -4.0743   0.0000   0.0000   0.0000   0.2375
  11.700   1.0920   0.05641   0.04843  -0.0011  0.0363  1.0000  -4.0831   0.0000   0.0000   0.0000   0.2368
  11.800   1.0886   0.05773   0.04984  -0.0006  0.0360  1.0000  -4.0889   0.0000   0.0000   0.0000   0.2361
  11.900   1.0842   0.05915   0.05135  -0.0001  0.0359  1.0000  -4.0897   0.0000   0.0000   0.0000   0.2355
  12.000   1.0791   0.06067   0.05295   0.0002  0.0357  1.0000  -4.0866   0.0000   0.0000   0.0000   0.2351
  12.100   1.0739   0.06226   0.05464   0.0004  0.0356  1.0000  -4.0816   0.0000   0.0000   0.0000   0.2347
  12.200   1.0685   0.06393   0.05640   0.0005  0.0355  1.0000  -4.0744   0.0000   0.0000   0.0000   0.2344
  12.300   1.0626   0.06569   0.05825   0.0005  0.0355  1.0000  -4.0639   0.0000   0.0000   0.0000   0.2342
  12.400   1.0559   0.06758   0.06024   0.0004  0.0354  1.0000  -4.0483   0.0000   0.0000   0.0000   0.2341
  12.500   1.0478   0.06966   0.06241   0.0000  0.0355  1.0000  -4.0248   0.0000   0.0000   0.0000   0.2343
  12.600   1.0396   0.07183   0.06468  -0.0005  0.0355  1.0000  -3.9990   0.0000   0.0000   0.0000   0.2346
  12.700   1.0311   0.07411   0.06705  -0.0011  0.0356  1.0000  -3.9699   0.0000   0.0000   0.0000   0.2349
  12.800   1.0219   0.07651   0.06955  -0.0018  0.0357  1.0000  -3.9352   0.0000   0.0000   0.0000   0.2355
  12.900   1.0107   0.07924   0.07238  -0.0029  0.0359  1.0000  -3.8884   0.0000   0.0000   0.0000   0.2364
  13.000   0.9993   0.08216   0.07541  -0.0042  0.0362  1.0000  -3.8373   0.0000   0.0000   0.0000   0.2375
  13.100   0.9881   0.08523   0.07858  -0.0057  0.0364  1.0000  -3.7832   0.0000   0.0000   0.0000   0.2389
  13.200   0.9759   0.08860   0.08205  -0.0074  0.0367  1.0000  -3.7201   0.0000   0.0000   0.0000   0.2405
  13.300   0.9599   0.09285   0.08641  -0.0099  0.0373  1.0000  -3.6272   0.0000   0.0000   0.0000   0.2431
  13.400   0.9444   0.09728   0.09094  -0.0125  0.0379  1.0000  -3.5293   0.0000   0.0000   0.0000   0.2459
  13.500   0.9271   0.10235   0.09612  -0.0157  0.0387  1.0000  -3.4099   0.0000   0.0000   0.0000   0.2494
  13.600   0.9065   0.10860   0.10247  -0.0197  0.0400  1.0000  -3.2532   0.0000   0.0000   0.0000   0.2542
  13.700   0.8887   0.11462   0.10857  -0.0234  0.0412  1.0000  -3.1018   0.0000   0.0000   0.0000   0.2588
  13.800   0.8716   0.12092   0.11493  -0.0271  0.0427  1.0000  -2.9407   0.0000   0.0000   0.0000   0.2637
  13.900   0.8588   0.12641   0.12044  -0.0302  0.0440  1.0000  -2.8059   0.0000   0.0000   0.0000   0.2678
  14.000   0.8495   0.13105   0.12509  -0.0325  0.0449  1.0000  -2.6992   0.0000   0.0000   0.0000   0.2710
  14.100   0.8424   0.13514   0.12919  -0.0345  0.0456  1.0000  -2.6104   0.0000   0.0000   0.0000   0.2737
  14.200   0.8368   0.13882   0.13287  -0.0362  0.0461  1.0000  -2.5361   0.0000   0.0000   0.0000   0.2760
  14.300   0.8322   0.14220   0.13624  -0.0378  0.0465  1.0000  -2.4725   0.0000   0.0000   0.0000   0.2780
  14.400   0.8284   0.14537   0.13940  -0.0392  0.0468  1.0000  -2.4164   0.0000   0.0000   0.0000   0.2799
  14.500   0.8252   0.14839   0.14241  -0.0406  0.0469  1.0000  -2.3660   0.0000   0.0000   0.0000   0.2817
  14.600   0.8225   0.15128   0.14530  -0.0419  0.0471  1.0000  -2.3200   0.0000   0.0000   0.0000   0.2834
  14.700   0.8201   0.15406   0.14807  -0.0431  0.0472  1.0000  -2.2775   0.0000   0.0000   0.0000   0.2851
  14.800   0.8182   0.15671   0.15071  -0.0443  0.0472  1.0000  -2.2380   0.0000   0.0000   0.0000   0.2866
  14.900   0.8165   0.15928   0.15326  -0.0455  0.0472  1.0000  -2.2011   0.0000   0.0000   0.0000   0.2881
  15.000   0.8152   0.16178   0.15576  -0.0467  0.0472  1.0000  -2.1663   0.0000   0.0000   0.0000   0.2896
  15.100   0.8141   0.16424   0.15820  -0.0478  0.0472  1.0000  -2.1334   0.0000   0.0000   0.0000   0.2909
  15.200   0.8132   0.16667   0.16063  -0.0489  0.0472  1.0000  -2.1022   0.0000   0.0000   0.0000   0.2923
  15.300   0.8124   0.16908   0.16303  -0.0500  0.0472  1.0000  -2.0724   0.0000   0.0000   0.0000   0.2936
  15.400   0.8119   0.17148   0.16542  -0.0510  0.0473  1.0000  -2.0443   0.0000   0.0000   0.0000   0.2948
  15.500   0.8115   0.17387   0.16781  -0.0520  0.0473  1.0000  -2.0176   0.0000   0.0000   0.0000   0.2960
  15.600   0.8112   0.17626   0.17018  -0.0529  0.0475  1.0000  -1.9925   0.0000   0.0000   0.0000   0.2971
  15.700   0.8111   0.17864   0.17255  -0.0538  0.0476  1.0000  -1.9689   0.0000   0.0000   0.0000   0.2981
  15.800   0.8111   0.18104   0.17494  -0.0547  0.0479  1.0000  -1.9468   0.0000   0.0000   0.0000   0.2990
  15.900   0.8112   0.18352   0.17742  -0.0553  0.0483  1.0000  -1.9260   0.0000   0.0000   0.0000   0.2998
  16.400   0.8219   0.20669   0.20067  -0.0575  0.0748  1.0000  -1.6706   0.0000   0.0000   0.0000   0.3017
  16.500   0.8232   0.20897   0.20294  -0.0583  0.0748  1.0000  -1.6614   0.0000   0.0000   0.0000   0.3024
  16.600   0.8245   0.21122   0.20518  -0.0591  0.0748  1.0000  -1.6525   0.0000   0.0000   0.0000   0.3032
  16.700   0.8259   0.21344   0.20740  -0.0599  0.0748  1.0000  -1.6439   0.0000   0.0000   0.0000   0.3039
  16.800   0.8273   0.21563   0.20958  -0.0607  0.0748  1.0000  -1.6355   0.0000   0.0000   0.0000   0.3047
  16.900   0.8287   0.21779   0.21173  -0.0615  0.0747  1.0000  -1.6272   0.0000   0.0000   0.0000   0.3054
  17.000   0.8301   0.21991   0.21384  -0.0623  0.0747  1.0000  -1.6190   0.0000   0.0000   0.0000   0.3062
  17.100   0.8315   0.22199   0.21592  -0.0632  0.0747  1.0000  -1.6109   0.0000   0.0000   0.0000   0.3069
  17.200   0.8329   0.22403   0.21795  -0.0640  0.0746  1.0000  -1.6028   0.0000   0.0000   0.0000   0.3077
  17.300   0.8343   0.22602   0.21993  -0.0648  0.0746  1.0000  -1.5947   0.0000   0.0000   0.0000   0.3084
  17.400   0.8357   0.22797   0.22187  -0.0657  0.0745  1.0000  -1.5864   0.0000   0.0000   0.0000   0.3092
  17.500   0.8370   0.22984   0.22374  -0.0666  0.0744  1.0000  -1.5779   0.0000   0.0000   0.0000   0.3100
  17.600   0.8383   0.23163   0.22552  -0.0675  0.0743  1.0000  -1.5691   0.0000   0.0000   0.0000   0.3108
  17.700   0.8393   0.23330   0.22719  -0.0684  0.0742  1.0000  -1.5581   0.0000   0.0000   0.0000   0.3118
  17.800   0.8394   0.23479   0.22866  -0.0696  0.0740  1.0000  -1.5418   0.0000   0.0000   0.0000   0.3130
  17.900   0.8392   0.23607   0.22994  -0.0709  0.0738  1.0000  -1.5234   0.0000   0.0000   0.0000   0.3144
  18.000   0.8386   0.23713   0.23099  -0.0723  0.0735  1.0000  -1.5016   0.0000   0.0000   0.0000   0.3160
  18.100   0.8367   0.23775   0.23160  -0.0740  0.0729  1.0000  -1.4714   0.0000   0.0000   0.0000   0.3181
  18.200   0.8341   0.23822   0.23207  -0.0760  0.0720  1.0000  -1.4345   0.0000   0.0000   0.0000   0.3206
  18.300   0.8331   0.23926   0.23310  -0.0777  0.0707  1.0000  -1.4054   0.0000   0.0000   0.0000   0.3226
  18.400   0.8336   0.24081   0.23465  -0.0789  0.0694  1.0000  -1.3892   0.0000   0.0000   0.0000   0.3239
  18.500   0.8347   0.24255   0.23637  -0.0799  0.0682  1.0000  -1.3796   0.0000   0.0000   0.0000   0.3248
  18.600   0.8361   0.24434   0.23817  -0.0808  0.0672  1.0000  -1.3734   0.0000   0.0000   0.0000   0.3256
  18.700   0.8376   0.24617   0.23999  -0.0815  0.0662  1.0000  -1.3693   0.0000   0.0000   0.0000   0.3262
  18.800   0.8392   0.24800   0.24182  -0.0823  0.0653  1.0000  -1.3666   0.0000   0.0000   0.0000   0.3267
  18.900   0.8409   0.24984   0.24366  -0.0829  0.0645  1.0000  -1.3649   0.0000   0.0000   0.0000   0.3272
  19.000   0.8426   0.25168   0.24549  -0.0836  0.0637  1.0000  -1.3641   0.0000   0.0000   0.0000   0.3276
  19.100   0.8444   0.25352   0.24733  -0.0842  0.0629  1.0000  -1.3640   0.0000   0.0000   0.0000   0.3280
  19.200   0.8462   0.25536   0.24916  -0.0848  0.0622  1.0000  -1.3645   0.0000   0.0000   0.0000   0.3283
  19.300   0.8480   0.25720   0.25100  -0.0854  0.0615  1.0000  -1.3657   0.0000   0.0000   0.0000   0.3287
  19.400   0.8499   0.25903   0.25283  -0.0860  0.0608  1.0000  -1.3674   0.0000   0.0000   0.0000   0.3290
  19.500   0.8517   0.26087   0.25466  -0.0866  0.0602  1.0000  -1.3696   0.0000   0.0000   0.0000   0.3292
  19.600   0.8536   0.26270   0.25649  -0.0871  0.0596  1.0000  -1.3724   0.0000   0.0000   0.0000   0.3295
  19.700   0.8555   0.26453   0.25832  -0.0876  0.0590  1.0000  -1.3757   0.0000   0.0000   0.0000   0.3297
  19.800   0.8574   0.26636   0.26015  -0.0881  0.0584  1.0000  -1.3797   0.0000   0.0000   0.0000   0.3299
  19.900   0.8593   0.26820   0.26198  -0.0886  0.0579  1.0000  -1.3842   0.0000   0.0000   0.0000   0.3301
  20.000   0.8613   0.27003   0.26381  -0.0890  0.0573  1.0000  -1.3894   0.0000   0.0000   0.0000   0.3302
  20.100   0.8632   0.27187   0.26565  -0.0895  0.0568  1.0000  -1.3952   0.0000   0.0000   0.0000   0.3303
  20.200   0.8652   0.27371   0.26749  -0.0899  0.0563  1.0000  -1.4018   0.0000   0.0000   0.0000   0.3304
  20.300   0.8672   0.27556   0.26934  -0.0903  0.0559  1.0000  -1.4092   0.0000   0.0000   0.0000   0.3304
  20.400   0.8693   0.27742   0.27120  -0.0906  0.0554  1.0000  -1.4175   0.0000   0.0000   0.0000   0.3304
  20.500   0.8714   0.27930   0.27308  -0.0909  0.0550  1.0000  -1.4268   0.0000   0.0000   0.0000   0.3304
  20.600   0.8736   0.28121   0.27498  -0.0912  0.0546  1.0000  -1.4372   0.0000   0.0000   0.0000   0.3303
  20.700   0.8758   0.28315   0.27693  -0.0914  0.0541  1.0000  -1.4488   0.0000   0.0000   0.0000   0.3301
  20.800   0.8781   0.28515   0.27892  -0.0916  0.0537  1.0000  -1.4617   0.0000   0.0000   0.0000   0.3299
  20.900   0.8806   0.28722   0.28100  -0.0917  0.0533  1.0000  -1.4763   0.0000   0.0000   0.0000   0.3295
  21.000   0.8833   0.28941   0.28318  -0.0918  0.0530  1.0000  -1.4928   0.0000   0.0000   0.0000   0.3291
  21.100   0.8862   0.29176   0.28554  -0.0917  0.0526  1.0000  -1.5117   0.0000   0.0000   0.0000   0.3286
  21.200   0.8896   0.29440   0.28818  -0.0916  0.0522  1.0000  -1.5335   0.0000   0.0000   0.0000   0.3279
  21.300   0.8936   0.29754   0.29132  -0.0913  0.0518  1.0000  -1.5591   0.0000   0.0000   0.0000   0.3270
  21.400   0.8991   0.30186   0.29565  -0.0907  0.0513  1.0000  -1.5916   0.0000   0.0000   0.0000   0.3256
  21.500   0.8976   0.31417   0.30790  -0.0903  0.0500  1.0000  -1.5469   0.0000   0.0000   0.0000   0.3255
  21.600   0.8985   0.31621   0.30995  -0.0909  0.0500  1.0000  -1.5414   0.0000   0.0000   0.0000   0.3259
  21.700   0.8994   0.31824   0.31198  -0.0915  0.0500  1.0000  -1.5359   0.0000   0.0000   0.0000   0.3263
  21.800   0.9002   0.32024   0.31398  -0.0921  0.0499  1.0000  -1.5302   0.0000   0.0000   0.0000   0.3267
  21.900   0.9009   0.32222   0.31597  -0.0927  0.0499  1.0000  -1.5245   0.0000   0.0000   0.0000   0.3272
  22.000   0.9016   0.32418   0.31793  -0.0933  0.0499  1.0000  -1.5186   0.0000   0.0000   0.0000   0.3276
  22.100   0.9022   0.32612   0.31987  -0.0938  0.0499  1.0000  -1.5128   0.0000   0.0000   0.0000   0.3280
  22.200   0.9028   0.32804   0.32180  -0.0944  0.0499  1.0000  -1.5068   0.0000   0.0000   0.0000   0.3284
  22.300   0.9032   0.32993   0.32369  -0.0950  0.0498  1.0000  -1.5007   0.0000   0.0000   0.0000   0.3288
  22.400   0.9036   0.33179   0.32555  -0.0955  0.0498  1.0000  -1.4944   0.0000   0.0000   0.0000   0.3292
  22.500   0.9039   0.33361   0.32738  -0.0960  0.0498  1.0000  -1.4880   0.0000   0.0000   0.0000   0.3296
  22.600   0.9041   0.33541   0.32919  -0.0965  0.0497  1.0000  -1.4815   0.0000   0.0000   0.0000   0.3300
  22.700   0.9042   0.33719   0.33096  -0.0970  0.0497  1.0000  -1.4749   0.0000   0.0000   0.0000   0.3305
  22.800   0.9042   0.33891   0.33270  -0.0975  0.0497  1.0000  -1.4681   0.0000   0.0000   0.0000   0.3309
  22.900   0.9045   0.34044   0.33438  -0.0980  0.0496  1.0000  -1.4624   0.0000   0.0000   0.0000   0.3312
  23.000   0.9043   0.34206   0.33602  -0.0985  0.0496  1.0000  -1.4550   0.0000   0.0000   0.0000   0.3316
  23.100   0.9036   0.34360   0.33756  -0.0989  0.0496  1.0000  -1.4459   0.0000   0.0000   0.0000   0.3320
  23.200   0.9025   0.34500   0.33898  -0.0994  0.0495  1.0000  -1.4350   0.0000   0.0000   0.0000   0.3326
  23.300   0.9010   0.34631   0.34029  -0.0998  0.0495  1.0000  -1.4231   0.0000   0.0000   0.0000   0.3331
  23.400   0.8990   0.34750   0.34149  -0.1003  0.0494  1.0000  -1.4099   0.0000   0.0000   0.0000   0.3337
  23.500   0.8969   0.34862   0.34262  -0.1006  0.0494  1.0000  -1.3964   0.0000   0.0000   0.0000   0.3342
  23.600   0.8928   0.34887   0.34288  -0.1011  0.0492  1.0000  -1.3752   0.0000   0.0000   0.0000   0.3351
  23.700   0.8880   0.34874   0.34277  -0.1015  0.0490  1.0000  -1.3507   0.0000   0.0000   0.0000   0.3361
  23.800   0.8826   0.34841   0.34244  -0.1019  0.0488  1.0000  -1.3244   0.0000   0.0000   0.0000   0.3371
  23.900   0.8767   0.34787   0.34192  -0.1022  0.0485  1.0000  -1.2958   0.0000   0.0000   0.0000   0.3382
  24.000   0.8703   0.34717   0.34123  -0.1025  0.0480  1.0000  -1.2647   0.0000   0.0000   0.0000   0.3393
  24.100   0.8277   0.33822   0.33240  -0.0956  0.0482  1.0000  -1.1831   0.0000   0.0000   0.0000   0.3381
  24.200   0.8152   0.33532   0.32954  -0.0946  0.0477  1.0000  -1.1440   0.0000   0.0000   0.0000   0.3388
  24.300   0.8079   0.33385   0.32810  -0.0944  0.0470  1.0000  -1.1134   0.0000   0.0000   0.0000   0.3397
  24.400   0.8029   0.33323   0.32750  -0.0944  0.0461  1.0000  -1.0900   0.0000   0.0000   0.0000   0.3404
  24.500   0.7988   0.33299   0.32728  -0.0943  0.0451  1.0000  -1.0721   0.0000   0.0000   0.0000   0.3409
  24.600   0.7950   0.33291   0.32722  -0.0941  0.0442  1.0000  -1.0576   0.0000   0.0000   0.0000   0.3413
  24.700   0.7915   0.33291   0.32723  -0.0940  0.0433  1.0000  -1.0455   0.0000   0.0000   0.0000   0.3416
  24.800   0.7882   0.33295   0.32730  -0.0938  0.0424  1.0000  -1.0350   0.0000   0.0000   0.0000   0.3419
  24.900   0.7852   0.33304   0.32740  -0.0936  0.0415  1.0000  -1.0259   0.0000   0.0000   0.0000   0.3421
  25.000   0.7823   0.33316   0.32754  -0.0935  0.0407  1.0000  -1.0179   0.0000   0.0000   0.0000   0.3423
  25.100   0.7797   0.33330   0.32769  -0.0934  0.0398  1.0000  -1.0108   0.0000   0.0000   0.0000   0.3425
  25.200   0.7772   0.33346   0.32786  -0.0932  0.0391  1.0000  -1.0045   0.0000   0.0000   0.0000   0.3427
  25.300   0.7749   0.33363   0.32806  -0.0932  0.0383  1.0000  -0.9990   0.0000   0.0000   0.0000   0.3429
  25.400   0.7727   0.33382   0.32826  -0.0931  0.0375  1.0000  -0.9943   0.0000   0.0000   0.0000   0.3431
  25.500   0.7707   0.33403   0.32848  -0.0930  0.0368  1.0000  -0.9902   0.0000   0.0000   0.0000   0.3432
  25.600   0.7688   0.33425   0.32871  -0.0929  0.0361  1.0000  -0.9868   0.0000   0.0000   0.0000   0.3434
  25.700   0.7671   0.33448   0.32896  -0.0929  0.0354  1.0000  -0.9841   0.0000   0.0000   0.0000   0.3436
  25.800   0.7654   0.33471   0.32920  -0.0929  0.0348  1.0000  -0.9821   0.0000   0.0000   0.0000   0.3437
  25.900   0.7639   0.33495   0.32946  -0.0928  0.0342  1.0000  -0.9808   0.0000   0.0000   0.0000   0.3438
  26.000   0.7624   0.33519   0.32971  -0.0928  0.0335  1.0000  -0.9802   0.0000   0.0000   0.0000   0.3440
  26.100   0.7611   0.33544   0.32997  -0.0928  0.0330  1.0000  -0.9803   0.0000   0.0000   0.0000   0.3441
  26.200   0.7598   0.33569   0.33023  -0.0928  0.0324  1.0000  -0.9812   0.0000   0.0000   0.0000   0.3442
  26.300   0.7586   0.33594   0.33049  -0.0928  0.0318  1.0000  -0.9829   0.0000   0.0000   0.0000   0.3442
  26.400   0.7575   0.33618   0.33075  -0.0928  0.0313  1.0000  -0.9854   0.0000   0.0000   0.0000   0.3443
  26.500   0.7565   0.33643   0.33100  -0.0927  0.0308  1.0000  -0.9889   0.0000   0.0000   0.0000   0.3443
  26.600   0.7556   0.33668   0.33126  -0.0927  0.0303  1.0000  -0.9934   0.0000   0.0000   0.0000   0.3443
  26.700   0.7547   0.33693   0.33152  -0.0927  0.0298  1.0000  -0.9990   0.0000   0.0000   0.0000   0.3443
  26.800   0.7539   0.33718   0.33178  -0.0926  0.0294  1.0000  -1.0057   0.0000   0.0000   0.0000   0.3443
  26.900   0.7532   0.33745   0.33207  -0.0926  0.0289  1.0000  -1.0137   0.0000   0.0000   0.0000   0.3442
  27.000   0.7526   0.33775   0.33237  -0.0925  0.0285  1.0000  -1.0231   0.0000   0.0000   0.0000   0.3440
  27.100   0.7522   0.33810   0.33273  -0.0923  0.0281  1.0000  -1.0341   0.0000   0.0000   0.0000   0.3438
  27.200   0.7519   0.33853   0.33318  -0.0922  0.0277  1.0000  -1.0469   0.0000   0.0000   0.0000   0.3435
  27.300   0.7518   0.33912   0.33377  -0.0920  0.0274  1.0000  -1.0619   0.0000   0.0000   0.0000   0.3431
  27.400   0.7522   0.34000   0.33466  -0.0917  0.0270  1.0000  -1.0796   0.0000   0.0000   0.0000   0.3426
  27.500   0.7531   0.34147   0.33614  -0.0914  0.0266  1.0000  -1.1006   0.0000   0.0000   0.0000   0.3419
  27.600   0.7559   0.34474   0.33942  -0.0910  0.0261  1.0000  -1.1273   0.0000   0.0000   0.0000   0.3407
  28.800   0.7387   0.35419   0.34895  -0.0931  0.0246  1.0000  -0.9668   0.0000   0.0000   0.0000   0.3457
  28.900   0.7375   0.35393   0.34871  -0.0934  0.0245  1.0000  -0.9593   0.0000   0.0000   0.0000   0.3462
  29.000   0.7359   0.35348   0.34827  -0.0937  0.0244  1.0000  -0.9496   0.0000   0.0000   0.0000   0.3468
  29.100   0.7344   0.35298   0.34779  -0.0941  0.0244  1.0000  -0.9396   0.0000   0.0000   0.0000   0.3474
  29.200   0.7330   0.35250   0.34732  -0.0945  0.0242  1.0000  -0.9295   0.0000   0.0000   0.0000   0.3481
  29.300   0.7317   0.35204   0.34687  -0.0949  0.0241  1.0000  -0.9194   0.0000   0.0000   0.0000   0.3487
  29.400   0.7307   0.35162   0.34646  -0.0954  0.0239  1.0000  -0.9091   0.0000   0.0000   0.0000   0.3494
  29.500   0.7299   0.35128   0.34613  -0.0960  0.0237  1.0000  -0.8983   0.0000   0.0000   0.0000   0.3502
  29.600   0.7296   0.35113   0.34599  -0.0966  0.0234  1.0000  -0.8867   0.0000   0.0000   0.0000   0.3510
  29.700   0.7297   0.35129   0.34617  -0.0974  0.0229  1.0000  -0.8746   0.0000   0.0000   0.0000   0.3518
  29.800   0.7303   0.35179   0.34668  -0.0981  0.0223  1.0000  -0.8633   0.0000   0.0000   0.0000   0.3526
  29.900   0.7308   0.35246   0.34736  -0.0987  0.0217  1.0000  -0.8542   0.0000   0.0000   0.0000   0.3531
  30.000   0.7310   0.35315   0.34806  -0.0992  0.0211  1.0000  -0.8475   0.0000   0.0000   0.0000   0.3536


