xflr5 v6.61

 Calculated polar for: NACA 2415

 1 1 Reynolds number fixed          Mach number fixed         

 xtrf =   1.000 (top)        1.000 (bottom)
 Mach =   0.000     Re =     0.400 e 6     Ncrit =   9.000

  alpha     CL        CD       CDp       Cm    Top Xtr Bot Xtr   Cpmin    Chinge    XCp    
 ------- -------- --------- --------- -------- ------- ------- -------- --------- ---------
 -10.000  -0.9204   0.02266   0.01657  -0.0331  0.9963  0.0315  -4.5697   0.0000   0.0000   0.0000   0.2013
  -9.900  -0.9103   0.02228   0.01615  -0.0332  0.9954  0.0317  -4.5214   0.0000   0.0000   0.0000   0.2008
  -9.800  -0.8997   0.02190   0.01573  -0.0335  0.9944  0.0319  -4.4719   0.0000   0.0000   0.0000   0.2003
  -9.700  -0.8887   0.02153   0.01533  -0.0337  0.9933  0.0322  -4.4214   0.0000   0.0000   0.0000   0.1996
  -9.600  -0.8773   0.02117   0.01493  -0.0341  0.9920  0.0324  -4.3698   0.0000   0.0000   0.0000   0.1988
  -9.500  -0.8655   0.02082   0.01455  -0.0345  0.9905  0.0327  -4.3175   0.0000   0.0000   0.0000   0.1979
  -9.400  -0.8535   0.02048   0.01417  -0.0350  0.9890  0.0329  -4.2645   0.0000   0.0000   0.0000   0.1969
  -9.300  -0.8414   0.02015   0.01381  -0.0354  0.9874  0.0332  -4.2112   0.0000   0.0000   0.0000   0.1958
  -9.200  -0.8292   0.01983   0.01346  -0.0359  0.9857  0.0335  -4.1577   0.0000   0.0000   0.0000   0.1947
  -9.100  -0.8170   0.01952   0.01312  -0.0364  0.9840  0.0338  -4.1043   0.0000   0.0000   0.0000   0.1936
  -9.000  -0.8051   0.01923   0.01281  -0.0368  0.9824  0.0342  -4.0515   0.0000   0.0000   0.0000   0.1925
  -8.900  -0.7934   0.01896   0.01250  -0.0371  0.9808  0.0345  -3.9991   0.0000   0.0000   0.0000   0.1914
  -8.800  -0.7816   0.01869   0.01221  -0.0375  0.9793  0.0349  -3.9461   0.0000   0.0000   0.0000   0.1903
  -8.700  -0.7695   0.01843   0.01193  -0.0379  0.9777  0.0353  -3.8924   0.0000   0.0000   0.0000   0.1891
  -8.600  -0.7573   0.01819   0.01166  -0.0383  0.9762  0.0357  -3.8377   0.0000   0.0000   0.0000   0.1878
  -8.500  -0.7447   0.01795   0.01141  -0.0388  0.9746  0.0362  -3.7819   0.0000   0.0000   0.0000   0.1863
  -8.400  -0.7317   0.01772   0.01116  -0.0394  0.9730  0.0367  -3.7238   0.0000   0.0000   0.0000   0.1847
  -8.300  -0.7182   0.01750   0.01093  -0.0401  0.9714  0.0374  -3.6627   0.0000   0.0000   0.0000   0.1827
  -8.200  -0.7038   0.01737   0.01081  -0.0410  0.9699  0.0386  -3.5882   0.0000   0.0000   0.0000   0.1804
  -8.100  -0.6853   0.01795   0.01125  -0.0427  0.9686  0.0422  -3.4134   0.0000   0.0000   0.0000   0.1764
  -8.000  -0.6713   0.01758   0.01082  -0.0434  0.9670  0.0423  -3.3688   0.0000   0.0000   0.0000   0.1740
  -7.900  -0.6570   0.01722   0.01042  -0.0442  0.9654  0.0424  -3.3234   0.0000   0.0000   0.0000   0.1714
  -7.800  -0.6425   0.01687   0.01003  -0.0451  0.9638  0.0425  -3.2774   0.0000   0.0000   0.0000   0.1686
  -7.700  -0.6279   0.01655   0.00966  -0.0459  0.9624  0.0427  -3.2311   0.0000   0.0000   0.0000   0.1656
  -7.600  -0.6134   0.01625   0.00932  -0.0467  0.9610  0.0429  -3.1849   0.0000   0.0000   0.0000   0.1626
  -7.500  -0.5991   0.01596   0.00900  -0.0475  0.9597  0.0431  -3.1389   0.0000   0.0000   0.0000   0.1594
  -7.400  -0.5850   0.01570   0.00870  -0.0483  0.9585  0.0435  -3.0934   0.0000   0.0000   0.0000   0.1562
  -7.300  -0.5708   0.01544   0.00841  -0.0491  0.9573  0.0439  -3.0478   0.0000   0.0000   0.0000   0.1528
  -7.200  -0.5564   0.01520   0.00814  -0.0499  0.9561  0.0444  -3.0021   0.0000   0.0000   0.0000   0.1492
  -7.100  -0.5420   0.01498   0.00788  -0.0507  0.9549  0.0451  -2.9565   0.0000   0.0000   0.0000   0.1453
  -7.000  -0.5276   0.01477   0.00764  -0.0515  0.9534  0.0460  -2.9112   0.0000   0.0000   0.0000   0.1412
  -6.900  -0.5132   0.01459   0.00744  -0.0523  0.9517  0.0471  -2.8664   0.0000   0.0000   0.0000   0.1369
  -6.800  -0.5006   0.01445   0.00727  -0.0527  0.9497  0.0485  -2.8237   0.0000   0.0000   0.0000   0.1335
  -6.700  -0.4928   0.01400   0.00686  -0.0520  0.9481  0.0602  -2.8154   0.0000   0.0000   0.0000   0.1332
  -6.600  -0.4848   0.01362   0.00664  -0.0516  0.9462  0.0735  -2.7845   0.0000   0.0000   0.0000   0.1325
  -6.500  -0.4761   0.01330   0.00645  -0.0513  0.9440  0.0846  -2.7456   0.0000   0.0000   0.0000   0.1313
  -6.400  -0.4664   0.01306   0.00631  -0.0511  0.9417  0.0930  -2.7013   0.0000   0.0000   0.0000   0.1293
  -6.300  -0.4554   0.01293   0.00621  -0.0512  0.9394  0.0978  -2.6533   0.0000   0.0000   0.0000   0.1266
  -6.200  -0.4435   0.01284   0.00611  -0.0514  0.9372  0.1000  -2.6030   0.0000   0.0000   0.0000   0.1231
  -6.100  -0.4317   0.01270   0.00597  -0.0515  0.9348  0.1064  -2.5549   0.0000   0.0000   0.0000   0.1196
  -6.000  -0.4197   0.01255   0.00584  -0.0518  0.9324  0.1144  -2.5058   0.0000   0.0000   0.0000   0.1155
  -5.900  -0.4075   0.01239   0.00573  -0.0521  0.9301  0.1214  -2.4560   0.0000   0.0000   0.0000   0.1111
  -5.800  -0.3952   0.01223   0.00562  -0.0524  0.9278  0.1273  -2.4058   0.0000   0.0000   0.0000   0.1062
  -5.700  -0.3827   0.01209   0.00551  -0.0528  0.9256  0.1326  -2.3552   0.0000   0.0000   0.0000   0.1009
  -5.600  -0.3700   0.01196   0.00540  -0.0531  0.9235  0.1372  -2.3044   0.0000   0.0000   0.0000   0.0951
  -5.500  -0.3573   0.01184   0.00529  -0.0535  0.9214  0.1411  -2.2537   0.0000   0.0000   0.0000   0.0889
  -5.400  -0.3445   0.01173   0.00518  -0.0538  0.9193  0.1442  -2.2032   0.0000   0.0000   0.0000   0.0822
  -5.300  -0.3315   0.01163   0.00508  -0.0542  0.9172  0.1467  -2.1526   0.0000   0.0000   0.0000   0.0748
  -5.200  -0.3182   0.01154   0.00498  -0.0547  0.9151  0.1485  -2.1014   0.0000   0.0000   0.0000   0.0663
  -5.100  -0.3047   0.01145   0.00488  -0.0552  0.9129  0.1498  -2.0502   0.0000   0.0000   0.0000   0.0569
  -5.000  -0.2913   0.01133   0.00476  -0.0557  0.9104  0.1547  -2.0002   0.0000   0.0000   0.0000   0.0468
  -4.900  -0.2779   0.01120   0.00464  -0.0561  0.9072  0.1634  -1.9508   0.0000   0.0000   0.0000   0.0357
  -4.800  -0.2646   0.01107   0.00455  -0.0566  0.9032  0.1714  -1.9017   0.0000   0.0000   0.0000   0.0235
  -4.700  -0.2531   0.01097   0.00449  -0.0568  0.8995  0.1779  -1.8562   0.0000   0.0000   0.0000   0.0129
  -4.600  -0.2440   0.01086   0.00442  -0.0564  0.8980  0.1835  -1.8156   0.0000   0.0000   0.0000   0.0061
  -4.500  -0.2347   0.01077   0.00435  -0.0560  0.8962  0.1887  -1.7750   0.0000   0.0000   0.0000  -0.0015
  -4.400  -0.2253   0.01068   0.00428  -0.0556  0.8939  0.1933  -1.7344   0.0000   0.0000   0.0000  -0.0100
  -4.300  -0.2156   0.01062   0.00422  -0.0553  0.8914  0.1972  -1.6935   0.0000   0.0000   0.0000  -0.0198
  -4.200  -0.2057   0.01056   0.00416  -0.0550  0.8887  0.2001  -1.6523   0.0000   0.0000   0.0000  -0.0313
  -4.100  -0.1960   0.01047   0.00410  -0.0548  0.8857  0.2094  -1.6122   0.0000   0.0000   0.0000  -0.0434
  -4.000  -0.1865   0.01034   0.00405  -0.0545  0.8824  0.2189  -1.5727   0.0000   0.0000   0.0000  -0.0564
  -3.900  -0.1769   0.01023   0.00399  -0.0542  0.8787  0.2272  -1.5331   0.0000   0.0000   0.0000  -0.0710
  -3.800  -0.1669   0.01013   0.00393  -0.0540  0.8749  0.2347  -1.4930   0.0000   0.0000   0.0000  -0.0885
  -3.700  -0.1564   0.01005   0.00387  -0.0539  0.8708  0.2411  -1.4523   0.0000   0.0000   0.0000  -0.1099
  -3.600  -0.1454   0.00998   0.00381  -0.0538  0.8664  0.2460  -1.4110   0.0000   0.0000   0.0000  -0.1362
  -3.500  -0.1342   0.00992   0.00374  -0.0538  0.8620  0.2494  -1.3694   0.0000   0.0000   0.0000  -0.1682
  -3.400  -0.1231   0.00983   0.00367  -0.0538  0.8573  0.2564  -1.3287   0.0000   0.0000   0.0000  -0.2051
  -3.300  -0.1122   0.00970   0.00360  -0.0538  0.8524  0.2658  -1.2886   0.0000   0.0000   0.0000  -0.2479
  -3.200  -0.1013   0.00957   0.00354  -0.0538  0.8472  0.2741  -1.2487   0.0000   0.0000   0.0000  -0.3005
  -3.100  -0.0902   0.00947   0.00348  -0.0538  0.8417  0.2816  -1.2087   0.0000   0.0000   0.0000  -0.3676
  -3.000  -0.0789   0.00939   0.00342  -0.0538  0.8356  0.2881  -1.1688   0.0000   0.0000   0.0000  -0.4553
  -2.900  -0.0675   0.00933   0.00336  -0.0539  0.8286  0.2934  -1.1289   0.0000   0.0000   0.0000  -0.5747
  -2.800  -0.0557   0.00930   0.00332  -0.0540  0.8207  0.2974  -1.0888   0.0000   0.0000   0.0000  -0.7507
  -2.700  -0.0434   0.00929   0.00330  -0.0543  0.8118  0.3001  -1.0484   0.0000   0.0000   0.0000  -1.0367
  -2.600  -0.0313   0.00930   0.00330  -0.0546  0.8024  0.3101  -1.0089   0.0000   0.0000   0.0000  -1.5432
  -2.500  -0.0207   0.00925   0.00327  -0.0545  0.7992  0.3223  -0.9721   0.0000   0.0000   0.0000  -2.4518
  -2.400  -0.0108   0.00917   0.00322  -0.0542  0.7979  0.3351  -0.9366   0.0000   0.0000   0.0000  -4.9043
  -2.300  -0.0011   0.00907   0.00318  -0.0539  0.7963  0.3474  -0.9017   0.0000   0.0000   0.0000  -50.4706
  -2.200   0.0086   0.00897   0.00316  -0.0536  0.7942  0.3597  -0.8672   0.0000   0.0000   0.0000   6.6654
  -2.100   0.0183   0.00888   0.00314  -0.0533  0.7915  0.3719  -0.8327   0.0000   0.0000   0.0000   3.2312
  -2.000   0.0283   0.00880   0.00311  -0.0531  0.7883  0.3833  -0.7982   0.0000   0.0000   0.0000   2.1699
  -1.900   0.0385   0.00873   0.00308  -0.0529  0.7846  0.3927  -0.7639   0.0000   0.0000   0.0000   1.6524
  -1.800   0.0491   0.00868   0.00305  -0.0528  0.7805  0.3997  -0.7380   0.0000   0.0000   0.0000   1.3460
  -1.700   0.0592   0.00860   0.00301  -0.0525  0.7760  0.4235  -0.7187   0.0000   0.0000   0.0000   1.1540
  -1.600   0.0687   0.00846   0.00298  -0.0522  0.7711  0.4493  -0.6999   0.0000   0.0000   0.0000   1.0234
  -1.500   0.0786   0.00835   0.00297  -0.0520  0.7658  0.4712  -0.6807   0.0000   0.0000   0.0000   0.9217
  -1.400   0.0890   0.00827   0.00295  -0.0518  0.7601  0.4890  -0.6611   0.0000   0.0000   0.0000   0.8401
  -1.300   0.0999   0.00822   0.00291  -0.0517  0.7540  0.5029  -0.6441   0.0000   0.0000   0.0000   0.7743
  -1.200   0.1092   0.00809   0.00289  -0.0513  0.7474  0.5384  -0.6292   0.0000   0.0000   0.0000   0.7252
  -1.100   0.1188   0.00798   0.00288  -0.0509  0.7400  0.5676  -0.6139   0.0000   0.0000   0.0000   0.6830
  -1.000   0.1292   0.00794   0.00287  -0.0507  0.7314  0.5872  -0.5981   0.0000   0.0000   0.0000   0.6458
  -0.900   0.1404   0.00795   0.00286  -0.0507  0.7213  0.5976  -0.5971   0.0000   0.0000   0.0000   0.6137
  -0.800   0.1517   0.00795   0.00286  -0.0507  0.7109  0.6148  -0.6055   0.0000   0.0000   0.0000   0.5864
  -0.700   0.1623   0.00791   0.00291  -0.0506  0.7007  0.6396  -0.6134   0.0000   0.0000   0.0000   0.5634
  -0.600   0.1721   0.00783   0.00293  -0.0503  0.6990  0.6581  -0.6213   0.0000   0.0000   0.0000   0.5432
  -0.500   0.1822   0.00779   0.00295  -0.0500  0.6977  0.6732  -0.6293   0.0000   0.0000   0.0000   0.5250
  -0.400   0.1926   0.00775   0.00296  -0.0498  0.6959  0.6851  -0.6374   0.0000   0.0000   0.0000   0.5087
  -0.300   0.2030   0.00774   0.00297  -0.0496  0.6936  0.6936  -0.6456   0.0000   0.0000   0.0000   0.4941
  -0.200   0.2135   0.00773   0.00296  -0.0494  0.6906  0.6991  -0.6538   0.0000   0.0000   0.0000   0.4809
  -0.100   0.2242   0.00770   0.00296  -0.0493  0.6866  0.7138  -0.6621   0.0000   0.0000   0.0000   0.4690
   0.000   0.2344   0.00765   0.00298  -0.0490  0.6816  0.7338  -0.6726   0.0000   0.0000   0.0000   0.4579
   0.100   0.2444   0.00762   0.00300  -0.0486  0.6753  0.7511  -0.6839   0.0000   0.0000   0.0000   0.4475
   0.200   0.2545   0.00760   0.00301  -0.0483  0.6676  0.7668  -0.6954   0.0000   0.0000   0.0000   0.4379
   0.300   0.2647   0.00762   0.00301  -0.0479  0.6586  0.7803  -0.7069   0.0000   0.0000   0.0000   0.4291
   0.400   0.2746   0.00766   0.00300  -0.0476  0.6484  0.7909  -0.7183   0.0000   0.0000   0.0000   0.4210
   0.500   0.2846   0.00771   0.00301  -0.0472  0.6401  0.7979  -0.7295   0.0000   0.0000   0.0000   0.4137
   0.600   0.2947   0.00775   0.00301  -0.0470  0.6293  0.8115  -0.7409   0.0000   0.0000   0.0000   0.4069
   0.700   0.3051   0.00780   0.00305  -0.0467  0.6165  0.8293  -0.7525   0.0000   0.0000   0.0000   0.4005
   0.800   0.3164   0.00787   0.00310  -0.0466  0.6040  0.8443  -0.7645   0.0000   0.0000   0.0000   0.3946
   0.900   0.3275   0.00790   0.00316  -0.0465  0.5991  0.8584  -0.7767   0.0000   0.0000   0.0000   0.3891
   1.000   0.3381   0.00791   0.00319  -0.0463  0.5975  0.8713  -0.7887   0.0000   0.0000   0.0000   0.3838
   1.100   0.3484   0.00793   0.00321  -0.0460  0.5953  0.8820  -0.8004   0.0000   0.0000   0.0000   0.3789
   1.200   0.3581   0.00795   0.00323  -0.0456  0.5924  0.8902  -0.8118   0.0000   0.0000   0.0000   0.3741
   1.300   0.3675   0.00797   0.00324  -0.0452  0.5886  0.8962  -0.8230   0.0000   0.0000   0.0000   0.3695
   1.400   0.3769   0.00800   0.00325  -0.0448  0.5838  0.9005  -0.8342   0.0000   0.0000   0.0000   0.3652
   1.500   0.3903   0.00805   0.00327  -0.0452  0.5774  0.9079  -0.8481   0.0000   0.0000   0.0000   0.3620
   1.600   0.4038   0.00811   0.00330  -0.0456  0.5697  0.9141  -0.8621   0.0000   0.0000   0.0000   0.3591
   1.700   0.4170   0.00819   0.00332  -0.0460  0.5609  0.9199  -0.8759   0.0000   0.0000   0.0000   0.3562
   1.800   0.4296   0.00830   0.00335  -0.0462  0.5512  0.9256  -0.8894   0.0000   0.0000   0.0000   0.3535
   1.900   0.4415   0.00840   0.00338  -0.0463  0.5407  0.9314  -0.9024   0.0000   0.0000   0.0000   0.3507
   2.000   0.4523   0.00851   0.00342  -0.0462  0.5294  0.9371  -0.9147   0.0000   0.0000   0.0000   0.3478
   2.100   0.4626   0.00861   0.00346  -0.0460  0.5181  0.9425  -0.9265   0.0000   0.0000   0.0000   0.3450
   2.200   0.4726   0.00871   0.00351  -0.0457  0.5080  0.9472  -0.9382   0.0000   0.0000   0.0000   0.3422
   2.300   0.4841   0.00879   0.00357  -0.0458  0.4998  0.9510  -0.9563   0.0000   0.0000   0.0000   0.3399
   2.400   0.5010   0.00881   0.00359  -0.0471  0.4988  0.9541  -0.9796   0.0000   0.0000   0.0000   0.3391
   2.500   0.5179   0.00883   0.00361  -0.0483  0.4976  0.9569  -1.0029   0.0000   0.0000   0.0000   0.3384
   2.600   0.5346   0.00886   0.00364  -0.0496  0.4963  0.9597  -1.0262   0.0000   0.0000   0.0000   0.3377
   2.700   0.5513   0.00889   0.00367  -0.0508  0.4945  0.9623  -1.0496   0.0000   0.0000   0.0000   0.3370
   2.800   0.5682   0.00893   0.00371  -0.0520  0.4923  0.9650  -1.0733   0.0000   0.0000   0.0000   0.3364
   2.900   0.5851   0.00897   0.00374  -0.0533  0.4894  0.9681  -1.0972   0.0000   0.0000   0.0000   0.3359
   3.000   0.6019   0.00902   0.00378  -0.0545  0.4857  0.9713  -1.1421   0.0000   0.0000   0.0000   0.3353
   3.100   0.6181   0.00908   0.00380  -0.0557  0.4800  0.9747  -1.1883   0.0000   0.0000   0.0000   0.3346
   3.200   0.6337   0.00914   0.00382  -0.0567  0.4721  0.9780  -1.2337   0.0000   0.0000   0.0000   0.3339
   3.300   0.6490   0.00923   0.00384  -0.0576  0.4623  0.9814  -1.2793   0.0000   0.0000   0.0000   0.3331
   3.400   0.6639   0.00935   0.00386  -0.0585  0.4509  0.9850  -1.3246   0.0000   0.0000   0.0000   0.3324
   3.500   0.6788   0.00949   0.00391  -0.0594  0.4385  0.9885  -1.3703   0.0000   0.0000   0.0000   0.3316
   3.600   0.6944   0.00962   0.00396  -0.0604  0.4252  0.9919  -1.4174   0.0000   0.0000   0.0000   0.3311
   3.700   0.7106   0.00974   0.00402  -0.0616  0.4129  0.9947  -1.4660   0.0000   0.0000   0.0000   0.3306
   3.800   0.7268   0.00983   0.00409  -0.0627  0.4032  0.9969  -1.5150   0.0000   0.0000   0.0000   0.3301
   3.900   0.7426   0.00989   0.00414  -0.0637  0.3993  0.9984  -1.5637   0.0000   0.0000   0.0000   0.3296
   4.000   0.7577   0.00992   0.00418  -0.0646  0.3981  0.9996  -1.6118   0.0000   0.0000   0.0000   0.3290
   4.100   0.7689   0.00995   0.00421  -0.0647  0.3966  1.0000  -1.6532   0.0000   0.0000   0.0000   0.3278
   4.200   0.7777   0.00998   0.00424  -0.0644  0.3949  1.0000  -1.6903   0.0000   0.0000   0.0000   0.3263
   4.300   0.7863   0.01001   0.00427  -0.0640  0.3925  1.0000  -1.7274   0.0000   0.0000   0.0000   0.3247
   4.400   0.7948   0.01005   0.00430  -0.0635  0.3896  1.0000  -1.7645   0.0000   0.0000   0.0000   0.3232
   4.500   0.8031   0.01009   0.00433  -0.0631  0.3859  1.0000  -1.8014   0.0000   0.0000   0.0000   0.3217
   4.600   0.8112   0.01014   0.00436  -0.0626  0.3813  1.0000  -1.8381   0.0000   0.0000   0.0000   0.3202
   4.700   0.8190   0.01021   0.00439  -0.0620  0.3756  1.0000  -1.8746   0.0000   0.0000   0.0000   0.3186
   4.800   0.8265   0.01028   0.00443  -0.0614  0.3688  1.0000  -1.9108   0.0000   0.0000   0.0000   0.3171
   4.900   0.8338   0.01037   0.00446  -0.0607  0.3613  1.0000  -1.9467   0.0000   0.0000   0.0000   0.3155
   5.000   0.8408   0.01047   0.00451  -0.0600  0.3534  1.0000  -1.9821   0.0000   0.0000   0.0000   0.3140
   5.100   0.8474   0.01059   0.00457  -0.0592  0.3450  1.0000  -2.0171   0.0000   0.0000   0.0000   0.3124
   5.200   0.8538   0.01071   0.00463  -0.0584  0.3360  1.0000  -2.0517   0.0000   0.0000   0.0000   0.3107
   5.300   0.8602   0.01083   0.00470  -0.0575  0.3261  1.0000  -2.0866   0.0000   0.0000   0.0000   0.3091
   5.400   0.8671   0.01094   0.00477  -0.0567  0.3154  1.0000  -2.1223   0.0000   0.0000   0.0000   0.3076
   5.500   0.8744   0.01104   0.00484  -0.0561  0.3054  1.0000  -2.1593   0.0000   0.0000   0.0000   0.3062
   5.600   0.8825   0.01111   0.00490  -0.0555  0.2992  1.0000  -2.1979   0.0000   0.0000   0.0000   0.3048
   5.700   0.8908   0.01118   0.00497  -0.0550  0.2964  1.0000  -2.2374   0.0000   0.0000   0.0000   0.3036
   5.800   0.8990   0.01126   0.00503  -0.0545  0.2924  1.0000  -2.2767   0.0000   0.0000   0.0000   0.3023
   5.900   0.9066   0.01136   0.00510  -0.0539  0.2868  1.0000  -2.3153   0.0000   0.0000   0.0000   0.3010
   6.000   0.9136   0.01149   0.00517  -0.0531  0.2793  1.0000  -2.3527   0.0000   0.0000   0.0000   0.2996
   6.100   0.9196   0.01167   0.00525  -0.0522  0.2700  1.0000  -2.3880   0.0000   0.0000   0.0000   0.2981
   6.200   0.9243   0.01190   0.00536  -0.0511  0.2598  1.0000  -2.4209   0.0000   0.0000   0.0000   0.2965
   6.300   0.9293   0.01211   0.00549  -0.0500  0.2496  1.0000  -2.4544   0.0000   0.0000   0.0000   0.2949
   6.400   0.9365   0.01224   0.00559  -0.0494  0.2443  1.0000  -2.4928   0.0000   0.0000   0.0000   0.2936
   6.500   0.9435   0.01238   0.00569  -0.0486  0.2383  1.0000  -2.5306   0.0000   0.0000   0.0000   0.2923
   6.600   0.9499   0.01254   0.00581  -0.0478  0.2316  1.0000  -2.5675   0.0000   0.0000   0.0000   0.2910
   6.700   0.9557   0.01276   0.00593  -0.0469  0.2235  1.0000  -2.6031   0.0000   0.0000   0.0000   0.2896
   6.800   0.9613   0.01299   0.00607  -0.0460  0.2141  1.0000  -2.6384   0.0000   0.0000   0.0000   0.2883
   6.900   0.9681   0.01316   0.00619  -0.0452  0.2043  1.0000  -2.6764   0.0000   0.0000   0.0000   0.2871
   7.000   0.9762   0.01328   0.00630  -0.0447  0.1988  1.0000  -2.7171   0.0000   0.0000   0.0000   0.2860
   7.100   0.9847   0.01339   0.00641  -0.0443  0.1954  1.0000  -2.7590   0.0000   0.0000   0.0000   0.2851
   7.200   0.9929   0.01352   0.00653  -0.0438  0.1902  1.0000  -2.8001   0.0000   0.0000   0.0000   0.2841
   7.300   1.0003   0.01370   0.00667  -0.0432  0.1821  1.0000  -2.8396   0.0000   0.0000   0.0000   0.2830
   7.400   1.0063   0.01396   0.00685  -0.0424  0.1704  1.0000  -2.8760   0.0000   0.0000   0.0000   0.2819
   7.500   1.0118   0.01428   0.00705  -0.0416  0.1553  1.0000  -2.9110   0.0000   0.0000   0.0000   0.2807
   7.600   1.0192   0.01448   0.00720  -0.0410  0.1452  1.0000  -2.9499   0.0000   0.0000   0.0000   0.2797
   7.700   1.0258   0.01472   0.00739  -0.0403  0.1358  1.0000  -2.9867   0.0000   0.0000   0.0000   0.2786
   7.800   1.0304   0.01509   0.00764  -0.0393  0.1226  1.0000  -3.0187   0.0000   0.0000   0.0000   0.2774
   7.900   1.0346   0.01550   0.00790  -0.0383  0.1019  1.0000  -3.0477   0.0000   0.0000   0.0000   0.2761
   8.000   1.0371   0.01601   0.00825  -0.0370  0.0830  1.0000  -3.0714   0.0000   0.0000   0.0000   0.2746
   8.100   1.0367   0.01670   0.00874  -0.0354  0.0649  1.0000  -3.0855   0.0000   0.0000   0.0000   0.2729
   8.200   1.0383   0.01726   0.00917  -0.0338  0.0492  1.0000  -3.0896   0.0000   0.0000   0.0000   0.2712
   8.300   1.0447   0.01748   0.00941  -0.0330  0.0478  1.0000  -3.1198   0.0000   0.0000   0.0000   0.2701
   8.400   1.0509   0.01769   0.00964  -0.0322  0.0468  1.0000  -3.1506   0.0000   0.0000   0.0000   0.2690
   8.500   1.0570   0.01792   0.01020  -0.0314  0.0459  1.0000  -3.2174   0.0000   0.0000   0.0000   0.2679
   8.600   1.0629   0.01816   0.01039  -0.0307  0.0434  1.0000  -3.2707   0.0000   0.0000   0.0000   0.2670
   8.700   1.0686   0.01841   0.01064  -0.0299  0.0419  1.0000  -3.3105   0.0000   0.0000   0.0000   0.2659
   8.800   1.0744   0.01867   0.01090  -0.0292  0.0408  1.0000  -3.3477   0.0000   0.0000   0.0000   0.2649
   8.900   1.0803   0.01893   0.01116  -0.0284  0.0397  1.0000  -3.3842   0.0000   0.0000   0.0000   0.2639
   9.000   1.0862   0.01920   0.01143  -0.0277  0.0388  1.0000  -3.4204   0.0000   0.0000   0.0000   0.2629
   9.100   1.0921   0.01946   0.01171  -0.0269  0.0379  1.0000  -3.4563   0.0000   0.0000   0.0000   0.2620
   9.200   1.0980   0.01973   0.01199  -0.0262  0.0371  1.0000  -3.4919   0.0000   0.0000   0.0000   0.2611
   9.300   1.1040   0.02000   0.01227  -0.0255  0.0364  1.0000  -3.5274   0.0000   0.0000   0.0000   0.2601
   9.400   1.1095   0.02028   0.01257  -0.0248  0.0358  1.0000  -3.5620   0.0000   0.0000   0.0000   0.2592
   9.500   1.1146   0.02057   0.01288  -0.0239  0.0353  1.0000  -3.5954   0.0000   0.0000   0.0000   0.2582
   9.600   1.1193   0.02087   0.01320  -0.0231  0.0348  1.0000  -3.6279   0.0000   0.0000   0.0000   0.2572
   9.700   1.1239   0.02117   0.01353  -0.0222  0.0343  1.0000  -3.6605   0.0000   0.0000   0.0000   0.2562
   9.800   1.1287   0.02148   0.01387  -0.0214  0.0339  1.0000  -3.6931   0.0000   0.0000   0.0000   0.2552
   9.900   1.1334   0.02181   0.01422  -0.0206  0.0336  1.0000  -3.7258   0.0000   0.0000   0.0000   0.2543
  10.000   1.1381   0.02215   0.01458  -0.0199  0.0332  1.0000  -3.7583   0.0000   0.0000   0.0000   0.2534
  10.100   1.1427   0.02250   0.01497  -0.0191  0.0329  1.0000  -3.7908   0.0000   0.0000   0.0000   0.2525
  10.200   1.1473   0.02287   0.01536  -0.0184  0.0326  1.0000  -3.8231   0.0000   0.0000   0.0000   0.2516
  10.300   1.1510   0.02328   0.01580  -0.0176  0.0323  1.0000  -3.8536   0.0000   0.0000   0.0000   0.2507
  10.400   1.1542   0.02372   0.01627  -0.0167  0.0320  1.0000  -3.8826   0.0000   0.0000   0.0000   0.2498
  10.500   1.1578   0.02416   0.01675  -0.0160  0.0318  1.0000  -3.9123   0.0000   0.0000   0.0000   0.2489
  10.600   1.1616   0.02460   0.01722  -0.0152  0.0316  1.0000  -3.9430   0.0000   0.0000   0.0000   0.2480
  10.700   1.1657   0.02504   0.01769  -0.0146  0.0313  1.0000  -3.9741   0.0000   0.0000   0.0000   0.2472
  10.800   1.1698   0.02549   0.01817  -0.0139  0.0311  1.0000  -4.0054   0.0000   0.0000   0.0000   0.2464
  10.900   1.1740   0.02595   0.01865  -0.0133  0.0309  1.0000  -4.0367   0.0000   0.0000   0.0000   0.2457
  11.000   1.1781   0.02641   0.01915  -0.0126  0.0307  1.0000  -4.0679   0.0000   0.0000   0.0000   0.2449
  11.100   1.1821   0.02689   0.01966  -0.0120  0.0305  1.0000  -4.0987   0.0000   0.0000   0.0000   0.2442
  11.200   1.1859   0.02739   0.02018  -0.0114  0.0303  1.0000  -4.1292   0.0000   0.0000   0.0000   0.2435
  11.300   1.1896   0.02789   0.02072  -0.0108  0.0301  1.0000  -4.1592   0.0000   0.0000   0.0000   0.2428
  11.400   1.1931   0.02842   0.02128  -0.0102  0.0299  1.0000  -4.1888   0.0000   0.0000   0.0000   0.2420
  11.500   1.1964   0.02897   0.02186  -0.0096  0.0297  1.0000  -4.2177   0.0000   0.0000   0.0000   0.2413
  11.600   1.1994   0.02954   0.02246  -0.0090  0.0296  1.0000  -4.2457   0.0000   0.0000   0.0000   0.2406
  11.700   1.2014   0.03018   0.02315  -0.0084  0.0294  1.0000  -4.2711   0.0000   0.0000   0.0000   0.2399
  11.800   1.2017   0.03095   0.02395  -0.0077  0.0293  1.0000  -4.2916   0.0000   0.0000   0.0000   0.2392
  11.900   1.2027   0.03166   0.02470  -0.0071  0.0292  1.0000  -4.3140   0.0000   0.0000   0.0000   0.2384
  12.000   1.2045   0.03233   0.02541  -0.0065  0.0290  1.0000  -4.3383   0.0000   0.0000   0.0000   0.2378
  12.100   1.2066   0.03299   0.02610  -0.0060  0.0289  1.0000  -4.3635   0.0000   0.0000   0.0000   0.2371
  12.200   1.2089   0.03366   0.02680  -0.0055  0.0287  1.0000  -4.3891   0.0000   0.0000   0.0000   0.2365
  12.300   1.2113   0.03434   0.02752  -0.0050  0.0286  1.0000  -4.4147   0.0000   0.0000   0.0000   0.2359
  12.400   1.2227   0.03424   0.02751  -0.0051  0.0313  1.0000  -4.4573   0.0000   0.0000   0.0000   0.2358
  12.500   1.2260   0.03486   0.02815  -0.0047  0.0315  1.0000  -4.4847   0.0000   0.0000   0.0000   0.2352
  12.600   1.2289   0.03551   0.02884  -0.0043  0.0315  1.0000  -4.5118   0.0000   0.0000   0.0000   0.2347
  12.700   1.2317   0.03618   0.02955  -0.0038  0.0314  1.0000  -4.5387   0.0000   0.0000   0.0000   0.2341
  12.800   1.2342   0.03689   0.03029  -0.0035  0.0314  1.0000  -4.5651   0.0000   0.0000   0.0000   0.2336
  12.900   1.2365   0.03763   0.03107  -0.0031  0.0313  1.0000  -4.5908   0.0000   0.0000   0.0000   0.2331
  13.000   1.2385   0.03841   0.03188  -0.0027  0.0312  1.0000  -4.6158   0.0000   0.0000   0.0000   0.2326
  13.100   1.2390   0.03937   0.03288  -0.0024  0.0311  1.0000  -4.6356   0.0000   0.0000   0.0000   0.2322
  13.200   1.2382   0.04048   0.03403  -0.0022  0.0310  1.0000  -4.6517   0.0000   0.0000   0.0000   0.2318
  13.300   1.2390   0.04143   0.03503  -0.0020  0.0309  1.0000  -4.6724   0.0000   0.0000   0.0000   0.2314
  13.400   1.2404   0.04232   0.03595  -0.0017  0.0308  1.0000  -4.6951   0.0000   0.0000   0.0000   0.2309
  13.500   1.2420   0.04318   0.03684  -0.0014  0.0306  1.0000  -4.7185   0.0000   0.0000   0.0000   0.2305
  13.600   1.2437   0.04403   0.03773  -0.0012  0.0305  1.0000  -4.7422   0.0000   0.0000   0.0000   0.2301
  13.700   1.2455   0.04489   0.03862  -0.0009  0.0304  1.0000  -4.7658   0.0000   0.0000   0.0000   0.2297
  13.800   1.2471   0.04575   0.03952  -0.0006  0.0302  1.0000  -4.7891   0.0000   0.0000   0.0000   0.2292
  13.900   1.2486   0.04663   0.04044  -0.0004  0.0301  1.0000  -4.8118   0.0000   0.0000   0.0000   0.2288
  14.000   1.2500   0.04754   0.04138  -0.0002  0.0300  1.0000  -4.8339   0.0000   0.0000   0.0000   0.2284
  14.100   1.2512   0.04847   0.04235   0.0001  0.0298  1.0000  -4.8552   0.0000   0.0000   0.0000   0.2281
  14.200   1.2521   0.04944   0.04336   0.0003  0.0297  1.0000  -4.8755   0.0000   0.0000   0.0000   0.2277
  14.300   1.2526   0.05045   0.04442   0.0004  0.0295  1.0000  -4.8944   0.0000   0.0000   0.0000   0.2273
  14.400   1.2528   0.05152   0.04553   0.0006  0.0294  1.0000  -4.9118   0.0000   0.0000   0.0000   0.2270
  14.500   1.2505   0.05293   0.04700   0.0005  0.0293  1.0000  -4.9203   0.0000   0.0000   0.0000   0.2268
  14.600   1.2473   0.05452   0.04863   0.0003  0.0292  1.0000  -4.9251   0.0000   0.0000   0.0000   0.2268
  14.700   1.2463   0.05579   0.04995   0.0002  0.0291  1.0000  -4.9375   0.0000   0.0000   0.0000   0.2266
  14.800   1.2459   0.05696   0.05117   0.0002  0.0290  1.0000  -4.9520   0.0000   0.0000   0.0000   0.2263
  14.900   1.2457   0.05810   0.05235   0.0003  0.0288  1.0000  -4.9669   0.0000   0.0000   0.0000   0.2261
  15.000   1.2454   0.05922   0.05351   0.0004  0.0287  1.0000  -4.9814   0.0000   0.0000   0.0000   0.2258
  15.100   1.2448   0.06033   0.05467   0.0005  0.0286  1.0000  -4.9948   0.0000   0.0000   0.0000   0.2255
  15.200   1.2441   0.06147   0.05585   0.0005  0.0284  1.0000  -5.0074   0.0000   0.0000   0.0000   0.2252
  15.300   1.2432   0.06266   0.05709   0.0006  0.0283  1.0000  -5.0190   0.0000   0.0000   0.0000   0.2249
  15.400   1.2420   0.06390   0.05838   0.0006  0.0282  1.0000  -5.0292   0.0000   0.0000   0.0000   0.2247
  15.500   1.2405   0.06521   0.05974   0.0005  0.0280  1.0000  -5.0379   0.0000   0.0000   0.0000   0.2245
  15.600   1.2388   0.06663   0.06121   0.0004  0.0279  1.0000  -5.0452   0.0000   0.0000   0.0000   0.2244
  15.700   1.2365   0.06815   0.06278   0.0002  0.0278  1.0000  -5.0498   0.0000   0.0000   0.0000   0.2243
  15.800   1.2334   0.06981   0.06450  -0.0001  0.0277  1.0000  -5.0511   0.0000   0.0000   0.0000   0.2244
  15.900   1.2235   0.07267   0.06745  -0.0013  0.0277  1.0000  -5.0258   0.0000   0.0000   0.0000   0.2251
  16.000   1.2188   0.07465   0.06948  -0.0019  0.0276  1.0000  -5.0201   0.0000   0.0000   0.0000   0.2253
  16.100   1.2158   0.07636   0.07125  -0.0023  0.0275  1.0000  -5.0199   0.0000   0.0000   0.0000   0.2253
  16.200   1.2131   0.07801   0.07295  -0.0026  0.0274  1.0000  -5.0208   0.0000   0.0000   0.0000   0.2254
  16.300   1.2104   0.07965   0.07464  -0.0029  0.0273  1.0000  -5.0214   0.0000   0.0000   0.0000   0.2254
  16.400   1.2079   0.08133   0.07638  -0.0033  0.0272  1.0000  -5.0213   0.0000   0.0000   0.0000   0.2255
  16.500   1.2050   0.08306   0.07817  -0.0037  0.0270  1.0000  -5.0196   0.0000   0.0000   0.0000   0.2256
  16.600   1.2018   0.08487   0.08004  -0.0041  0.0269  1.0000  -5.0157   0.0000   0.0000   0.0000   0.2258
  16.700   1.1980   0.08678   0.08201  -0.0047  0.0268  1.0000  -5.0090   0.0000   0.0000   0.0000   0.2260
  16.800   1.1935   0.08881   0.08411  -0.0053  0.0267  1.0000  -4.9990   0.0000   0.0000   0.0000   0.2263
  16.900   1.1882   0.09100   0.08636  -0.0061  0.0267  1.0000  -4.9850   0.0000   0.0000   0.0000   0.2267
  17.000   1.1817   0.09342   0.08885  -0.0071  0.0266  1.0000  -4.9657   0.0000   0.0000   0.0000   0.2273
  17.100   1.1678   0.09739   0.09290  -0.0094  0.0267  1.0000  -4.9150   0.0000   0.0000   0.0000   0.2290
  17.200   1.1603   0.10018   0.09575  -0.0107  0.0267  1.0000  -4.8887   0.0000   0.0000   0.0000   0.2300
  17.300   1.1550   0.10248   0.09812  -0.0117  0.0266  1.0000  -4.8709   0.0000   0.0000   0.0000   0.2306
  17.400   1.1501   0.10467   0.10037  -0.0126  0.0265  1.0000  -4.8542   0.0000   0.0000   0.0000   0.2312
  17.500   1.1453   0.10685   0.10260  -0.0134  0.0264  1.0000  -4.8367   0.0000   0.0000   0.0000   0.2318
  17.600   1.1403   0.10905   0.10486  -0.0143  0.0263  1.0000  -4.8176   0.0000   0.0000   0.0000   0.2324
  17.700   1.1350   0.11132   0.10719  -0.0153  0.0263  1.0000  -4.7960   0.0000   0.0000   0.0000   0.2331
  17.800   1.1293   0.11368   0.10961  -0.0164  0.0262  1.0000  -4.7714   0.0000   0.0000   0.0000   0.2339
  17.900   1.1231   0.11616   0.11216  -0.0175  0.0261  1.0000  -4.7432   0.0000   0.0000   0.0000   0.2348
  18.000   1.1162   0.11880   0.11487  -0.0189  0.0261  1.0000  -4.7107   0.0000   0.0000   0.0000   0.2359
  18.100   1.1086   0.12169   0.11783  -0.0204  0.0261  1.0000  -4.6729   0.0000   0.0000   0.0000   0.2372
  18.200   1.0984   0.12542   0.12162  -0.0227  0.0261  1.0000  -4.6201   0.0000   0.0000   0.0000   0.2392
  18.300   1.0891   0.12890   0.12517  -0.0247  0.0261  1.0000  -4.5696   0.0000   0.0000   0.0000   0.2411
  18.400   1.0804   0.13215   0.12848  -0.0266  0.0261  1.0000  -4.5201   0.0000   0.0000   0.0000   0.2429
  18.500   1.0713   0.13538   0.13177  -0.0287  0.0262  1.0000  -4.4661   0.0000   0.0000   0.0000   0.2448
  18.600   1.0594   0.13938   0.13584  -0.0313  0.0263  1.0000  -4.3933   0.0000   0.0000   0.0000   0.2474
  18.700   1.0488   0.14312   0.13963  -0.0336  0.0264  1.0000  -4.3240   0.0000   0.0000   0.0000   0.2498
  18.800   1.0384   0.14697   0.14354  -0.0360  0.0264  1.0000  -4.2512   0.0000   0.0000   0.0000   0.2523
  18.900   1.0240   0.15204   0.14868  -0.0391  0.0266  1.0000  -4.1456   0.0000   0.0000   0.0000   0.2558
  19.000   1.0107   0.15689   0.15358  -0.0419  0.0268  1.0000  -4.0412   0.0000   0.0000   0.0000   0.2590
  19.100   0.9990   0.16140   0.15814  -0.0444  0.0269  1.0000  -3.9412   0.0000   0.0000   0.0000   0.2620
  19.200   0.9830   0.16727   0.16406  -0.0476  0.0271  1.0000  -3.7961   0.0000   0.0000   0.0000   0.2660
  19.300   0.9648   0.17416   0.17100  -0.0510  0.0274  1.0000  -3.6132   0.0000   0.0000   0.0000   0.2706
  19.400   0.9535   0.17919   0.17604  -0.0534  0.0275  1.0000  -3.4855   0.0000   0.0000   0.0000   0.2738
  19.500   0.9411   0.18483   0.18171  -0.0559  0.0275  1.0000  -3.3318   0.0000   0.0000   0.0000   0.2773
  19.600   0.9309   0.19001   0.18689  -0.0581  0.0274  1.0000  -3.1940   0.0000   0.0000   0.0000   0.2804
  19.700   0.9231   0.19454   0.19143  -0.0600  0.0272  1.0000  -3.0793   0.0000   0.0000   0.0000   0.2830
  19.800   0.9161   0.19886   0.19575  -0.0617  0.0269  1.0000  -2.9738   0.0000   0.0000   0.0000   0.2855
  19.900   0.9084   0.20347   0.20036  -0.0636  0.0265  1.0000  -2.8581   0.0000   0.0000   0.0000   0.2881
  20.000   0.8955   0.20996   0.20685  -0.0660  0.0259  1.0000  -2.6721   0.0000   0.0000   0.0000   0.2921
  20.400   0.8921   0.22006   0.21691  -0.0705  0.0244  1.0000  -2.5800   0.0000   0.0000   0.0000   0.2969
  20.500   0.8974   0.22039   0.21724  -0.0709  0.0242  1.0000  -2.6381   0.0000   0.0000   0.0000   0.2966
  20.600   0.9025   0.22074   0.21759  -0.0713  0.0240  1.0000  -2.6955   0.0000   0.0000   0.0000   0.2962
  20.700   0.9076   0.22113   0.21798  -0.0717  0.0238  1.0000  -2.7523   0.0000   0.0000   0.0000   0.2959
  20.800   0.9126   0.22156   0.21840  -0.0721  0.0236  1.0000  -2.8083   0.0000   0.0000   0.0000   0.2956
  20.900   0.9175   0.22202   0.21886  -0.0725  0.0234  1.0000  -2.8634   0.0000   0.0000   0.0000   0.2953
  21.000   0.9223   0.22252   0.21936  -0.0729  0.0231  1.0000  -2.9174   0.0000   0.0000   0.0000   0.2951
  21.100   0.9269   0.22307   0.21991  -0.0733  0.0228  1.0000  -2.9700   0.0000   0.0000   0.0000   0.2948
  21.200   0.9314   0.22368   0.22051  -0.0738  0.0225  1.0000  -3.0212   0.0000   0.0000   0.0000   0.2946
  21.300   0.9357   0.22433   0.22116  -0.0742  0.0222  1.0000  -3.0707   0.0000   0.0000   0.0000   0.2945
  21.400   0.9398   0.22504   0.22187  -0.0747  0.0218  1.0000  -3.1183   0.0000   0.0000   0.0000   0.2943
  21.500   0.9438   0.22581   0.22264  -0.0752  0.0214  1.0000  -3.1640   0.0000   0.0000   0.0000   0.2942
  21.600   0.9476   0.22663   0.22345  -0.0757  0.0210  1.0000  -3.2084   0.0000   0.0000   0.0000   0.2941
  21.700   0.9513   0.22750   0.22432  -0.0762  0.0205  1.0000  -3.2517   0.0000   0.0000   0.0000   0.2941
  21.800   0.9549   0.22842   0.22523  -0.0767  0.0200  1.0000  -3.2936   0.0000   0.0000   0.0000   0.2941
  21.900   0.9583   0.22938   0.22619  -0.0773  0.0195  1.0000  -3.3346   0.0000   0.0000   0.0000   0.2941
  22.000   0.9617   0.23033   0.22714  -0.0778  0.0190  1.0000  -3.3771   0.0000   0.0000   0.0000   0.2941
  22.100   0.9653   0.23121   0.22802  -0.0784  0.0186  1.0000  -3.4229   0.0000   0.0000   0.0000   0.2940
  22.200   0.9690   0.23201   0.22882  -0.0789  0.0181  1.0000  -3.4727   0.0000   0.0000   0.0000   0.2939
  22.300   0.9730   0.23272   0.22952  -0.0793  0.0177  1.0000  -3.5285   0.0000   0.0000   0.0000   0.2938
  22.400   0.9771   0.23334   0.23014  -0.0798  0.0174  1.0000  -3.5882   0.0000   0.0000   0.0000   0.2936
  22.500   0.9815   0.23388   0.23068  -0.0803  0.0170  1.0000  -3.6512   0.0000   0.0000   0.0000   0.2933
  22.600   0.9861   0.23435   0.23114  -0.0807  0.0168  1.0000  -3.7175   0.0000   0.0000   0.0000   0.2931
  22.700   0.9908   0.23475   0.23154  -0.0811  0.0165  1.0000  -3.7870   0.0000   0.0000   0.0000   0.2927
  22.800   0.9959   0.23502   0.23180  -0.0814  0.0163  1.0000  -3.8620   0.0000   0.0000   0.0000   0.2923
  22.900   1.0015   0.23513   0.23191  -0.0817  0.0161  1.0000  -3.9432   0.0000   0.0000   0.0000   0.2918
  23.000   1.0073   0.23516   0.23192  -0.0820  0.0160  1.0000  -4.0284   0.0000   0.0000   0.0000   0.2912
  23.100   1.0133   0.23510   0.23185  -0.0823  0.0158  1.0000  -4.1175   0.0000   0.0000   0.0000   0.2905
  23.200   1.0196   0.23497   0.23171  -0.0825  0.0157  1.0000  -4.2100   0.0000   0.0000   0.0000   0.2898
  23.300   1.0261   0.23478   0.23152  -0.0827  0.0155  1.0000  -4.3053   0.0000   0.0000   0.0000   0.2891
  23.400   1.0328   0.23451   0.23123  -0.0828  0.0154  1.0000  -4.4044   0.0000   0.0000   0.0000   0.2883
  23.500   1.0399   0.23414   0.23084  -0.0829  0.0152  1.0000  -4.5076   0.0000   0.0000   0.0000   0.2875
  23.600   1.0471   0.23373   0.23040  -0.0830  0.0150  1.0000  -4.6129   0.0000   0.0000   0.0000   0.2866
  23.700   1.0542   0.23335   0.22999  -0.0831  0.0148  1.0000  -4.7168   0.0000   0.0000   0.0000   0.2857
  23.800   1.0603   0.23331   0.22992  -0.0834  0.0144  1.0000  -4.8063   0.0000   0.0000   0.0000   0.2850
  23.900   1.0556   0.23680   0.23339  -0.0848  0.0136  1.0000  -4.7494   0.0000   0.0000   0.0000   0.2866


