xflr5 v6.61

 Calculated polar for: NACA 65-206

 1 1 Reynolds number fixed          Mach number fixed         

 xtrf =   1.000 (top)        1.000 (bottom)
 Mach =   0.000     Re =     0.563 e 6     Ncrit =   9.000

  alpha     CL        CD       CDp       Cm    Top Xtr Bot Xtr   Cpmin    Chinge    XCp    
 ------- -------- --------- --------- -------- ------- ------- -------- --------- ---------
  -5.800  -0.4577   0.04676   0.04375  -0.0335  0.9989  0.0082  -2.7485   0.0000   0.0000   0.0000   0.1757
  -5.700  -0.4528   0.04472   0.04168  -0.0346  0.9979  0.0085  -2.6543   0.0000   0.0000   0.0000   0.1725
  -5.600  -0.4451   0.04349   0.04042  -0.0356  0.9969  0.0088  -2.5077   0.0000   0.0000   0.0000   0.1691
  -5.500  -0.4361   0.04223   0.03913  -0.0365  0.9956  0.0091  -2.3913   0.0000   0.0000   0.0000   0.1654
  -5.400  -0.4261   0.04086   0.03770  -0.0373  0.9942  0.0096  -2.3118   0.0000   0.0000   0.0000   0.1616
  -5.300  -0.4150   0.03943   0.03619  -0.0380  0.9925  0.0103  -2.2617   0.0000   0.0000   0.0000   0.1575
  -5.200  -0.4025   0.03811   0.03478  -0.0385  0.9907  0.0112  -2.2375   0.0000   0.0000   0.0000   0.1534
  -5.100  -0.3837   0.03858   0.03517  -0.0383  0.9890  0.0126  -2.1568   0.0000   0.0000   0.0000   0.1492
  -5.000  -0.3692   0.03841   0.03486  -0.0385  0.9868  0.0129  -2.1000   0.0000   0.0000   0.0000   0.1447
  -4.900  -0.3577   0.03724   0.03354  -0.0389  0.9844  0.0130  -2.0856   0.0000   0.0000   0.0000   0.1403
  -4.800  -0.3563   0.03041   0.02642  -0.0403  0.9812  0.0143  -2.3780   0.0000   0.0000   0.0000   0.1358
  -4.700  -0.3472   0.02908   0.02509  -0.0412  0.9788  0.0152  -2.2309   0.0000   0.0000   0.0000   0.1304
  -4.600  -0.3368   0.02824   0.02425  -0.0419  0.9763  0.0163  -2.0751   0.0000   0.0000   0.0000   0.1247
  -4.500  -0.3252   0.02730   0.02325  -0.0424  0.9737  0.0176  -1.9711   0.0000   0.0000   0.0000   0.1186
  -4.400  -0.3128   0.02605   0.02189  -0.0428  0.9710  0.0183  -1.9236   0.0000   0.0000   0.0000   0.1121
  -4.300  -0.3000   0.02487   0.02060  -0.0432  0.9683  0.0191  -1.8764   0.0000   0.0000   0.0000   0.1050
  -4.200  -0.2868   0.02378   0.01939  -0.0436  0.9655  0.0200  -1.8284   0.0000   0.0000   0.0000   0.0972
  -4.100  -0.2733   0.02282   0.01832  -0.0439  0.9628  0.0212  -1.7768   0.0000   0.0000   0.0000   0.0886
  -4.000  -0.2595   0.02211   0.01751  -0.0441  0.9599  0.0225  -1.7130   0.0000   0.0000   0.0000   0.0791
  -3.900  -0.2450   0.02218   0.01754  -0.0443  0.9571  0.0242  -1.6080   0.0000   0.0000   0.0000   0.0684
  -3.800  -0.2304   0.02261   0.01793  -0.0444  0.9542  0.0252  -1.4908   0.0000   0.0000   0.0000   0.0565
  -3.700  -0.2174   0.02160   0.01679  -0.0446  0.9507  0.0254  -1.4464   0.0000   0.0000   0.0000   0.0437
  -3.600  -0.2069   0.02048   0.01555  -0.0444  0.9482  0.0254  -1.4152   0.0000   0.0000   0.0000   0.0345
  -3.500  -0.1957   0.01512   0.00953  -0.0428  0.9440  0.0128  -1.8561   0.0000   0.0000   0.0000   0.0301
  -3.200  -0.1647   0.01016   0.00410  -0.0410  0.9320  0.0144  -2.0339   0.0000   0.0000   0.0000  -0.0007
  -3.100  -0.1542   0.00991   0.00390  -0.0411  0.9274  0.0170  -1.8627   0.0000   0.0000   0.0000  -0.0184
  -3.000  -0.1432   0.00990   0.00392  -0.0413  0.9226  0.0185  -1.6752   0.0000   0.0000   0.0000  -0.0397
  -2.900  -0.1323   0.00979   0.00380  -0.0413  0.9176  0.0195  -1.5197   0.0000   0.0000   0.0000  -0.0637
  -2.800  -0.1215   0.00963   0.00363  -0.0413  0.9124  0.0203  -1.4608   0.0000   0.0000   0.0000  -0.0914
  -2.700  -0.1109   0.00948   0.00346  -0.0413  0.9072  0.0209  -1.4062   0.0000   0.0000   0.0000  -0.1241
  -2.600  -0.1000   0.00954   0.00354  -0.0414  0.9024  0.0227  -1.3158   0.0000   0.0000   0.0000  -0.1653
  -2.500  -0.0892   0.00961   0.00363  -0.0415  0.8992  0.0240  -1.2349   0.0000   0.0000   0.0000  -0.2168
  -2.400  -0.0787   0.00935   0.00335  -0.0414  0.8966  0.0240  -1.2044   0.0000   0.0000   0.0000  -0.2781
  -2.300  -0.0683   0.00905   0.00302  -0.0414  0.8936  0.0239  -1.1842   0.0000   0.0000   0.0000  -0.3577
  -2.200  -0.0578   0.00879   0.00273  -0.0413  0.8902  0.0237  -1.1622   0.0000   0.0000   0.0000  -0.4673
  -2.100  -0.0472   0.00856   0.00247  -0.0413  0.8865  0.0236  -1.1385   0.0000   0.0000   0.0000  -0.6270
  -2.000  -0.0366   0.00837   0.00223  -0.0413  0.8826  0.0236  -1.1132   0.0000   0.0000   0.0000  -0.8807
  -1.900  -0.0259   0.00820   0.00203  -0.0412  0.8786  0.0235  -1.0865   0.0000   0.0000   0.0000  -1.3439
  -1.800  -0.0153   0.00805   0.00184  -0.0412  0.8745  0.0236  -1.0585   0.0000   0.0000   0.0000  -2.4537
  -1.700  -0.0046   0.00793   0.00168  -0.0412  0.8704  0.0237  -1.0293   0.0000   0.0000   0.0000  -8.6894
  -1.600   0.0060   0.00783   0.00154  -0.0411  0.8663  0.0238  -0.9990   0.0000   0.0000   0.0000   7.0861
  -1.500   0.0167   0.00774   0.00141  -0.0411  0.8623  0.0241  -0.9679   0.0000   0.0000   0.0000   2.7224
  -1.400   0.0273   0.00768   0.00130  -0.0411  0.8582  0.0244  -0.9359   0.0000   0.0000   0.0000   1.7580
  -1.300   0.0379   0.00762   0.00121  -0.0411  0.8542  0.0249  -0.9028   0.0000   0.0000   0.0000   1.3339
  -1.200   0.0484   0.00702   0.00098  -0.0412  0.8498  0.1618  -0.9457   0.0000   0.0000   0.0000   1.1033
  -1.100   0.0569   0.00566   0.00086  -0.0419  0.8478  0.5381  -0.9135   0.0000   0.0000   0.0000   0.9871
  -1.000   0.0660   0.00525   0.00090  -0.0417  0.8457  0.6617  -0.8703   0.0000   0.0000   0.0000   0.8828
  -0.900   0.0753   0.00508   0.00094  -0.0414  0.8434  0.7193  -0.8244   0.0000   0.0000   0.0000   0.8002
  -0.800   0.0844   0.00497   0.00098  -0.0409  0.8405  0.7640  -0.7781   0.0000   0.0000   0.0000   0.7356
  -0.700   0.0935   0.00490   0.00102  -0.0405  0.8373  0.7964  -0.7314   0.0000   0.0000   0.0000   0.6832
  -0.600   0.1024   0.00485   0.00104  -0.0400  0.8338  0.8186  -0.6854   0.0000   0.0000   0.0000   0.6405
  -0.500   0.1117   0.00482   0.00106  -0.0395  0.8301  0.8351  -0.6389   0.0000   0.0000   0.0000   0.6042
  -0.400   0.1220   0.00483   0.00106  -0.0394  0.8263  0.8431  -0.5906   0.0000   0.0000   0.0000   0.5734
  -0.300   0.1327   0.00483   0.00105  -0.0395  0.8226  0.8457  -0.5418   0.0000   0.0000   0.0000   0.5474
  -0.200   0.1435   0.00484   0.00104  -0.0395  0.8191  0.8472  -0.4934   0.0000   0.0000   0.0000   0.5254
  -0.100   0.1544   0.00485   0.00103  -0.0396  0.8161  0.8481  -0.4453   0.0000   0.0000   0.0000   0.5064
   0.000   0.1654   0.00486   0.00102  -0.0397  0.8133  0.8486  -0.3977   0.0000   0.0000   0.0000   0.4900
   0.100   0.1763   0.00487   0.00102  -0.0398  0.8103  0.8486  -0.4295   0.0000   0.0000   0.0000   0.4757
   0.200   0.1873   0.00489   0.00101  -0.0399  0.8069  0.8483  -0.4794   0.0000   0.0000   0.0000   0.4630
   0.300   0.1981   0.00491   0.00100  -0.0400  0.8024  0.8482  -0.5295   0.0000   0.0000   0.0000   0.4517
   0.400   0.2092   0.00492   0.00101  -0.0401  0.8015  0.8496  -0.5826   0.0000   0.0000   0.0000   0.4416
   0.500   0.2200   0.00492   0.00102  -0.0402  0.8003  0.8527  -0.6360   0.0000   0.0000   0.0000   0.4325
   0.600   0.2307   0.00491   0.00104  -0.0402  0.7996  0.8560  -0.6901   0.0000   0.0000   0.0000   0.4241
   0.700   0.2413   0.00491   0.00105  -0.0403  0.7985  0.8593  -0.7448   0.0000   0.0000   0.0000   0.4165
   0.800   0.2520   0.00491   0.00107  -0.0403  0.7967  0.8624  -0.8000   0.0000   0.0000   0.0000   0.4095
   0.900   0.2623   0.00491   0.00108  -0.0402  0.7896  0.8653  -0.8551   0.0000   0.0000   0.0000   0.4028
   1.000   0.2719   0.00495   0.00106  -0.0399  0.7721  0.8681  -0.9091   0.0000   0.0000   0.0000   0.3963
   1.100   0.2809   0.00505   0.00104  -0.0394  0.7465  0.8709  -0.9618   0.0000   0.0000   0.0000   0.3899
   1.200   0.2905   0.00512   0.00103  -0.0391  0.7212  0.8737  -1.0162   0.0000   0.0000   0.0000   0.3842
   1.300   0.2999   0.00522   0.00104  -0.0388  0.6993  0.8765  -1.0699   0.0000   0.0000   0.0000   0.3789
   1.400   0.3093   0.00533   0.00104  -0.0385  0.6671  0.8794  -1.1236   0.0000   0.0000   0.0000   0.3741
   1.500   0.3165   0.00572   0.00105  -0.0378  0.5774  0.8828  -1.1703   0.0000   0.0000   0.0000   0.3690
   1.700   0.3266   0.00764   0.00142  -0.0367  0.1814  0.8904  -1.2424   0.0000   0.0000   0.0000   0.3616
   1.800   0.3336   0.00846   0.00164  -0.0364  0.0328  0.8939  -1.2708   0.0000   0.0000   0.0000   0.3583
   1.900   0.3441   0.00856   0.00175  -0.0362  0.0231  0.8968  -1.2792   0.0000   0.0000   0.0000   0.3546
   2.000   0.3546   0.00863   0.00185  -0.0362  0.0223  0.8993  -1.3175   0.0000   0.0000   0.0000   0.3514
   2.100   0.3647   0.00871   0.00196  -0.0361  0.0218  0.9032  -1.3551   0.0000   0.0000   0.0000   0.3481
   2.200   0.3744   0.00879   0.00208  -0.0358  0.0214  0.9079  -1.3920   0.0000   0.0000   0.0000   0.3448
   2.300   0.3841   0.00889   0.00221  -0.0356  0.0212  0.9129  -1.4285   0.0000   0.0000   0.0000   0.3417
   2.400   0.3938   0.00900   0.00236  -0.0353  0.0211  0.9181  -1.4646   0.0000   0.0000   0.0000   0.3387
   2.500   0.4034   0.00913   0.00253  -0.0351  0.0210  0.9235  -1.5000   0.0000   0.0000   0.0000   0.3359
   2.600   0.4130   0.00928   0.00272  -0.0348  0.0210  0.9293  -1.5346   0.0000   0.0000   0.0000   0.3332
   2.700   0.4225   0.00945   0.00293  -0.0345  0.0210  0.9350  -1.5681   0.0000   0.0000   0.0000   0.3306
   2.800   0.4320   0.00964   0.00316  -0.0342  0.0210  0.9402  -1.6003   0.0000   0.0000   0.0000   0.3281
   2.900   0.4413   0.00986   0.00341  -0.0339  0.0211  0.9447  -1.6310   0.0000   0.0000   0.0000   0.3256
   3.000   0.4505   0.01010   0.00370  -0.0335  0.0212  0.9484  -1.6602   0.0000   0.0000   0.0000   0.3232
   3.100   0.4604   0.01039   0.00402  -0.0333  0.0214  0.9535  -1.6891   0.0000   0.0000   0.0000   0.3212
   3.200   0.4711   0.01072   0.00440  -0.0334  0.0216  0.9611  -1.7177   0.0000   0.0000   0.0000   0.3195
   3.300   0.4822   0.01107   0.00478  -0.0335  0.0216  0.9690  -1.7496   0.0000   0.0000   0.0000   0.3180
   3.400   0.4940   0.01118   0.00488  -0.0338  0.0208  0.9763  -1.8246   0.0000   0.0000   0.0000   0.3170
   3.500   0.5059   0.01115   0.00482  -0.0342  0.0192  0.9835  -1.9291   0.0000   0.0000   0.0000   0.3162
   3.600   0.5172   0.01128   0.00493  -0.0345  0.0183  0.9921  -2.0092   0.0000   0.0000   0.0000   0.3151
   3.700   0.5278   0.01150   0.00517  -0.0345  0.0178  1.0000  -2.0717   0.0000   0.0000   0.0000   0.3138
   3.800   0.5380   0.01170   0.00537  -0.0345  0.0172  1.0000  -2.1425   0.0000   0.0000   0.0000   0.3124
   3.900   0.5483   0.01185   0.00550  -0.0345  0.0164  1.0000  -2.3080   0.0000   0.0000   0.0000   0.3112
   4.000   0.5587   0.01194   0.00555  -0.0346  0.0154  1.0000  -2.5088   0.0000   0.0000   0.0000   0.3101
   4.100   0.5684   0.01220   0.00577  -0.0346  0.0138  1.0000  -2.6961   0.0000   0.0000   0.0000   0.3089
   4.200   0.5754   0.01363   0.00729  -0.0337  0.0117  1.0000  -2.7263   0.0000   0.0000   0.0000   0.3067
   4.300   0.5871   0.01336   0.00699  -0.0339  0.0102  1.0000  -2.9156   0.0000   0.0000   0.0000   0.3057
   4.400   0.5971   0.01403   0.00772  -0.0334  0.0094  1.0000  -2.9875   0.0000   0.0000   0.0000   0.3039
   4.500   0.6067   0.01579   0.00965  -0.0324  0.0096  1.0000  -2.9126   0.0000   0.0000   0.0000   0.3013


