xflr5 v6.61

 Calculated polar for: NACA 65-210

 1 1 Reynolds number fixed          Mach number fixed         

 xtrf =   1.000 (top)        1.000 (bottom)
 Mach =   0.000     Re =     0.160 e 6     Ncrit =   9.000

  alpha     CL        CD       CDp       Cm    Top Xtr Bot Xtr   Cpmin    Chinge    XCp    
 ------- -------- --------- --------- -------- ------- ------- -------- --------- ---------
 -10.000  -0.4186   0.09704   0.09269  -0.0397  1.0000  0.0469  -1.5379   0.0000   0.0000   0.0000   0.1482
  -9.900  -0.4196   0.09563   0.09129  -0.0404  1.0000  0.0473  -1.5579   0.0000   0.0000   0.0000   0.1467
  -9.800  -0.4209   0.09422   0.08990  -0.0413  1.0000  0.0478  -1.5798   0.0000   0.0000   0.0000   0.1451
  -9.700  -0.4224   0.09280   0.08850  -0.0422  1.0000  0.0482  -1.6037   0.0000   0.0000   0.0000   0.1434
  -9.600  -0.4242   0.09137   0.08709  -0.0432  1.0000  0.0486  -1.6296   0.0000   0.0000   0.0000   0.1416
  -9.500  -0.4262   0.08993   0.08566  -0.0443  1.0000  0.0489  -1.6559   0.0000   0.0000   0.0000   0.1396
  -9.400  -0.4277   0.08852   0.08429  -0.0454  1.0000  0.0493  -1.6795   0.0000   0.0000   0.0000   0.1374
  -9.300  -0.4297   0.08698   0.08277  -0.0467  1.0000  0.0495  -1.7057   0.0000   0.0000   0.0000   0.1352
  -9.200  -0.4325   0.08530   0.08109  -0.0480  1.0000  0.0497  -1.7348   0.0000   0.0000   0.0000   0.1330
  -9.100  -0.4360   0.08363   0.07943  -0.0492  1.0000  0.0498  -1.7641   0.0000   0.0000   0.0000   0.1312
  -9.000  -0.4402   0.08211   0.07791  -0.0502  1.0000  0.0499  -1.7911   0.0000   0.0000   0.0000   0.1302
  -8.900  -0.4450   0.08071   0.07651  -0.0509  1.0000  0.0499  -1.8165   0.0000   0.0000   0.0000   0.1300
  -8.800  -0.4503   0.07941   0.07521  -0.0514  1.0000  0.0500  -1.8406   0.0000   0.0000   0.0000   0.1305
  -8.700  -0.4562   0.07821   0.07401  -0.0516  1.0000  0.0500  -1.8632   0.0000   0.0000   0.0000   0.1316
  -8.600  -0.4627   0.07711   0.07291  -0.0516  1.0000  0.0500  -1.8845   0.0000   0.0000   0.0000   0.1334
  -8.500  -0.4696   0.07611   0.07190  -0.0512  1.0000  0.0500  -1.9045   0.0000   0.0000   0.0000   0.1359
  -8.400  -0.4771   0.07522   0.07101  -0.0506  1.0000  0.0501  -1.9233   0.0000   0.0000   0.0000   0.1391
  -8.300  -0.4852   0.07444   0.07023  -0.0496  1.0000  0.0501  -1.9410   0.0000   0.0000   0.0000   0.1431
  -8.200  -0.4937   0.07376   0.06956  -0.0482  1.0000  0.0501  -1.9576   0.0000   0.0000   0.0000   0.1477
  -8.100  -0.5021   0.07314   0.06894  -0.0467  1.0000  0.0501  -1.9730   0.0000   0.0000   0.0000   0.1525
  -8.000  -0.5092   0.07246   0.06824  -0.0454  1.0000  0.0501  -1.9866   0.0000   0.0000   0.0000   0.1565
  -7.900  -0.5158   0.07178   0.06755  -0.0441  1.0000  0.0502  -1.9989   0.0000   0.0000   0.0000   0.1602
  -7.800  -0.5223   0.07114   0.06690  -0.0428  1.0000  0.0503  -2.0101   0.0000   0.0000   0.0000   0.1639
  -7.700  -0.5285   0.07052   0.06625  -0.0414  1.0000  0.0504  -2.0203   0.0000   0.0000   0.0000   0.1675
  -7.600  -0.5345   0.06989   0.06560  -0.0400  1.0000  0.0504  -2.0295   0.0000   0.0000   0.0000   0.1712
  -7.500  -0.5402   0.06926   0.06494  -0.0385  1.0000  0.0505  -2.0377   0.0000   0.0000   0.0000   0.1747
  -7.400  -0.5456   0.06862   0.06428  -0.0370  1.0000  0.0506  -2.0451   0.0000   0.0000   0.0000   0.1782
  -7.300  -0.5508   0.06796   0.06359  -0.0356  1.0000  0.0506  -2.0516   0.0000   0.0000   0.0000   0.1816
  -7.200  -0.5556   0.06728   0.06287  -0.0341  1.0000  0.0507  -2.0572   0.0000   0.0000   0.0000   0.1849
  -7.100  -0.5600   0.06657   0.06214  -0.0327  1.0000  0.0507  -2.0620   0.0000   0.0000   0.0000   0.1880
  -7.000  -0.5641   0.06584   0.06137  -0.0313  1.0000  0.0508  -2.0661   0.0000   0.0000   0.0000   0.1910
  -6.900  -0.5678   0.06508   0.06057  -0.0299  1.0000  0.0508  -2.0693   0.0000   0.0000   0.0000   0.1939
  -6.800  -0.5712   0.06429   0.05973  -0.0285  1.0000  0.0508  -2.0718   0.0000   0.0000   0.0000   0.1966
  -6.700  -0.5742   0.06347   0.05887  -0.0272  1.0000  0.0509  -2.0734   0.0000   0.0000   0.0000   0.1992
  -6.600  -0.5768   0.06262   0.05797  -0.0259  1.0000  0.0509  -2.0742   0.0000   0.0000   0.0000   0.2017
  -6.500  -0.5790   0.06175   0.05704  -0.0247  1.0000  0.0510  -2.0743   0.0000   0.0000   0.0000   0.2040
  -6.400  -0.5809   0.06084   0.05608  -0.0235  1.0000  0.0510  -2.0735   0.0000   0.0000   0.0000   0.2063
  -6.300  -0.5824   0.05986   0.05502  -0.0223  1.0000  0.0510  -2.0725   0.0000   0.0000   0.0000   0.2084
  -6.200  -0.5801   0.05862   0.05369  -0.0219  0.9994  0.0510  -2.0669   0.0000   0.0000   0.0000   0.2090
  -6.100  -0.5916   0.05067   0.04564  -0.0234  0.9977  0.0532  -2.2143   0.0000   0.0000   0.0000   0.2072
  -6.000  -0.5866   0.04804   0.04297  -0.0241  0.9960  0.0545  -2.1964   0.0000   0.0000   0.0000   0.2057
  -5.900  -0.5789   0.04619   0.04108  -0.0247  0.9942  0.0556  -2.1527   0.0000   0.0000   0.0000   0.2042
  -5.800  -0.5703   0.04470   0.03958  -0.0252  0.9923  0.0568  -2.1018   0.0000   0.0000   0.0000   0.2027
  -5.700  -0.5613   0.04335   0.03821  -0.0257  0.9901  0.0581  -2.0525   0.0000   0.0000   0.0000   0.2011
  -5.600  -0.5520   0.04208   0.03688  -0.0262  0.9877  0.0597  -2.0057   0.0000   0.0000   0.0000   0.1995
  -5.500  -0.5421   0.04082   0.03555  -0.0267  0.9852  0.0616  -1.9621   0.0000   0.0000   0.0000   0.1977
  -5.400  -0.5317   0.03954   0.03416  -0.0272  0.9825  0.0638  -1.9231   0.0000   0.0000   0.0000   0.1959
  -5.300  -0.5153   0.03716   0.03130  -0.0266  0.9801  0.0464  -2.0733   0.0000   0.0000   0.0000   0.1954
  -5.200  -0.5069   0.03421   0.02815  -0.0268  0.9775  0.0404  -2.1251   0.0000   0.0000   0.0000   0.1941
  -5.100  -0.4951   0.03093   0.02433  -0.0261  0.9751  0.0326  -2.3064   0.0000   0.0000   0.0000   0.1940
  -5.000  -0.4806   0.02926   0.02230  -0.0259  0.9729  0.0296  -2.3662   0.0000   0.0000   0.0000   0.1928
  -4.900  -0.4673   0.02780   0.02062  -0.0262  0.9706  0.0295  -2.3398   0.0000   0.0000   0.0000   0.1907
  -4.700  -0.4414   0.02611   0.01854  -0.0276  0.9658  0.0542  -1.9797   0.0000   0.0000   0.0000   0.1842
  -4.600  -0.4274   0.02510   0.01745  -0.0284  0.9640  0.0550  -1.9306   0.0000   0.0000   0.0000   0.1802
  -4.500  -0.4110   0.02487   0.01711  -0.0292  0.9621  0.0534  -1.9010   0.0000   0.0000   0.0000   0.1756
  -4.400  -0.3947   0.02471   0.01688  -0.0301  0.9604  0.0525  -1.8603   0.0000   0.0000   0.0000   0.1704
  -4.100  -0.3481   0.02302   0.01500  -0.0328  0.9561  0.0505  -1.7787   0.0000   0.0000   0.0000   0.1525
  -4.000  -0.3329   0.02216   0.01407  -0.0336  0.9549  0.0502  -1.7663   0.0000   0.0000   0.0000   0.1457
  -3.900  -0.3174   0.02149   0.01333  -0.0345  0.9536  0.0501  -1.7486   0.0000   0.0000   0.0000   0.1380
  -3.800  -0.3019   0.02092   0.01272  -0.0354  0.9523  0.0500  -1.7283   0.0000   0.0000   0.0000   0.1293
  -3.700  -0.2864   0.02047   0.01223  -0.0363  0.9508  0.0501  -1.7063   0.0000   0.0000   0.0000   0.1198
  -3.600  -0.2767   0.02006   0.01179  -0.0360  0.9488  0.0503  -1.6886   0.0000   0.0000   0.0000   0.1163
  -3.500  -0.2709   0.01965   0.01136  -0.0350  0.9461  0.0504  -1.6740   0.0000   0.0000   0.0000   0.1173
  -3.400  -0.2641   0.01928   0.01097  -0.0342  0.9431  0.0507  -1.6576   0.0000   0.0000   0.0000   0.1171
  -3.300  -0.2561   0.01895   0.01061  -0.0336  0.9400  0.0509  -1.6390   0.0000   0.0000   0.0000   0.1154
  -3.200  -0.2479   0.01843   0.01010  -0.0331  0.9371  0.0516  -1.6312   0.0000   0.0000   0.0000   0.1131
  -3.100  -0.2396   0.01783   0.00946  -0.0327  0.9342  0.0529  -1.6313   0.0000   0.0000   0.0000   0.1102
  -3.000  -0.2304   0.01730   0.00890  -0.0324  0.9314  0.0550  -1.6279   0.0000   0.0000   0.0000   0.1058
  -2.900  -0.2202   0.01687   0.00844  -0.0324  0.9287  0.0580  -1.6181   0.0000   0.0000   0.0000   0.0994
  -2.800  -0.2091   0.01654   0.00812  -0.0326  0.9262  0.0630  -1.5941   0.0000   0.0000   0.0000   0.0904
  -2.700  -0.1969   0.01629   0.00786  -0.0330  0.9239  0.0699  -1.5642   0.0000   0.0000   0.0000   0.0788
  -2.600  -0.1840   0.01606   0.00760  -0.0335  0.9218  0.0773  -1.5420   0.0000   0.0000   0.0000   0.0645
  -2.500  -0.1724   0.01542   0.00713  -0.0338  0.9197  0.1172  -1.5505   0.0000   0.0000   0.0000   0.0505
  -2.400  -0.1756   0.01313   0.00712  -0.0321  0.9172  0.6102  -1.5640   0.0000   0.0000   0.0000   0.0636
  -2.300  -0.1685   0.01319   0.00754  -0.0302  0.9150  0.7104  -1.5350   0.0000   0.0000   0.0000   0.0671
  -2.200  -0.1578   0.01342   0.00783  -0.0294  0.9132  0.7488  -1.4845   0.0000   0.0000   0.0000   0.0602
  -2.100  -0.1485   0.01366   0.00818  -0.0280  0.9113  0.7710  -1.4321   0.0000   0.0000   0.0000   0.0579
  -2.000  -0.1373   0.01396   0.00848  -0.0273  0.9097  0.7906  -1.3735   0.0000   0.0000   0.0000   0.0477
  -1.900  -0.1257   0.01419   0.00871  -0.0267  0.9082  0.8058  -1.3134   0.0000   0.0000   0.0000   0.0341
  -1.800  -0.1146   0.01446   0.00901  -0.0258  0.9066  0.8167  -1.2536   0.0000   0.0000   0.0000   0.0213
  -1.700  -0.1013   0.01469   0.00922  -0.0257  0.9052  0.8248  -1.1892   0.0000   0.0000   0.0000  -0.0076
  -1.600  -0.0891   0.01503   0.00954  -0.0252  0.9036  0.8359  -1.1276   0.0000   0.0000   0.0000  -0.0368
  -1.500  -0.0779   0.01546   0.00994  -0.0246  0.9017  0.8472  -1.0689   0.0000   0.0000   0.0000  -0.0702
  -1.400  -0.0722   0.01562   0.01011  -0.0230  0.8990  0.8561  -1.0253   0.0000   0.0000   0.0000  -0.0737
  -1.300  -0.0724   0.01570   0.01020  -0.0203  0.8952  0.8626  -0.9974   0.0000   0.0000   0.0000  -0.0351
  -1.200  -0.0704   0.01583   0.01034  -0.0181  0.8907  0.8688  -0.9642   0.0000   0.0000   0.0000  -0.0116
  -1.100  -0.0636   0.01594   0.01043  -0.0170  0.8869  0.8744  -0.9196   0.0000   0.0000   0.0000  -0.0220
  -1.000  -0.0541   0.01595   0.01042  -0.0167  0.8837  0.8782  -0.8695   0.0000   0.0000   0.0000  -0.0643
  -0.900  -0.0438   0.01593   0.01038  -0.0167  0.8807  0.8814  -0.8183   0.0000   0.0000   0.0000  -0.1376
  -0.800  -0.0330   0.01593   0.01035  -0.0168  0.8781  0.8848  -0.7665   0.0000   0.0000   0.0000  -0.2650
  -0.700  -0.0218   0.01594   0.01033  -0.0170  0.8758  0.8884  -0.7143   0.0000   0.0000   0.0000  -0.5348
  -0.600  -0.0101   0.01594   0.01031  -0.0172  0.8736  0.8918  -0.6615   0.0000   0.0000   0.0000  -1.4665
  -0.500   0.0020   0.01594   0.01029  -0.0176  0.8716  0.8949  -0.6086   0.0000   0.0000   0.0000   9.1251
  -0.400   0.0146   0.01594   0.01027  -0.0180  0.8698  0.8975  -0.5552   0.0000   0.0000   0.0000   1.4901
  -0.300   0.0276   0.01593   0.01025  -0.0185  0.8681  0.8996  -0.5018   0.0000   0.0000   0.0000   0.9246
  -0.200   0.0424   0.01581   0.01011  -0.0194  0.8666  0.9024  -0.4455   0.0000   0.0000   0.0000   0.7101
  -0.100   0.0581   0.01574   0.01003  -0.0205  0.8653  0.9047  -0.3879   0.0000   0.0000   0.0000   0.6028
   0.000   0.0745   0.01570   0.00998  -0.0216  0.8640  0.9068  -0.3301   0.0000   0.0000   0.0000   0.5402
   0.100   0.0912   0.01567   0.00994  -0.0228  0.8628  0.9087  -0.3360   0.0000   0.0000   0.0000   0.4999
   0.200   0.1084   0.01565   0.00992  -0.0241  0.8617  0.9105  -0.3437   0.0000   0.0000   0.0000   0.4720
   0.300   0.1258   0.01563   0.00990  -0.0255  0.8606  0.9123  -0.3515   0.0000   0.0000   0.0000   0.4518
   0.400   0.1434   0.01562   0.00989  -0.0269  0.8595  0.9141  -0.3594   0.0000   0.0000   0.0000   0.4366
   0.500   0.1609   0.01561   0.00988  -0.0282  0.8584  0.9159  -0.3673   0.0000   0.0000   0.0000   0.4247
   0.600   0.1786   0.01560   0.00988  -0.0297  0.8572  0.9177  -0.3753   0.0000   0.0000   0.0000   0.4151
   0.700   0.1964   0.01559   0.00986  -0.0311  0.8558  0.9196  -0.3835   0.0000   0.0000   0.0000   0.4072
   0.800   0.2142   0.01560   0.00987  -0.0325  0.8543  0.9216  -0.3924   0.0000   0.0000   0.0000   0.4005
   0.900   0.2315   0.01565   0.00992  -0.0338  0.8525  0.9238  -0.4066   0.0000   0.0000   0.0000   0.3947
   1.000   0.2464   0.01580   0.01007  -0.0347  0.8500  0.9265  -0.4661   0.0000   0.0000   0.0000   0.3895
   1.100   0.2571   0.01581   0.01010  -0.0348  0.8478  0.9300  -0.5165   0.0000   0.0000   0.0000   0.3842
   1.200   0.2667   0.01587   0.01017  -0.0348  0.8453  0.9338  -0.5649   0.0000   0.0000   0.0000   0.3793
   1.300   0.2752   0.01595   0.01027  -0.0346  0.8425  0.9377  -0.6113   0.0000   0.0000   0.0000   0.3745
   1.400   0.2828   0.01605   0.01038  -0.0343  0.8395  0.9415  -0.6558   0.0000   0.0000   0.0000   0.3697
   1.500   0.2896   0.01615   0.01049  -0.0337  0.8363  0.9451  -0.6991   0.0000   0.0000   0.0000   0.3649
   1.600   0.2962   0.01626   0.01062  -0.0331  0.8331  0.9482  -0.7422   0.0000   0.0000   0.0000   0.3601
   1.700   0.3068   0.01627   0.01065  -0.0333  0.8303  0.9509  -0.7967   0.0000   0.0000   0.0000   0.3567
   1.800   0.3244   0.01617   0.01057  -0.0348  0.8283  0.9531  -0.8703   0.0000   0.0000   0.0000   0.3555
   1.900   0.3427   0.01607   0.01050  -0.0364  0.8262  0.9549  -0.9477   0.0000   0.0000   0.0000   0.3544
   2.000   0.3614   0.01597   0.01042  -0.0380  0.8242  0.9565  -1.0277   0.0000   0.0000   0.0000   0.3534
   2.100   0.3804   0.01584   0.01033  -0.0396  0.8221  0.9581  -1.1098   0.0000   0.0000   0.0000   0.3524
   2.200   0.3994   0.01571   0.01023  -0.0412  0.8200  0.9597  -1.1936   0.0000   0.0000   0.0000   0.3514
   2.300   0.4186   0.01556   0.01012  -0.0428  0.8178  0.9612  -1.2795   0.0000   0.0000   0.0000   0.3504
   2.400   0.4410   0.01504   0.00962  -0.0443  0.8136  0.9621  -1.3788   0.0000   0.0000   0.0000   0.3486
   2.500   0.4643   0.01421   0.00877  -0.0452  0.8056  0.9627  -1.4855   0.0000   0.0000   0.0000   0.3454
   2.600   0.4799   0.01381   0.00838  -0.0454  0.7955  0.9648  -1.5674   0.0000   0.0000   0.0000   0.3425
   2.700   0.4942   0.01338   0.00798  -0.0455  0.7850  0.9673  -1.6453   0.0000   0.0000   0.0000   0.3400
   2.800   0.5098   0.01304   0.00767  -0.0460  0.7764  0.9697  -1.7269   0.0000   0.0000   0.0000   0.3381
   2.900   0.5256   0.01246   0.00705  -0.0459  0.7634  0.9719  -1.8121   0.0000   0.0000   0.0000   0.3352
   3.000   0.5402   0.01203   0.00653  -0.0457  0.7461  0.9742  -1.8928   0.0000   0.0000   0.0000   0.3323
   3.100   0.5524   0.01172   0.00626  -0.0455  0.7275  0.9775  -1.9630   0.0000   0.0000   0.0000   0.3301
   3.200   0.5658   0.01139   0.00579  -0.0452  0.7038  0.9802  -2.0359   0.0000   0.0000   0.0000   0.3275
   3.300   0.5766   0.01119   0.00553  -0.0447  0.6654  0.9836  -2.0948   0.0000   0.0000   0.0000   0.3250
   3.400   0.5829   0.01125   0.00507  -0.0430  0.5581  0.9874  -2.1309   0.0000   0.0000   0.0000   0.3211
   3.500   0.5764   0.01275   0.00516  -0.0402  0.2985  0.9927  -2.1285   0.0000   0.0000   0.0000   0.3170
   3.600   0.5732   0.01457   0.00583  -0.0388  0.0874  0.9971  -2.1093   0.0000   0.0000   0.0000   0.3149
   3.700   0.5828   0.01516   0.00629  -0.0388  0.0656  0.9995  -2.1152   0.0000   0.0000   0.0000   0.3137
   3.800   0.5866   0.01544   0.00655  -0.0377  0.0592  1.0000  -2.1256   0.0000   0.0000   0.0000   0.3113
   3.900   0.5868   0.01571   0.00683  -0.0359  0.0552  1.0000  -2.1247   0.0000   0.0000   0.0000   0.3082
   4.000   0.5860   0.01602   0.00719  -0.0340  0.0521  1.0000  -2.1167   0.0000   0.0000   0.0000   0.3048
   4.100   0.5840   0.01639   0.00762  -0.0318  0.0500  1.0000  -2.1050   0.0000   0.0000   0.0000   0.3012
   4.200   0.5827   0.01671   0.00796  -0.0297  0.0488  1.0000  -2.1015   0.0000   0.0000   0.0000   0.2976
   4.300   0.5838   0.01688   0.00815  -0.0280  0.0484  1.0000  -2.1159   0.0000   0.0000   0.0000   0.2946
   4.400   0.5849   0.01706   0.00835  -0.0263  0.0479  1.0000  -2.1296   0.0000   0.0000   0.0000   0.2916
   4.500   0.5864   0.01728   0.00859  -0.0247  0.0474  1.0000  -2.1432   0.0000   0.0000   0.0000   0.2886
   4.600   0.5886   0.01753   0.00886  -0.0232  0.0469  1.0000  -2.1573   0.0000   0.0000   0.0000   0.2858
   4.700   0.5919   0.01781   0.00916  -0.0218  0.0464  1.0000  -2.1723   0.0000   0.0000   0.0000   0.2832
   4.800   0.5965   0.01814   0.00951  -0.0207  0.0459  1.0000  -2.1888   0.0000   0.0000   0.0000   0.2810
   4.900   0.6024   0.01852   0.00991  -0.0198  0.0455  1.0000  -2.2066   0.0000   0.0000   0.0000   0.2791
   5.000   0.6094   0.01895   0.01036  -0.0191  0.0451  1.0000  -2.2256   0.0000   0.0000   0.0000   0.2775
   5.100   0.6175   0.01943   0.01085  -0.0186  0.0448  1.0000  -2.2454   0.0000   0.0000   0.0000   0.2761
   5.200   0.6264   0.01994   0.01138  -0.0182  0.0446  1.0000  -2.2660   0.0000   0.0000   0.0000   0.2750
   5.300   0.6360   0.02050   0.01197  -0.0179  0.0444  1.0000  -2.2869   0.0000   0.0000   0.0000   0.2740
   5.400   0.6461   0.02110   0.01261  -0.0176  0.0443  1.0000  -2.3080   0.0000   0.0000   0.0000   0.2732
   5.500   0.6566   0.02175   0.01329  -0.0175  0.0444  1.0000  -2.3289   0.0000   0.0000   0.0000   0.2724
   5.600   0.6672   0.02244   0.01403  -0.0173  0.0444  1.0000  -2.3495   0.0000   0.0000   0.0000   0.2717
   5.700   0.6780   0.02318   0.01483  -0.0172  0.0446  1.0000  -2.3692   0.0000   0.0000   0.0000   0.2711
   5.800   0.6887   0.02397   0.01568  -0.0171  0.0448  1.0000  -2.3881   0.0000   0.0000   0.0000   0.2705
   5.900   0.6993   0.02482   0.01659  -0.0170  0.0451  1.0000  -2.4056   0.0000   0.0000   0.0000   0.2698
   6.000   0.7097   0.02573   0.01758  -0.0168  0.0454  1.0000  -2.4216   0.0000   0.0000   0.0000   0.2692
   6.100   0.7197   0.02671   0.01864  -0.0166  0.0458  1.0000  -2.4354   0.0000   0.0000   0.0000   0.2685
   6.200   0.7294   0.02778   0.01981  -0.0164  0.0463  1.0000  -2.4466   0.0000   0.0000   0.0000   0.2678
   6.300   0.7340   0.02739   0.01978  -0.0151  0.0311  1.0000  -2.6995   0.0000   0.0000   0.0000   0.2659
   6.400   0.7410   0.02868   0.02108  -0.0147  0.0282  1.0000  -2.7894   0.0000   0.0000   0.0000   0.2650
   6.500   0.7484   0.03036   0.02289  -0.0142  0.0270  1.0000  -2.8208   0.0000   0.0000   0.0000   0.2641
   6.600   0.7553   0.03202   0.02469  -0.0136  0.0264  1.0000  -2.8381   0.0000   0.0000   0.0000   0.2630
   6.700   0.7617   0.03353   0.02635  -0.0129  0.0261  1.0000  -2.8550   0.0000   0.0000   0.0000   0.2619
   6.800   0.7678   0.03491   0.02786  -0.0121  0.0260  1.0000  -2.8747   0.0000   0.0000   0.0000   0.2607
   6.900   0.7738   0.03614   0.02922  -0.0114  0.0259  1.0000  -2.8982   0.0000   0.0000   0.0000   0.2596
   7.000   0.7824   0.03671   0.02995  -0.0104  0.0271  1.0000  -2.9444   0.0000   0.0000   0.0000   0.2580
   7.100   0.7883   0.03775   0.03112  -0.0095  0.0274  1.0000  -2.9669   0.0000   0.0000   0.0000   0.2568
   7.200   0.7943   0.03870   0.03220  -0.0087  0.0278  1.0000  -2.9838   0.0000   0.0000   0.0000   0.2556
   7.300   0.7945   0.04237   0.03654  -0.0054  0.0364  1.0000  -2.6724   0.0000   0.0000   0.0000   0.2515
   7.400   0.7953   0.04439   0.03873  -0.0040  0.0393  1.0000  -2.6242   0.0000   0.0000   0.0000   0.2497
   7.500   0.7958   0.04627   0.04074  -0.0028  0.0416  1.0000  -2.5975   0.0000   0.0000   0.0000   0.2482
   7.600   0.7953   0.04827   0.04283  -0.0017  0.0437  1.0000  -2.5761   0.0000   0.0000   0.0000   0.2467
   7.700   0.8043   0.05011   0.04495  -0.0001  0.0567  1.0000  -2.4656   0.0000   0.0000   0.0000   0.2447
   7.800   0.8074   0.05114   0.04599   0.0005  0.0555  1.0000  -2.5077   0.0000   0.0000   0.0000   0.2439
   7.900   0.8111   0.05226   0.04711   0.0009  0.0545  1.0000  -2.5536   0.0000   0.0000   0.0000   0.2432
   8.000   0.8166   0.05364   0.04846   0.0011  0.0534  1.0000  -2.6072   0.0000   0.0000   0.0000   0.2430
   8.100   0.8178   0.05521   0.05004   0.0017  0.0525  1.0000  -2.6340   0.0000   0.0000   0.0000   0.2422
   8.200   0.8175   0.05719   0.05205   0.0022  0.0516  1.0000  -2.6478   0.0000   0.0000   0.0000   0.2414
   8.300   0.8141   0.05974   0.05464   0.0029  0.0508  1.0000  -2.6376   0.0000   0.0000   0.0000   0.2406
   8.400   0.8060   0.06291   0.05788   0.0038  0.0501  1.0000  -2.5938   0.0000   0.0000   0.0000   0.2394
   8.500   0.7924   0.06666   0.06174   0.0048  0.0494  1.0000  -2.5133   0.0000   0.0000   0.0000   0.2379
   8.600   0.7791   0.06987   0.06499   0.0060  0.0490  1.0000  -2.4388   0.0000   0.0000   0.0000   0.2363
   8.700   0.7758   0.07099   0.06617   0.0071  0.0490  1.0000  -2.4361   0.0000   0.0000   0.0000   0.2348
   8.800   0.7720   0.07208   0.06731   0.0082  0.0490  1.0000  -2.4321   0.0000   0.0000   0.0000   0.2333
   8.900   0.7676   0.07314   0.06842   0.0093  0.0489  1.0000  -2.4268   0.0000   0.0000   0.0000   0.2317
   9.000   0.7626   0.07417   0.06950   0.0104  0.0489  1.0000  -2.4201   0.0000   0.0000   0.0000   0.2300
   9.100   0.7564   0.07507   0.07045   0.0118  0.0489  1.0000  -2.4116   0.0000   0.0000   0.0000   0.2281
   9.200   0.7492   0.07589   0.07130   0.0133  0.0489  1.0000  -2.4015   0.0000   0.0000   0.0000   0.2258
   9.300   0.7418   0.07673   0.07216   0.0148  0.0489  1.0000  -2.3905   0.0000   0.0000   0.0000   0.2236
   9.400   0.7343   0.07761   0.07307   0.0161  0.0489  1.0000  -2.3784   0.0000   0.0000   0.0000   0.2215
   9.500   0.7269   0.07854   0.07404   0.0172  0.0489  1.0000  -2.3655   0.0000   0.0000   0.0000   0.2197
   9.600   0.7194   0.07953   0.07505   0.0181  0.0489  1.0000  -2.3516   0.0000   0.0000   0.0000   0.2181
   9.700   0.7121   0.08056   0.07612   0.0189  0.0489  1.0000  -2.3367   0.0000   0.0000   0.0000   0.2167
   9.800   0.7048   0.08165   0.07724   0.0194  0.0489  1.0000  -2.3208   0.0000   0.0000   0.0000   0.2155
   9.900   0.6976   0.08281   0.07842   0.0198  0.0489  1.0000  -2.3039   0.0000   0.0000   0.0000   0.2145
  10.000   0.6904   0.08404   0.07967   0.0201  0.0489  1.0000  -2.2857   0.0000   0.0000   0.0000   0.2137
  10.100   0.6834   0.08533   0.08099   0.0202  0.0488  1.0000  -2.2666   0.0000   0.0000   0.0000   0.2132
  10.200   0.6765   0.08668   0.08237   0.0201  0.0488  1.0000  -2.2461   0.0000   0.0000   0.0000   0.2129
  10.300   0.6698   0.08811   0.08381   0.0199  0.0488  1.0000  -2.2247   0.0000   0.0000   0.0000   0.2128
  10.400   0.6633   0.08961   0.08534   0.0195  0.0488  1.0000  -2.2021   0.0000   0.0000   0.0000   0.2129
  10.500   0.6571   0.09120   0.08694   0.0191  0.0488  1.0000  -2.1785   0.0000   0.0000   0.0000   0.2133
  10.600   0.6510   0.09285   0.08862   0.0184  0.0488  1.0000  -2.1536   0.0000   0.0000   0.0000   0.2138
  10.700   0.6453   0.09459   0.09036   0.0177  0.0488  1.0000  -2.1278   0.0000   0.0000   0.0000   0.2146
  10.800   0.6398   0.09639   0.09218   0.0168  0.0488  1.0000  -2.1007   0.0000   0.0000   0.0000   0.2156
  10.900   0.6347   0.09826   0.09406   0.0159  0.0488  1.0000  -2.0729   0.0000   0.0000   0.0000   0.2169
  11.000   0.6300   0.10020   0.09600   0.0148  0.0488  1.0000  -2.0442   0.0000   0.0000   0.0000   0.2183
  11.100   0.6257   0.10220   0.09801   0.0136  0.0488  1.0000  -2.0147   0.0000   0.0000   0.0000   0.2198
  11.200   0.6219   0.10427   0.10009   0.0124  0.0488  1.0000  -1.9846   0.0000   0.0000   0.0000   0.2216
  11.300   0.6186   0.10641   0.10224   0.0111  0.0488  1.0000  -1.9537   0.0000   0.0000   0.0000   0.2235
  11.400   0.6158   0.10865   0.10447   0.0098  0.0488  1.0000  -1.9216   0.0000   0.0000   0.0000   0.2256
  11.500   0.6136   0.11090   0.10671   0.0084  0.0487  1.0000  -1.8902   0.0000   0.0000   0.0000   0.2277
  11.600   0.6119   0.11307   0.10888   0.0071  0.0487  1.0000  -1.8619   0.0000   0.0000   0.0000   0.2296
  11.700   0.6106   0.11516   0.11096   0.0059  0.0487  1.0000  -1.8365   0.0000   0.0000   0.0000   0.2315
  11.800   0.6096   0.11719   0.11298   0.0048  0.0486  1.0000  -1.8133   0.0000   0.0000   0.0000   0.2332
  11.900   0.6088   0.11915   0.11493   0.0037  0.0486  1.0000  -1.7919   0.0000   0.0000   0.0000   0.2349
  12.000   0.6082   0.12106   0.11683   0.0027  0.0485  1.0000  -1.7719   0.0000   0.0000   0.0000   0.2365
  12.100   0.6078   0.12291   0.11867   0.0017  0.0485  1.0000  -1.7532   0.0000   0.0000   0.0000   0.2381
  12.200   0.6076   0.12470   0.12045   0.0007  0.0484  1.0000  -1.7356   0.0000   0.0000   0.0000   0.2397
  12.300   0.6074   0.12641   0.12215  -0.0003  0.0482  1.0000  -1.7188   0.0000   0.0000   0.0000   0.2412
  12.400   0.6074   0.12802   0.12375  -0.0013  0.0481  1.0000  -1.7029   0.0000   0.0000   0.0000   0.2427
  12.500   0.6075   0.12949   0.12521  -0.0022  0.0478  1.0000  -1.6876   0.0000   0.0000   0.0000   0.2443
  12.600   0.6077   0.13075   0.12645  -0.0032  0.0473  1.0000  -1.6723   0.0000   0.0000   0.0000   0.2458
  12.700   0.6076   0.13193   0.12763  -0.0044  0.0466  1.0000  -1.6524   0.0000   0.0000   0.0000   0.2476
  12.800   0.6069   0.13337   0.12906  -0.0055  0.0459  1.0000  -1.6269   0.0000   0.0000   0.0000   0.2494
  12.900   0.6066   0.13491   0.13058  -0.0066  0.0452  1.0000  -1.6044   0.0000   0.0000   0.0000   0.2511
  13.000   0.6065   0.13652   0.13218  -0.0076  0.0446  1.0000  -1.5838   0.0000   0.0000   0.0000   0.2527
  13.100   0.6066   0.13816   0.13382  -0.0086  0.0439  1.0000  -1.5658   0.0000   0.0000   0.0000   0.2542
  13.200   0.6071   0.13982   0.13547  -0.0095  0.0433  1.0000  -1.5503   0.0000   0.0000   0.0000   0.2557
  13.300   0.6077   0.14148   0.13712  -0.0104  0.0427  1.0000  -1.5368   0.0000   0.0000   0.0000   0.2570
  13.400   0.6085   0.14315   0.13878  -0.0113  0.0421  1.0000  -1.5249   0.0000   0.0000   0.0000   0.2583
  13.500   0.6093   0.14480   0.14043  -0.0121  0.0415  1.0000  -1.5140   0.0000   0.0000   0.0000   0.2596
  13.600   0.6104   0.14645   0.14207  -0.0129  0.0409  1.0000  -1.5044   0.0000   0.0000   0.0000   0.2608
  13.700   0.6115   0.14809   0.14370  -0.0137  0.0404  1.0000  -1.4959   0.0000   0.0000   0.0000   0.2620
  13.800   0.6127   0.14973   0.14533  -0.0145  0.0398  1.0000  -1.4882   0.0000   0.0000   0.0000   0.2631
  13.900   0.6140   0.15135   0.14695  -0.0153  0.0393  1.0000  -1.4812   0.0000   0.0000   0.0000   0.2643
  14.000   0.6154   0.15296   0.14856  -0.0161  0.0388  1.0000  -1.4749   0.0000   0.0000   0.0000   0.2654
  14.100   0.6169   0.15457   0.15015  -0.0168  0.0383  1.0000  -1.4693   0.0000   0.0000   0.0000   0.2664
  14.200   0.6184   0.15616   0.15174  -0.0176  0.0379  1.0000  -1.4641   0.0000   0.0000   0.0000   0.2675
  14.300   0.6199   0.15774   0.15331  -0.0183  0.0374  1.0000  -1.4595   0.0000   0.0000   0.0000   0.2685
  14.400   0.6216   0.15931   0.15488  -0.0190  0.0370  1.0000  -1.4554   0.0000   0.0000   0.0000   0.2695
  14.500   0.6233   0.16087   0.15644  -0.0198  0.0366  1.0000  -1.4518   0.0000   0.0000   0.0000   0.2705
  14.600   0.6250   0.16243   0.15799  -0.0205  0.0361  1.0000  -1.4486   0.0000   0.0000   0.0000   0.2715
  14.700   0.6269   0.16397   0.15953  -0.0212  0.0357  1.0000  -1.4458   0.0000   0.0000   0.0000   0.2725
  14.800   0.6287   0.16551   0.16107  -0.0219  0.0353  1.0000  -1.4435   0.0000   0.0000   0.0000   0.2734
  14.900   0.6307   0.16705   0.16260  -0.0227  0.0349  1.0000  -1.4417   0.0000   0.0000   0.0000   0.2743
  15.000   0.6327   0.16858   0.16412  -0.0234  0.0346  1.0000  -1.4403   0.0000   0.0000   0.0000   0.2752
  15.100   0.6347   0.17010   0.16565  -0.0241  0.0342  1.0000  -1.4394   0.0000   0.0000   0.0000   0.2761
  15.200   0.6368   0.17162   0.16716  -0.0247  0.0338  1.0000  -1.4391   0.0000   0.0000   0.0000   0.2770
  15.300   0.6389   0.17314   0.16867  -0.0254  0.0334  1.0000  -1.4392   0.0000   0.0000   0.0000   0.2778
  15.400   0.6411   0.17465   0.17018  -0.0261  0.0331  1.0000  -1.4398   0.0000   0.0000   0.0000   0.2786
  15.500   0.6433   0.17615   0.17168  -0.0268  0.0327  1.0000  -1.4411   0.0000   0.0000   0.0000   0.2794
  15.600   0.6456   0.17765   0.17317  -0.0274  0.0324  1.0000  -1.4430   0.0000   0.0000   0.0000   0.2802
  15.700   0.6480   0.17914   0.17466  -0.0281  0.0320  1.0000  -1.4456   0.0000   0.0000   0.0000   0.2809
  15.800   0.6503   0.18063   0.17614  -0.0287  0.0316  1.0000  -1.4489   0.0000   0.0000   0.0000   0.2817
  15.900   0.6528   0.18211   0.17762  -0.0294  0.0313  1.0000  -1.4530   0.0000   0.0000   0.0000   0.2824
  16.000   0.6553   0.18358   0.17909  -0.0300  0.0309  1.0000  -1.4580   0.0000   0.0000   0.0000   0.2830
  16.100   0.6579   0.18506   0.18056  -0.0306  0.0306  1.0000  -1.4639   0.0000   0.0000   0.0000   0.2837
  16.200   0.6605   0.18653   0.18203  -0.0312  0.0302  1.0000  -1.4708   0.0000   0.0000   0.0000   0.2843
  16.300   0.6632   0.18800   0.18351  -0.0318  0.0299  1.0000  -1.4789   0.0000   0.0000   0.0000   0.2849
  16.400   0.6660   0.18948   0.18498  -0.0324  0.0295  1.0000  -1.4881   0.0000   0.0000   0.0000   0.2855
  16.500   0.6689   0.19096   0.18646  -0.0330  0.0292  1.0000  -1.4987   0.0000   0.0000   0.0000   0.2860
  16.600   0.6720   0.19246   0.18796  -0.0335  0.0288  1.0000  -1.5109   0.0000   0.0000   0.0000   0.2865
  16.700   0.6752   0.19398   0.18947  -0.0341  0.0285  1.0000  -1.5249   0.0000   0.0000   0.0000   0.2869
  16.800   0.6785   0.19553   0.19102  -0.0346  0.0281  1.0000  -1.5409   0.0000   0.0000   0.0000   0.2873
  16.900   0.6820   0.19712   0.19261  -0.0351  0.0278  1.0000  -1.5591   0.0000   0.0000   0.0000   0.2876
  17.000   0.6859   0.19878   0.19428  -0.0355  0.0275  1.0000  -1.5800   0.0000   0.0000   0.0000   0.2879
  17.100   0.6901   0.20056   0.19606  -0.0359  0.0271  1.0000  -1.6043   0.0000   0.0000   0.0000   0.2881
  17.200   0.6948   0.20252   0.19802  -0.0363  0.0267  1.0000  -1.6326   0.0000   0.0000   0.0000   0.2881
  17.300   0.7002   0.20478   0.20029  -0.0366  0.0263  1.0000  -1.6657   0.0000   0.0000   0.0000   0.2881
  17.400   0.7047   0.20712   0.20264  -0.0370  0.0260  1.0000  -1.6905   0.0000   0.0000   0.0000   0.2882
  17.500   0.7077   0.20980   0.20535  -0.0377  0.0255  1.0000  -1.6968   0.0000   0.0000   0.0000   0.2888
  17.600   0.7098   0.21285   0.20840  -0.0385  0.0251  1.0000  -1.6829   0.0000   0.0000   0.0000   0.2896
  17.700   0.7103   0.21760   0.21315  -0.0396  0.0245  1.0000  -1.6225   0.0000   0.0000   0.0000   0.2912
  17.900   0.6828   0.20748   0.20419  -0.0928  0.0240  1.0000  -0.9589   0.0000   0.0000   0.0000   0.3766
  18.000   0.6863   0.21014   0.20685  -0.0936  0.0240  1.0000  -0.9602   0.0000   0.0000   0.0000   0.3769
  18.100   0.6897   0.21278   0.20949  -0.0944  0.0239  1.0000  -0.9616   0.0000   0.0000   0.0000   0.3773
  18.200   0.6931   0.21540   0.21211  -0.0952  0.0239  1.0000  -0.9629   0.0000   0.0000   0.0000   0.3776
  18.300   0.6964   0.21799   0.21470  -0.0960  0.0239  1.0000  -0.9642   0.0000   0.0000   0.0000   0.3779
  18.400   0.6997   0.22055   0.21726  -0.0968  0.0239  1.0000  -0.9654   0.0000   0.0000   0.0000   0.3782
  18.500   0.7029   0.22308   0.21979  -0.0976  0.0238  1.0000  -0.9667   0.0000   0.0000   0.0000   0.3785
  18.600   0.7062   0.22559   0.22230  -0.0983  0.0238  1.0000  -0.9680   0.0000   0.0000   0.0000   0.3788
  18.700   0.7091   0.22790   0.22461  -0.0992  0.0238  1.0000  -0.9686   0.0000   0.0000   0.0000   0.3792
  18.800   0.7119   0.23000   0.22671  -0.1000  0.0237  1.0000  -0.9686   0.0000   0.0000   0.0000   0.3796
  18.900   0.7146   0.23200   0.22871  -0.1008  0.0236  1.0000  -0.9687   0.0000   0.0000   0.0000   0.3801
  19.000   0.7171   0.23386   0.23056  -0.1017  0.0234  1.0000  -0.9681   0.0000   0.0000   0.0000   0.3806
  19.100   0.7194   0.23555   0.23225  -0.1026  0.0233  1.0000  -0.9660   0.0000   0.0000   0.0000   0.3813
  19.200   0.7211   0.23702   0.23373  -0.1036  0.0231  1.0000  -0.9591   0.0000   0.0000   0.0000   0.3821
  19.300   0.7228   0.23834   0.23504  -0.1046  0.0228  1.0000  -0.9512   0.0000   0.0000   0.0000   0.3830
  19.400   0.7246   0.23955   0.23626  -0.1057  0.0225  1.0000  -0.9421   0.0000   0.0000   0.0000   0.3840
  19.500   0.7265   0.24080   0.23751  -0.1067  0.0221  1.0000  -0.9324   0.0000   0.0000   0.0000   0.3849
  19.600   0.7288   0.24225   0.23896  -0.1077  0.0216  1.0000  -0.9232   0.0000   0.0000   0.0000   0.3856
  19.700   0.7314   0.24397   0.24068  -0.1086  0.0211  1.0000  -0.9160   0.0000   0.0000   0.0000   0.3862
  19.800   0.7342   0.24596   0.24267  -0.1095  0.0206  1.0000  -0.9114   0.0000   0.0000   0.0000   0.3867
  19.900   0.7372   0.24813   0.24485  -0.1103  0.0201  1.0000  -0.9090   0.0000   0.0000   0.0000   0.3870
  20.000   0.7402   0.25043   0.24714  -0.1111  0.0197  1.0000  -0.9085   0.0000   0.0000   0.0000   0.3872
  20.100   0.7433   0.25279   0.24951  -0.1118  0.0192  1.0000  -0.9094   0.0000   0.0000   0.0000   0.3874
  20.200   0.7464   0.25520   0.25191  -0.1125  0.0187  1.0000  -0.9115   0.0000   0.0000   0.0000   0.3876
  20.300   0.7495   0.25763   0.25435  -0.1132  0.0183  1.0000  -0.9144   0.0000   0.0000   0.0000   0.3877
  20.400   0.7525   0.26008   0.25679  -0.1139  0.0179  1.0000  -0.9182   0.0000   0.0000   0.0000   0.3879
  20.500   0.7556   0.26253   0.25925  -0.1146  0.0175  1.0000  -0.9226   0.0000   0.0000   0.0000   0.3880
  20.600   0.7587   0.26498   0.26170  -0.1153  0.0171  1.0000  -0.9278   0.0000   0.0000   0.0000   0.3880
  20.700   0.7617   0.26744   0.26416  -0.1159  0.0168  1.0000  -0.9335   0.0000   0.0000   0.0000   0.3881
  20.800   0.7647   0.26989   0.26661  -0.1166  0.0164  1.0000  -0.9399   0.0000   0.0000   0.0000   0.3882
  20.900   0.7677   0.27234   0.26906  -0.1172  0.0161  1.0000  -0.9469   0.0000   0.0000   0.0000   0.3882
  21.000   0.7707   0.27478   0.27150  -0.1179  0.0158  1.0000  -0.9545   0.0000   0.0000   0.0000   0.3883
  21.100   0.7737   0.27722   0.27394  -0.1185  0.0155  1.0000  -0.9629   0.0000   0.0000   0.0000   0.3883
  21.200   0.7767   0.27965   0.27637  -0.1191  0.0152  1.0000  -0.9720   0.0000   0.0000   0.0000   0.3883
  21.300   0.7797   0.28208   0.27880  -0.1197  0.0149  1.0000  -0.9820   0.0000   0.0000   0.0000   0.3884
  21.400   0.7827   0.28451   0.28123  -0.1204  0.0146  1.0000  -0.9929   0.0000   0.0000   0.0000   0.3883
  21.500   0.7856   0.28693   0.28365  -0.1209  0.0144  1.0000  -1.0047   0.0000   0.0000   0.0000   0.3883
  21.600   0.7886   0.28935   0.28607  -0.1215  0.0141  1.0000  -1.0177   0.0000   0.0000   0.0000   0.3883
  21.700   0.7916   0.29178   0.28850  -0.1221  0.0139  1.0000  -1.0319   0.0000   0.0000   0.0000   0.3882
  21.800   0.7946   0.29422   0.29094  -0.1226  0.0137  1.0000  -1.0476   0.0000   0.0000   0.0000   0.3881
  21.900   0.7976   0.29668   0.29340  -0.1232  0.0135  1.0000  -1.0650   0.0000   0.0000   0.0000   0.3880
  22.000   0.8007   0.29917   0.29589  -0.1237  0.0133  1.0000  -1.0843   0.0000   0.0000   0.0000   0.3878
  22.100   0.8039   0.30172   0.29844  -0.1241  0.0131  1.0000  -1.1060   0.0000   0.0000   0.0000   0.3875
  22.200   0.8072   0.30436   0.30107  -0.1245  0.0129  1.0000  -1.1305   0.0000   0.0000   0.0000   0.3871
  22.300   0.8107   0.30716   0.30387  -0.1248  0.0127  1.0000  -1.1587   0.0000   0.0000   0.0000   0.3866
  22.400   0.8147   0.31025   0.30695  -0.1250  0.0125  1.0000  -1.1922   0.0000   0.0000   0.0000   0.3859
  22.500   0.8196   0.31410   0.31081  -0.1250  0.0122  1.0000  -1.2347   0.0000   0.0000   0.0000   0.3847
  22.600   0.8128   0.27117   0.26654  -0.0721  0.0143  1.0000  -1.4856   0.0000   0.0000   0.0000   0.3171
  22.700   0.8154   0.27240   0.26777  -0.0727  0.0141  1.0000  -1.4994   0.0000   0.0000   0.0000   0.3174
  22.800   0.8180   0.27364   0.26901  -0.0733  0.0139  1.0000  -1.5149   0.0000   0.0000   0.0000   0.3176
  22.900   0.8206   0.27492   0.27029  -0.0738  0.0137  1.0000  -1.5322   0.0000   0.0000   0.0000   0.3178
  23.000   0.8233   0.27624   0.27161  -0.0744  0.0134  1.0000  -1.5517   0.0000   0.0000   0.0000   0.3180
  23.100   0.8261   0.27763   0.27301  -0.0749  0.0132  1.0000  -1.5737   0.0000   0.0000   0.0000   0.3182
  23.200   0.8290   0.27914   0.27451  -0.0755  0.0130  1.0000  -1.5988   0.0000   0.0000   0.0000   0.3183
  23.300   0.8322   0.28082   0.27621  -0.0760  0.0128  1.0000  -1.6277   0.0000   0.0000   0.0000   0.3184
  23.400   0.8358   0.28286   0.27824  -0.0764  0.0126  1.0000  -1.6624   0.0000   0.0000   0.0000   0.3184
  23.500   0.8403   0.28568   0.28107  -0.0768  0.0124  1.0000  -1.7058   0.0000   0.0000   0.0000   0.3182


