xflr5 v6.61

 Calculated polar for: NACA65-015

 1 1 Reynolds number fixed          Mach number fixed         

 xtrf =   1.000 (top)        1.000 (bottom)
 Mach =   0.000     Re =     1.000 e 6     Ncrit =   9.000

  alpha     CL        CD       CDp       Cm    Top Xtr Bot Xtr   Cpmin    Chinge    XCp    
 ------- -------- --------- --------- -------- ------- ------- -------- --------- ---------
 -10.000  -0.9736   0.01906   0.01334  -0.0113  0.8903  0.0171  -5.4351   0.0000   0.0000   0.0000   0.2266
  -9.900  -0.9674   0.01881   0.01306  -0.0108  0.8859  0.0173  -5.3549   0.0000   0.0000   0.0000   0.2272
  -9.800  -0.9611   0.01856   0.01278  -0.0102  0.8814  0.0174  -5.2747   0.0000   0.0000   0.0000   0.2278
  -9.700  -0.9547   0.01832   0.01251  -0.0097  0.8774  0.0176  -5.2032   0.0000   0.0000   0.0000   0.2284
  -9.600  -0.9481   0.01808   0.01224  -0.0092  0.8732  0.0177  -5.1318   0.0000   0.0000   0.0000   0.2290
  -9.500  -0.9416   0.01785   0.01198  -0.0087  0.8695  0.0179  -5.0613   0.0000   0.0000   0.0000   0.2296
  -9.400  -0.9349   0.01761   0.01172  -0.0082  0.8656  0.0181  -4.9902   0.0000   0.0000   0.0000   0.2302
  -9.300  -0.9282   0.01739   0.01146  -0.0077  0.8618  0.0183  -4.9200   0.0000   0.0000   0.0000   0.2308
  -9.200  -0.9216   0.01717   0.01122  -0.0071  0.8585  0.0184  -4.8505   0.0000   0.0000   0.0000   0.2315
  -9.100  -0.9148   0.01696   0.01098  -0.0066  0.8548  0.0186  -4.7807   0.0000   0.0000   0.0000   0.2321
  -9.000  -0.9083   0.01676   0.01075  -0.0060  0.8512  0.0188  -4.7121   0.0000   0.0000   0.0000   0.2329
  -8.900  -0.9016   0.01658   0.01054  -0.0054  0.8481  0.0190  -4.6431   0.0000   0.0000   0.0000   0.2336
  -8.800  -0.8942   0.01639   0.01033  -0.0049  0.8446  0.0192  -4.5713   0.0000   0.0000   0.0000   0.2342
  -8.700  -0.8863   0.01621   0.01012  -0.0046  0.8413  0.0194  -4.4978   0.0000   0.0000   0.0000   0.2347
  -8.600  -0.8782   0.01604   0.00991  -0.0042  0.8385  0.0195  -4.4235   0.0000   0.0000   0.0000   0.2351
  -8.500  -0.8697   0.01587   0.00973  -0.0039  0.8353  0.0197  -4.3478   0.0000   0.0000   0.0000   0.2355
  -8.400  -0.8611   0.01571   0.00955  -0.0037  0.8321  0.0198  -4.2714   0.0000   0.0000   0.0000   0.2359
  -8.300  -0.8523   0.01557   0.00938  -0.0034  0.8292  0.0200  -4.1947   0.0000   0.0000   0.0000   0.2363
  -8.200  -0.8434   0.01544   0.00922  -0.0032  0.8266  0.0201  -4.1169   0.0000   0.0000   0.0000   0.2366
  -8.100  -0.8364   0.01514   0.00889  -0.0027  0.8234  0.0203  -4.0540   0.0000   0.0000   0.0000   0.2373
  -8.000  -0.8309   0.01472   0.00843  -0.0020  0.8203  0.0207  -4.0019   0.0000   0.0000   0.0000   0.2382
  -7.900  -0.8237   0.01444   0.00813  -0.0015  0.8176  0.0211  -3.9363   0.0000   0.0000   0.0000   0.2389
  -7.800  -0.8154   0.01424   0.00790  -0.0012  0.8151  0.0215  -3.8645   0.0000   0.0000   0.0000   0.2394
  -7.700  -0.8065   0.01406   0.00771  -0.0010  0.8123  0.0218  -3.7894   0.0000   0.0000   0.0000   0.2397
  -7.600  -0.7975   0.01389   0.00754  -0.0008  0.8095  0.0221  -3.7140   0.0000   0.0000   0.0000   0.2401
  -7.500  -0.7884   0.01374   0.00736  -0.0006  0.8070  0.0223  -3.6395   0.0000   0.0000   0.0000   0.2404
  -7.400  -0.7792   0.01359   0.00719  -0.0003  0.8046  0.0226  -3.5657   0.0000   0.0000   0.0000   0.2408
  -7.300  -0.7698   0.01344   0.00703  -0.0002  0.8021  0.0229  -3.4916   0.0000   0.0000   0.0000   0.2411
  -7.200  -0.7604   0.01329   0.00686  -0.0000  0.7994  0.0232  -3.4180   0.0000   0.0000   0.0000   0.2414
  -7.100  -0.7509   0.01314   0.00670   0.0001  0.7968  0.0235  -3.3449   0.0000   0.0000   0.0000   0.2417
  -7.000  -0.7414   0.01301   0.00654   0.0003  0.7944  0.0238  -3.2723   0.0000   0.0000   0.0000   0.2420
  -6.900  -0.7318   0.01288   0.00638   0.0005  0.7922  0.0241  -3.2000   0.0000   0.0000   0.0000   0.2423
  -6.800  -0.7220   0.01275   0.00623   0.0006  0.7896  0.0244  -3.1272   0.0000   0.0000   0.0000   0.2426
  -6.700  -0.7121   0.01262   0.00609   0.0007  0.7870  0.0247  -3.0545   0.0000   0.0000   0.0000   0.2428
  -6.600  -0.7020   0.01251   0.00597   0.0008  0.7845  0.0249  -2.9832   0.0000   0.0000   0.0000   0.2430
  -6.500  -0.6920   0.01241   0.00584   0.0008  0.7823  0.0252  -2.9204   0.0000   0.0000   0.0000   0.2433
  -6.400  -0.6837   0.01215   0.00555   0.0012  0.7801  0.0260  -2.8713   0.0000   0.0000   0.0000   0.2439
  -6.300  -0.6741   0.01197   0.00537   0.0013  0.7777  0.0268  -2.8133   0.0000   0.0000   0.0000   0.2442
  -6.200  -0.6642   0.01183   0.00523   0.0014  0.7754  0.0274  -2.7519   0.0000   0.0000   0.0000   0.2445
  -6.100  -0.6542   0.01171   0.00510   0.0015  0.7731  0.0281  -2.6899   0.0000   0.0000   0.0000   0.2447
  -6.000  -0.6440   0.01160   0.00498   0.0016  0.7709  0.0288  -2.6280   0.0000   0.0000   0.0000   0.2449
  -5.900  -0.6338   0.01151   0.00486   0.0016  0.7690  0.0295  -2.5666   0.0000   0.0000   0.0000   0.2451
  -5.800  -0.6234   0.01142   0.00474   0.0017  0.7669  0.0302  -2.5045   0.0000   0.0000   0.0000   0.2453
  -5.700  -0.6130   0.01130   0.00462   0.0017  0.7647  0.0310  -2.4443   0.0000   0.0000   0.0000   0.2455
  -5.600  -0.6032   0.01114   0.00446   0.0018  0.7625  0.0327  -2.3872   0.0000   0.0000   0.0000   0.2458
  -5.500  -0.5930   0.01102   0.00435   0.0019  0.7603  0.0342  -2.3272   0.0000   0.0000   0.0000   0.2460
  -5.400  -0.5826   0.01092   0.00424   0.0019  0.7582  0.0357  -2.2674   0.0000   0.0000   0.0000   0.2462
  -5.300  -0.5725   0.01080   0.00411   0.0020  0.7563  0.0378  -2.2100   0.0000   0.0000   0.0000   0.2465
  -5.200  -0.5624   0.01067   0.00399   0.0021  0.7542  0.0410  -2.1524   0.0000   0.0000   0.0000   0.2468
  -5.100  -0.5522   0.01052   0.00387   0.0021  0.7520  0.0458  -2.0953   0.0000   0.0000   0.0000   0.2470
  -5.000  -0.5425   0.01034   0.00374   0.0022  0.7498  0.0548  -2.0392   0.0000   0.0000   0.0000   0.2473
  -4.900  -0.5332   0.01011   0.00359   0.0024  0.7477  0.0713  -1.9848   0.0000   0.0000   0.0000   0.2478
  -4.800  -0.5243   0.00985   0.00343   0.0026  0.7457  0.0937  -1.9317   0.0000   0.0000   0.0000   0.2483
  -4.700  -0.5157   0.00956   0.00326   0.0028  0.7439  0.1221  -1.8794   0.0000   0.0000   0.0000   0.2489
  -4.600  -0.5072   0.00926   0.00308   0.0031  0.7420  0.1548  -1.8276   0.0000   0.0000   0.0000   0.2495
  -4.500  -0.4987   0.00892   0.00292   0.0033  0.7401  0.1919  -1.7762   0.0000   0.0000   0.0000   0.2501
  -4.400  -0.4904   0.00855   0.00274   0.0035  0.7381  0.2333  -1.7272   0.0000   0.0000   0.0000   0.2508
  -4.300  -0.4823   0.00817   0.00255   0.0037  0.7361  0.2794  -1.6835   0.0000   0.0000   0.0000   0.2515
  -4.200  -0.4743   0.00777   0.00236   0.0040  0.7342  0.3295  -1.6402   0.0000   0.0000   0.0000   0.2523
  -4.100  -0.4666   0.00735   0.00216   0.0043  0.7324  0.3837  -1.5976   0.0000   0.0000   0.0000   0.2532
  -4.000  -0.4588   0.00694   0.00199   0.0047  0.7307  0.4415  -1.5548   0.0000   0.0000   0.0000   0.2541
  -3.900  -0.4496   0.00668   0.00189   0.0048  0.7290  0.4822  -1.5089   0.0000   0.0000   0.0000   0.2548
  -3.800  -0.4393   0.00653   0.00183   0.0049  0.7272  0.5077  -1.4605   0.0000   0.0000   0.0000   0.2552
  -3.700  -0.4285   0.00644   0.00180   0.0048  0.7253  0.5257  -1.4113   0.0000   0.0000   0.0000   0.2554
  -3.600  -0.4175   0.00637   0.00177   0.0048  0.7234  0.5393  -1.3620   0.0000   0.0000   0.0000   0.2557
  -3.500  -0.4063   0.00633   0.00174   0.0047  0.7216  0.5499  -1.3127   0.0000   0.0000   0.0000   0.2559
  -3.400  -0.3950   0.00630   0.00171   0.0046  0.7198  0.5591  -1.2637   0.0000   0.0000   0.0000   0.2560
  -3.300  -0.3837   0.00628   0.00168   0.0046  0.7182  0.5660  -1.2152   0.0000   0.0000   0.0000   0.2562
  -3.200  -0.3723   0.00627   0.00166   0.0045  0.7165  0.5723  -1.1669   0.0000   0.0000   0.0000   0.2564
  -3.100  -0.3606   0.00625   0.00164   0.0043  0.7149  0.5770  -1.1185   0.0000   0.0000   0.0000   0.2564
  -3.000  -0.3492   0.00622   0.00163   0.0042  0.7132  0.5817  -1.0711   0.0000   0.0000   0.0000   0.2565
  -2.900  -0.3376   0.00620   0.00161   0.0041  0.7115  0.5875  -1.0239   0.0000   0.0000   0.0000   0.2566
  -2.800  -0.3262   0.00618   0.00160   0.0040  0.7098  0.5936  -0.9773   0.0000   0.0000   0.0000   0.2567
  -2.700  -0.3148   0.00617   0.00160   0.0039  0.7082  0.6008  -0.9314   0.0000   0.0000   0.0000   0.2569
  -2.600  -0.3033   0.00617   0.00159   0.0038  0.7066  0.6078  -0.8859   0.0000   0.0000   0.0000   0.2571
  -2.500  -0.2920   0.00616   0.00160   0.0037  0.7050  0.6151  -0.8411   0.0000   0.0000   0.0000   0.2575
  -2.300  -0.2691   0.00617   0.00160   0.0035  0.7019  0.6266  -0.7526   0.0000   0.0000   0.0000   0.2580
  -2.200  -0.2574   0.00617   0.00161   0.0034  0.7003  0.6310  -0.7086   0.0000   0.0000   0.0000   0.2580
  -2.100  -0.2457   0.00619   0.00160   0.0032  0.6986  0.6343  -0.6666   0.0000   0.0000   0.0000   0.2581
  -2.000  -0.2342   0.00616   0.00159   0.0031  0.6971  0.6371  -0.6291   0.0000   0.0000   0.0000   0.2583
  -1.900  -0.2226   0.00615   0.00159   0.0030  0.6955  0.6398  -0.5918   0.0000   0.0000   0.0000   0.2585
  -1.800  -0.2109   0.00616   0.00158   0.0029  0.6941  0.6423  -0.5549   0.0000   0.0000   0.0000   0.2586
  -1.700  -0.1993   0.00617   0.00158   0.0027  0.6927  0.6447  -0.5437   0.0000   0.0000   0.0000   0.2587
  -1.600  -0.1876   0.00618   0.00157   0.0026  0.6913  0.6467  -0.5380   0.0000   0.0000   0.0000   0.2588
  -1.400  -0.1643   0.00617   0.00154   0.0023  0.6884  0.6501  -0.5266   0.0000   0.0000   0.0000   0.2590
  -1.300  -0.1525   0.00615   0.00153   0.0021  0.6870  0.6516  -0.5209   0.0000   0.0000   0.0000   0.2590
  -1.200  -0.1408   0.00614   0.00153   0.0020  0.6854  0.6530  -0.5154   0.0000   0.0000   0.0000   0.2590
  -1.100  -0.1291   0.00613   0.00152   0.0018  0.6839  0.6542  -0.5099   0.0000   0.0000   0.0000   0.2591
  -1.000  -0.1173   0.00613   0.00151   0.0016  0.6824  0.6555  -0.5044   0.0000   0.0000   0.0000   0.2591
  -0.900  -0.1056   0.00613   0.00150   0.0015  0.6810  0.6568  -0.4989   0.0000   0.0000   0.0000   0.2591
  -0.800  -0.0938   0.00613   0.00149   0.0013  0.6796  0.6582  -0.4935   0.0000   0.0000   0.0000   0.2591
  -0.700  -0.0821   0.00614   0.00148   0.0011  0.6782  0.6596  -0.4880   0.0000   0.0000   0.0000   0.2591
  -0.600  -0.0704   0.00616   0.00148   0.0010  0.6769  0.6609  -0.4826   0.0000   0.0000   0.0000   0.2592
  -0.500  -0.0586   0.00617   0.00147   0.0008  0.6755  0.6621  -0.4771   0.0000   0.0000   0.0000   0.2590
  -0.400  -0.0469   0.00615   0.00147   0.0007  0.6742  0.6634  -0.4716   0.0000   0.0000   0.0000   0.2590
  -0.300  -0.0352   0.00613   0.00146   0.0005  0.6728  0.6647  -0.4662   0.0000   0.0000   0.0000   0.2590
  -0.200  -0.0235   0.00612   0.00146   0.0003  0.6714  0.6660  -0.4607   0.0000   0.0000   0.0000   0.2591
  -0.100  -0.0117   0.00611   0.00146   0.0002  0.6699  0.6672  -0.4552   0.0000   0.0000   0.0000   0.2591
   0.000   0.0000   0.00611   0.00146  -0.0000  0.6686  0.6686  -0.4497   0.0000   0.0000   0.0000   0.6865
   0.100   0.0117   0.00611   0.00146  -0.0002  0.6672  0.6700  -0.4552   0.0000   0.0000   0.0000   0.2591
   0.200   0.0235   0.00612   0.00146  -0.0003  0.6660  0.6714  -0.4607   0.0000   0.0000   0.0000   0.2591
   0.300   0.0352   0.00613   0.00146  -0.0005  0.6647  0.6728  -0.4662   0.0000   0.0000   0.0000   0.2590
   0.400   0.0469   0.00615   0.00147  -0.0007  0.6634  0.6742  -0.4716   0.0000   0.0000   0.0000   0.2590
   0.500   0.0586   0.00617   0.00147  -0.0008  0.6621  0.6755  -0.4771   0.0000   0.0000   0.0000   0.2590
   0.600   0.0704   0.00616   0.00148  -0.0010  0.6609  0.6769  -0.4826   0.0000   0.0000   0.0000   0.2592
   0.700   0.0821   0.00614   0.00148  -0.0011  0.6596  0.6782  -0.4880   0.0000   0.0000   0.0000   0.2591
   0.800   0.0938   0.00613   0.00149  -0.0013  0.6582  0.6796  -0.4935   0.0000   0.0000   0.0000   0.2591
   0.900   0.1056   0.00613   0.00150  -0.0015  0.6568  0.6810  -0.4989   0.0000   0.0000   0.0000   0.2591
   1.000   0.1173   0.00613   0.00151  -0.0016  0.6555  0.6824  -0.5044   0.0000   0.0000   0.0000   0.2591
   1.100   0.1291   0.00613   0.00152  -0.0018  0.6542  0.6839  -0.5099   0.0000   0.0000   0.0000   0.2591
   1.200   0.1408   0.00614   0.00153  -0.0020  0.6529  0.6854  -0.5154   0.0000   0.0000   0.0000   0.2590
   1.300   0.1525   0.00615   0.00153  -0.0021  0.6516  0.6870  -0.5209   0.0000   0.0000   0.0000   0.2590
   1.400   0.1643   0.00617   0.00154  -0.0023  0.6501  0.6884  -0.5266   0.0000   0.0000   0.0000   0.2590
   1.600   0.1876   0.00618   0.00157  -0.0026  0.6467  0.6913  -0.5380   0.0000   0.0000   0.0000   0.2588
   1.700   0.1993   0.00617   0.00158  -0.0027  0.6447  0.6927  -0.5437   0.0000   0.0000   0.0000   0.2587
   1.800   0.2109   0.00616   0.00158  -0.0029  0.6423  0.6941  -0.5549   0.0000   0.0000   0.0000   0.2586
   1.900   0.2226   0.00615   0.00159  -0.0030  0.6398  0.6955  -0.5918   0.0000   0.0000   0.0000   0.2585
   2.000   0.2342   0.00616   0.00159  -0.0031  0.6371  0.6971  -0.6291   0.0000   0.0000   0.0000   0.2583
   2.100   0.2457   0.00619   0.00160  -0.0032  0.6343  0.6986  -0.6666   0.0000   0.0000   0.0000   0.2581
   2.200   0.2574   0.00617   0.00161  -0.0034  0.6310  0.7003  -0.7086   0.0000   0.0000   0.0000   0.2580
   2.300   0.2691   0.00617   0.00160  -0.0035  0.6266  0.7019  -0.7526   0.0000   0.0000   0.0000   0.2580
   2.500   0.2920   0.00616   0.00160  -0.0037  0.6151  0.7050  -0.8411   0.0000   0.0000   0.0000   0.2575
   2.600   0.3033   0.00617   0.00159  -0.0038  0.6078  0.7066  -0.8859   0.0000   0.0000   0.0000   0.2571
   2.700   0.3148   0.00617   0.00160  -0.0039  0.6008  0.7082  -0.9314   0.0000   0.0000   0.0000   0.2569
   2.800   0.3262   0.00618   0.00160  -0.0040  0.5936  0.7098  -0.9773   0.0000   0.0000   0.0000   0.2567
   2.900   0.3376   0.00620   0.00161  -0.0041  0.5875  0.7115  -1.0239   0.0000   0.0000   0.0000   0.2566
   3.000   0.3492   0.00622   0.00163  -0.0042  0.5817  0.7132  -1.0711   0.0000   0.0000   0.0000   0.2565
   3.100   0.3606   0.00625   0.00164  -0.0043  0.5770  0.7149  -1.1185   0.0000   0.0000   0.0000   0.2564
   3.200   0.3723   0.00627   0.00166  -0.0045  0.5723  0.7165  -1.1669   0.0000   0.0000   0.0000   0.2564
   3.300   0.3837   0.00628   0.00168  -0.0046  0.5660  0.7182  -1.2152   0.0000   0.0000   0.0000   0.2562
   3.400   0.3950   0.00630   0.00171  -0.0046  0.5591  0.7198  -1.2637   0.0000   0.0000   0.0000   0.2560
   3.500   0.4063   0.00633   0.00174  -0.0047  0.5499  0.7216  -1.3127   0.0000   0.0000   0.0000   0.2559
   3.600   0.4175   0.00637   0.00177  -0.0048  0.5393  0.7234  -1.3620   0.0000   0.0000   0.0000   0.2557
   3.700   0.4285   0.00644   0.00180  -0.0048  0.5257  0.7253  -1.4113   0.0000   0.0000   0.0000   0.2554
   3.800   0.4393   0.00653   0.00183  -0.0049  0.5077  0.7272  -1.4605   0.0000   0.0000   0.0000   0.2552
   3.900   0.4496   0.00668   0.00189  -0.0048  0.4822  0.7290  -1.5089   0.0000   0.0000   0.0000   0.2548
   4.000   0.4588   0.00694   0.00199  -0.0047  0.4415  0.7307  -1.5548   0.0000   0.0000   0.0000   0.2541
   4.100   0.4666   0.00735   0.00216  -0.0043  0.3837  0.7324  -1.5976   0.0000   0.0000   0.0000   0.2532
   4.200   0.4743   0.00777   0.00236  -0.0040  0.3295  0.7342  -1.6402   0.0000   0.0000   0.0000   0.2523
   4.300   0.4823   0.00817   0.00255  -0.0037  0.2794  0.7361  -1.6835   0.0000   0.0000   0.0000   0.2515
   4.400   0.4904   0.00855   0.00274  -0.0035  0.2333  0.7381  -1.7272   0.0000   0.0000   0.0000   0.2508
   4.500   0.4987   0.00892   0.00292  -0.0033  0.1919  0.7401  -1.7762   0.0000   0.0000   0.0000   0.2501
   4.600   0.5072   0.00926   0.00308  -0.0031  0.1548  0.7420  -1.8276   0.0000   0.0000   0.0000   0.2495
   4.700   0.5157   0.00956   0.00326  -0.0028  0.1221  0.7439  -1.8795   0.0000   0.0000   0.0000   0.2489
   4.800   0.5243   0.00985   0.00343  -0.0026  0.0937  0.7457  -1.9317   0.0000   0.0000   0.0000   0.2483
   4.900   0.5332   0.01011   0.00359  -0.0024  0.0713  0.7477  -1.9848   0.0000   0.0000   0.0000   0.2478
   5.000   0.5425   0.01034   0.00374  -0.0022  0.0548  0.7498  -2.0393   0.0000   0.0000   0.0000   0.2473
   5.100   0.5522   0.01052   0.00387  -0.0021  0.0458  0.7520  -2.0953   0.0000   0.0000   0.0000   0.2470
   5.200   0.5624   0.01067   0.00399  -0.0021  0.0410  0.7542  -2.1524   0.0000   0.0000   0.0000   0.2468
   5.300   0.5725   0.01080   0.00411  -0.0020  0.0378  0.7563  -2.2100   0.0000   0.0000   0.0000   0.2465
   5.400   0.5826   0.01092   0.00424  -0.0019  0.0357  0.7582  -2.2674   0.0000   0.0000   0.0000   0.2462
   5.500   0.5930   0.01102   0.00435  -0.0019  0.0342  0.7603  -2.3272   0.0000   0.0000   0.0000   0.2460
   5.600   0.6032   0.01114   0.00446  -0.0018  0.0327  0.7625  -2.3873   0.0000   0.0000   0.0000   0.2458
   5.700   0.6130   0.01130   0.00462  -0.0017  0.0310  0.7647  -2.4443   0.0000   0.0000   0.0000   0.2455
   5.800   0.6234   0.01142   0.00474  -0.0017  0.0302  0.7669  -2.5046   0.0000   0.0000   0.0000   0.2453
   5.900   0.6338   0.01151   0.00486  -0.0016  0.0295  0.7690  -2.5666   0.0000   0.0000   0.0000   0.2451
   6.000   0.6440   0.01160   0.00498  -0.0016  0.0288  0.7709  -2.6281   0.0000   0.0000   0.0000   0.2449
   6.100   0.6542   0.01171   0.00510  -0.0015  0.0281  0.7731  -2.6900   0.0000   0.0000   0.0000   0.2447
   6.200   0.6642   0.01183   0.00523  -0.0014  0.0274  0.7754  -2.7520   0.0000   0.0000   0.0000   0.2445
   6.300   0.6742   0.01197   0.00537  -0.0013  0.0267  0.7777  -2.8133   0.0000   0.0000   0.0000   0.2442
   6.400   0.6837   0.01215   0.00555  -0.0012  0.0260  0.7801  -2.8714   0.0000   0.0000   0.0000   0.2439
   6.500   0.6921   0.01241   0.00584  -0.0009  0.0252  0.7823  -2.9205   0.0000   0.0000   0.0000   0.2433
   6.600   0.7021   0.01251   0.00597  -0.0008  0.0249  0.7845  -2.9832   0.0000   0.0000   0.0000   0.2430
   6.700   0.7121   0.01262   0.00609  -0.0007  0.0247  0.7870  -3.0546   0.0000   0.0000   0.0000   0.2428
   6.800   0.7220   0.01274   0.00623  -0.0006  0.0244  0.7896  -3.1273   0.0000   0.0000   0.0000   0.2426
   6.900   0.7319   0.01288   0.00638  -0.0005  0.0241  0.7922  -3.2001   0.0000   0.0000   0.0000   0.2423
   7.000   0.7415   0.01301   0.00654  -0.0003  0.0238  0.7944  -3.2724   0.0000   0.0000   0.0000   0.2420
   7.100   0.7510   0.01314   0.00670  -0.0002  0.0235  0.7968  -3.3450   0.0000   0.0000   0.0000   0.2417
   7.200   0.7604   0.01329   0.00686   0.0000  0.0232  0.7994  -3.4181   0.0000   0.0000   0.0000   0.2414
   7.300   0.7699   0.01344   0.00703   0.0002  0.0229  0.8021  -3.4917   0.0000   0.0000   0.0000   0.2411
   7.400   0.7793   0.01359   0.00719   0.0003  0.0226  0.8046  -3.5658   0.0000   0.0000   0.0000   0.2408
   7.500   0.7884   0.01374   0.00736   0.0005  0.0223  0.8069  -3.6397   0.0000   0.0000   0.0000   0.2404
   7.600   0.7975   0.01389   0.00754   0.0008  0.0221  0.8095  -3.7142   0.0000   0.0000   0.0000   0.2401
   7.700   0.8066   0.01406   0.00771   0.0010  0.0218  0.8123  -3.7896   0.0000   0.0000   0.0000   0.2397
   7.800   0.8155   0.01424   0.00790   0.0012  0.0215  0.8151  -3.8647   0.0000   0.0000   0.0000   0.2394
   7.900   0.8237   0.01444   0.00813   0.0015  0.0211  0.8176  -3.9365   0.0000   0.0000   0.0000   0.2389
   8.000   0.8310   0.01472   0.00843   0.0020  0.0207  0.8203  -4.0021   0.0000   0.0000   0.0000   0.2382
   8.100   0.8364   0.01514   0.00889   0.0027  0.0203  0.8234  -4.0542   0.0000   0.0000   0.0000   0.2373
   8.200   0.8434   0.01544   0.00922   0.0031  0.0201  0.8266  -4.1172   0.0000   0.0000   0.0000   0.2366
   8.300   0.8524   0.01557   0.00938   0.0034  0.0200  0.8292  -4.1950   0.0000   0.0000   0.0000   0.2363
   8.400   0.8612   0.01571   0.00955   0.0036  0.0198  0.8321  -4.2718   0.0000   0.0000   0.0000   0.2359
   8.500   0.8698   0.01587   0.00972   0.0039  0.0197  0.8353  -4.3481   0.0000   0.0000   0.0000   0.2355
   8.600   0.8783   0.01604   0.00991   0.0042  0.0195  0.8385  -4.4239   0.0000   0.0000   0.0000   0.2352
   8.700   0.8864   0.01621   0.01012   0.0045  0.0194  0.8413  -4.4982   0.0000   0.0000   0.0000   0.2347
   8.800   0.8943   0.01639   0.01033   0.0049  0.0192  0.8446  -4.5718   0.0000   0.0000   0.0000   0.2342
   8.900   0.9018   0.01658   0.01054   0.0054  0.0190  0.8481  -4.6437   0.0000   0.0000   0.0000   0.2336
   9.000   0.9085   0.01676   0.01075   0.0060  0.0188  0.8512  -4.7127   0.0000   0.0000   0.0000   0.2329
   9.100   0.9150   0.01696   0.01098   0.0066  0.0186  0.8548  -4.7813   0.0000   0.0000   0.0000   0.2322
   9.200   0.9218   0.01717   0.01122   0.0071  0.0184  0.8585  -4.8512   0.0000   0.0000   0.0000   0.2315
   9.300   0.9284   0.01739   0.01146   0.0076  0.0183  0.8618  -4.9207   0.0000   0.0000   0.0000   0.2308
   9.400   0.9350   0.01761   0.01172   0.0082  0.0181  0.8656  -4.9910   0.0000   0.0000   0.0000   0.2302
   9.500   0.9418   0.01785   0.01198   0.0087  0.0179  0.8695  -5.0621   0.0000   0.0000   0.0000   0.2296
   9.600   0.9483   0.01808   0.01224   0.0092  0.0177  0.8732  -5.1326   0.0000   0.0000   0.0000   0.2290
   9.700   0.9549   0.01832   0.01251   0.0097  0.0176  0.8774  -5.2041   0.0000   0.0000   0.0000   0.2284
   9.800   0.9613   0.01856   0.01278   0.0102  0.0174  0.8814  -5.2757   0.0000   0.0000   0.0000   0.2278
   9.900   0.9676   0.01881   0.01306   0.0107  0.0173  0.8859  -5.3561   0.0000   0.0000   0.0000   0.2272
  10.000   0.9738   0.01906   0.01334   0.0112  0.0171  0.8903  -5.4363   0.0000   0.0000   0.0000   0.2266
  10.100   0.9798   0.01932   0.01363   0.0118  0.0170  0.8952  -5.5159   0.0000   0.0000   0.0000   0.2260
  10.200   0.9857   0.01960   0.01393   0.0124  0.0168  0.9001  -5.5947   0.0000   0.0000   0.0000   0.2253
  10.300   0.9913   0.01989   0.01425   0.0130  0.0167  0.9055  -5.6725   0.0000   0.0000   0.0000   0.2247
  10.400   0.9964   0.02019   0.01459   0.0136  0.0166  0.9111  -5.7477   0.0000   0.0000   0.0000   0.2239
  10.500   1.0012   0.02053   0.01496   0.0143  0.0164  0.9172  -5.8206   0.0000   0.0000   0.0000   0.2232
  10.600   1.0055   0.02090   0.01537   0.0151  0.0163  0.9240  -5.8895   0.0000   0.0000   0.0000   0.2223
  10.700   1.0090   0.02131   0.01583   0.0159  0.0162  0.9318  -5.9530   0.0000   0.0000   0.0000   0.2214
  10.800   1.0118   0.02179   0.01637   0.0169  0.0160  0.9411  -6.0094   0.0000   0.0000   0.0000   0.2203
  10.900   1.0141   0.02240   0.01704   0.0180  0.0158  0.9531  -6.0574   0.0000   0.0000   0.0000   0.2192
  11.000   1.0174   0.02344   0.01817   0.0187  0.0156  0.9661  -6.0891   0.0000   0.0000   0.0000   0.2183
  11.100   1.0290   0.02369   0.01846   0.0180  0.0155  0.9875  -6.2014   0.0000   0.0000   0.0000   0.2192
  11.200   1.0361   0.02394   0.01873   0.0182  0.0155  1.0000  -6.2914   0.0000   0.0000   0.0000   0.2190
  11.300   1.0432   0.02420   0.01901   0.0183  0.0154  1.0000  -6.3825   0.0000   0.0000   0.0000   0.2188
  11.400   1.0502   0.02447   0.01931   0.0185  0.0153  1.0000  -6.4734   0.0000   0.0000   0.0000   0.2186
  11.500   1.0571   0.02476   0.01962   0.0187  0.0152  1.0000  -6.5637   0.0000   0.0000   0.0000   0.2184
  11.600   1.0638   0.02506   0.01994   0.0189  0.0151  1.0000  -6.6534   0.0000   0.0000   0.0000   0.2182
  11.700   1.0704   0.02538   0.02028   0.0191  0.0150  1.0000  -6.7419   0.0000   0.0000   0.0000   0.2179
  11.800   1.0768   0.02572   0.02064   0.0193  0.0149  1.0000  -6.8292   0.0000   0.0000   0.0000   0.2177
  11.900   1.0830   0.02608   0.02103   0.0196  0.0148  1.0000  -6.9151   0.0000   0.0000   0.0000   0.2174
  12.000   1.0889   0.02647   0.02145   0.0198  0.0147  1.0000  -6.9990   0.0000   0.0000   0.0000   0.2171
  12.100   1.0947   0.02688   0.02189   0.0201  0.0146  1.0000  -7.0813   0.0000   0.0000   0.0000   0.2168
  12.200   1.1004   0.02730   0.02234   0.0204  0.0145  1.0000  -7.1628   0.0000   0.0000   0.0000   0.2165
  12.300   1.1059   0.02774   0.02280   0.0206  0.0143  1.0000  -7.2436   0.0000   0.0000   0.0000   0.2162
  12.400   1.1113   0.02818   0.02327   0.0209  0.0142  1.0000  -7.3241   0.0000   0.0000   0.0000   0.2158
  12.500   1.1165   0.02863   0.02376   0.0212  0.0141  1.0000  -7.4041   0.0000   0.0000   0.0000   0.2155
  12.600   1.1216   0.02910   0.02425   0.0215  0.0140  1.0000  -7.4835   0.0000   0.0000   0.0000   0.2152
  12.700   1.1265   0.02958   0.02476   0.0217  0.0139  1.0000  -7.5623   0.0000   0.0000   0.0000   0.2149
  12.800   1.1313   0.03007   0.02529   0.0220  0.0138  1.0000  -7.6404   0.0000   0.0000   0.0000   0.2146
  12.900   1.1360   0.03057   0.02582   0.0223  0.0137  1.0000  -7.7183   0.0000   0.0000   0.0000   0.2142
  13.000   1.1405   0.03108   0.02636   0.0225  0.0136  1.0000  -7.7960   0.0000   0.0000   0.0000   0.2139
  13.100   1.1449   0.03161   0.02691   0.0228  0.0135  1.0000  -7.8733   0.0000   0.0000   0.0000   0.2136
  13.200   1.1493   0.03214   0.02747   0.0230  0.0134  1.0000  -7.9507   0.0000   0.0000   0.0000   0.2133
  13.300   1.1534   0.03268   0.02804   0.0233  0.0133  1.0000  -8.0276   0.0000   0.0000   0.0000   0.2130
  13.400   1.1575   0.03324   0.02863   0.0235  0.0132  1.0000  -8.1043   0.0000   0.0000   0.0000   0.2127
  13.500   1.1614   0.03380   0.02923   0.0237  0.0131  1.0000  -8.1807   0.0000   0.0000   0.0000   0.2124
  13.600   1.1652   0.03438   0.02984   0.0239  0.0130  1.0000  -8.2564   0.0000   0.0000   0.0000   0.2121
  13.700   1.1688   0.03497   0.03045   0.0242  0.0129  1.0000  -8.3320   0.0000   0.0000   0.0000   0.2118
  13.800   1.1723   0.03559   0.03110   0.0243  0.0128  1.0000  -8.4066   0.0000   0.0000   0.0000   0.2115
  13.900   1.1756   0.03622   0.03175   0.0245  0.0128  1.0000  -8.4807   0.0000   0.0000   0.0000   0.2112
  14.000   1.1789   0.03686   0.03243   0.0247  0.0127  1.0000  -8.5539   0.0000   0.0000   0.0000   0.2109
  14.100   1.1818   0.03754   0.03313   0.0249  0.0126  1.0000  -8.6255   0.0000   0.0000   0.0000   0.2106
  14.200   1.1846   0.03823   0.03385   0.0250  0.0126  1.0000  -8.6958   0.0000   0.0000   0.0000   0.2104
  14.300   1.1870   0.03896   0.03461   0.0252  0.0125  1.0000  -8.7636   0.0000   0.0000   0.0000   0.2101
  14.400   1.1893   0.03972   0.03540   0.0253  0.0124  1.0000  -8.8293   0.0000   0.0000   0.0000   0.2098
  14.500   1.1912   0.04052   0.03623   0.0255  0.0124  1.0000  -8.8920   0.0000   0.0000   0.0000   0.2095
  14.600   1.1927   0.04137   0.03712   0.0256  0.0123  1.0000  -8.9508   0.0000   0.0000   0.0000   0.2092
  14.700   1.1938   0.04228   0.03806   0.0258  0.0122  1.0000  -9.0053   0.0000   0.0000   0.0000   0.2089
  14.800   1.1942   0.04326   0.03909   0.0259  0.0122  1.0000  -9.0532   0.0000   0.0000   0.0000   0.2086
  14.900   1.1940   0.04432   0.04020   0.0260  0.0121  1.0000  -9.0941   0.0000   0.0000   0.0000   0.2083
  15.000   1.1928   0.04550   0.04143   0.0262  0.0120  1.0000  -9.1253   0.0000   0.0000   0.0000   0.2080
  15.100   1.1907   0.04681   0.04280   0.0263  0.0119  1.0000  -9.1460   0.0000   0.0000   0.0000   0.2076
  15.200   1.1873   0.04828   0.04434   0.0264  0.0119  1.0000  -9.1528   0.0000   0.0000   0.0000   0.2073
  15.300   1.1824   0.04995   0.04609   0.0265  0.0118  1.0000  -9.1443   0.0000   0.0000   0.0000   0.2069
  15.400   1.1759   0.05184   0.04807   0.0265  0.0117  1.0000  -9.1186   0.0000   0.0000   0.0000   0.2065
  15.500   1.1677   0.05396   0.05029   0.0264  0.0117  1.0000  -9.0761   0.0000   0.0000   0.0000   0.2062
  15.600   1.1581   0.05632   0.05277   0.0261  0.0116  1.0000  -9.0185   0.0000   0.0000   0.0000   0.2060
  15.700   1.1474   0.05889   0.05544   0.0258  0.0116  1.0000  -8.9500   0.0000   0.0000   0.0000   0.2059
  15.800   1.1362   0.06159   0.05826   0.0252  0.0115  1.0000  -8.8759   0.0000   0.0000   0.0000   0.2059
  16.000   1.1207   0.06621   0.06305   0.0238  0.0115  1.0000  -8.8127   0.0000   0.0000   0.0000   0.2063
  16.100   1.1174   0.06800   0.06489   0.0232  0.0115  1.0000  -8.8267   0.0000   0.0000   0.0000   0.2066
  16.200   1.1136   0.06990   0.06685   0.0224  0.0115  1.0000  -8.8351   0.0000   0.0000   0.0000   0.2070
  16.300   1.1092   0.07193   0.06893   0.0215  0.0115  1.0000  -8.8373   0.0000   0.0000   0.0000   0.2074
  16.400   1.1045   0.07406   0.07112   0.0206  0.0115  1.0000  -8.8344   0.0000   0.0000   0.0000   0.2079
  16.500   1.0993   0.07631   0.07343   0.0196  0.0115  1.0000  -8.8250   0.0000   0.0000   0.0000   0.2086
  16.600   1.0934   0.07872   0.07590   0.0184  0.0115  1.0000  -8.8073   0.0000   0.0000   0.0000   0.2093
  16.700   1.0869   0.08130   0.07854   0.0171  0.0115  1.0000  -8.7807   0.0000   0.0000   0.0000   0.2101
  16.800   1.0797   0.08407   0.08138   0.0157  0.0114  1.0000  -8.7448   0.0000   0.0000   0.0000   0.2111
  16.900   1.0717   0.08706   0.08443   0.0141  0.0114  1.0000  -8.6980   0.0000   0.0000   0.0000   0.2122
  17.000   1.0627   0.09031   0.08776   0.0123  0.0114  1.0000  -8.6374   0.0000   0.0000   0.0000   0.2135
  17.100   1.0525   0.09391   0.09144   0.0102  0.0114  1.0000  -8.5588   0.0000   0.0000   0.0000   0.2151
  17.200   1.0408   0.09792   0.09552   0.0079  0.0115  1.0000  -8.4584   0.0000   0.0000   0.0000   0.2170
  17.300   1.0266   0.10254   0.10023   0.0051  0.0115  1.0000  -8.3226   0.0000   0.0000   0.0000   0.2193
  17.400   1.0083   0.10820   0.10598   0.0017  0.0115  1.0000  -8.1291   0.0000   0.0000   0.0000   0.2224


