xflr5 v6.61

 Calculated polar for: NACA 65-209

 1 1 Reynolds number fixed          Mach number fixed         

 xtrf =   1.000 (top)        1.000 (bottom)
 Mach =   0.000     Re =     0.719 e 6     Ncrit =   9.000

  alpha     CL        CD       CDp       Cm    Top Xtr Bot Xtr   Cpmin    Chinge    XCp    
 ------- -------- --------- --------- -------- ------- ------- -------- --------- ---------
  -9.600  -0.4455   0.08878   0.08668  -0.0329  1.0000  0.0113  -2.0237   0.0000   0.0000   0.0000   0.1705
  -9.500  -0.4451   0.08729   0.08519  -0.0336  1.0000  0.0116  -2.0439   0.0000   0.0000   0.0000   0.1689
  -9.400  -0.4445   0.08581   0.08372  -0.0344  1.0000  0.0119  -2.0648   0.0000   0.0000   0.0000   0.1671
  -9.300  -0.4429   0.08448   0.08240  -0.0352  1.0000  0.0122  -2.0752   0.0000   0.0000   0.0000   0.1651
  -9.200  -0.4388   0.08353   0.08146  -0.0359  1.0000  0.0126  -2.0583   0.0000   0.0000   0.0000   0.1628
  -9.100  -0.4355   0.08248   0.08041  -0.0367  1.0000  0.0129  -2.0452   0.0000   0.0000   0.0000   0.1603
  -9.000  -0.4343   0.08109   0.07902  -0.0377  1.0000  0.0130  -2.0522   0.0000   0.0000   0.0000   0.1579
  -8.900  -0.4343   0.07947   0.07741  -0.0389  1.0000  0.0130  -2.0711   0.0000   0.0000   0.0000   0.1554
  -8.800  -0.4350   0.07767   0.07562  -0.0402  1.0000  0.0131  -2.0986   0.0000   0.0000   0.0000   0.1526
  -8.700  -0.4365   0.07563   0.07359  -0.0419  1.0000  0.0131  -2.1359   0.0000   0.0000   0.0000   0.1492
  -8.600  -0.4392   0.07342   0.07137  -0.0438  1.0000  0.0131  -2.1824   0.0000   0.0000   0.0000   0.1455
  -7.500  -0.4957   0.06036   0.05813  -0.0431  0.9982  0.0131  -2.4522   0.0000   0.0000   0.0000   0.1595
  -7.400  -0.4938   0.05860   0.05630  -0.0438  0.9971  0.0132  -2.4699   0.0000   0.0000   0.0000   0.1577
  -7.300  -0.4909   0.05708   0.05470  -0.0445  0.9958  0.0132  -2.4814   0.0000   0.0000   0.0000   0.1559
  -7.200  -0.4881   0.05540   0.05295  -0.0451  0.9943  0.0132  -2.4928   0.0000   0.0000   0.0000   0.1541
  -7.100  -0.4848   0.05368   0.05117  -0.0456  0.9926  0.0132  -2.5028   0.0000   0.0000   0.0000   0.1524
  -7.000  -0.4809   0.05197   0.04938  -0.0461  0.9906  0.0132  -2.5113   0.0000   0.0000   0.0000   0.1506
  -6.900  -0.4764   0.05025   0.04758  -0.0466  0.9883  0.0132  -2.5181   0.0000   0.0000   0.0000   0.1488
  -6.800  -0.4715   0.04855   0.04580  -0.0470  0.9860  0.0132  -2.5227   0.0000   0.0000   0.0000   0.1469
  -6.700  -0.4662   0.04685   0.04401  -0.0474  0.9835  0.0132  -2.5248   0.0000   0.0000   0.0000   0.1449
  -6.600  -0.4604   0.04515   0.04222  -0.0478  0.9810  0.0132  -2.5250   0.0000   0.0000   0.0000   0.1428
  -6.500  -0.4679   0.03913   0.03592  -0.0482  0.9767  0.0137  -2.8415   0.0000   0.0000   0.0000   0.1436
  -6.400  -0.4680   0.03496   0.03154  -0.0486  0.9735  0.0142  -2.9903   0.0000   0.0000   0.0000   0.1427
  -6.300  -0.4612   0.03288   0.02934  -0.0490  0.9709  0.0144  -2.9881   0.0000   0.0000   0.0000   0.1403
  -6.200  -0.4527   0.03123   0.02760  -0.0494  0.9684  0.0147  -2.9545   0.0000   0.0000   0.0000   0.1374
  -6.100  -0.4434   0.02978   0.02605  -0.0498  0.9658  0.0149  -2.9073   0.0000   0.0000   0.0000   0.1342
  -6.000  -0.4336   0.02841   0.02459  -0.0502  0.9629  0.0152  -2.8542   0.0000   0.0000   0.0000   0.1308
  -5.900  -0.4235   0.02704   0.02311  -0.0505  0.9594  0.0154  -2.8014   0.0000   0.0000   0.0000   0.1273
  -5.300  -0.3732   0.01552   0.01022  -0.0451  0.9409  0.0130  -3.0583   0.0000   0.0000   0.0000   0.1255
  -5.200  -0.3651   0.01434   0.00892  -0.0446  0.9382  0.0140  -2.9970   0.0000   0.0000   0.0000   0.1242
  -5.100  -0.3571   0.01329   0.00779  -0.0442  0.9354  0.0149  -2.9207   0.0000   0.0000   0.0000   0.1227
  -5.000  -0.3477   0.01295   0.00745  -0.0440  0.9325  0.0156  -2.7890   0.0000   0.0000   0.0000   0.1200
  -4.900  -0.3377   0.01278   0.00729  -0.0439  0.9295  0.0161  -2.6453   0.0000   0.0000   0.0000   0.1165
  -4.800  -0.3276   0.01266   0.00716  -0.0438  0.9264  0.0166  -2.5017   0.0000   0.0000   0.0000   0.1128
  -4.700  -0.3175   0.01252   0.00703  -0.0437  0.9232  0.0170  -2.3925   0.0000   0.0000   0.0000   0.1089
  -4.600  -0.3074   0.01236   0.00685  -0.0436  0.9200  0.0174  -2.3212   0.0000   0.0000   0.0000   0.1049
  -4.500  -0.2974   0.01218   0.00665  -0.0434  0.9164  0.0177  -2.2568   0.0000   0.0000   0.0000   0.1006
  -4.400  -0.2873   0.01198   0.00643  -0.0433  0.9125  0.0180  -2.1977   0.0000   0.0000   0.0000   0.0961
  -4.300  -0.2771   0.01177   0.00619  -0.0432  0.9080  0.0183  -2.1427   0.0000   0.0000   0.0000   0.0909
  -4.200  -0.2667   0.01155   0.00595  -0.0431  0.9030  0.0185  -2.0908   0.0000   0.0000   0.0000   0.0850
  -4.100  -0.2563   0.01132   0.00571  -0.0431  0.8998  0.0187  -2.0404   0.0000   0.0000   0.0000   0.0787
  -4.000  -0.2460   0.01121   0.00560  -0.0430  0.8985  0.0193  -1.9711   0.0000   0.0000   0.0000   0.0718
  -3.900  -0.2355   0.01116   0.00556  -0.0430  0.8970  0.0201  -1.8947   0.0000   0.0000   0.0000   0.0641
  -3.800  -0.2251   0.01108   0.00548  -0.0430  0.8952  0.0209  -1.8247   0.0000   0.0000   0.0000   0.0558
  -3.700  -0.2148   0.01092   0.00532  -0.0429  0.8931  0.0214  -1.7685   0.0000   0.0000   0.0000   0.0470
  -3.600  -0.2048   0.01064   0.00502  -0.0427  0.8908  0.0214  -1.7329   0.0000   0.0000   0.0000   0.0381
  -3.500  -0.1949   0.01031   0.00466  -0.0425  0.8882  0.0213  -1.7075   0.0000   0.0000   0.0000   0.0287
  -3.400  -0.1850   0.01001   0.00433  -0.0423  0.8855  0.0212  -1.6809   0.0000   0.0000   0.0000   0.0182
  -3.300  -0.1751   0.00974   0.00402  -0.0420  0.8825  0.0210  -1.6529   0.0000   0.0000   0.0000   0.0064
  -3.200  -0.1650   0.00949   0.00373  -0.0419  0.8794  0.0210  -1.6236   0.0000   0.0000   0.0000  -0.0071
  -3.100  -0.1550   0.00927   0.00347  -0.0417  0.8762  0.0209  -1.5929   0.0000   0.0000   0.0000  -0.0226
  -3.000  -0.1448   0.00907   0.00322  -0.0415  0.8729  0.0209  -1.5612   0.0000   0.0000   0.0000  -0.0404
  -2.900  -0.1346   0.00889   0.00299  -0.0414  0.8694  0.0209  -1.5284   0.0000   0.0000   0.0000  -0.0611
  -2.800  -0.1242   0.00874   0.00279  -0.0412  0.8656  0.0210  -1.4947   0.0000   0.0000   0.0000  -0.0857
  -2.700  -0.1138   0.00860   0.00260  -0.0411  0.8614  0.0211  -1.4601   0.0000   0.0000   0.0000  -0.1154
  -2.600  -0.1031   0.00849   0.00244  -0.0411  0.8566  0.0213  -1.4249   0.0000   0.0000   0.0000  -0.1527
  -2.500  -0.0921   0.00839   0.00230  -0.0411  0.8516  0.0217  -1.3889   0.0000   0.0000   0.0000  -0.2005
  -2.400  -0.0812   0.00828   0.00217  -0.0411  0.8496  0.0221  -1.3527   0.0000   0.0000   0.0000  -0.2615
  -2.300  -0.0702   0.00818   0.00204  -0.0411  0.8483  0.0228  -1.3163   0.0000   0.0000   0.0000  -0.3413
  -2.200  -0.0592   0.00809   0.00193  -0.0412  0.8468  0.0238  -1.2791   0.0000   0.0000   0.0000  -0.4512
  -2.100  -0.0482   0.00802   0.00185  -0.0412  0.8451  0.0250  -1.2377   0.0000   0.0000   0.0000  -0.6114
  -2.000  -0.0372   0.00795   0.00178  -0.0413  0.8432  0.0265  -1.1955   0.0000   0.0000   0.0000  -0.8664
  -1.700  -0.0078   0.00635   0.00130  -0.0417  0.8357  0.3643  -1.1024   0.0000   0.0000   0.0000  -5.1225
  -1.600   0.0013   0.00572   0.00121  -0.0419  0.8326  0.5170  -1.0523   0.0000   0.0000   0.0000  32.2905
  -1.500   0.0113   0.00548   0.00122  -0.0418  0.8294  0.5888  -0.9988   0.0000   0.0000   0.0000   3.9757
  -1.400   0.0217   0.00538   0.00122  -0.0417  0.8261  0.6214  -0.9445   0.0000   0.0000   0.0000   2.1848
  -1.300   0.0322   0.00533   0.00121  -0.0416  0.8226  0.6449  -0.8901   0.0000   0.0000   0.0000   1.5488
  -1.200   0.0427   0.00528   0.00121  -0.0415  0.8189  0.6643  -0.8363   0.0000   0.0000   0.0000   1.2269
  -1.100   0.0531   0.00524   0.00122  -0.0414  0.8149  0.6816  -0.7833   0.0000   0.0000   0.0000   1.0327
  -1.000   0.0639   0.00525   0.00123  -0.0414  0.8105  0.6919  -0.7299   0.0000   0.0000   0.0000   0.8996
  -0.900   0.0750   0.00527   0.00123  -0.0414  0.8058  0.6976  -0.6766   0.0000   0.0000   0.0000   0.8040
  -0.800   0.0862   0.00530   0.00124  -0.0415  0.8010  0.7038  -0.6240   0.0000   0.0000   0.0000   0.7331
  -0.700   0.0972   0.00527   0.00125  -0.0416  0.7996  0.7120  -0.5724   0.0000   0.0000   0.0000   0.6786
  -0.600   0.1082   0.00524   0.00125  -0.0416  0.7984  0.7183  -0.5215   0.0000   0.0000   0.0000   0.6352
  -0.500   0.1190   0.00521   0.00126  -0.0416  0.7965  0.7257  -0.4716   0.0000   0.0000   0.0000   0.5997
  -0.400   0.1298   0.00519   0.00126  -0.0415  0.7937  0.7336  -0.4226   0.0000   0.0000   0.0000   0.5701
  -0.300   0.1406   0.00518   0.00126  -0.0415  0.7899  0.7411  -0.3743   0.0000   0.0000   0.0000   0.5450
  -0.200   0.1514   0.00519   0.00126  -0.0414  0.7848  0.7470  -0.3521   0.0000   0.0000   0.0000   0.5234
  -0.100   0.1620   0.00519   0.00124  -0.0413  0.7785  0.7533  -0.3568   0.0000   0.0000   0.0000   0.5047
   0.000   0.1720   0.00517   0.00124  -0.0410  0.7713  0.7647  -0.3613   0.0000   0.0000   0.0000   0.4882
   0.100   0.1819   0.00518   0.00124  -0.0407  0.7625  0.7730  -0.3658   0.0000   0.0000   0.0000   0.4735
   0.200   0.1922   0.00522   0.00125  -0.0406  0.7519  0.7792  -0.3702   0.0000   0.0000   0.0000   0.4606
   0.300   0.2030   0.00521   0.00126  -0.0405  0.7478  0.7844  -0.3750   0.0000   0.0000   0.0000   0.4490
   0.400   0.2138   0.00521   0.00127  -0.0405  0.7444  0.7900  -0.3799   0.0000   0.0000   0.0000   0.4387
   0.500   0.2247   0.00522   0.00128  -0.0405  0.7403  0.7943  -0.4316   0.0000   0.0000   0.0000   0.4293
   0.600   0.2357   0.00524   0.00129  -0.0404  0.7356  0.7975  -0.4842   0.0000   0.0000   0.0000   0.4209
   0.700   0.2465   0.00527   0.00130  -0.0404  0.7301  0.7999  -0.5377   0.0000   0.0000   0.0000   0.4131
   0.800   0.2570   0.00526   0.00129  -0.0403  0.7235  0.8079  -0.5910   0.0000   0.0000   0.0000   0.4060
   0.900   0.2671   0.00527   0.00128  -0.0401  0.7152  0.8144  -0.6444   0.0000   0.0000   0.0000   0.3993
   1.000   0.2772   0.00531   0.00129  -0.0399  0.7046  0.8193  -0.6984   0.0000   0.0000   0.0000   0.3930
   1.100   0.2879   0.00532   0.00130  -0.0399  0.6983  0.8230  -0.7547   0.0000   0.0000   0.0000   0.3874
   1.200   0.2987   0.00532   0.00131  -0.0398  0.6931  0.8264  -0.8121   0.0000   0.0000   0.0000   0.3823
   1.300   0.3094   0.00533   0.00133  -0.0398  0.6865  0.8299  -0.8702   0.0000   0.0000   0.0000   0.3774
   1.400   0.3200   0.00535   0.00134  -0.0397  0.6786  0.8333  -0.9289   0.0000   0.0000   0.0000   0.3729
   1.500   0.3304   0.00540   0.00134  -0.0396  0.6686  0.8365  -0.9878   0.0000   0.0000   0.0000   0.3686
   1.600   0.3407   0.00547   0.00135  -0.0395  0.6561  0.8394  -1.0470   0.0000   0.0000   0.0000   0.3646
   1.700   0.3515   0.00551   0.00137  -0.0395  0.6475  0.8420  -1.1081   0.0000   0.0000   0.0000   0.3610
   1.800   0.3623   0.00554   0.00139  -0.0395  0.6377  0.8443  -1.1702   0.0000   0.0000   0.0000   0.3575
   1.900   0.3725   0.00563   0.00140  -0.0393  0.6181  0.8463  -1.2311   0.0000   0.0000   0.0000   0.3542
   2.000   0.3825   0.00574   0.00142  -0.0392  0.5957  0.8479  -1.2918   0.0000   0.0000   0.0000   0.3510
   2.100   0.3919   0.00593   0.00145  -0.0390  0.5565  0.8493  -1.3510   0.0000   0.0000   0.0000   0.3478
   2.200   0.3997   0.00630   0.00150  -0.0385  0.4777  0.8537  -1.4054   0.0000   0.0000   0.0000   0.3447
   2.300   0.4063   0.00681   0.00164  -0.0380  0.3836  0.8595  -1.4557   0.0000   0.0000   0.0000   0.3418
   2.400   0.4127   0.00735   0.00183  -0.0374  0.2904  0.8648  -1.5047   0.0000   0.0000   0.0000   0.3389
   2.600   0.4253   0.00845   0.00222  -0.0362  0.1097  0.8736  -1.5981   0.0000   0.0000   0.0000   0.3333
   2.700   0.4322   0.00890   0.00240  -0.0356  0.0454  0.8777  -1.6426   0.0000   0.0000   0.0000   0.3305
   2.800   0.4414   0.00911   0.00256  -0.0353  0.0228  0.8813  -1.6579   0.0000   0.0000   0.0000   0.3279
   2.900   0.4512   0.00920   0.00268  -0.0350  0.0208  0.8848  -1.6986   0.0000   0.0000   0.0000   0.3256
   3.000   0.4611   0.00930   0.00280  -0.0348  0.0197  0.8880  -1.7416   0.0000   0.0000   0.0000   0.3234
   3.100   0.4711   0.00941   0.00292  -0.0346  0.0190  0.8909  -1.7860   0.0000   0.0000   0.0000   0.3213
   3.200   0.4810   0.00952   0.00306  -0.0344  0.0185  0.8936  -1.8307   0.0000   0.0000   0.0000   0.3193
   3.300   0.4910   0.00964   0.00320  -0.0342  0.0182  0.8959  -1.8754   0.0000   0.0000   0.0000   0.3174
   3.400   0.5009   0.00977   0.00336  -0.0340  0.0180  0.8979  -1.9195   0.0000   0.0000   0.0000   0.3155
   3.500   0.5106   0.00992   0.00353  -0.0337  0.0178  0.8995  -1.9627   0.0000   0.0000   0.0000   0.3137
   3.600   0.5201   0.01005   0.00370  -0.0335  0.0177  0.9050  -2.0045   0.0000   0.0000   0.0000   0.3119
   3.700   0.5287   0.01018   0.00388  -0.0330  0.0176  0.9109  -2.0438   0.0000   0.0000   0.0000   0.3098
   3.800   0.5367   0.01033   0.00408  -0.0323  0.0176  0.9162  -2.0812   0.0000   0.0000   0.0000   0.3076
   3.900   0.5444   0.01050   0.00429  -0.0316  0.0176  0.9212  -2.1172   0.0000   0.0000   0.0000   0.3053
   4.000   0.5520   0.01068   0.00452  -0.0308  0.0176  0.9260  -2.1522   0.0000   0.0000   0.0000   0.3031
   4.100   0.5594   0.01089   0.00477  -0.0301  0.0177  0.9307  -2.1861   0.0000   0.0000   0.0000   0.3010
   4.200   0.5668   0.01112   0.00504  -0.0293  0.0178  0.9353  -2.2187   0.0000   0.0000   0.0000   0.2989
   4.300   0.5739   0.01137   0.00533  -0.0285  0.0178  0.9394  -2.2497   0.0000   0.0000   0.0000   0.2967
   4.400   0.5810   0.01164   0.00564  -0.0277  0.0179  0.9432  -2.2795   0.0000   0.0000   0.0000   0.2946
   4.500   0.5880   0.01194   0.00598  -0.0268  0.0181  0.9463  -2.3081   0.0000   0.0000   0.0000   0.2926
   4.600   0.5949   0.01226   0.00633  -0.0260  0.0182  0.9488  -2.3354   0.0000   0.0000   0.0000   0.2906
   4.700   0.6033   0.01263   0.00674  -0.0255  0.0184  0.9527  -2.3635   0.0000   0.0000   0.0000   0.2891
   4.800   0.6137   0.01308   0.00723  -0.0254  0.0186  0.9591  -2.3924   0.0000   0.0000   0.0000   0.2882
   4.900   0.6246   0.01348   0.00766  -0.0255  0.0186  0.9656  -2.4336   0.0000   0.0000   0.0000   0.2876
   5.000   0.6363   0.01371   0.00790  -0.0258  0.0182  0.9718  -2.5027   0.0000   0.0000   0.0000   0.2872
   5.100   0.6484   0.01383   0.00802  -0.0263  0.0175  0.9777  -2.5917   0.0000   0.0000   0.0000   0.2871
   5.200   0.6607   0.01390   0.00808  -0.0268  0.0168  0.9834  -2.6912   0.0000   0.0000   0.0000   0.2870
   5.300   0.6728   0.01400   0.00818  -0.0272  0.0162  0.9894  -2.7866   0.0000   0.0000   0.0000   0.2868
   5.400   0.6841   0.01429   0.00848  -0.0274  0.0160  0.9965  -2.8537   0.0000   0.0000   0.0000   0.2864
   5.500   0.6944   0.01461   0.00882  -0.0274  0.0158  1.0000  -2.9141   0.0000   0.0000   0.0000   0.2857
   5.600   0.7043   0.01492   0.00914  -0.0273  0.0156  1.0000  -2.9764   0.0000   0.0000   0.0000   0.2850
   5.700   0.7142   0.01522   0.00945  -0.0273  0.0154  1.0000  -3.0429   0.0000   0.0000   0.0000   0.2842
   5.800   0.7241   0.01551   0.00974  -0.0272  0.0152  1.0000  -3.1138   0.0000   0.0000   0.0000   0.2836
   5.900   0.7340   0.01578   0.01002  -0.0272  0.0149  1.0000  -3.1893   0.0000   0.0000   0.0000   0.2829
   6.300   0.7665   0.02357   0.01871  -0.0234  0.0095  1.0000  -3.6320   0.0000   0.0000   0.0000   0.2762
   6.400   0.7711   0.02613   0.02151  -0.0221  0.0103  1.0000  -3.5122   0.0000   0.0000   0.0000   0.2743
   8.300   0.7767   0.05826   0.05550  -0.0004  0.0118  1.0000  -3.1296   0.0000   0.0000   0.0000   0.2451
   8.400   0.7729   0.05931   0.05661   0.0009  0.0118  1.0000  -3.1230   0.0000   0.0000   0.0000   0.2434
   8.500   0.7685   0.06033   0.05768   0.0022  0.0118  1.0000  -3.1150   0.0000   0.0000   0.0000   0.2416
   8.600   0.7626   0.06120   0.05859   0.0038  0.0118  1.0000  -3.1049   0.0000   0.0000   0.0000   0.2393
   8.700   0.7547   0.06186   0.05928   0.0059  0.0118  1.0000  -3.0931   0.0000   0.0000   0.0000   0.2365
   8.800   0.7468   0.06257   0.06002   0.0078  0.0118  1.0000  -3.0804   0.0000   0.0000   0.0000   0.2338
   8.900   0.7388   0.06331   0.06080   0.0095  0.0118  1.0000  -3.0666   0.0000   0.0000   0.0000   0.2312
   9.000   0.7310   0.06414   0.06166   0.0110  0.0118  1.0000  -3.0519   0.0000   0.0000   0.0000   0.2290
   9.100   0.7232   0.06502   0.06257   0.0123  0.0118  1.0000  -3.0359   0.0000   0.0000   0.0000   0.2270
   9.200   0.7156   0.06596   0.06354   0.0133  0.0118  1.0000  -3.0191   0.0000   0.0000   0.0000   0.2252
   9.300   0.7080   0.06695   0.06456   0.0142  0.0118  1.0000  -3.0008   0.0000   0.0000   0.0000   0.2237
   9.400   0.7005   0.06802   0.06566   0.0149  0.0118  1.0000  -2.9814   0.0000   0.0000   0.0000   0.2224
   9.500   0.6930   0.06916   0.06683   0.0154  0.0118  1.0000  -2.9604   0.0000   0.0000   0.0000   0.2214
   9.600   0.6857   0.07039   0.06809   0.0157  0.0118  1.0000  -2.9380   0.0000   0.0000   0.0000   0.2206
   9.700   0.6783   0.07168   0.06941   0.0158  0.0118  1.0000  -2.9136   0.0000   0.0000   0.0000   0.2200
   9.800   0.6712   0.07305   0.07081   0.0158  0.0118  1.0000  -2.8877   0.0000   0.0000   0.0000   0.2197
   9.900   0.6641   0.07452   0.07231   0.0155  0.0118  1.0000  -2.8596   0.0000   0.0000   0.0000   0.2197
  10.000   0.6573   0.07610   0.07391   0.0151  0.0118  1.0000  -2.8296   0.0000   0.0000   0.0000   0.2200
  10.100   0.6506   0.07777   0.07561   0.0146  0.0118  1.0000  -2.7973   0.0000   0.0000   0.0000   0.2205
  10.200   0.6442   0.07956   0.07742   0.0138  0.0118  1.0000  -2.7626   0.0000   0.0000   0.0000   0.2213
  10.300   0.6382   0.08145   0.07933   0.0129  0.0118  1.0000  -2.7258   0.0000   0.0000   0.0000   0.2224
  10.400   0.6325   0.08346   0.08136   0.0118  0.0118  1.0000  -2.6861   0.0000   0.0000   0.0000   0.2239
  10.500   0.6273   0.08557   0.08348   0.0106  0.0118  1.0000  -2.6446   0.0000   0.0000   0.0000   0.2256
  10.600   0.6230   0.08776   0.08570   0.0092  0.0118  1.0000  -2.6008   0.0000   0.0000   0.0000   0.2276
  13.100   0.6227   0.13973   0.13760  -0.0167  0.0117  1.0000  -1.9036   0.0000   0.0000   0.0000   0.2676
  13.200   0.6242   0.14149   0.13936  -0.0176  0.0117  1.0000  -1.8915   0.0000   0.0000   0.0000   0.2688
  13.300   0.6258   0.14324   0.14111  -0.0184  0.0116  1.0000  -1.8802   0.0000   0.0000   0.0000   0.2699
  13.400   0.6275   0.14496   0.14283  -0.0192  0.0116  1.0000  -1.8698   0.0000   0.0000   0.0000   0.2711
  13.500   0.6293   0.14667   0.14453  -0.0200  0.0116  1.0000  -1.8603   0.0000   0.0000   0.0000   0.2722
  13.600   0.6311   0.14835   0.14621  -0.0208  0.0116  1.0000  -1.8519   0.0000   0.0000   0.0000   0.2732
  14.000   0.6436   0.15296   0.15081  -0.0236  0.0104  1.0000  -1.8905   0.0000   0.0000   0.0000   0.2767
  14.100   0.6454   0.15452   0.15237  -0.0245  0.0101  1.0000  -1.8720   0.0000   0.0000   0.0000   0.2778
  14.200   0.6473   0.15613   0.15398  -0.0253  0.0097  1.0000  -1.8578   0.0000   0.0000   0.0000   0.2789
  14.300   0.6492   0.15774   0.15558  -0.0261  0.0094  1.0000  -1.8503   0.0000   0.0000   0.0000   0.2799
  14.400   0.6513   0.15932   0.15716  -0.0269  0.0090  1.0000  -1.8499   0.0000   0.0000   0.0000   0.2809
  14.500   0.6534   0.16086   0.15870  -0.0276  0.0087  1.0000  -1.8565   0.0000   0.0000   0.0000   0.2818
  14.600   0.6557   0.16235   0.16018  -0.0284  0.0085  1.0000  -1.8708   0.0000   0.0000   0.0000   0.2827
  14.700   0.6581   0.16377   0.16160  -0.0291  0.0082  1.0000  -1.8930   0.0000   0.0000   0.0000   0.2835
  14.800   0.6607   0.16511   0.16295  -0.0298  0.0080  1.0000  -1.9245   0.0000   0.0000   0.0000   0.2842
  14.900   0.6635   0.16638   0.16421  -0.0304  0.0078  1.0000  -1.9673   0.0000   0.0000   0.0000   0.2849
  15.000   0.6666   0.16756   0.16539  -0.0310  0.0076  1.0000  -2.0241   0.0000   0.0000   0.0000   0.2854
  15.100   0.6703   0.16864   0.16647  -0.0315  0.0075  1.0000  -2.1018   0.0000   0.0000   0.0000   0.2857
  15.200   0.6750   0.16960   0.16742  -0.0318  0.0073  1.0000  -2.2132   0.0000   0.0000   0.0000   0.2857


