xflr5 v6.61

 Calculated polar for: NACA 4412

 1 1 Reynolds number fixed          Mach number fixed         

 xtrf =   1.000 (top)        1.000 (bottom)
 Mach =   0.000     Re =     0.130 e 6     Ncrit =   9.000

  alpha     CL        CD       CDp       Cm    Top Xtr Bot Xtr   Cpmin    Chinge    XCp    
 ------- -------- --------- --------- -------- ------- ------- -------- --------- ---------
 -10.000  -0.3323   0.11051   0.10554  -0.0369  1.0000  0.0921  -1.3675   0.0000   0.0000   0.0000   0.1247
  -9.900  -0.3341   0.11037   0.10542  -0.0372  1.0000  0.0939  -1.3700   0.0000   0.0000   0.0000   0.1247
  -9.800  -0.3363   0.11073   0.10581  -0.0375  1.0000  0.0958  -1.3724   0.0000   0.0000   0.0000   0.1248
  -9.700  -0.3366   0.11188   0.10699  -0.0376  1.0000  0.0976  -1.3606   0.0000   0.0000   0.0000   0.1251
  -9.600  -0.3377   0.11267   0.10781  -0.0374  1.0000  0.0986  -1.3492   0.0000   0.0000   0.0000   0.1264
  -9.500  -0.3396   0.11281   0.10798  -0.0371  1.0000  0.0990  -1.3413   0.0000   0.0000   0.0000   0.1282
  -9.400  -0.3420   0.11262   0.10782  -0.0367  1.0000  0.0993  -1.3358   0.0000   0.0000   0.0000   0.1304
  -9.300  -0.3449   0.11227   0.10750  -0.0362  1.0000  0.0995  -1.3319   0.0000   0.0000   0.0000   0.1331
  -9.200  -0.3483   0.11189   0.10715  -0.0356  1.0000  0.0996  -1.3296   0.0000   0.0000   0.0000   0.1362
  -9.100  -0.3525   0.11156   0.10684  -0.0349  1.0000  0.0998  -1.3290   0.0000   0.0000   0.0000   0.1397
  -9.000  -0.3573   0.11122   0.10654  -0.0341  1.0000  0.0999  -1.3301   0.0000   0.0000   0.0000   0.1437
  -8.900  -0.3627   0.11087   0.10622  -0.0332  1.0000  0.1000  -1.3326   0.0000   0.0000   0.0000   0.1479
  -8.800  -0.3685   0.11050   0.10588  -0.0323  1.0000  0.1001  -1.3365   0.0000   0.0000   0.0000   0.1522
  -8.700  -0.3747   0.11011   0.10553  -0.0313  1.0000  0.1001  -1.3416   0.0000   0.0000   0.0000   0.1567
  -8.600  -0.3812   0.10970   0.10514  -0.0303  1.0000  0.1002  -1.3477   0.0000   0.0000   0.0000   0.1610
  -8.500  -0.3879   0.10924   0.10472  -0.0294  1.0000  0.1002  -1.3545   0.0000   0.0000   0.0000   0.1652
  -8.400  -0.3941   0.10870   0.10421  -0.0286  1.0000  0.1003  -1.3611   0.0000   0.0000   0.0000   0.1686
  -8.300  -0.3988   0.10801   0.10354  -0.0283  1.0000  0.1003  -1.3655   0.0000   0.0000   0.0000   0.1705
  -8.200  -0.4072   0.10585   0.10147  -0.0286  1.0000  0.1006  -1.3993   0.0000   0.0000   0.0000   0.1717
  -8.100  -0.4210   0.10191   0.09756  -0.0292  1.0000  0.1012  -1.4710   0.0000   0.0000   0.0000   0.1728
  -8.000  -0.4337   0.09825   0.09392  -0.0297  1.0000  0.1020  -1.5335   0.0000   0.0000   0.0000   0.1740
  -7.900  -0.4449   0.09488   0.09057  -0.0298  1.0000  0.1028  -1.5830   0.0000   0.0000   0.0000   0.1757
  -7.800  -0.4030   0.09191   0.08756  -0.0232  1.0000  0.1128  -1.3259   0.0000   0.0000   0.0000   0.1843
  -7.700  -0.4037   0.09141   0.08708  -0.0220  1.0000  0.1139  -1.3139   0.0000   0.0000   0.0000   0.1876
  -7.600  -0.4080   0.09092   0.08662  -0.0207  1.0000  0.1146  -1.3126   0.0000   0.0000   0.0000   0.1916
  -7.500  -0.4136   0.09045   0.08619  -0.0194  1.0000  0.1152  -1.3152   0.0000   0.0000   0.0000   0.1957
  -7.400  -0.4196   0.08996   0.08572  -0.0182  1.0000  0.1157  -1.3193   0.0000   0.0000   0.0000   0.1996
  -7.300  -0.4247   0.08938   0.08517  -0.0172  1.0000  0.1162  -1.3231   0.0000   0.0000   0.0000   0.2027
  -7.200  -0.4291   0.08870   0.08452  -0.0164  1.0000  0.1168  -1.3268   0.0000   0.0000   0.0000   0.2051
  -7.100  -0.4333   0.08798   0.08382  -0.0158  1.0000  0.1173  -1.3312   0.0000   0.0000   0.0000   0.2071
  -7.000  -0.4372   0.08721   0.08308  -0.0153  1.0000  0.1179  -1.3356   0.0000   0.0000   0.0000   0.2089
  -6.900  -0.4376   0.08619   0.08207  -0.0155  0.9995  0.1187  -1.3369   0.0000   0.0000   0.0000   0.2086
  -6.800  -0.4294   0.08455   0.08042  -0.0176  0.9976  0.1199  -1.3310   0.0000   0.0000   0.0000   0.2029
  -6.700  -0.4212   0.08289   0.07877  -0.0199  0.9954  0.1212  -1.3262   0.0000   0.0000   0.0000   0.1969
  -6.600  -0.4129   0.08121   0.07708  -0.0222  0.9928  0.1225  -1.3224   0.0000   0.0000   0.0000   0.1902
  -6.500  -0.4043   0.07951   0.07536  -0.0247  0.9898  0.1239  -1.3193   0.0000   0.0000   0.0000   0.1829
  -6.400  -0.3953   0.07777   0.07362  -0.0274  0.9865  0.1255  -1.3170   0.0000   0.0000   0.0000   0.1749
  -6.300  -0.3859   0.07599   0.07182  -0.0302  0.9829  0.1271  -1.3157   0.0000   0.0000   0.0000   0.1658
  -6.200  -0.3760   0.07418   0.06999  -0.0332  0.9794  0.1289  -1.3152   0.0000   0.0000   0.0000   0.1557
  -6.100  -0.3654   0.07233   0.06812  -0.0365  0.9758  0.1309  -1.3157   0.0000   0.0000   0.0000   0.1443
  -6.000  -0.3537   0.07041   0.06617  -0.0400  0.9723  0.1332  -1.3172   0.0000   0.0000   0.0000   0.1308
  -5.900  -0.3407   0.06848   0.06419  -0.0439  0.9689  0.1357  -1.3197   0.0000   0.0000   0.0000   0.1151
  -5.800  -0.3259   0.06657   0.06222  -0.0483  0.9657  0.1388  -1.3239   0.0000   0.0000   0.0000   0.0956
  -5.700  -0.2885   0.07018   0.06560  -0.0552  0.9616  0.1491  -1.2864   0.0000   0.0000   0.0000   0.0519
  -5.500  -0.2851   0.03827   0.03186  -0.0734  0.9572  0.0769  -2.0404   0.0000   0.0000   0.0000  -0.0168
  -5.400  -0.2668   0.03826   0.03178  -0.0749  0.9555  0.0760  -2.0005   0.0000   0.0000   0.0000  -0.0405
  -5.200  -0.2359   0.03495   0.02817  -0.0783  0.9528  0.0740  -1.9949   0.0000   0.0000   0.0000  -0.0929
  -5.100  -0.2203   0.03327   0.02630  -0.0801  0.9515  0.0734  -1.9964   0.0000   0.0000   0.0000  -0.1252
  -5.000  -0.2041   0.03199   0.02484  -0.0818  0.9500  0.0729  -1.9910   0.0000   0.0000   0.0000  -0.1630
  -4.900  -0.1999   0.03090   0.02364  -0.0808  0.9465  0.0727  -1.9890   0.0000   0.0000   0.0000  -0.1663
  -4.800  -0.1932   0.02991   0.02253  -0.0802  0.9428  0.0724  -1.9840   0.0000   0.0000   0.0000  -0.1779
  -4.700  -0.1840   0.02897   0.02146  -0.0802  0.9393  0.0722  -1.9760   0.0000   0.0000   0.0000  -0.1987
  -4.600  -0.1731   0.02809   0.02045  -0.0804  0.9361  0.0721  -1.9654   0.0000   0.0000   0.0000  -0.2281
  -4.500  -0.1610   0.02726   0.01949  -0.0808  0.9331  0.0721  -1.9524   0.0000   0.0000   0.0000  -0.2662
  -4.400  -0.1480   0.02649   0.01859  -0.0814  0.9302  0.0721  -1.9372   0.0000   0.0000   0.0000  -0.3148
  -4.300  -0.1344   0.02577   0.01775  -0.0820  0.9276  0.0722  -1.9202   0.0000   0.0000   0.0000  -0.3768
  -4.200  -0.1201   0.02511   0.01698  -0.0827  0.9251  0.0725  -1.9013   0.0000   0.0000   0.0000  -0.4570
  -4.100  -0.1054   0.02451   0.01627  -0.0835  0.9227  0.0729  -1.8807   0.0000   0.0000   0.0000  -0.5624
  -4.000  -0.0904   0.02396   0.01562  -0.0843  0.9204  0.0735  -1.8584   0.0000   0.0000   0.0000  -0.7056
  -3.900  -0.0750   0.02347   0.01505  -0.0852  0.9181  0.0741  -1.8344   0.0000   0.0000   0.0000  -0.9136
  -3.800  -0.0591   0.02304   0.01455  -0.0862  0.9160  0.0749  -1.8082   0.0000   0.0000   0.0000  -1.2402
  -3.700  -0.0432   0.02194   0.01337  -0.0872  0.9146  0.0783  -1.8092   0.0000   0.0000   0.0000  -1.8115
  -3.600  -0.0272   0.02136   0.01284  -0.0883  0.9128  0.0831  -1.7861   0.0000   0.0000   0.0000  -3.0694
  -3.500  -0.0102   0.02112   0.01266  -0.0896  0.9108  0.0891  -1.7518   0.0000   0.0000   0.0000  -8.6719
  -3.400   0.0074   0.02025   0.01184  -0.0907  0.9093  0.1150  -1.7716   0.0000   0.0000   0.0000  12.7668
  -3.300   0.0256   0.01998   0.01167  -0.0922  0.9075  0.1387  -1.7387   0.0000   0.0000   0.0000   3.9145
  -3.200   0.0447   0.01992   0.01154  -0.0937  0.9056  0.1484  -1.6879   0.0000   0.0000   0.0000   2.3847
  -3.100   0.0636   0.01949   0.01116  -0.0953  0.9040  0.1633  -1.6418   0.0000   0.0000   0.0000   1.7742
  -3.000   0.0827   0.01927   0.01106  -0.0970  0.9022  0.1775  -1.5871   0.0000   0.0000   0.0000   1.4413
  -2.900   0.1011   0.01923   0.01102  -0.0985  0.8999  0.1895  -1.5323   0.0000   0.0000   0.0000   1.2382
  -2.800   0.1057   0.01913   0.01090  -0.0972  0.8969  0.1953  -1.5038   0.0000   0.0000   0.0000   1.1833
  -2.700   0.1089   0.01908   0.01082  -0.0956  0.8927  0.1993  -1.4778   0.0000   0.0000   0.0000   1.1412
  -2.600   0.1133   0.01888   0.01068  -0.0944  0.8879  0.2083  -1.4513   0.0000   0.0000   0.0000   1.0947
  -2.500   0.1193   0.01872   0.01062  -0.0935  0.8827  0.2178  -1.4207   0.0000   0.0000   0.0000   1.0447
  -2.400   0.1271   0.01862   0.01058  -0.0930  0.8778  0.2275  -1.3860   0.0000   0.0000   0.0000   0.9910
  -2.300   0.1364   0.01855   0.01054  -0.0927  0.8729  0.2381  -1.3485   0.0000   0.0000   0.0000   0.9382
  -2.200   0.1469   0.01851   0.01049  -0.0926  0.8682  0.2477  -1.3087   0.0000   0.0000   0.0000   0.8885
  -2.100   0.1582   0.01831   0.01042  -0.0928  0.8638  0.2628  -1.2679   0.0000   0.0000   0.0000   0.8434
  -2.000   0.1702   0.01813   0.01039  -0.0931  0.8595  0.2784  -1.2247   0.0000   0.0000   0.0000   0.8031
  -1.900   0.1829   0.01802   0.01032  -0.0935  0.8552  0.2929  -1.1803   0.0000   0.0000   0.0000   0.7663
  -1.800   0.1964   0.01787   0.01019  -0.0940  0.8514  0.3120  -1.1364   0.0000   0.0000   0.0000   0.7329
  -1.700   0.2101   0.01755   0.01007  -0.0945  0.8479  0.3485  -1.0937   0.0000   0.0000   0.0000   0.7040
  -1.600   0.2238   0.01731   0.00998  -0.0951  0.8446  0.3758  -1.0495   0.0000   0.0000   0.0000   0.6782
  -1.500   0.2380   0.01714   0.00984  -0.0956  0.8412  0.3968  -1.0049   0.0000   0.0000   0.0000   0.6549
  -1.400   0.2515   0.01682   0.00972  -0.0960  0.8380  0.4440  -0.9628   0.0000   0.0000   0.0000   0.6345
  -1.300   0.2648   0.01648   0.00962  -0.0963  0.8347  0.4959  -0.9206   0.0000   0.0000   0.0000   0.6163
  -1.200   0.2762   0.01602   0.00957  -0.0961  0.8315  0.5931  -0.8817   0.0000   0.0000   0.0000   0.6001
  -1.100   0.2858   0.01555   0.00954  -0.0951  0.8284  0.7151  -0.8457   0.0000   0.0000   0.0000   0.5847
  -1.000   0.3014   0.01512   0.00951  -0.0948  0.8262  0.8861  -0.7990   0.0000   0.0000   0.0000   0.5662
  -0.900   0.3372   0.01489   0.00924  -0.0996  0.8246  1.0000  -0.7209   0.0000   0.0000   0.0000   0.5467
  -0.800   0.3529   0.01482   0.00910  -0.1004  0.8207  1.0000  -0.6777   0.0000   0.0000   0.0000   0.5357
  -0.700   0.3685   0.01479   0.00899  -0.1013  0.8164  1.0000  -0.6717   0.0000   0.0000   0.0000   0.5258
  -0.600   0.3837   0.01485   0.00898  -0.1021  0.8108  1.0000  -0.6817   0.0000   0.0000   0.0000   0.5169
  -0.500   0.3963   0.01529   0.00937  -0.1028  0.8012  1.0000  -0.6904   0.0000   0.0000   0.0000   0.5098
  -0.400   0.4046   0.01535   0.00939  -0.1023  0.7982  1.0000  -0.6975   0.0000   0.0000   0.0000   0.5032
  -0.300   0.4132   0.01533   0.00933  -0.1018  0.7959  1.0000  -0.7048   0.0000   0.0000   0.0000   0.4966
  -0.200   0.4219   0.01531   0.00927  -0.1014  0.7932  1.0000  -0.7121   0.0000   0.0000   0.0000   0.4903
  -0.100   0.4307   0.01529   0.00922  -0.1009  0.7899  1.0000  -0.7196   0.0000   0.0000   0.0000   0.4843
   0.000   0.4398   0.01529   0.00918  -0.1006  0.7862  1.0000  -0.7272   0.0000   0.0000   0.0000   0.4784
   0.100   0.4494   0.01528   0.00915  -0.1003  0.7820  1.0000  -0.7350   0.0000   0.0000   0.0000   0.4728
   0.200   0.4593   0.01527   0.00911  -0.1001  0.7776  1.0000  -0.7431   0.0000   0.0000   0.0000   0.4673
   0.300   0.4698   0.01526   0.00906  -0.0999  0.7730  1.0000  -0.7515   0.0000   0.0000   0.0000   0.4620
   0.400   0.4808   0.01523   0.00901  -0.0999  0.7683  1.0000  -0.7602   0.0000   0.0000   0.0000   0.4569
   0.500   0.4922   0.01520   0.00894  -0.0999  0.7636  1.0000  -0.7693   0.0000   0.0000   0.0000   0.4520
   0.600   0.5040   0.01515   0.00887  -0.1000  0.7590  1.0000  -0.7786   0.0000   0.0000   0.0000   0.4473
   0.700   0.5161   0.01510   0.00879  -0.1001  0.7544  1.0000  -0.7881   0.0000   0.0000   0.0000   0.4427
   0.800   0.5283   0.01503   0.00870  -0.1002  0.7499  1.0000  -0.7977   0.0000   0.0000   0.0000   0.4383
   0.900   0.5407   0.01497   0.00861  -0.1003  0.7455  1.0000  -0.8075   0.0000   0.0000   0.0000   0.4341
   1.000   0.5537   0.01491   0.00857  -0.1006  0.7408  1.0000  -0.8190   0.0000   0.0000   0.0000   0.4301
   1.100   0.5670   0.01485   0.00846  -0.1009  0.7363  1.0000  -0.8310   0.0000   0.0000   0.0000   0.4262
   1.200   0.5804   0.01479   0.00834  -0.1012  0.7314  1.0000  -0.8431   0.0000   0.0000   0.0000   0.4226
   1.300   0.5941   0.01476   0.00825  -0.1016  0.7260  1.0000  -0.8553   0.0000   0.0000   0.0000   0.4191
   1.400   0.6076   0.01479   0.00822  -0.1020  0.7195  1.0000  -0.8673   0.0000   0.0000   0.0000   0.4159
   1.500   0.6204   0.01500   0.00838  -0.1024  0.7106  1.0000  -0.8783   0.0000   0.0000   0.0000   0.4130
   1.600   0.6295   0.01562   0.00898  -0.1025  0.6996  1.0000  -0.8860   0.0000   0.0000   0.0000   0.4107
   1.700   0.6391   0.01562   0.00896  -0.1022  0.6979  1.0000  -0.8956   0.0000   0.0000   0.0000   0.4077
   1.800   0.6485   0.01564   0.00897  -0.1019  0.6960  1.0000  -0.9052   0.0000   0.0000   0.0000   0.4048
   1.900   0.6579   0.01569   0.00900  -0.1017  0.6938  1.0000  -0.9145   0.0000   0.0000   0.0000   0.4020
   2.000   0.6672   0.01576   0.00906  -0.1014  0.6913  1.0000  -0.9238   0.0000   0.0000   0.0000   0.3993
   2.100   0.6765   0.01584   0.00913  -0.1011  0.6885  1.0000  -0.9330   0.0000   0.0000   0.0000   0.3967
   2.200   0.6859   0.01592   0.00920  -0.1009  0.6855  1.0000  -0.9423   0.0000   0.0000   0.0000   0.3942
   2.300   0.6954   0.01601   0.00928  -0.1006  0.6823  1.0000  -0.9530   0.0000   0.0000   0.0000   0.3917
   2.400   0.7050   0.01610   0.00936  -0.1004  0.6788  1.0000  -0.9645   0.0000   0.0000   0.0000   0.3893
   2.500   0.7148   0.01618   0.00944  -0.1002  0.6751  1.0000  -0.9761   0.0000   0.0000   0.0000   0.3870
   2.600   0.7248   0.01626   0.00951  -0.1001  0.6714  1.0000  -0.9880   0.0000   0.0000   0.0000   0.3848
   2.700   0.7351   0.01632   0.00955  -0.0999  0.6674  1.0000  -1.0001   0.0000   0.0000   0.0000   0.3825
   2.800   0.7456   0.01636   0.00957  -0.0998  0.6633  1.0000  -1.0203   0.0000   0.0000   0.0000   0.3803
   2.900   0.7565   0.01637   0.00957  -0.0997  0.6590  1.0000  -1.0564   0.0000   0.0000   0.0000   0.3782
   3.000   0.7675   0.01637   0.00955  -0.0996  0.6546  1.0000  -1.0932   0.0000   0.0000   0.0000   0.3760
   3.100   0.7786   0.01635   0.00951  -0.0995  0.6502  1.0000  -1.1305   0.0000   0.0000   0.0000   0.3739
   3.200   0.7899   0.01633   0.00946  -0.0994  0.6457  1.0000  -1.1685   0.0000   0.0000   0.0000   0.3719
   3.300   0.8015   0.01632   0.00941  -0.0994  0.6411  1.0000  -1.2074   0.0000   0.0000   0.0000   0.3699
   3.400   0.8132   0.01633   0.00938  -0.0994  0.6365  1.0000  -1.2466   0.0000   0.0000   0.0000   0.3680
   3.500   0.8248   0.01638   0.00939  -0.0994  0.6318  1.0000  -1.2858   0.0000   0.0000   0.0000   0.3662
   3.600   0.8364   0.01646   0.00943  -0.0995  0.6263  1.0000  -1.3253   0.0000   0.0000   0.0000   0.3645
   3.700   0.8479   0.01662   0.00954  -0.0996  0.6197  1.0000  -1.3648   0.0000   0.0000   0.0000   0.3629
   3.800   0.8587   0.01699   0.00989  -0.0997  0.6108  1.0000  -1.4024   0.0000   0.0000   0.0000   0.3615
   3.900   0.8658   0.01789   0.01082  -0.0995  0.5997  1.0000  -1.4319   0.0000   0.0000   0.0000   0.3602
   4.000   0.8759   0.01782   0.01075  -0.0992  0.5981  1.0000  -1.4704   0.0000   0.0000   0.0000   0.3585
   4.100   0.8857   0.01775   0.01067  -0.0989  0.5960  1.0000  -1.5089   0.0000   0.0000   0.0000   0.3567
   4.200   0.8955   0.01766   0.01059  -0.0986  0.5933  1.0000  -1.5475   0.0000   0.0000   0.0000   0.3550
   4.300   0.9052   0.01759   0.01050  -0.0982  0.5899  1.0000  -1.5865   0.0000   0.0000   0.0000   0.3533
   4.400   0.9150   0.01751   0.01042  -0.0978  0.5858  1.0000  -1.6258   0.0000   0.0000   0.0000   0.3516
   4.500   0.9249   0.01744   0.01035  -0.0975  0.5810  1.0000  -1.6656   0.0000   0.0000   0.0000   0.3499
   4.600   0.9350   0.01738   0.01027  -0.0971  0.5757  1.0000  -1.7060   0.0000   0.0000   0.0000   0.3483
   4.700   0.9452   0.01732   0.01019  -0.0968  0.5700  1.0000  -1.7472   0.0000   0.0000   0.0000   0.3467
   4.800   0.9556   0.01726   0.01012  -0.0965  0.5643  1.0000  -1.7889   0.0000   0.0000   0.0000   0.3452
   4.900   0.9661   0.01720   0.01004  -0.0963  0.5584  1.0000  -1.8310   0.0000   0.0000   0.0000   0.3437
   5.000   0.9768   0.01715   0.00994  -0.0960  0.5523  1.0000  -1.8740   0.0000   0.0000   0.0000   0.3422
   5.100   0.9878   0.01710   0.00984  -0.0958  0.5458  1.0000  -1.9178   0.0000   0.0000   0.0000   0.3408
   5.200   0.9989   0.01707   0.00972  -0.0956  0.5388  1.0000  -1.9621   0.0000   0.0000   0.0000   0.3394
   5.300   1.0099   0.01707   0.00964  -0.0954  0.5309  1.0000  -2.0065   0.0000   0.0000   0.0000   0.3380
   5.400   1.0207   0.01718   0.00965  -0.0953  0.5215  1.0000  -2.0503   0.0000   0.0000   0.0000   0.3368
   5.500   1.0317   0.01747   0.00989  -0.0953  0.5106  1.0000  -2.0936   0.0000   0.0000   0.0000   0.3357
   5.600   1.0417   0.01801   0.01043  -0.0954  0.4998  1.0000  -2.1338   0.0000   0.0000   0.0000   0.3348
   5.700   1.0511   0.01796   0.01040  -0.0951  0.4983  1.0000  -2.1759   0.0000   0.0000   0.0000   0.3335
   5.800   1.0603   0.01791   0.01037  -0.0947  0.4964  1.0000  -2.2177   0.0000   0.0000   0.0000   0.3322
   5.900   1.0694   0.01789   0.01037  -0.0943  0.4940  1.0000  -2.2593   0.0000   0.0000   0.0000   0.3309
   6.000   1.0783   0.01789   0.01040  -0.0938  0.4911  1.0000  -2.3008   0.0000   0.0000   0.0000   0.3296
   6.100   1.0873   0.01793   0.01046  -0.0934  0.4877  1.0000  -2.3423   0.0000   0.0000   0.0000   0.3284
   6.200   1.0963   0.01799   0.01055  -0.0931  0.4841  1.0000  -2.3839   0.0000   0.0000   0.0000   0.3272
   6.300   1.1054   0.01806   0.01065  -0.0927  0.4802  1.0000  -2.4257   0.0000   0.0000   0.0000   0.3261
   6.400   1.1145   0.01810   0.01072  -0.0923  0.4753  1.0000  -2.4679   0.0000   0.0000   0.0000   0.3249
   6.500   1.1235   0.01812   0.01075  -0.0919  0.4694  1.0000  -2.5104   0.0000   0.0000   0.0000   0.3237
   6.600   1.1327   0.01813   0.01075  -0.0915  0.4622  1.0000  -2.5536   0.0000   0.0000   0.0000   0.3226
   6.700   1.1420   0.01814   0.01072  -0.0910  0.4540  1.0000  -2.5973   0.0000   0.0000   0.0000   0.3214
   6.800   1.1513   0.01816   0.01067  -0.0906  0.4453  1.0000  -2.6414   0.0000   0.0000   0.0000   0.3202
   6.900   1.1604   0.01821   0.01065  -0.0901  0.4364  1.0000  -2.6849   0.0000   0.0000   0.0000   0.3191
   7.000   1.1689   0.01833   0.01066  -0.0896  0.4269  1.0000  -2.7268   0.0000   0.0000   0.0000   0.3179
   7.100   1.1771   0.01850   0.01075  -0.0890  0.4163  1.0000  -2.7675   0.0000   0.0000   0.0000   0.3167
   7.200   1.1863   0.01876   0.01096  -0.0887  0.4046  1.0000  -2.8096   0.0000   0.0000   0.0000   0.3157
   7.300   1.1951   0.01890   0.01111  -0.0884  0.3985  1.0000  -2.8513   0.0000   0.0000   0.0000   0.3147
   7.400   1.2031   0.01895   0.01122  -0.0878  0.3954  1.0000  -2.8913   0.0000   0.0000   0.0000   0.3137
   7.500   1.2110   0.01901   0.01134  -0.0873  0.3906  1.0000  -2.9309   0.0000   0.0000   0.0000   0.3126
   7.600   1.2187   0.01909   0.01146  -0.0867  0.3836  1.0000  -2.9696   0.0000   0.0000   0.0000   0.3115
   7.700   1.2260   0.01920   0.01157  -0.0860  0.3728  1.0000  -3.0069   0.0000   0.0000   0.0000   0.3103
   7.800   1.2326   0.01934   0.01164  -0.0851  0.3568  1.0000  -3.0418   0.0000   0.0000   0.0000   0.3091
   7.900   1.2369   0.01956   0.01167  -0.0839  0.3344  1.0000  -3.0714   0.0000   0.0000   0.0000   0.3077
   8.000   1.2374   0.01995   0.01178  -0.0820  0.3061  1.0000  -3.0912   0.0000   0.0000   0.0000   0.3060
   8.100   1.2385   0.02039   0.01203  -0.0804  0.2737  1.0000  -3.1081   0.0000   0.0000   0.0000   0.3045
   8.200   1.2319   0.02117   0.01242  -0.0777  0.2406  1.0000  -3.1095   0.0000   0.0000   0.0000   0.3024
   8.300   1.2226   0.02212   0.01299  -0.0746  0.2024  1.0000  -3.1040   0.0000   0.0000   0.0000   0.3003
   8.400   1.2125   0.02324   0.01376  -0.0716  0.1587  1.0000  -3.0930   0.0000   0.0000   0.0000   0.2981
   8.500   1.2027   0.02453   0.01471  -0.0687  0.1237  1.0000  -3.0718   0.0000   0.0000   0.0000   0.2961
   8.600   1.1921   0.02587   0.01586  -0.0656  0.0977  1.0000  -3.0278   0.0000   0.0000   0.0000   0.2938
   8.700   1.1925   0.02649   0.01652  -0.0641  0.0926  1.0000  -3.0328   0.0000   0.0000   0.0000   0.2924
   8.800   1.1927   0.02713   0.01716  -0.0627  0.0889  1.0000  -3.0414   0.0000   0.0000   0.0000   0.2910
   8.900   1.1927   0.02780   0.01782  -0.0613  0.0861  1.0000  -3.0515   0.0000   0.0000   0.0000   0.2897
   9.000   1.1926   0.02851   0.01851  -0.0600  0.0837  1.0000  -3.0619   0.0000   0.0000   0.0000   0.2884
   9.100   1.1924   0.02924   0.01923  -0.0586  0.0816  1.0000  -3.0709   0.0000   0.0000   0.0000   0.2871
   9.200   1.1915   0.03001   0.02001  -0.0572  0.0798  1.0000  -3.0773   0.0000   0.0000   0.0000   0.2858
   9.300   1.1905   0.03084   0.02086  -0.0559  0.0782  1.0000  -3.0818   0.0000   0.0000   0.0000   0.2846
   9.400   1.1900   0.03167   0.02173  -0.0545  0.0768  1.0000  -3.0859   0.0000   0.0000   0.0000   0.2833
   9.500   1.1902   0.03253   0.02262  -0.0533  0.0756  1.0000  -3.0899   0.0000   0.0000   0.0000   0.2821
   9.600   1.1929   0.03323   0.02333  -0.0523  0.0749  1.0000  -3.1025   0.0000   0.0000   0.0000   0.2810
   9.700   1.1971   0.03379   0.02394  -0.0515  0.0746  1.0000  -3.1222   0.0000   0.0000   0.0000   0.2801
   9.800   1.2014   0.03436   0.02455  -0.0508  0.0743  1.0000  -3.1422   0.0000   0.0000   0.0000   0.2791
   9.900   1.2059   0.03494   0.02517  -0.0501  0.0740  1.0000  -3.1623   0.0000   0.0000   0.0000   0.2782
  10.200   1.1876   0.03890   0.02962  -0.0460  0.0512  1.0000  -3.3027   0.0000   0.0000   0.0000   0.2748
  10.300   1.1898   0.03967   0.03040  -0.0452  0.0489  1.0000  -3.3612   0.0000   0.0000   0.0000   0.2740
  10.400   1.1931   0.04022   0.03099  -0.0447  0.0469  1.0000  -3.4254   0.0000   0.0000   0.0000   0.2733
  10.500   1.1953   0.04091   0.03171  -0.0442  0.0451  1.0000  -3.4755   0.0000   0.0000   0.0000   0.2725
  10.600   1.1974   0.04164   0.03247  -0.0436  0.0434  1.0000  -3.5213   0.0000   0.0000   0.0000   0.2718
  10.700   1.1996   0.04239   0.03323  -0.0431  0.0419  1.0000  -3.5660   0.0000   0.0000   0.0000   0.2711
  10.800   1.2019   0.04313   0.03398  -0.0425  0.0404  1.0000  -3.6107   0.0000   0.0000   0.0000   0.2704
  10.900   1.2043   0.04386   0.03473  -0.0420  0.0391  1.0000  -3.6556   0.0000   0.0000   0.0000   0.2698
  11.000   1.2068   0.04461   0.03549  -0.0415  0.0378  1.0000  -3.7005   0.0000   0.0000   0.0000   0.2691
  11.100   1.2091   0.04537   0.03626  -0.0410  0.0367  1.0000  -3.7447   0.0000   0.0000   0.0000   0.2684
  11.200   1.2113   0.04615   0.03705  -0.0406  0.0357  1.0000  -3.7883   0.0000   0.0000   0.0000   0.2678
  11.300   1.2134   0.04695   0.03787  -0.0401  0.0348  1.0000  -3.8308   0.0000   0.0000   0.0000   0.2672
  11.400   1.2152   0.04778   0.03871  -0.0396  0.0339  1.0000  -3.8719   0.0000   0.0000   0.0000   0.2666
  11.500   1.2170   0.04864   0.03959  -0.0391  0.0331  1.0000  -3.9114   0.0000   0.0000   0.0000   0.2659
  11.600   1.2186   0.04953   0.04049  -0.0386  0.0324  1.0000  -3.9490   0.0000   0.0000   0.0000   0.2653
  11.700   1.2201   0.05044   0.04142  -0.0381  0.0317  1.0000  -3.9848   0.0000   0.0000   0.0000   0.2647
  11.800   1.2217   0.05137   0.04237  -0.0376  0.0310  1.0000  -4.0190   0.0000   0.0000   0.0000   0.2640
  11.900   1.2234   0.05231   0.04334  -0.0370  0.0304  1.0000  -4.0518   0.0000   0.0000   0.0000   0.2633
  12.000   1.2250   0.05329   0.04435  -0.0365  0.0298  1.0000  -4.0824   0.0000   0.0000   0.0000   0.2626
  12.100   1.2265   0.05432   0.04542  -0.0359  0.0293  1.0000  -4.1101   0.0000   0.0000   0.0000   0.2619
  12.200   1.2278   0.05540   0.04655  -0.0353  0.0287  1.0000  -4.1356   0.0000   0.0000   0.0000   0.2613
  12.300   1.2291   0.05653   0.04773  -0.0347  0.0283  1.0000  -4.1591   0.0000   0.0000   0.0000   0.2606
  12.400   1.2303   0.05769   0.04896  -0.0341  0.0279  1.0000  -4.1804   0.0000   0.0000   0.0000   0.2599
  12.500   1.2311   0.05891   0.05025  -0.0335  0.0275  1.0000  -4.1989   0.0000   0.0000   0.0000   0.2592
  12.600   1.2310   0.06024   0.05166  -0.0329  0.0272  1.0000  -4.2131   0.0000   0.0000   0.0000   0.2585
  12.700   1.2302   0.06165   0.05316  -0.0324  0.0269  1.0000  -4.2236   0.0000   0.0000   0.0000   0.2579
  12.800   1.2289   0.06314   0.05474  -0.0319  0.0267  1.0000  -4.2316   0.0000   0.0000   0.0000   0.2574
  12.900   1.2272   0.06471   0.05639  -0.0314  0.0265  1.0000  -4.2372   0.0000   0.0000   0.0000   0.2569
  13.000   1.2250   0.06633   0.05812  -0.0311  0.0263  1.0000  -4.2404   0.0000   0.0000   0.0000   0.2565
  13.100   1.2220   0.06803   0.05991  -0.0308  0.0262  1.0000  -4.2410   0.0000   0.0000   0.0000   0.2561
  13.200   1.2187   0.06977   0.06176  -0.0305  0.0260  1.0000  -4.2398   0.0000   0.0000   0.0000   0.2558
  13.300   1.2150   0.07156   0.06365  -0.0303  0.0259  1.0000  -4.2370   0.0000   0.0000   0.0000   0.2555
  13.400   1.2109   0.07340   0.06559  -0.0302  0.0259  1.0000  -4.2328   0.0000   0.0000   0.0000   0.2553
  13.500   1.2065   0.07527   0.06756  -0.0302  0.0258  1.0000  -4.2271   0.0000   0.0000   0.0000   0.2552
  13.600   1.2017   0.07719   0.06958  -0.0302  0.0257  1.0000  -4.2201   0.0000   0.0000   0.0000   0.2551
  13.700   1.1966   0.07915   0.07163  -0.0303  0.0257  1.0000  -4.2119   0.0000   0.0000   0.0000   0.2551
  13.800   1.1907   0.08119   0.07376  -0.0306  0.0257  1.0000  -4.2013   0.0000   0.0000   0.0000   0.2553
  13.900   1.1843   0.08331   0.07597  -0.0311  0.0257  1.0000  -4.1888   0.0000   0.0000   0.0000   0.2556
  14.000   1.1782   0.08544   0.07818  -0.0316  0.0256  1.0000  -4.1767   0.0000   0.0000   0.0000   0.2560
  14.100   1.1725   0.08756   0.08039  -0.0320  0.0256  1.0000  -4.1647   0.0000   0.0000   0.0000   0.2563
  14.200   1.1668   0.08970   0.08262  -0.0326  0.0256  1.0000  -4.1523   0.0000   0.0000   0.0000   0.2567
  14.300   1.1612   0.09189   0.08489  -0.0332  0.0256  1.0000  -4.1393   0.0000   0.0000   0.0000   0.2572
  14.400   1.1555   0.09410   0.08719  -0.0339  0.0256  1.0000  -4.1255   0.0000   0.0000   0.0000   0.2577
  14.500   1.1497   0.09636   0.08952  -0.0347  0.0256  1.0000  -4.1106   0.0000   0.0000   0.0000   0.2583
  14.600   1.1434   0.09868   0.09193  -0.0356  0.0257  1.0000  -4.0940   0.0000   0.0000   0.0000   0.2591
  14.700   1.1363   0.10117   0.09448  -0.0368  0.0257  1.0000  -4.0741   0.0000   0.0000   0.0000   0.2602
  14.800   1.1299   0.10359   0.09698  -0.0379  0.0257  1.0000  -4.0553   0.0000   0.0000   0.0000   0.2611
  14.900   1.1241   0.10601   0.09947  -0.0390  0.0257  1.0000  -4.0371   0.0000   0.0000   0.0000   0.2621
  15.000   1.1186   0.10842   0.10196  -0.0401  0.0258  1.0000  -4.0188   0.0000   0.0000   0.0000   0.2631
  15.100   1.1131   0.11085   0.10445  -0.0413  0.0258  1.0000  -3.9999   0.0000   0.0000   0.0000   0.2641
  15.200   1.1076   0.11330   0.10697  -0.0425  0.0258  1.0000  -3.9799   0.0000   0.0000   0.0000   0.2652
  15.300   1.1020   0.11580   0.10953  -0.0438  0.0259  1.0000  -3.9585   0.0000   0.0000   0.0000   0.2664
  15.400   1.0962   0.11832   0.11212  -0.0452  0.0259  1.0000  -3.9355   0.0000   0.0000   0.0000   0.2677
  15.500   1.0896   0.12112   0.11499  -0.0470  0.0260  1.0000  -3.9069   0.0000   0.0000   0.0000   0.2694
  15.600   1.0835   0.12389   0.11782  -0.0487  0.0261  1.0000  -3.8787   0.0000   0.0000   0.0000   0.2711
  15.700   1.0782   0.12655   0.12053  -0.0503  0.0261  1.0000  -3.8521   0.0000   0.0000   0.0000   0.2727
  15.800   1.0732   0.12917   0.12322  -0.0519  0.0262  1.0000  -3.8254   0.0000   0.0000   0.0000   0.2742
  15.900   1.0684   0.13183   0.12593  -0.0535  0.0263  1.0000  -3.7976   0.0000   0.0000   0.0000   0.2757
  16.000   1.0635   0.13457   0.12871  -0.0551  0.0263  1.0000  -3.7678   0.0000   0.0000   0.0000   0.2773
  16.100   1.0586   0.13744   0.13164  -0.0568  0.0264  1.0000  -3.7351   0.0000   0.0000   0.0000   0.2791
  16.200   1.0535   0.14052   0.13477  -0.0587  0.0265  1.0000  -3.6981   0.0000   0.0000   0.0000   0.2810
  16.300   1.0475   0.14400   0.13831  -0.0609  0.0267  1.0000  -3.6516   0.0000   0.0000   0.0000   0.2834
  16.400   1.0418   0.14751   0.14186  -0.0630  0.0269  1.0000  -3.6030   0.0000   0.0000   0.0000   0.2857
  16.500   1.0361   0.15108   0.14548  -0.0652  0.0270  1.0000  -3.5505   0.0000   0.0000   0.0000   0.2880
  16.600   1.0296   0.15511   0.14956  -0.0676  0.0273  1.0000  -3.4838   0.0000   0.0000   0.0000   0.2907
  16.700   1.0232   0.15939   0.15388  -0.0700  0.0276  1.0000  -3.4074   0.0000   0.0000   0.0000   0.2935
  16.800   1.0146   0.16469   0.15923  -0.0729  0.0281  1.0000  -3.2927   0.0000   0.0000   0.0000   0.2970
  16.900   0.9656   0.18910   0.18377  -0.0837  0.0336  1.0000  -2.4290   0.0000   0.0000   0.0000   0.3134
  17.000   0.9601   0.19394   0.18861  -0.0857  0.0346  1.0000  -2.3138   0.0000   0.0000   0.0000   0.3161
  17.100   0.9568   0.19786   0.19253  -0.0874  0.0354  1.0000  -2.2347   0.0000   0.0000   0.0000   0.3181
  17.200   0.9545   0.20140   0.19606  -0.0888  0.0361  1.0000  -2.1707   0.0000   0.0000   0.0000   0.3198
  17.300   0.9529   0.20470   0.19936  -0.0900  0.0368  1.0000  -2.1158   0.0000   0.0000   0.0000   0.3212
  17.400   0.9517   0.20785   0.20251  -0.0912  0.0376  1.0000  -2.0676   0.0000   0.0000   0.0000   0.3225
  17.500   0.9507   0.21092   0.20557  -0.0924  0.0384  1.0000  -2.0228   0.0000   0.0000   0.0000   0.3238
  17.600   0.9500   0.21389   0.20853  -0.0934  0.0394  1.0000  -1.9824   0.0000   0.0000   0.0000   0.3249
  17.700   0.9496   0.21674   0.21139  -0.0944  0.0404  1.0000  -1.9467   0.0000   0.0000   0.0000   0.3259
  17.800   0.9495   0.21949   0.21414  -0.0953  0.0415  1.0000  -1.9158   0.0000   0.0000   0.0000   0.3267
  17.900   0.9498   0.22213   0.21677  -0.0960  0.0427  1.0000  -1.8904   0.0000   0.0000   0.0000   0.3273
  18.000   0.9504   0.22464   0.21928  -0.0966  0.0442  1.0000  -1.8722   0.0000   0.0000   0.0000   0.3277
  18.100   0.9516   0.22700   0.22163  -0.0967  0.0460  1.0000  -1.8668   0.0000   0.0000   0.0000   0.3276
  18.200   0.9544   0.23097   0.22567  -0.0978  0.0554  1.0000  -1.7766   0.0000   0.0000   0.0000   0.3285
  18.300   0.9522   0.23429   0.22899  -0.0994  0.0561  1.0000  -1.7220   0.0000   0.0000   0.0000   0.3304
  18.400   0.9515   0.23705   0.23174  -0.1006  0.0566  1.0000  -1.6907   0.0000   0.0000   0.0000   0.3316
  18.500   0.9516   0.23953   0.23422  -0.1015  0.0567  1.0000  -1.6711   0.0000   0.0000   0.0000   0.3325
  18.600   0.9522   0.24185   0.23654  -0.1024  0.0568  1.0000  -1.6585   0.0000   0.0000   0.0000   0.3331
  18.700   0.9531   0.24405   0.23874  -0.1031  0.0567  1.0000  -1.6507   0.0000   0.0000   0.0000   0.3336
  18.800   0.9542   0.24617   0.24086  -0.1037  0.0565  1.0000  -1.6465   0.0000   0.0000   0.0000   0.3340
  18.900   0.9555   0.24823   0.24291  -0.1043  0.0563  1.0000  -1.6451   0.0000   0.0000   0.0000   0.3343
  19.000   0.9570   0.25024   0.24492  -0.1048  0.0560  1.0000  -1.6461   0.0000   0.0000   0.0000   0.3345
  19.100   0.9586   0.25221   0.24689  -0.1053  0.0557  1.0000  -1.6492   0.0000   0.0000   0.0000   0.3347
  19.200   0.9604   0.25416   0.24882  -0.1057  0.0554  1.0000  -1.6543   0.0000   0.0000   0.0000   0.3347
  19.300   0.9622   0.25607   0.25074  -0.1061  0.0551  1.0000  -1.6611   0.0000   0.0000   0.0000   0.3347
  19.400   0.9642   0.25798   0.25264  -0.1065  0.0547  1.0000  -1.6698   0.0000   0.0000   0.0000   0.3347
  19.500   0.9664   0.25987   0.25453  -0.1067  0.0544  1.0000  -1.6802   0.0000   0.0000   0.0000   0.3345
  19.600   0.9687   0.26177   0.25643  -0.1070  0.0541  1.0000  -1.6924   0.0000   0.0000   0.0000   0.3343
  19.700   0.9711   0.26369   0.25835  -0.1071  0.0537  1.0000  -1.7064   0.0000   0.0000   0.0000   0.3340
  19.800   0.9737   0.26565   0.26030  -0.1072  0.0534  1.0000  -1.7218   0.0000   0.0000   0.0000   0.3337
  19.900   0.9764   0.26765   0.26230  -0.1073  0.0531  1.0000  -1.7383   0.0000   0.0000   0.0000   0.3333
  20.000   0.9789   0.26972   0.26436  -0.1074  0.0527  1.0000  -1.7546   0.0000   0.0000   0.0000   0.3328
  20.100   0.9813   0.27192   0.26657  -0.1074  0.0524  1.0000  -1.7706   0.0000   0.0000   0.0000   0.3324
  20.200   0.9836   0.27434   0.26899  -0.1073  0.0520  1.0000  -1.7865   0.0000   0.0000   0.0000   0.3319
  20.300   0.9837   0.27765   0.27229  -0.1074  0.0514  1.0000  -1.7848   0.0000   0.0000   0.0000   0.3319
  20.400   0.9730   0.28765   0.28224  -0.1082  0.0501  1.0000  -1.6721   0.0000   0.0000   0.0000   0.3340
  20.500   0.9737   0.29000   0.28460  -0.1088  0.0501  1.0000  -1.6648   0.0000   0.0000   0.0000   0.3344
  20.600   0.9744   0.29234   0.28694  -0.1094  0.0501  1.0000  -1.6574   0.0000   0.0000   0.0000   0.3348
  20.700   0.9751   0.29467   0.28927  -0.1100  0.0501  1.0000  -1.6501   0.0000   0.0000   0.0000   0.3352
  20.800   0.9757   0.29699   0.29159  -0.1106  0.0501  1.0000  -1.6429   0.0000   0.0000   0.0000   0.3356
  20.900   0.9763   0.29929   0.29389  -0.1112  0.0500  1.0000  -1.6356   0.0000   0.0000   0.0000   0.3360
  21.000   0.9768   0.30158   0.29618  -0.1118  0.0500  1.0000  -1.6283   0.0000   0.0000   0.0000   0.3364
  21.100   0.9773   0.30385   0.29845  -0.1124  0.0500  1.0000  -1.6210   0.0000   0.0000   0.0000   0.3367
  21.200   0.9777   0.30611   0.30071  -0.1129  0.0500  1.0000  -1.6137   0.0000   0.0000   0.0000   0.3371
  21.300   0.9781   0.30834   0.30295  -0.1135  0.0500  1.0000  -1.6064   0.0000   0.0000   0.0000   0.3375
  21.400   0.9784   0.31056   0.30516  -0.1140  0.0499  1.0000  -1.5990   0.0000   0.0000   0.0000   0.3378
  21.500   0.9786   0.31274   0.30735  -0.1146  0.0499  1.0000  -1.5915   0.0000   0.0000   0.0000   0.3382
  21.600   0.9787   0.31490   0.30951  -0.1151  0.0499  1.0000  -1.5839   0.0000   0.0000   0.0000   0.3386
  21.700   0.9788   0.31703   0.31164  -0.1156  0.0499  1.0000  -1.5763   0.0000   0.0000   0.0000   0.3390
  21.800   0.9788   0.31913   0.31374  -0.1161  0.0498  1.0000  -1.5685   0.0000   0.0000   0.0000   0.3393
  21.900   0.9787   0.32119   0.31582  -0.1166  0.0498  1.0000  -1.5607   0.0000   0.0000   0.0000   0.3397
  22.000   0.9785   0.32323   0.31785  -0.1171  0.0497  1.0000  -1.5527   0.0000   0.0000   0.0000   0.3401
  22.100   0.9781   0.32522   0.31985  -0.1175  0.0497  1.0000  -1.5446   0.0000   0.0000   0.0000   0.3404
  22.200   0.9777   0.32716   0.32179  -0.1180  0.0497  1.0000  -1.5362   0.0000   0.0000   0.0000   0.3408
  22.300   0.9771   0.32905   0.32369  -0.1184  0.0496  1.0000  -1.5276   0.0000   0.0000   0.0000   0.3412
  22.400   0.9763   0.33089   0.32553  -0.1189  0.0495  1.0000  -1.5188   0.0000   0.0000   0.0000   0.3416
  22.500   0.9755   0.33267   0.32732  -0.1193  0.0495  1.0000  -1.5097   0.0000   0.0000   0.0000   0.3419
  22.600   0.9743   0.33437   0.32902  -0.1196  0.0494  1.0000  -1.5000   0.0000   0.0000   0.0000   0.3423
  22.700   0.9727   0.33596   0.33062  -0.1200  0.0493  1.0000  -1.4886   0.0000   0.0000   0.0000   0.3428
  22.800   0.9704   0.33741   0.33207  -0.1204  0.0492  1.0000  -1.4739   0.0000   0.0000   0.0000   0.3434
  22.900   0.9673   0.33867   0.33335  -0.1208  0.0491  1.0000  -1.4565   0.0000   0.0000   0.0000   0.3440
  23.000   0.9636   0.33980   0.33448  -0.1211  0.0490  1.0000  -1.4375   0.0000   0.0000   0.0000   0.3447
  23.100   0.9594   0.34078   0.33548  -0.1213  0.0488  1.0000  -1.4174   0.0000   0.0000   0.0000   0.3454
  23.200   0.9547   0.34160   0.33630  -0.1214  0.0486  1.0000  -1.3959   0.0000   0.0000   0.0000   0.3461
  23.300   0.9491   0.34220   0.33692  -0.1214  0.0484  1.0000  -1.3726   0.0000   0.0000   0.0000   0.3468
  23.400   0.8993   0.33251   0.32735  -0.1135  0.0486  1.0000  -1.2755   0.0000   0.0000   0.0000   0.3460
  23.500   0.8867   0.33048   0.32535  -0.1121  0.0484  1.0000  -1.2410   0.0000   0.0000   0.0000   0.3464
  23.600   0.8778   0.32929   0.32418  -0.1114  0.0482  1.0000  -1.2127   0.0000   0.0000   0.0000   0.3470
  23.700   0.8708   0.32853   0.32344  -0.1111  0.0480  1.0000  -1.1876   0.0000   0.0000   0.0000   0.3476
  23.800   0.8651   0.32809   0.32302  -0.1109  0.0476  1.0000  -1.1647   0.0000   0.0000   0.0000   0.3483
  23.900   0.8602   0.32791   0.32285  -0.1108  0.0473  1.0000  -1.1440   0.0000   0.0000   0.0000   0.3489
  24.000   0.8561   0.32791   0.32287  -0.1108  0.0468  1.0000  -1.1253   0.0000   0.0000   0.0000   0.3494
  24.100   0.8523   0.32804   0.32301  -0.1107  0.0464  1.0000  -1.1087   0.0000   0.0000   0.0000   0.3499
  24.200   0.8489   0.32824   0.32323  -0.1107  0.0460  1.0000  -1.0937   0.0000   0.0000   0.0000   0.3503
  24.300   0.8457   0.32848   0.32348  -0.1106  0.0456  1.0000  -1.0800   0.0000   0.0000   0.0000   0.3507
  24.400   0.8430   0.32885   0.32386  -0.1108  0.0444  1.0000  -1.0656   0.0000   0.0000   0.0000   0.3513
  24.500   0.8404   0.32920   0.32423  -0.1108  0.0432  1.0000  -1.0545   0.0000   0.0000   0.0000   0.3516
  24.600   0.8379   0.32954   0.32457  -0.1108  0.0421  1.0000  -1.0456   0.0000   0.0000   0.0000   0.3520
  24.700   0.8355   0.32986   0.32491  -0.1108  0.0410  1.0000  -1.0384   0.0000   0.0000   0.0000   0.3522
  24.800   0.8332   0.33017   0.32523  -0.1107  0.0399  1.0000  -1.0325   0.0000   0.0000   0.0000   0.3524
  24.900   0.8310   0.33049   0.32556  -0.1107  0.0390  1.0000  -1.0277   0.0000   0.0000   0.0000   0.3526
  25.000   0.8289   0.33080   0.32588  -0.1106  0.0380  1.0000  -1.0239   0.0000   0.0000   0.0000   0.3528
  25.100   0.8270   0.33110   0.32619  -0.1105  0.0371  1.0000  -1.0212   0.0000   0.0000   0.0000   0.3529
  25.200   0.8252   0.33140   0.32650  -0.1105  0.0362  1.0000  -1.0194   0.0000   0.0000   0.0000   0.3531
  25.300   0.8242   0.33162   0.32686  -0.1105  0.0353  1.0000  -1.0213   0.0000   0.0000   0.0000   0.3531
  25.400   0.8226   0.33192   0.32718  -0.1105  0.0346  1.0000  -1.0202   0.0000   0.0000   0.0000   0.3532
  25.500   0.8211   0.33222   0.32749  -0.1104  0.0340  1.0000  -1.0204   0.0000   0.0000   0.0000   0.3533
  25.600   0.8197   0.33251   0.32779  -0.1104  0.0333  1.0000  -1.0218   0.0000   0.0000   0.0000   0.3533
  25.700   0.8184   0.33279   0.32808  -0.1103  0.0327  1.0000  -1.0243   0.0000   0.0000   0.0000   0.3534
  25.800   0.8172   0.33305   0.32836  -0.1103  0.0320  1.0000  -1.0281   0.0000   0.0000   0.0000   0.3534
  25.900   0.8161   0.33331   0.32862  -0.1102  0.0314  1.0000  -1.0332   0.0000   0.0000   0.0000   0.3533
  26.000   0.8150   0.33354   0.32886  -0.1102  0.0309  1.0000  -1.0398   0.0000   0.0000   0.0000   0.3533
  26.100   0.8141   0.33377   0.32910  -0.1101  0.0303  1.0000  -1.0480   0.0000   0.0000   0.0000   0.3532
  26.200   0.8133   0.33398   0.32932  -0.1099  0.0298  1.0000  -1.0579   0.0000   0.0000   0.0000   0.3530
  26.300   0.8127   0.33418   0.32953  -0.1098  0.0293  1.0000  -1.0697   0.0000   0.0000   0.0000   0.3528
  26.400   0.8122   0.33439   0.32974  -0.1096  0.0288  1.0000  -1.0839   0.0000   0.0000   0.0000   0.3525
  26.500   0.8118   0.33462   0.32998  -0.1094  0.0283  1.0000  -1.1006   0.0000   0.0000   0.0000   0.3520
  26.600   0.8117   0.33493   0.33029  -0.1091  0.0279  1.0000  -1.1201   0.0000   0.0000   0.0000   0.3515
  26.700   0.8120   0.33541   0.33078  -0.1087  0.0274  1.0000  -1.1429   0.0000   0.0000   0.0000   0.3508
  26.800   0.8128   0.33629   0.33167  -0.1082  0.0270  1.0000  -1.1698   0.0000   0.0000   0.0000   0.3499
  26.900   0.8151   0.33869   0.33407  -0.1075  0.0263  1.0000  -1.2024   0.0000   0.0000   0.0000   0.3485
  27.000   0.8045   0.34597   0.34133  -0.1069  0.0252  1.0000  -1.0743   0.0000   0.0000   0.0000   0.3500
  27.100   0.8028   0.34612   0.34148  -0.1070  0.0251  1.0000  -1.0654   0.0000   0.0000   0.0000   0.3504
  27.200   0.8012   0.34627   0.34164  -0.1072  0.0251  1.0000  -1.0567   0.0000   0.0000   0.0000   0.3508
  27.300   0.7997   0.34642   0.34180  -0.1074  0.0251  1.0000  -1.0484   0.0000   0.0000   0.0000   0.3512
  27.400   0.7982   0.34656   0.34196  -0.1076  0.0250  1.0000  -1.0404   0.0000   0.0000   0.0000   0.3515
  27.500   0.7969   0.34671   0.34211  -0.1078  0.0250  1.0000  -1.0326   0.0000   0.0000   0.0000   0.3519
  27.600   0.7955   0.34683   0.34225  -0.1081  0.0250  1.0000  -1.0250   0.0000   0.0000   0.0000   0.3523
  27.700   0.7941   0.34692   0.34234  -0.1083  0.0249  1.0000  -1.0175   0.0000   0.0000   0.0000   0.3527
  27.800   0.7928   0.34699   0.34243  -0.1085  0.0249  1.0000  -1.0102   0.0000   0.0000   0.0000   0.3531
  27.900   0.7916   0.34706   0.34250  -0.1088  0.0248  1.0000  -1.0033   0.0000   0.0000   0.0000   0.3535
  28.000   0.7905   0.34709   0.34255  -0.1091  0.0247  1.0000  -0.9965   0.0000   0.0000   0.0000   0.3539
  28.100   0.7893   0.34707   0.34253  -0.1094  0.0246  1.0000  -0.9894   0.0000   0.0000   0.0000   0.3544
  28.200   0.7882   0.34702   0.34249  -0.1097  0.0245  1.0000  -0.9827   0.0000   0.0000   0.0000   0.3549
  28.300   0.7869   0.34684   0.34232  -0.1101  0.0244  1.0000  -0.9736   0.0000   0.0000   0.0000   0.3555
  28.400   0.7856   0.34662   0.34211  -0.1107  0.0242  1.0000  -0.9629   0.0000   0.0000   0.0000   0.3562
  28.500   0.7847   0.34647   0.34197  -0.1113  0.0238  1.0000  -0.9515   0.0000   0.0000   0.0000   0.3570
  28.600   0.7846   0.34660   0.34211  -0.1122  0.0233  1.0000  -0.9382   0.0000   0.0000   0.0000   0.3579
  28.700   0.7853   0.34727   0.34279  -0.1131  0.0225  1.0000  -0.9230   0.0000   0.0000   0.0000   0.3588
  28.800   0.7859   0.34819   0.34373  -0.1139  0.0215  1.0000  -0.9111   0.0000   0.0000   0.0000   0.3594
  28.900   0.7861   0.34902   0.34456  -0.1143  0.0207  1.0000  -0.9042   0.0000   0.0000   0.0000   0.3598
  29.000   0.7860   0.34973   0.34529  -0.1147  0.0199  1.0000  -0.9007   0.0000   0.0000   0.0000   0.3601
  29.100   0.7858   0.35037   0.34594  -0.1150  0.0192  1.0000  -0.8994   0.0000   0.0000   0.0000   0.3604
  29.200   0.7855   0.35097   0.34654  -0.1153  0.0185  1.0000  -0.8998   0.0000   0.0000   0.0000   0.3606
  29.300   0.7853   0.35152   0.34710  -0.1155  0.0179  1.0000  -0.9017   0.0000   0.0000   0.0000   0.3608
  29.400   0.7850   0.35204   0.34763  -0.1157  0.0174  1.0000  -0.9050   0.0000   0.0000   0.0000   0.3609
  29.500   0.7848   0.35253   0.34813  -0.1160  0.0169  1.0000  -0.9097   0.0000   0.0000   0.0000   0.3611
  29.600   0.7846   0.35299   0.34860  -0.1162  0.0164  1.0000  -0.9159   0.0000   0.0000   0.0000   0.3612
  29.700   0.7844   0.35342   0.34904  -0.1164  0.0160  1.0000  -0.9235   0.0000   0.0000   0.0000   0.3613
  29.800   0.7842   0.35382   0.34944  -0.1166  0.0156  1.0000  -0.9327   0.0000   0.0000   0.0000   0.3614
  29.900   0.7840   0.35418   0.34981  -0.1168  0.0152  1.0000  -0.9436   0.0000   0.0000   0.0000   0.3614
  30.000   0.7839   0.35451   0.35014  -0.1170  0.0149  1.0000  -0.9561   0.0000   0.0000   0.0000   0.3614


