xflr5 v6.61

 Calculated polar for: NACA 65(1)-212

 1 1 Reynolds number fixed          Mach number fixed         

 xtrf =   1.000 (top)        1.000 (bottom)
 Mach =   0.000     Re =     0.300 e 6     Ncrit =   9.000

  alpha     CL        CD       CDp       Cm    Top Xtr Bot Xtr   Cpmin    Chinge    XCp    
 ------- -------- --------- --------- -------- ------- ------- -------- --------- ---------
  -8.700  -0.6575   0.04425   0.04001  -0.0476  0.9888  0.0143  -3.9623   0.0000   0.0000   0.0000   0.1702
  -8.600  -0.6487   0.04370   0.03939  -0.0479  0.9864  0.0141  -3.8932   0.0000   0.0000   0.0000   0.1690
  -8.500  -0.6406   0.04301   0.03863  -0.0481  0.9838  0.0139  -3.8249   0.0000   0.0000   0.0000   0.1677
  -8.400  -0.6332   0.04214   0.03768  -0.0484  0.9810  0.0138  -3.7658   0.0000   0.0000   0.0000   0.1665
  -8.300  -0.6267   0.04101   0.03645  -0.0486  0.9782  0.0137  -3.7219   0.0000   0.0000   0.0000   0.1654
  -8.200  -0.6217   0.03951   0.03483  -0.0487  0.9752  0.0137  -3.7008   0.0000   0.0000   0.0000   0.1646
  -8.100  -0.6184   0.03749   0.03264  -0.0487  0.9722  0.0137  -3.7121   0.0000   0.0000   0.0000   0.1642
  -8.000  -0.6170   0.03480   0.02970  -0.0486  0.9692  0.0138  -3.7668   0.0000   0.0000   0.0000   0.1643
  -7.900  -0.6175   0.03125   0.02580  -0.0483  0.9663  0.0141  -3.8720   0.0000   0.0000   0.0000   0.1649
  -7.800  -0.6144   0.02822   0.02251  -0.0482  0.9640  0.0148  -3.9144   0.0000   0.0000   0.0000   0.1646
  -7.700  -0.6011   0.02900   0.02346  -0.0496  0.9625  0.0170  -3.5649   0.0000   0.0000   0.0000   0.1607
  -7.600  -0.5880   0.02878   0.02323  -0.0505  0.9610  0.0177  -3.4389   0.0000   0.0000   0.0000   0.1574
  -7.500  -0.5747   0.02853   0.02297  -0.0514  0.9596  0.0185  -3.3212   0.0000   0.0000   0.0000   0.1539
  -7.400  -0.5614   0.02822   0.02262  -0.0523  0.9581  0.0193  -3.2162   0.0000   0.0000   0.0000   0.1503
  -7.300  -0.5482   0.02785   0.02221  -0.0531  0.9564  0.0200  -3.1241   0.0000   0.0000   0.0000   0.1465
  -7.200  -0.5351   0.02743   0.02175  -0.0539  0.9545  0.0208  -3.0427   0.0000   0.0000   0.0000   0.1427
  -7.100  -0.5223   0.02702   0.02128  -0.0546  0.9520  0.0214  -2.9696   0.0000   0.0000   0.0000   0.1389
  -7.000  -0.5120   0.02662   0.02083  -0.0548  0.9494  0.0220  -2.9095   0.0000   0.0000   0.0000   0.1366
  -6.900  -0.5040   0.02619   0.02035  -0.0544  0.9475  0.0224  -2.8591   0.0000   0.0000   0.0000   0.1357
  -6.800  -0.4956   0.02576   0.01987  -0.0540  0.9452  0.0228  -2.8097   0.0000   0.0000   0.0000   0.1347
  -6.700  -0.4867   0.02532   0.01938  -0.0538  0.9426  0.0231  -2.7606   0.0000   0.0000   0.0000   0.1332
  -6.600  -0.4773   0.02488   0.01888  -0.0536  0.9399  0.0235  -2.7117   0.0000   0.0000   0.0000   0.1314
  -6.500  -0.4675   0.02444   0.01839  -0.0535  0.9371  0.0238  -2.6626   0.0000   0.0000   0.0000   0.1292
  -6.400  -0.4573   0.02401   0.01790  -0.0535  0.9343  0.0241  -2.6135   0.0000   0.0000   0.0000   0.1268
  -6.300  -0.4469   0.02358   0.01742  -0.0535  0.9315  0.0243  -2.5645   0.0000   0.0000   0.0000   0.1241
  -6.200  -0.4364   0.02315   0.01695  -0.0536  0.9288  0.0246  -2.5159   0.0000   0.0000   0.0000   0.1211
  -6.100  -0.4258   0.02272   0.01646  -0.0536  0.9261  0.0248  -2.4692   0.0000   0.0000   0.0000   0.1181
  -6.000  -0.4158   0.02193   0.01557  -0.0535  0.9236  0.0246  -2.4536   0.0000   0.0000   0.0000   0.1152
  -5.900  -0.4052   0.02158   0.01518  -0.0535  0.9211  0.0248  -2.4030   0.0000   0.0000   0.0000   0.1119
  -5.800  -0.3947   0.02127   0.01483  -0.0534  0.9186  0.0251  -2.3506   0.0000   0.0000   0.0000   0.1085
  -5.700  -0.3840   0.02103   0.01455  -0.0534  0.9161  0.0254  -2.2943   0.0000   0.0000   0.0000   0.1047
  -5.600  -0.3730   0.02118   0.01468  -0.0535  0.9135  0.0258  -2.2140   0.0000   0.0000   0.0000   0.1005
  -5.500  -0.3635   0.02041   0.01383  -0.0534  0.9107  0.0270  -2.1798   0.0000   0.0000   0.0000   0.0971
  -5.400  -0.3544   0.01861   0.01190  -0.0532  0.9081  0.0289  -2.2059   0.0000   0.0000   0.0000   0.0939
  -5.300  -0.3451   0.01772   0.01097  -0.0530  0.9047  0.0315  -2.1783   0.0000   0.0000   0.0000   0.0902
  -5.200  -0.3357   0.01744   0.01072  -0.0530  0.9003  0.0340  -2.1135   0.0000   0.0000   0.0000   0.0859
  -5.100  -0.3268   0.01668   0.00972  -0.0523  0.8987  0.0338  -2.1089   0.0000   0.0000   0.0000   0.0838
  -5.000  -0.3180   0.01630   0.00931  -0.0518  0.8969  0.0337  -2.0855   0.0000   0.0000   0.0000   0.0809
  -4.900  -0.3094   0.01595   0.00892  -0.0513  0.8947  0.0337  -2.0613   0.0000   0.0000   0.0000   0.0779
  -4.800  -0.3009   0.01562   0.00856  -0.0509  0.8922  0.0337  -2.0367   0.0000   0.0000   0.0000   0.0749
  -4.700  -0.2925   0.01530   0.00821  -0.0504  0.8896  0.0339  -2.0118   0.0000   0.0000   0.0000   0.0717
  -4.600  -0.2841   0.01499   0.00787  -0.0499  0.8868  0.0341  -1.9869   0.0000   0.0000   0.0000   0.0683
  -4.500  -0.2757   0.01469   0.00755  -0.0494  0.8839  0.0344  -1.9621   0.0000   0.0000   0.0000   0.0648
  -4.400  -0.2673   0.01440   0.00723  -0.0489  0.8810  0.0348  -1.9374   0.0000   0.0000   0.0000   0.0610
  -4.300  -0.2589   0.01412   0.00692  -0.0484  0.8782  0.0353  -1.9128   0.0000   0.0000   0.0000   0.0569
  -4.200  -0.2505   0.01385   0.00662  -0.0479  0.8754  0.0360  -1.8882   0.0000   0.0000   0.0000   0.0525
  -4.100  -0.2419   0.01358   0.00632  -0.0475  0.8727  0.0370  -1.8639   0.0000   0.0000   0.0000   0.0476
  -4.000  -0.2332   0.01334   0.00604  -0.0470  0.8701  0.0382  -1.8395   0.0000   0.0000   0.0000   0.0422
  -3.900  -0.2242   0.01311   0.00578  -0.0466  0.8675  0.0397  -1.8152   0.0000   0.0000   0.0000   0.0359
  -3.800  -0.2151   0.01289   0.00552  -0.0462  0.8649  0.0417  -1.7910   0.0000   0.0000   0.0000   0.0288
  -3.700  -0.2058   0.01269   0.00527  -0.0459  0.8622  0.0443  -1.7662   0.0000   0.0000   0.0000   0.0207
  -3.600  -0.1962   0.01253   0.00506  -0.0456  0.8593  0.0473  -1.7385   0.0000   0.0000   0.0000   0.0112
  -3.500  -0.1863   0.01242   0.00489  -0.0454  0.8561  0.0500  -1.7035   0.0000   0.0000   0.0000  -0.0003
  -3.400  -0.1767   0.01228   0.00471  -0.0452  0.8522  0.0577  -1.6810   0.0000   0.0000   0.0000  -0.0126
  -3.300  -0.1686   0.01189   0.00451  -0.0449  0.8496  0.0895  -1.6565   0.0000   0.0000   0.0000  -0.0231
  -3.200  -0.1654   0.01076   0.00413  -0.0444  0.8479  0.2642  -1.6335   0.0000   0.0000   0.0000  -0.0252
  -3.100  -0.1634   0.00956   0.00389  -0.0437  0.8460  0.4856  -1.6062   0.0000   0.0000   0.0000  -0.0240
  -3.000  -0.1561   0.00927   0.00401  -0.0430  0.8440  0.5817  -1.5611   0.0000   0.0000   0.0000  -0.0317
  -2.900  -0.1467   0.00923   0.00409  -0.0425  0.8420  0.6179  -1.5088   0.0000   0.0000   0.0000  -0.0465
  -2.800  -0.1367   0.00925   0.00417  -0.0422  0.8399  0.6414  -1.4540   0.0000   0.0000   0.0000  -0.0655
  -2.700  -0.1261   0.00928   0.00419  -0.0420  0.8377  0.6541  -1.3977   0.0000   0.0000   0.0000  -0.0903
  -2.600  -0.1164   0.00929   0.00428  -0.0416  0.8355  0.6678  -1.3430   0.0000   0.0000   0.0000  -0.1147
  -2.500  -0.1063   0.00934   0.00437  -0.0412  0.8332  0.6798  -1.2876   0.0000   0.0000   0.0000  -0.1455
  -2.400  -0.0958   0.00941   0.00443  -0.0410  0.8310  0.6897  -1.2315   0.0000   0.0000   0.0000  -0.1858
  -2.300  -0.0852   0.00951   0.00450  -0.0407  0.8286  0.6973  -1.1755   0.0000   0.0000   0.0000  -0.2369
  -2.200  -0.0750   0.00952   0.00451  -0.0404  0.8262  0.7064  -1.1212   0.0000   0.0000   0.0000  -0.2978
  -2.100  -0.0654   0.00954   0.00458  -0.0398  0.8239  0.7153  -1.0683   0.0000   0.0000   0.0000  -0.3697
  -2.000  -0.0554   0.00959   0.00466  -0.0394  0.8215  0.7217  -1.0152   0.0000   0.0000   0.0000  -0.4720
  -1.900  -0.0451   0.00964   0.00470  -0.0390  0.8192  0.7267  -0.9620   0.0000   0.0000   0.0000  -0.6284
  -1.800  -0.0348   0.00971   0.00475  -0.0387  0.8168  0.7323  -0.9094   0.0000   0.0000   0.0000  -0.8758
  -1.700  -0.0246   0.00980   0.00483  -0.0383  0.8144  0.7382  -0.8574   0.0000   0.0000   0.0000  -1.3287
  -1.600  -0.0142   0.00991   0.00493  -0.0380  0.8120  0.7435  -0.8057   0.0000   0.0000   0.0000  -2.4531
  -1.500  -0.0037   0.01005   0.00505  -0.0377  0.8094  0.7474  -0.7543   0.0000   0.0000   0.0000  -10.1915
  -1.400   0.0070   0.01013   0.00511  -0.0376  0.8066  0.7512  -0.7038   0.0000   0.0000   0.0000   5.6885
  -1.300   0.0172   0.01010   0.00508  -0.0375  0.8034  0.7572  -0.6555   0.0000   0.0000   0.0000   2.4529
  -1.200   0.0275   0.01018   0.00517  -0.0373  0.8003  0.7609  -0.6074   0.0000   0.0000   0.0000   1.6209
  -1.100   0.0383   0.01016   0.00515  -0.0373  0.7993  0.7633  -0.5590   0.0000   0.0000   0.0000   1.2336
  -1.000   0.0491   0.01014   0.00513  -0.0373  0.7981  0.7652  -0.5111   0.0000   0.0000   0.0000   1.0155
  -0.900   0.0600   0.01013   0.00512  -0.0373  0.7968  0.7671  -0.4639   0.0000   0.0000   0.0000   0.8765
  -0.800   0.0709   0.01012   0.00511  -0.0373  0.7953  0.7690  -0.4174   0.0000   0.0000   0.0000   0.7801
  -0.700   0.0817   0.01012   0.00511  -0.0374  0.7937  0.7709  -0.4082   0.0000   0.0000   0.0000   0.7093
  -0.600   0.0926   0.01011   0.00511  -0.0374  0.7920  0.7729  -0.4127   0.0000   0.0000   0.0000   0.6551
  -0.500   0.1034   0.01012   0.00512  -0.0374  0.7902  0.7750  -0.4178   0.0000   0.0000   0.0000   0.6123
  -0.400   0.1143   0.01013   0.00513  -0.0374  0.7883  0.7773  -0.4229   0.0000   0.0000   0.0000   0.5776
  -0.300   0.1251   0.01014   0.00515  -0.0373  0.7864  0.7797  -0.4281   0.0000   0.0000   0.0000   0.5489
  -0.200   0.1360   0.01015   0.00516  -0.0374  0.7845  0.7820  -0.4333   0.0000   0.0000   0.0000   0.5248
  -0.100   0.1469   0.01016   0.00516  -0.0374  0.7825  0.7843  -0.4385   0.0000   0.0000   0.0000   0.5042
   0.000   0.1579   0.01017   0.00517  -0.0374  0.7806  0.7865  -0.4437   0.0000   0.0000   0.0000   0.4866
   0.100   0.1690   0.01017   0.00517  -0.0375  0.7787  0.7885  -0.4490   0.0000   0.0000   0.0000   0.4712
   0.200   0.1802   0.01017   0.00517  -0.0376  0.7767  0.7903  -0.4543   0.0000   0.0000   0.0000   0.4578
   0.300   0.1913   0.01017   0.00516  -0.0376  0.7747  0.7921  -0.4597   0.0000   0.0000   0.0000   0.4459
   0.400   0.2025   0.01016   0.00516  -0.0377  0.7727  0.7938  -0.4651   0.0000   0.0000   0.0000   0.4352
   0.500   0.2137   0.01016   0.00514  -0.0378  0.7706  0.7954  -0.4705   0.0000   0.0000   0.0000   0.4257
   0.600   0.2249   0.01016   0.00512  -0.0378  0.7685  0.7968  -0.4760   0.0000   0.0000   0.0000   0.4170
   0.700   0.2361   0.01016   0.00511  -0.0379  0.7664  0.7981  -0.4814   0.0000   0.0000   0.0000   0.4092
   0.800   0.2473   0.01018   0.00511  -0.0380  0.7643  0.7992  -0.4869   0.0000   0.0000   0.0000   0.4021
   0.900   0.2584   0.01013   0.00505  -0.0381  0.7621  0.8020  -0.4922   0.0000   0.0000   0.0000   0.3958
   1.000   0.2693   0.01009   0.00502  -0.0381  0.7600  0.8054  -0.4974   0.0000   0.0000   0.0000   0.3900
   1.100   0.2800   0.01011   0.00504  -0.0381  0.7576  0.8082  -0.5024   0.0000   0.0000   0.0000   0.3845
   1.200   0.2906   0.01018   0.00512  -0.0381  0.7550  0.8108  -0.5072   0.0000   0.0000   0.0000   0.3794
   1.300   0.3010   0.01032   0.00527  -0.0381  0.7518  0.8132  -0.5339   0.0000   0.0000   0.0000   0.3747
   1.400   0.3113   0.01039   0.00537  -0.0381  0.7500  0.8155  -0.5838   0.0000   0.0000   0.0000   0.3703
   1.500   0.3219   0.01040   0.00540  -0.0380  0.7491  0.8178  -0.6350   0.0000   0.0000   0.0000   0.3660
   1.600   0.3324   0.01041   0.00544  -0.0379  0.7481  0.8200  -0.6870   0.0000   0.0000   0.0000   0.3620
   1.700   0.3429   0.01043   0.00548  -0.0379  0.7470  0.8223  -0.7398   0.0000   0.0000   0.0000   0.3583
   1.800   0.3534   0.01045   0.00552  -0.0378  0.7457  0.8247  -0.7932   0.0000   0.0000   0.0000   0.3547
   1.900   0.3639   0.01047   0.00557  -0.0377  0.7442  0.8273  -0.8473   0.0000   0.0000   0.0000   0.3513
   2.000   0.3743   0.01048   0.00560  -0.0376  0.7424  0.8300  -0.9022   0.0000   0.0000   0.0000   0.3481
   2.100   0.3847   0.01044   0.00558  -0.0374  0.7395  0.8327  -0.9583   0.0000   0.0000   0.0000   0.3448
   2.200   0.3952   0.01037   0.00551  -0.0372  0.7356  0.8353  -1.0155   0.0000   0.0000   0.0000   0.3415
   2.300   0.4059   0.01027   0.00541  -0.0369  0.7308  0.8379  -1.0742   0.0000   0.0000   0.0000   0.3383
   2.400   0.4167   0.01014   0.00527  -0.0366  0.7254  0.8403  -1.1342   0.0000   0.0000   0.0000   0.3352
   2.500   0.4274   0.01002   0.00512  -0.0363  0.7197  0.8425  -1.1950   0.0000   0.0000   0.0000   0.3322
   2.600   0.4383   0.00992   0.00498  -0.0361  0.7134  0.8444  -1.2568   0.0000   0.0000   0.0000   0.3294
   2.700   0.4493   0.00993   0.00494  -0.0359  0.7061  0.8462  -1.3190   0.0000   0.0000   0.0000   0.3270
   2.800   0.4601   0.01000   0.00500  -0.0359  0.6997  0.8478  -1.3810   0.0000   0.0000   0.0000   0.3249
   2.900   0.4707   0.00993   0.00495  -0.0357  0.6966  0.8492  -1.4433   0.0000   0.0000   0.0000   0.3228
   3.000   0.4809   0.00976   0.00480  -0.0355  0.6909  0.8527  -1.5053   0.0000   0.0000   0.0000   0.3206
   3.100   0.4906   0.00959   0.00465  -0.0351  0.6826  0.8565  -1.5668   0.0000   0.0000   0.0000   0.3182
   3.200   0.5001   0.00946   0.00450  -0.0345  0.6725  0.8597  -1.6284   0.0000   0.0000   0.0000   0.3157
   3.300   0.5094   0.00939   0.00435  -0.0339  0.6607  0.8626  -1.6901   0.0000   0.0000   0.0000   0.3131
   3.400   0.5186   0.00939   0.00431  -0.0333  0.6488  0.8654  -1.7513   0.0000   0.0000   0.0000   0.3108
   3.500   0.5276   0.00933   0.00429  -0.0328  0.6395  0.8683  -1.8121   0.0000   0.0000   0.0000   0.3087
   3.600   0.5364   0.00930   0.00423  -0.0322  0.6244  0.8711  -1.8727   0.0000   0.0000   0.0000   0.3064
   3.700   0.5447   0.00933   0.00415  -0.0315  0.6058  0.8739  -1.9320   0.0000   0.0000   0.0000   0.3040
   3.800   0.5534   0.00935   0.00416  -0.0309  0.5898  0.8768  -1.9922   0.0000   0.0000   0.0000   0.3021
   3.900   0.5608   0.00943   0.00412  -0.0301  0.5593  0.8799  -2.0483   0.0000   0.0000   0.0000   0.2998
   4.000   0.5670   0.00960   0.00411  -0.0291  0.5145  0.8832  -2.0999   0.0000   0.0000   0.0000   0.2973
   4.100   0.5681   0.01004   0.00416  -0.0273  0.4387  0.8870  -2.1360   0.0000   0.0000   0.0000   0.2939
   4.200   0.5662   0.01072   0.00439  -0.0252  0.3482  0.8910  -2.1612   0.0000   0.0000   0.0000   0.2902
   4.300   0.5645   0.01143   0.00470  -0.0232  0.2616  0.8947  -2.1851   0.0000   0.0000   0.0000   0.2867
   4.400   0.5630   0.01215   0.00503  -0.0213  0.1788  0.8979  -2.2077   0.0000   0.0000   0.0000   0.2834
   4.500   0.5609   0.01284   0.00532  -0.0193  0.0997  0.9026  -2.2260   0.0000   0.0000   0.0000   0.2799
   4.600   0.5611   0.01327   0.00553  -0.0175  0.0633  0.9091  -2.2454   0.0000   0.0000   0.0000   0.2765
   4.700   0.5639   0.01354   0.00577  -0.0158  0.0475  0.9144  -2.2557   0.0000   0.0000   0.0000   0.2734
   4.800   0.5690   0.01369   0.00597  -0.0146  0.0437  0.9192  -2.2819   0.0000   0.0000   0.0000   0.2710
   4.900   0.5735   0.01389   0.00620  -0.0133  0.0398  0.9242  -2.2994   0.0000   0.0000   0.0000   0.2684
   5.000   0.5775   0.01410   0.00644  -0.0119  0.0366  0.9295  -2.3127   0.0000   0.0000   0.0000   0.2658
   5.100   0.5813   0.01435   0.00671  -0.0105  0.0341  0.9349  -2.3232   0.0000   0.0000   0.0000   0.2632
   5.200   0.5850   0.01459   0.00700  -0.0092  0.0323  0.9402  -2.3331   0.0000   0.0000   0.0000   0.2606
   5.300   0.5883   0.01485   0.00730  -0.0077  0.0310  0.9452  -2.3442   0.0000   0.0000   0.0000   0.2579
   5.400   0.5906   0.01511   0.00761  -0.0060  0.0301  0.9494  -2.3556   0.0000   0.0000   0.0000   0.2550
   5.500   0.5980   0.01547   0.00802  -0.0057  0.0293  0.9568  -2.3744   0.0000   0.0000   0.0000   0.2542
   5.600   0.6073   0.01589   0.00849  -0.0057  0.0286  0.9634  -2.3977   0.0000   0.0000   0.0000   0.2540
   5.700   0.6171   0.01633   0.00898  -0.0058  0.0281  0.9689  -2.4239   0.0000   0.0000   0.0000   0.2539
   5.800   0.6276   0.01680   0.00950  -0.0059  0.0278  0.9738  -2.4531   0.0000   0.0000   0.0000   0.2539
   5.900   0.6389   0.01730   0.01003  -0.0063  0.0275  0.9782  -2.4854   0.0000   0.0000   0.0000   0.2542
   6.000   0.6510   0.01780   0.01057  -0.0067  0.0274  0.9824  -2.5208   0.0000   0.0000   0.0000   0.2546
   6.100   0.6640   0.01832   0.01112  -0.0073  0.0273  0.9861  -2.5593   0.0000   0.0000   0.0000   0.2552
   6.200   0.6787   0.01929   0.01242  -0.0078  0.0276  0.9885  -2.5826   0.0000   0.0000   0.0000   0.2557
   6.300   0.6933   0.01988   0.01306  -0.0086  0.0277  0.9915  -2.6275   0.0000   0.0000   0.0000   0.2565
   6.400   0.7087   0.02090   0.01413  -0.0095  0.0266  0.9933  -2.6632   0.0000   0.0000   0.0000   0.2575
   6.500   0.7265   0.02302   0.01637  -0.0109  0.0249  0.9931  -2.6599   0.0000   0.0000   0.0000   0.2590
   6.600   0.7393   0.02388   0.01730  -0.0116  0.0235  0.9961  -2.7162   0.0000   0.0000   0.0000   0.2596
   6.700   0.7469   0.02324   0.01663  -0.0113  0.0229  1.0000  -2.8258   0.0000   0.0000   0.0000   0.2590
   6.800   0.7481   0.02320   0.01662  -0.0098  0.0226  1.0000  -2.8716   0.0000   0.0000   0.0000   0.2569
   6.900   0.7531   0.02321   0.01663  -0.0090  0.0222  1.0000  -2.9330   0.0000   0.0000   0.0000   0.2556
   7.000   0.7601   0.02336   0.01678  -0.0085  0.0218  1.0000  -2.9945   0.0000   0.0000   0.0000   0.2547
   7.100   0.7684   0.02366   0.01711  -0.0082  0.0215  1.0000  -3.0508   0.0000   0.0000   0.0000   0.2542
   7.200   0.7777   0.02415   0.01764  -0.0081  0.0213  1.0000  -3.0979   0.0000   0.0000   0.0000   0.2538
   7.300   0.7872   0.02469   0.01822  -0.0080  0.0211  1.0000  -3.1429   0.0000   0.0000   0.0000   0.2535
   7.400   0.7966   0.02526   0.01883  -0.0080  0.0210  1.0000  -3.1875   0.0000   0.0000   0.0000   0.2531
   7.500   0.8059   0.02583   0.01946  -0.0078  0.0209  1.0000  -3.2317   0.0000   0.0000   0.0000   0.2528
   7.600   0.8149   0.02643   0.02010  -0.0077  0.0207  1.0000  -3.2754   0.0000   0.0000   0.0000   0.2524
   7.700   0.8237   0.02703   0.02075  -0.0075  0.0206  1.0000  -3.3185   0.0000   0.0000   0.0000   0.2520
   7.800   0.8321   0.02765   0.02142  -0.0072  0.0204  1.0000  -3.3610   0.0000   0.0000   0.0000   0.2515
   7.900   0.8403   0.02827   0.02210  -0.0070  0.0203  1.0000  -3.4030   0.0000   0.0000   0.0000   0.2510
   8.000   0.8481   0.02890   0.02279  -0.0066  0.0202  1.0000  -3.4444   0.0000   0.0000   0.0000   0.2504
   8.100   0.8556   0.02954   0.02348  -0.0063  0.0200  1.0000  -3.4854   0.0000   0.0000   0.0000   0.2499
   8.200   0.8627   0.03018   0.02418  -0.0059  0.0198  1.0000  -3.5259   0.0000   0.0000   0.0000   0.2492
   8.300   0.8695   0.03082   0.02489  -0.0054  0.0197  1.0000  -3.5660   0.0000   0.0000   0.0000   0.2485
   8.400   0.8759   0.03146   0.02559  -0.0049  0.0195  1.0000  -3.6058   0.0000   0.0000   0.0000   0.2478
   8.500   0.8819   0.03211   0.02629  -0.0043  0.0193  1.0000  -3.6452   0.0000   0.0000   0.0000   0.2470
   8.600   0.8876   0.03275   0.02700  -0.0037  0.0191  1.0000  -3.6845   0.0000   0.0000   0.0000   0.2462
   8.700   0.8929   0.03339   0.02769  -0.0030  0.0189  1.0000  -3.7236   0.0000   0.0000   0.0000   0.2453
   8.800   0.8991   0.03257   0.02684  -0.0025  0.0171  1.0000  -3.9066   0.0000   0.0000   0.0000   0.2445
   8.900   0.9040   0.03264   0.02692  -0.0018  0.0165  1.0000  -4.0014   0.0000   0.0000   0.0000   0.2436
   9.000   0.9085   0.03281   0.02710  -0.0010  0.0160  1.0000  -4.0864   0.0000   0.0000   0.0000   0.2427
   9.100   0.9127   0.03301   0.02731  -0.0002  0.0156  1.0000  -4.1669   0.0000   0.0000   0.0000   0.2417
   9.200   0.9163   0.03324   0.02755   0.0007  0.0152  1.0000  -4.2427   0.0000   0.0000   0.0000   0.2406
   9.300   0.9186   0.03345   0.02778   0.0018  0.0149  1.0000  -4.3127   0.0000   0.0000   0.0000   0.2393
   9.400   0.9200   0.03366   0.02800   0.0030  0.0147  1.0000  -4.3783   0.0000   0.0000   0.0000   0.2378
   9.500   0.9211   0.03388   0.02823   0.0044  0.0145  1.0000  -4.4430   0.0000   0.0000   0.0000   0.2362
   9.600   0.9221   0.03412   0.02849   0.0056  0.0142  1.0000  -4.5084   0.0000   0.0000   0.0000   0.2347
   9.700   0.9233   0.03439   0.02877   0.0069  0.0140  1.0000  -4.5742   0.0000   0.0000   0.0000   0.2333
   9.800   0.9244   0.03471   0.02910   0.0080  0.0138  1.0000  -4.6391   0.0000   0.0000   0.0000   0.2319
   9.900   0.9252   0.03510   0.02950   0.0092  0.0135  1.0000  -4.6994   0.0000   0.0000   0.0000   0.2305
  10.000   0.9254   0.03557   0.03000   0.0104  0.0133  1.0000  -4.7532   0.0000   0.0000   0.0000   0.2291
  10.100   0.9252   0.03617   0.03063   0.0116  0.0131  1.0000  -4.7990   0.0000   0.0000   0.0000   0.2276
  10.200   0.9242   0.03696   0.03147   0.0129  0.0129  1.0000  -4.8320   0.0000   0.0000   0.0000   0.2262
  10.300   0.9218   0.03798   0.03256   0.0142  0.0127  1.0000  -4.8459   0.0000   0.0000   0.0000   0.2246
  10.400   0.9173   0.03928   0.03396   0.0157  0.0124  1.0000  -4.8352   0.0000   0.0000   0.0000   0.2228
  10.500   0.9103   0.04078   0.03557   0.0173  0.0122  1.0000  -4.8015   0.0000   0.0000   0.0000   0.2207
  10.600   0.9014   0.04237   0.03728   0.0191  0.0121  1.0000  -4.7532   0.0000   0.0000   0.0000   0.2184
  10.700   0.8915   0.04402   0.03905   0.0209  0.0120  1.0000  -4.6968   0.0000   0.0000   0.0000   0.2161
  10.800   0.8810   0.04567   0.04082   0.0226  0.0119  1.0000  -4.6383   0.0000   0.0000   0.0000   0.2138
  10.900   0.8705   0.04722   0.04247   0.0242  0.0118  1.0000  -4.5856   0.0000   0.0000   0.0000   0.2115
  11.000   0.8601   0.04876   0.04412   0.0256  0.0117  1.0000  -4.5347   0.0000   0.0000   0.0000   0.2093
  11.100   0.8499   0.05031   0.04576   0.0269  0.0117  1.0000  -4.4857   0.0000   0.0000   0.0000   0.2073
  11.200   0.8400   0.05175   0.04729   0.0281  0.0116  1.0000  -4.4439   0.0000   0.0000   0.0000   0.2054
  11.300   0.8303   0.05321   0.04882   0.0291  0.0116  1.0000  -4.4038   0.0000   0.0000   0.0000   0.2036
  11.400   0.8209   0.05469   0.05039   0.0300  0.0116  1.0000  -4.3648   0.0000   0.0000   0.0000   0.2020
  11.500   0.8118   0.05611   0.05188   0.0307  0.0116  1.0000  -4.3317   0.0000   0.0000   0.0000   0.2005
  11.600   0.8030   0.05758   0.05342   0.0313  0.0116  1.0000  -4.2991   0.0000   0.0000   0.0000   0.1992
  11.700   0.8012   0.05799   0.05383   0.0318  0.0115  1.0000  -4.3474   0.0000   0.0000   0.0000   0.1984
  11.800   0.7979   0.05873   0.05461   0.0321  0.0115  1.0000  -4.3750   0.0000   0.0000   0.0000   0.1976
  11.900   0.7929   0.05976   0.05570   0.0324  0.0114  1.0000  -4.3831   0.0000   0.0000   0.0000   0.1968
  12.000   0.7878   0.06089   0.05687   0.0326  0.0114  1.0000  -4.3874   0.0000   0.0000   0.0000   0.1961
  12.100   0.7820   0.06218   0.05822   0.0328  0.0114  1.0000  -4.3818   0.0000   0.0000   0.0000   0.1954
  12.200   0.7741   0.06374   0.05983   0.0327  0.0114  1.0000  -4.3562   0.0000   0.0000   0.0000   0.1948
  12.300   0.7664   0.06537   0.06152   0.0326  0.0114  1.0000  -4.3298   0.0000   0.0000   0.0000   0.1944
  12.400   0.7582   0.06717   0.06338   0.0323  0.0114  1.0000  -4.2949   0.0000   0.0000   0.0000   0.1941
  12.500   0.7468   0.06949   0.06575   0.0318  0.0114  1.0000  -4.2265   0.0000   0.0000   0.0000   0.1940
  14.100   0.6305   0.12255   0.11937   0.0055  0.0154  1.0000  -2.6016   0.0000   0.0000   0.0000   0.2267
  14.200   0.6259   0.12590   0.12272   0.0040  0.0156  1.0000  -2.5040   0.0000   0.0000   0.0000   0.2290
  14.300   0.6212   0.12936   0.12617   0.0025  0.0160  1.0000  -2.3971   0.0000   0.0000   0.0000   0.2314
  14.400   0.6166   0.13284   0.12964   0.0010  0.0165  1.0000  -2.2861   0.0000   0.0000   0.0000   0.2338
  14.500   0.6125   0.13622   0.13300  -0.0004  0.0173  1.0000  -2.1799   0.0000   0.0000   0.0000   0.2360
  14.600   0.6090   0.13943   0.13620  -0.0017  0.0185  1.0000  -2.0850   0.0000   0.0000   0.0000   0.2381
  14.700   0.6046   0.14280   0.13957  -0.0029  0.0203  1.0000  -1.9889   0.0000   0.0000   0.0000   0.2402
  16.000   0.6090   0.17256   0.16927  -0.0144  0.0236  1.0000  -1.6143   0.0000   0.0000   0.0000   0.2579
  16.100   0.6109   0.17427   0.17098  -0.0151  0.0236  1.0000  -1.6069   0.0000   0.0000   0.0000   0.2589
  16.200   0.6129   0.17595   0.17265  -0.0158  0.0235  1.0000  -1.6000   0.0000   0.0000   0.0000   0.2599
  16.300   0.6148   0.17760   0.17431  -0.0166  0.0235  1.0000  -1.5936   0.0000   0.0000   0.0000   0.2609
  16.400   0.6168   0.17923   0.17594  -0.0173  0.0235  1.0000  -1.5878   0.0000   0.0000   0.0000   0.2619
  16.500   0.6189   0.18083   0.17753  -0.0180  0.0235  1.0000  -1.5826   0.0000   0.0000   0.0000   0.2628
  16.600   0.6210   0.18240   0.17910  -0.0187  0.0234  1.0000  -1.5781   0.0000   0.0000   0.0000   0.2638
  16.700   0.6231   0.18393   0.18062  -0.0194  0.0234  1.0000  -1.5743   0.0000   0.0000   0.0000   0.2647
  16.800   0.6252   0.18541   0.18210  -0.0201  0.0233  1.0000  -1.5714   0.0000   0.0000   0.0000   0.2656
  16.900   0.6274   0.18684   0.18352  -0.0208  0.0232  1.0000  -1.5696   0.0000   0.0000   0.0000   0.2664
  17.000   0.6297   0.18819   0.18487  -0.0215  0.0231  1.0000  -1.5693   0.0000   0.0000   0.0000   0.2673
  17.200   0.6349   0.19013   0.18684  -0.0227  0.0224  1.0000  -1.5869   0.0000   0.0000   0.0000   0.2687
  17.300   0.6377   0.19108   0.18778  -0.0233  0.0220  1.0000  -1.5935   0.0000   0.0000   0.0000   0.2694
  17.400   0.6399   0.19215   0.18885  -0.0240  0.0216  1.0000  -1.5924   0.0000   0.0000   0.0000   0.2702
  17.500   0.6415   0.19332   0.19001  -0.0248  0.0212  1.0000  -1.5836   0.0000   0.0000   0.0000   0.2712
  17.600   0.6432   0.19458   0.19127  -0.0255  0.0208  1.0000  -1.5746   0.0000   0.0000   0.0000   0.2721
  17.700   0.6450   0.19591   0.19259  -0.0263  0.0205  1.0000  -1.5659   0.0000   0.0000   0.0000   0.2730
  17.800   0.6469   0.19727   0.19396  -0.0270  0.0201  1.0000  -1.5578   0.0000   0.0000   0.0000   0.2739
  17.900   0.6489   0.19867   0.19535  -0.0277  0.0198  1.0000  -1.5505   0.0000   0.0000   0.0000   0.2747
  18.000   0.6509   0.20008   0.19676  -0.0284  0.0195  1.0000  -1.5439   0.0000   0.0000   0.0000   0.2756
  18.100   0.6530   0.20150   0.19817  -0.0291  0.0192  1.0000  -1.5380   0.0000   0.0000   0.0000   0.2764
  18.200   0.6551   0.20292   0.19959  -0.0297  0.0189  1.0000  -1.5328   0.0000   0.0000   0.0000   0.2771
  18.300   0.6572   0.20434   0.20101  -0.0304  0.0186  1.0000  -1.5283   0.0000   0.0000   0.0000   0.2779
  18.400   0.6594   0.20576   0.20242  -0.0311  0.0184  1.0000  -1.5244   0.0000   0.0000   0.0000   0.2786
  18.500   0.6616   0.20717   0.20383  -0.0317  0.0182  1.0000  -1.5210   0.0000   0.0000   0.0000   0.2793
  18.600   0.6638   0.20857   0.20523  -0.0324  0.0179  1.0000  -1.5181   0.0000   0.0000   0.0000   0.2800
  18.700   0.6660   0.20997   0.20663  -0.0331  0.0177  1.0000  -1.5157   0.0000   0.0000   0.0000   0.2807
  18.800   0.6682   0.21137   0.20802  -0.0337  0.0175  1.0000  -1.5138   0.0000   0.0000   0.0000   0.2814
  18.900   0.6705   0.21275   0.20940  -0.0343  0.0173  1.0000  -1.5122   0.0000   0.0000   0.0000   0.2821
  19.000   0.6727   0.21413   0.21078  -0.0350  0.0171  1.0000  -1.5112   0.0000   0.0000   0.0000   0.2827
  19.100   0.6750   0.21550   0.21215  -0.0356  0.0169  1.0000  -1.5105   0.0000   0.0000   0.0000   0.2833
  19.200   0.6773   0.21686   0.21351  -0.0363  0.0167  1.0000  -1.5102   0.0000   0.0000   0.0000   0.2840
  19.300   0.6796   0.21822   0.21486  -0.0369  0.0165  1.0000  -1.5103   0.0000   0.0000   0.0000   0.2846
  19.400   0.6819   0.21957   0.21621  -0.0375  0.0163  1.0000  -1.5107   0.0000   0.0000   0.0000   0.2852
  19.500   0.6843   0.22091   0.21755  -0.0381  0.0161  1.0000  -1.5115   0.0000   0.0000   0.0000   0.2857
  19.600   0.6866   0.22224   0.21888  -0.0388  0.0160  1.0000  -1.5127   0.0000   0.0000   0.0000   0.2863
  19.700   0.6889   0.22357   0.22021  -0.0394  0.0158  1.0000  -1.5142   0.0000   0.0000   0.0000   0.2869
  19.800   0.6913   0.22489   0.22152  -0.0400  0.0157  1.0000  -1.5161   0.0000   0.0000   0.0000   0.2874
  19.900   0.6937   0.22619   0.22283  -0.0406  0.0155  1.0000  -1.5184   0.0000   0.0000   0.0000   0.2880
  20.000   0.6960   0.22747   0.22410  -0.0412  0.0154  1.0000  -1.5210   0.0000   0.0000   0.0000   0.2885
  20.100   0.6984   0.22870   0.22534  -0.0418  0.0152  1.0000  -1.5240   0.0000   0.0000   0.0000   0.2890
  20.200   0.7008   0.22992   0.22655  -0.0424  0.0151  1.0000  -1.5273   0.0000   0.0000   0.0000   0.2895
  20.300   0.7031   0.23111   0.22774  -0.0430  0.0149  1.0000  -1.5310   0.0000   0.0000   0.0000   0.2899
  20.400   0.7055   0.23228   0.22891  -0.0435  0.0148  1.0000  -1.5351   0.0000   0.0000   0.0000   0.2904
  20.500   0.7079   0.23344   0.23007  -0.0441  0.0147  1.0000  -1.5395   0.0000   0.0000   0.0000   0.2908
  20.600   0.7103   0.23460   0.23122  -0.0447  0.0146  1.0000  -1.5442   0.0000   0.0000   0.0000   0.2913
  20.700   0.7127   0.23574   0.23237  -0.0452  0.0144  1.0000  -1.5493   0.0000   0.0000   0.0000   0.2917
  20.800   0.7151   0.23689   0.23351  -0.0458  0.0143  1.0000  -1.5547   0.0000   0.0000   0.0000   0.2921
  20.900   0.7176   0.23803   0.23465  -0.0464  0.0142  1.0000  -1.5605   0.0000   0.0000   0.0000   0.2925
  21.000   0.7200   0.23917   0.23579  -0.0469  0.0141  1.0000  -1.5667   0.0000   0.0000   0.0000   0.2929
  21.100   0.7225   0.24031   0.23693  -0.0475  0.0140  1.0000  -1.5732   0.0000   0.0000   0.0000   0.2933
  21.200   0.7249   0.24146   0.23807  -0.0481  0.0139  1.0000  -1.5800   0.0000   0.0000   0.0000   0.2937
  21.300   0.7276   0.24256   0.23918  -0.0486  0.0137  1.0000  -1.5957   0.0000   0.0000   0.0000   0.2940
  21.400   0.7305   0.24364   0.24025  -0.0491  0.0135  1.0000  -1.6200   0.0000   0.0000   0.0000   0.2943
  21.500   0.7335   0.24474   0.24136  -0.0496  0.0133  1.0000  -1.6472   0.0000   0.0000   0.0000   0.2945
  21.600   0.7367   0.24590   0.24252  -0.0501  0.0131  1.0000  -1.6776   0.0000   0.0000   0.0000   0.2946
  21.700   0.7401   0.24714   0.24376  -0.0505  0.0129  1.0000  -1.7120   0.0000   0.0000   0.0000   0.2948
  21.800   0.7439   0.24852   0.24515  -0.0509  0.0127  1.0000  -1.7511   0.0000   0.0000   0.0000   0.2948
  21.900   0.7483   0.25021   0.24684  -0.0513  0.0125  1.0000  -1.7969   0.0000   0.0000   0.0000   0.2947
  22.000   0.7539   0.25281   0.24944  -0.0516  0.0122  1.0000  -1.8508   0.0000   0.0000   0.0000   0.2945
  22.100   0.7524   0.26001   0.25660  -0.0528  0.0115  1.0000  -1.6664   0.0000   0.0000   0.0000   0.2963
  22.200   0.7541   0.26094   0.25754  -0.0535  0.0115  1.0000  -1.6602   0.0000   0.0000   0.0000   0.2968
  22.300   0.7558   0.26184   0.25844  -0.0541  0.0115  1.0000  -1.6544   0.0000   0.0000   0.0000   0.2973
  22.400   0.7575   0.26269   0.25928  -0.0547  0.0115  1.0000  -1.6488   0.0000   0.0000   0.0000   0.2978
  22.500   0.7591   0.26351   0.26010  -0.0553  0.0114  1.0000  -1.6437   0.0000   0.0000   0.0000   0.2983
  22.600   0.7607   0.26427   0.26086  -0.0560  0.0114  1.0000  -1.6389   0.0000   0.0000   0.0000   0.2988
  22.700   0.7623   0.26496   0.26155  -0.0566  0.0114  1.0000  -1.6343   0.0000   0.0000   0.0000   0.2993
  22.800   0.7639   0.26559   0.26218  -0.0572  0.0113  1.0000  -1.6304   0.0000   0.0000   0.0000   0.2998
  22.900   0.7654   0.26610   0.26268  -0.0579  0.0112  1.0000  -1.6253   0.0000   0.0000   0.0000   0.3003
  23.000   0.7667   0.26651   0.26309  -0.0585  0.0111  1.0000  -1.6193   0.0000   0.0000   0.0000   0.3008
  23.100   0.7676   0.26675   0.26333  -0.0592  0.0110  1.0000  -1.6039   0.0000   0.0000   0.0000   0.3014
  23.200   0.7688   0.26709   0.26366  -0.0599  0.0108  1.0000  -1.5872   0.0000   0.0000   0.0000   0.3021
  23.300   0.7703   0.26763   0.26421  -0.0606  0.0105  1.0000  -1.5693   0.0000   0.0000   0.0000   0.3026
  23.400   0.7723   0.26845   0.26502  -0.0612  0.0102  1.0000  -1.5528   0.0000   0.0000   0.0000   0.3031
  23.500   0.7744   0.26947   0.26604  -0.0619  0.0099  1.0000  -1.5403   0.0000   0.0000   0.0000   0.3036
  23.600   0.7766   0.27059   0.26716  -0.0625  0.0097  1.0000  -1.5321   0.0000   0.0000   0.0000   0.3040
  23.700   0.7789   0.27175   0.26832  -0.0631  0.0094  1.0000  -1.5273   0.0000   0.0000   0.0000   0.3043
  23.800   0.7811   0.27292   0.26949  -0.0637  0.0092  1.0000  -1.5251   0.0000   0.0000   0.0000   0.3047
  23.900   0.7834   0.27410   0.27067  -0.0643  0.0090  1.0000  -1.5249   0.0000   0.0000   0.0000   0.3050
  24.000   0.7856   0.27527   0.27185  -0.0649  0.0088  1.0000  -1.5263   0.0000   0.0000   0.0000   0.3054
  24.100   0.7879   0.27644   0.27302  -0.0655  0.0086  1.0000  -1.5292   0.0000   0.0000   0.0000   0.3057
  24.200   0.7901   0.27760   0.27418  -0.0661  0.0085  1.0000  -1.5333   0.0000   0.0000   0.0000   0.3061
  24.300   0.7923   0.27876   0.27534  -0.0667  0.0083  1.0000  -1.5387   0.0000   0.0000   0.0000   0.3064
  24.400   0.7946   0.27991   0.27649  -0.0673  0.0082  1.0000  -1.5453   0.0000   0.0000   0.0000   0.3067
  24.500   0.7968   0.28107   0.27772  -0.0679  0.0081  1.0000  -1.5494   0.0000   0.0000   0.0000   0.3071
  24.600   0.7990   0.28223   0.27888  -0.0684  0.0080  1.0000  -1.5561   0.0000   0.0000   0.0000   0.3074
  24.700   0.8012   0.28337   0.28002  -0.0690  0.0079  1.0000  -1.5648   0.0000   0.0000   0.0000   0.3077
  24.800   0.8034   0.28450   0.28116  -0.0696  0.0077  1.0000  -1.5750   0.0000   0.0000   0.0000   0.3080
  24.900   0.8056   0.28563   0.28229  -0.0702  0.0076  1.0000  -1.5865   0.0000   0.0000   0.0000   0.3083
  25.000   0.8078   0.28675   0.28341  -0.0708  0.0075  1.0000  -1.5996   0.0000   0.0000   0.0000   0.3086
  25.100   0.8101   0.28788   0.28454  -0.0714  0.0075  1.0000  -1.6141   0.0000   0.0000   0.0000   0.3089
  25.200   0.8123   0.28900   0.28566  -0.0720  0.0074  1.0000  -1.6302   0.0000   0.0000   0.0000   0.3091
  25.300   0.8146   0.29013   0.28680  -0.0726  0.0073  1.0000  -1.6482   0.0000   0.0000   0.0000   0.3094
  25.400   0.8169   0.29127   0.28794  -0.0732  0.0072  1.0000  -1.6680   0.0000   0.0000   0.0000   0.3096
  25.500   0.8192   0.29245   0.28911  -0.0737  0.0071  1.0000  -1.6900   0.0000   0.0000   0.0000   0.3099
  25.600   0.8216   0.29366   0.29033  -0.0743  0.0071  1.0000  -1.7145   0.0000   0.0000   0.0000   0.3101
  25.700   0.8242   0.29496   0.29163  -0.0749  0.0070  1.0000  -1.7423   0.0000   0.0000   0.0000   0.3102
  25.800   0.8270   0.29641   0.29308  -0.0754  0.0069  1.0000  -1.7743   0.0000   0.0000   0.0000   0.3103
  25.900   0.8302   0.29823   0.29492  -0.0759  0.0069  1.0000  -1.8137   0.0000   0.0000   0.0000   0.3103
  26.600   0.8437   0.30898   0.30566  -0.0801  0.0066  1.0000  -1.7447   0.0000   0.0000   0.0000   0.3126
  26.700   0.8449   0.30981   0.30649  -0.0807  0.0066  1.0000  -1.7262   0.0000   0.0000   0.0000   0.3130
  26.800   0.8461   0.31065   0.30732  -0.0814  0.0066  1.0000  -1.7075   0.0000   0.0000   0.0000   0.3135
  26.900   0.8473   0.31149   0.30817  -0.0821  0.0065  1.0000  -1.6885   0.0000   0.0000   0.0000   0.3139
  27.000   0.8486   0.31234   0.30902  -0.0827  0.0065  1.0000  -1.6684   0.0000   0.0000   0.0000   0.3144
  27.100   0.8499   0.31320   0.30988  -0.0834  0.0065  1.0000  -1.6465   0.0000   0.0000   0.0000   0.3148
  27.200   0.8514   0.31409   0.31077  -0.0840  0.0064  1.0000  -1.6213   0.0000   0.0000   0.0000   0.3152
  27.300   0.8530   0.31506   0.31174  -0.0847  0.0063  1.0000  -1.5920   0.0000   0.0000   0.0000   0.3156
  27.400   0.8550   0.31618   0.31287  -0.0853  0.0061  1.0000  -1.5669   0.0000   0.0000   0.0000   0.3159
  27.500   0.8571   0.31739   0.31408  -0.0859  0.0059  1.0000  -1.5538   0.0000   0.0000   0.0000   0.3162
  27.600   0.8590   0.31860   0.31529  -0.0865  0.0057  1.0000  -1.5484   0.0000   0.0000   0.0000   0.3164
  27.700   0.8610   0.31980   0.31649  -0.0871  0.0055  1.0000  -1.5469   0.0000   0.0000   0.0000   0.3167
  27.800   0.8629   0.32099   0.31768  -0.0876  0.0054  1.0000  -1.5480   0.0000   0.0000   0.0000   0.3170
  27.900   0.8648   0.32216   0.31886  -0.0883  0.0053  1.0000  -1.5508   0.0000   0.0000   0.0000   0.3172
  28.000   0.8667   0.32332   0.32002  -0.0889  0.0052  1.0000  -1.5551   0.0000   0.0000   0.0000   0.3175
  28.100   0.8685   0.32447   0.32117  -0.0895  0.0051  1.0000  -1.5608   0.0000   0.0000   0.0000   0.3177
  28.200   0.8704   0.32561   0.32231  -0.0901  0.0050  1.0000  -1.5678   0.0000   0.0000   0.0000   0.3180
  28.300   0.8722   0.32674   0.32344  -0.0907  0.0049  1.0000  -1.5760   0.0000   0.0000   0.0000   0.3182
  28.400   0.8740   0.32785   0.32456  -0.0913  0.0048  1.0000  -1.5855   0.0000   0.0000   0.0000   0.3185
  28.500   0.8758   0.32896   0.32567  -0.0919  0.0047  1.0000  -1.5964   0.0000   0.0000   0.0000   0.3187
  28.600   0.8776   0.33006   0.32678  -0.0925  0.0046  1.0000  -1.6087   0.0000   0.0000   0.0000   0.3190
  28.700   0.8794   0.33115   0.32787  -0.0931  0.0046  1.0000  -1.6225   0.0000   0.0000   0.0000   0.3192
  28.800   0.8811   0.33224   0.32896  -0.0938  0.0045  1.0000  -1.6377   0.0000   0.0000   0.0000   0.3194
  28.900   0.8829   0.33332   0.33004  -0.0944  0.0045  1.0000  -1.6547   0.0000   0.0000   0.0000   0.3197
  29.000   0.8846   0.33441   0.33113  -0.0950  0.0044  1.0000  -1.6735   0.0000   0.0000   0.0000   0.3199
  29.100   0.8864   0.33551   0.33224  -0.0956  0.0044  1.0000  -1.6943   0.0000   0.0000   0.0000   0.3201
  29.200   0.8882   0.33663   0.33336  -0.0962  0.0044  1.0000  -1.7177   0.0000   0.0000   0.0000   0.3203
  29.300   0.8900   0.33782   0.33455  -0.0968  0.0043  1.0000  -1.7441   0.0000   0.0000   0.0000   0.3205
  29.400   0.8919   0.33912   0.33585  -0.0974  0.0043  1.0000  -1.7748   0.0000   0.0000   0.0000   0.3206
  29.500   0.8942   0.34069   0.33743  -0.0979  0.0043  1.0000  -1.8128   0.0000   0.0000   0.0000   0.3207
  29.600   0.8966   0.34249   0.33921  -0.0985  0.0043  1.0000  -1.8401   0.0000   0.0000   0.0000   0.3207
  29.700   0.8980   0.34364   0.34036  -0.0991  0.0043  1.0000  -1.8296   0.0000   0.0000   0.0000   0.3210
  29.800   0.8994   0.34478   0.34151  -0.0997  0.0043  1.0000  -1.8196   0.0000   0.0000   0.0000   0.3213
  29.900   0.9009   0.34593   0.34266  -0.1003  0.0042  1.0000  -1.8099   0.0000   0.0000   0.0000   0.3216
  30.000   0.9023   0.34708   0.34381  -0.1009  0.0042  1.0000  -1.8006   0.0000   0.0000   0.0000   0.3218


