xflr5 v6.61

 Calculated polar for: NACA 65(1)-212 a=0.6

 1 1 Reynolds number fixed          Mach number fixed         

 xtrf =   1.000 (top)        1.000 (bottom)
 Mach =   0.000     Re =     0.625 e 6     Ncrit =   9.000

  alpha     CL        CD       CDp       Cm    Top Xtr Bot Xtr   Cpmin    Chinge    XCp    
 ------- -------- --------- --------- -------- ------- ------- -------- --------- ---------
 -10.000  -0.6095   0.03827   0.03510  -0.0740  0.9626  0.0082  -5.2999   0.0000   0.0000   0.0000   0.1192
  -9.900  -0.6297   0.03631   0.03299  -0.0713  0.9460  0.0080  -5.4760   0.0000   0.0000   0.0000   0.1277
  -9.800  -0.6460   0.03547   0.03204  -0.0675  0.9357  0.0080  -5.5656   0.0000   0.0000   0.0000   0.1365
  -9.700  -0.6650   0.03431   0.03075  -0.0633  0.9245  0.0079  -5.6990   0.0000   0.0000   0.0000   0.1460
  -9.600  -0.7040   0.03047   0.02647  -0.0567  0.9083  0.0076  -6.1640   0.0000   0.0000   0.0000   0.1607
  -9.500  -0.7315   0.02618   0.02165  -0.0518  0.8991  0.0074  -6.5831   0.0000   0.0000   0.0000   0.1705
  -9.400  -0.7343   0.02463   0.01990  -0.0499  0.8969  0.0074  -6.6233   0.0000   0.0000   0.0000   0.1734
  -9.300  -0.7326   0.02362   0.01875  -0.0486  0.8946  0.0074  -6.5933   0.0000   0.0000   0.0000   0.1751
  -9.200  -0.7291   0.02283   0.01785  -0.0476  0.8921  0.0075  -6.5337   0.0000   0.0000   0.0000   0.1762
  -9.100  -0.7245   0.02217   0.01710  -0.0467  0.8894  0.0076  -6.4575   0.0000   0.0000   0.0000   0.1772
  -9.000  -0.7192   0.02159   0.01645  -0.0459  0.8866  0.0077  -6.3705   0.0000   0.0000   0.0000   0.1779
  -8.900  -0.7134   0.02109   0.01587  -0.0451  0.8837  0.0078  -6.2757   0.0000   0.0000   0.0000   0.1785
  -8.800  -0.7072   0.02064   0.01535  -0.0444  0.8806  0.0079  -6.1748   0.0000   0.0000   0.0000   0.1791
  -8.700  -0.7006   0.02025   0.01490  -0.0438  0.8775  0.0080  -6.0687   0.0000   0.0000   0.0000   0.1795
  -8.600  -0.6936   0.01991   0.01450  -0.0431  0.8744  0.0081  -5.9578   0.0000   0.0000   0.0000   0.1799
  -8.500  -0.6864   0.01963   0.01417  -0.0426  0.8712  0.0083  -5.8424   0.0000   0.0000   0.0000   0.1802
  -8.400  -0.6787   0.01942   0.01391  -0.0420  0.8680  0.0084  -5.7228   0.0000   0.0000   0.0000   0.1804
  -8.300  -0.6707   0.01926   0.01371  -0.0415  0.8645  0.0085  -5.5992   0.0000   0.0000   0.0000   0.1804
  -8.200  -0.6623   0.01916   0.01358  -0.0411  0.8606  0.0086  -5.4716   0.0000   0.0000   0.0000   0.1803
  -8.000  -0.6510   0.01760   0.01182  -0.0397  0.8513  0.0094  -5.3293   0.0000   0.0000   0.0000   0.1816
  -7.900  -0.6425   0.01740   0.01163  -0.0394  0.8499  0.0096  -5.2088   0.0000   0.0000   0.0000   0.1813
  -7.800  -0.6331   0.01735   0.01159  -0.0393  0.8488  0.0098  -5.0753   0.0000   0.0000   0.0000   0.1808
  -7.700  -0.6235   0.01736   0.01163  -0.0392  0.8475  0.0100  -4.9371   0.0000   0.0000   0.0000   0.1801
  -7.600  -0.6138   0.01741   0.01170  -0.0391  0.8460  0.0102  -4.7964   0.0000   0.0000   0.0000   0.1794
  -7.500  -0.6039   0.01749   0.01181  -0.0390  0.8444  0.0105  -4.6535   0.0000   0.0000   0.0000   0.1785
  -7.400  -0.5940   0.01761   0.01195  -0.0389  0.8425  0.0107  -4.5070   0.0000   0.0000   0.0000   0.1777
  -7.300  -0.5839   0.01779   0.01216  -0.0389  0.8404  0.0111  -4.3513   0.0000   0.0000   0.0000   0.1767
  -7.200  -0.5705   0.01932   0.01385  -0.0394  0.8382  0.0125  -3.9834   0.0000   0.0000   0.0000   0.1744
  -7.100  -0.5609   0.01928   0.01379  -0.0392  0.8360  0.0128  -3.8815   0.0000   0.0000   0.0000   0.1736
  -7.000  -0.5513   0.01926   0.01375  -0.0390  0.8336  0.0130  -3.7810   0.0000   0.0000   0.0000   0.1728
  -6.900  -0.5416   0.01925   0.01373  -0.0388  0.8312  0.0132  -3.6812   0.0000   0.0000   0.0000   0.1719
  -6.800  -0.5319   0.01928   0.01374  -0.0387  0.8289  0.0134  -3.5812   0.0000   0.0000   0.0000   0.1710
  -6.700  -0.5220   0.01935   0.01379  -0.0385  0.8265  0.0135  -3.4804   0.0000   0.0000   0.0000   0.1700
  -6.600  -0.5121   0.01946   0.01389  -0.0384  0.8242  0.0137  -3.3777   0.0000   0.0000   0.0000   0.1689
  -6.500  -0.5020   0.01966   0.01407  -0.0383  0.8217  0.0138  -3.2708   0.0000   0.0000   0.0000   0.1677
  -6.400  -0.4950   0.01846   0.01275  -0.0377  0.8191  0.0141  -3.2754   0.0000   0.0000   0.0000   0.1677
  -6.300  -0.4881   0.01710   0.01125  -0.0372  0.8164  0.0145  -3.2996   0.0000   0.0000   0.0000   0.1678
  -6.200  -0.4800   0.01633   0.01040  -0.0368  0.8134  0.0149  -3.2800   0.0000   0.0000   0.0000   0.1674
  -6.100  -0.4713   0.01578   0.00980  -0.0365  0.8102  0.0151  -3.2435   0.0000   0.0000   0.0000   0.1667
  -6.000  -0.4623   0.01537   0.00933  -0.0362  0.8067  0.0154  -3.1980   0.0000   0.0000   0.0000   0.1658
  -5.900  -0.4530   0.01503   0.00896  -0.0360  0.8033  0.0157  -3.1467   0.0000   0.0000   0.0000   0.1646
  -5.800  -0.4435   0.01473   0.00864  -0.0359  0.8007  0.0159  -3.0917   0.0000   0.0000   0.0000   0.1633
  -5.700  -0.4339   0.01445   0.00834  -0.0357  0.8001  0.0161  -3.0342   0.0000   0.0000   0.0000   0.1620
  -5.600  -0.4243   0.01419   0.00807  -0.0355  0.7995  0.0163  -2.9754   0.0000   0.0000   0.0000   0.1605
  -5.500  -0.4146   0.01395   0.00781  -0.0353  0.7987  0.0165  -2.9165   0.0000   0.0000   0.0000   0.1590
  -5.400  -0.4049   0.01372   0.00756  -0.0352  0.7979  0.0167  -2.8599   0.0000   0.0000   0.0000   0.1574
  -5.300  -0.3954   0.01342   0.00722  -0.0349  0.7969  0.0165  -2.8278   0.0000   0.0000   0.0000   0.1559
  -5.200  -0.3856   0.01321   0.00700  -0.0348  0.7958  0.0167  -2.7672   0.0000   0.0000   0.0000   0.1541
  -5.100  -0.3757   0.01302   0.00680  -0.0347  0.7947  0.0170  -2.7047   0.0000   0.0000   0.0000   0.1521
  -5.000  -0.3657   0.01285   0.00663  -0.0345  0.7935  0.0173  -2.6403   0.0000   0.0000   0.0000   0.1499
  -4.900  -0.3557   0.01270   0.00647  -0.0345  0.7922  0.0176  -2.5739   0.0000   0.0000   0.0000   0.1475
  -4.800  -0.3455   0.01257   0.00634  -0.0344  0.7908  0.0180  -2.5049   0.0000   0.0000   0.0000   0.1449
  -4.700  -0.3352   0.01246   0.00623  -0.0343  0.7894  0.0185  -2.4317   0.0000   0.0000   0.0000   0.1420
  -4.600  -0.3197   0.01368   0.00753  -0.0356  0.7879  0.0234  -2.1295   0.0000   0.0000   0.0000   0.1330
  -4.500  -0.3100   0.01329   0.00710  -0.0354  0.7864  0.0233  -2.1027   0.0000   0.0000   0.0000   0.1304
  -4.400  -0.3004   0.01293   0.00671  -0.0351  0.7849  0.0233  -2.0750   0.0000   0.0000   0.0000   0.1276
  -4.300  -0.2909   0.01259   0.00634  -0.0348  0.7833  0.0233  -2.0465   0.0000   0.0000   0.0000   0.1247
  -4.200  -0.2815   0.01228   0.00600  -0.0345  0.7817  0.0233  -2.0172   0.0000   0.0000   0.0000   0.1217
  -4.100  -0.2720   0.01199   0.00567  -0.0343  0.7800  0.0233  -1.9871   0.0000   0.0000   0.0000   0.1184
  -4.000  -0.2625   0.01172   0.00536  -0.0340  0.7783  0.0234  -1.9562   0.0000   0.0000   0.0000   0.1149
  -3.900  -0.2529   0.01148   0.00508  -0.0337  0.7765  0.0235  -1.9245   0.0000   0.0000   0.0000   0.1110
  -3.800  -0.2433   0.01125   0.00481  -0.0335  0.7748  0.0237  -1.8918   0.0000   0.0000   0.0000   0.1067
  -3.700  -0.2335   0.01104   0.00456  -0.0333  0.7729  0.0239  -1.8581   0.0000   0.0000   0.0000   0.1018
  -3.600  -0.2236   0.01085   0.00433  -0.0331  0.7711  0.0242  -1.8231   0.0000   0.0000   0.0000   0.0963
  -3.500  -0.2136   0.01069   0.00413  -0.0329  0.7691  0.0245  -1.7865   0.0000   0.0000   0.0000   0.0900
  -3.400  -0.2033   0.01054   0.00395  -0.0328  0.7669  0.0249  -1.7480   0.0000   0.0000   0.0000   0.0828
  -3.300  -0.1930   0.01043   0.00380  -0.0327  0.7646  0.0253  -1.7067   0.0000   0.0000   0.0000   0.0744
  -3.200  -0.1824   0.01034   0.00369  -0.0327  0.7621  0.0257  -1.6621   0.0000   0.0000   0.0000   0.0647
  -3.100  -0.1717   0.01027   0.00361  -0.0327  0.7595  0.0261  -1.6142   0.0000   0.0000   0.0000   0.0534
  -3.000  -0.1608   0.01023   0.00357  -0.0327  0.7567  0.0264  -1.5636   0.0000   0.0000   0.0000   0.0401
  -2.900  -0.1515   0.00984   0.00300  -0.0323  0.7538  0.0334  -1.6037   0.0000   0.0000   0.0000   0.0301
  -2.800  -0.1408   0.00975   0.00288  -0.0323  0.7511  0.0391  -1.5722   0.0000   0.0000   0.0000   0.0136
  -2.700  -0.1299   0.00964   0.00278  -0.0323  0.7506  0.0435  -1.5246   0.0000   0.0000   0.0000  -0.0058
  -2.600  -0.1191   0.00954   0.00271  -0.0323  0.7501  0.0481  -1.4740   0.0000   0.0000   0.0000  -0.0291
  -2.500  -0.1085   0.00939   0.00262  -0.0323  0.7496  0.0654  -1.4240   0.0000   0.0000   0.0000  -0.0559
  -2.400  -0.0997   0.00893   0.00247  -0.0322  0.7489  0.1332  -1.3774   0.0000   0.0000   0.0000  -0.0813
  -2.300  -0.0910   0.00847   0.00233  -0.0321  0.7481  0.2225  -1.3296   0.0000   0.0000   0.0000  -0.1115
  -2.200  -0.0831   0.00788   0.00217  -0.0319  0.7472  0.3345  -1.2832   0.0000   0.0000   0.0000  -0.1440
  -2.100  -0.0754   0.00730   0.00204  -0.0317  0.7463  0.4574  -1.2368   0.0000   0.0000   0.0000  -0.1804
  -2.000  -0.0665   0.00698   0.00203  -0.0315  0.7453  0.5351  -1.1861   0.0000   0.0000   0.0000  -0.2346
  -1.900  -0.0559   0.00688   0.00203  -0.0314  0.7442  0.5632  -1.1316   0.0000   0.0000   0.0000  -0.3252
  -1.800  -0.0452   0.00680   0.00203  -0.0314  0.7432  0.5863  -1.0772   0.0000   0.0000   0.0000  -0.4598
  -1.700  -0.0339   0.00679   0.00202  -0.0315  0.7421  0.5976  -1.0218   0.0000   0.0000   0.0000  -0.6976
  -1.600  -0.0230   0.00673   0.00202  -0.0315  0.7410  0.6126  -0.9680   0.0000   0.0000   0.0000  -1.1434
  -1.500  -0.0124   0.00666   0.00204  -0.0314  0.7398  0.6292  -0.9152   0.0000   0.0000   0.0000  -2.3328
  -1.400  -0.0014   0.00664   0.00205  -0.0315  0.7386  0.6430  -0.8620   0.0000   0.0000   0.0000  -23.0584
  -1.300   0.0098   0.00663   0.00206  -0.0315  0.7374  0.6540  -0.8092   0.0000   0.0000   0.0000   3.5226
  -1.200   0.0202   0.00657   0.00208  -0.0314  0.7361  0.6710  -0.7588   0.0000   0.0000   0.0000   1.8260
  -1.100   0.0310   0.00655   0.00211  -0.0313  0.7348  0.6828  -0.7081   0.0000   0.0000   0.0000   1.2742
  -1.000   0.0421   0.00655   0.00213  -0.0313  0.7335  0.6905  -0.6573   0.0000   0.0000   0.0000   1.0027
  -0.900   0.0535   0.00656   0.00213  -0.0314  0.7322  0.6949  -0.6068   0.0000   0.0000   0.0000   0.8436
  -0.800   0.0649   0.00658   0.00213  -0.0315  0.7308  0.6976  -0.5569   0.0000   0.0000   0.0000   0.7402
  -0.700   0.0763   0.00659   0.00212  -0.0316  0.7295  0.6999  -0.5079   0.0000   0.0000   0.0000   0.6679
  -0.600   0.0875   0.00655   0.00211  -0.0316  0.7281  0.7056  -0.4603   0.0000   0.0000   0.0000   0.6149
  -0.500   0.0986   0.00653   0.00211  -0.0317  0.7267  0.7108  -0.4502   0.0000   0.0000   0.0000   0.5738
  -0.400   0.1095   0.00651   0.00212  -0.0317  0.7252  0.7168  -0.4550   0.0000   0.0000   0.0000   0.5411
  -0.300   0.1203   0.00649   0.00214  -0.0316  0.7237  0.7227  -0.4598   0.0000   0.0000   0.0000   0.5142
  -0.200   0.1311   0.00649   0.00216  -0.0316  0.7222  0.7285  -0.4646   0.0000   0.0000   0.0000   0.4916
  -0.100   0.1421   0.00650   0.00219  -0.0315  0.7205  0.7340  -0.4694   0.0000   0.0000   0.0000   0.4726
   0.000   0.1531   0.00652   0.00221  -0.0315  0.7188  0.7386  -0.4743   0.0000   0.0000   0.0000   0.4563
   0.100   0.1643   0.00655   0.00223  -0.0316  0.7168  0.7423  -0.4794   0.0000   0.0000   0.0000   0.4423
   0.200   0.1755   0.00658   0.00225  -0.0316  0.7145  0.7452  -0.4850   0.0000   0.0000   0.0000   0.4301
   0.300   0.1868   0.00662   0.00228  -0.0317  0.7120  0.7471  -0.4906   0.0000   0.0000   0.0000   0.4196
   0.400   0.1982   0.00667   0.00232  -0.0319  0.7090  0.7485  -0.4961   0.0000   0.0000   0.0000   0.4103
   0.500   0.2094   0.00670   0.00235  -0.0320  0.7058  0.7521  -0.5015   0.0000   0.0000   0.0000   0.4021
   0.600   0.2203   0.00673   0.00240  -0.0321  0.7025  0.7570  -0.5066   0.0000   0.0000   0.0000   0.3948
   0.700   0.2313   0.00673   0.00243  -0.0321  0.7010  0.7609  -0.5120   0.0000   0.0000   0.0000   0.3880
   0.800   0.2424   0.00669   0.00241  -0.0322  0.7006  0.7643  -0.5175   0.0000   0.0000   0.0000   0.3817
   0.900   0.2535   0.00667   0.00240  -0.0322  0.7001  0.7674  -0.5231   0.0000   0.0000   0.0000   0.3760
   1.000   0.2647   0.00665   0.00238  -0.0323  0.6997  0.7704  -0.5286   0.0000   0.0000   0.0000   0.3708
   1.100   0.2759   0.00663   0.00237  -0.0324  0.6991  0.7733  -0.5342   0.0000   0.0000   0.0000   0.3661
   1.200   0.2873   0.00660   0.00234  -0.0325  0.6984  0.7761  -0.5399   0.0000   0.0000   0.0000   0.3617
   1.300   0.2986   0.00657   0.00230  -0.0326  0.6973  0.7789  -0.5457   0.0000   0.0000   0.0000   0.3576
   1.400   0.3099   0.00653   0.00225  -0.0327  0.6958  0.7816  -0.5516   0.0000   0.0000   0.0000   0.3538
   1.500   0.3212   0.00648   0.00219  -0.0327  0.6936  0.7842  -0.5575   0.0000   0.0000   0.0000   0.3501
   1.600   0.3324   0.00641   0.00212  -0.0328  0.6904  0.7867  -0.5787   0.0000   0.0000   0.0000   0.3466
   1.700   0.3436   0.00635   0.00203  -0.0328  0.6861  0.7891  -0.6328   0.0000   0.0000   0.0000   0.3433
   1.800   0.3547   0.00629   0.00194  -0.0327  0.6809  0.7912  -0.6877   0.0000   0.0000   0.0000   0.3402
   1.900   0.3657   0.00624   0.00185  -0.0327  0.6747  0.7930  -0.7431   0.0000   0.0000   0.0000   0.3372
   2.000   0.3765   0.00623   0.00177  -0.0326  0.6675  0.7946  -0.7989   0.0000   0.0000   0.0000   0.3344
   2.100   0.3873   0.00625   0.00173  -0.0326  0.6593  0.7960  -0.8552   0.0000   0.0000   0.0000   0.3318
   2.200   0.3984   0.00630   0.00174  -0.0326  0.6511  0.7971  -0.9128   0.0000   0.0000   0.0000   0.3295
   2.300   0.4097   0.00626   0.00170  -0.0327  0.6493  0.7980  -0.9721   0.0000   0.0000   0.0000   0.3273
   2.400   0.4211   0.00623   0.00168  -0.0328  0.6467  0.7988  -1.0323   0.0000   0.0000   0.0000   0.3253
   2.500   0.4325   0.00620   0.00166  -0.0329  0.6431  0.8015  -1.0934   0.0000   0.0000   0.0000   0.3235
   2.600   0.4440   0.00619   0.00165  -0.0331  0.6374  0.8064  -1.1554   0.0000   0.0000   0.0000   0.3217
   2.700   0.4551   0.00618   0.00162  -0.0331  0.6281  0.8115  -1.2174   0.0000   0.0000   0.0000   0.3200
   2.800   0.4658   0.00622   0.00158  -0.0331  0.6154  0.8168  -1.2789   0.0000   0.0000   0.0000   0.3181
   2.900   0.4762   0.00628   0.00158  -0.0330  0.6008  0.8221  -1.3402   0.0000   0.0000   0.0000   0.3164
   3.000   0.4874   0.00628   0.00160  -0.0331  0.5950  0.8275  -1.4044   0.0000   0.0000   0.0000   0.3149
   3.100   0.4983   0.00630   0.00163  -0.0331  0.5873  0.8331  -1.4685   0.0000   0.0000   0.0000   0.3134
   3.200   0.5087   0.00633   0.00168  -0.0330  0.5771  0.8387  -1.5317   0.0000   0.0000   0.0000   0.3117
   3.300   0.5180   0.00643   0.00175  -0.0327  0.5612  0.8446  -1.5921   0.0000   0.0000   0.0000   0.3097
   3.400   0.5262   0.00656   0.00189  -0.0320  0.5471  0.8490  -1.6502   0.0000   0.0000   0.0000   0.3074
   3.500   0.5338   0.00672   0.00210  -0.0311  0.5334  0.8510  -1.7072   0.0000   0.0000   0.0000   0.3047
   3.600   0.5405   0.00699   0.00225  -0.0302  0.5000  0.8550  -1.7616   0.0000   0.0000   0.0000   0.3022
   3.700   0.5457   0.00739   0.00244  -0.0291  0.4453  0.8590  -1.8113   0.0000   0.0000   0.0000   0.2995
   3.800   0.5481   0.00801   0.00274  -0.0276  0.3662  0.8628  -1.8519   0.0000   0.0000   0.0000   0.2965
   3.900   0.5505   0.00860   0.00305  -0.0262  0.2982  0.8665  -1.8922   0.0000   0.0000   0.0000   0.2936
   4.000   0.5538   0.00906   0.00329  -0.0248  0.2448  0.8700  -1.9354   0.0000   0.0000   0.0000   0.2908
   4.100   0.5568   0.00948   0.00352  -0.0234  0.1957  0.8735  -1.9775   0.0000   0.0000   0.0000   0.2879
   4.200   0.5595   0.00989   0.00373  -0.0219  0.1511  0.8770  -2.0183   0.0000   0.0000   0.0000   0.2849
   4.500   0.5841   0.01134   0.00447  -0.0221  0.0260  0.8973  -2.1342   0.0000   0.0000   0.0000   0.2834
   4.600   0.5914   0.01154   0.00471  -0.0213  0.0228  0.8987  -2.1590   0.0000   0.0000   0.0000   0.2815
   4.700   0.5992   0.01169   0.00488  -0.0207  0.0219  0.8998  -2.2064   0.0000   0.0000   0.0000   0.2799
   4.800   0.6079   0.01180   0.00501  -0.0203  0.0209  0.9022  -2.2503   0.0000   0.0000   0.0000   0.2787
   4.900   0.6162   0.01193   0.00516  -0.0199  0.0201  0.9045  -2.2922   0.0000   0.0000   0.0000   0.2775
   5.000   0.6243   0.01206   0.00532  -0.0194  0.0195  0.9069  -2.3333   0.0000   0.0000   0.0000   0.2762
   5.100   0.6319   0.01221   0.00550  -0.0188  0.0191  0.9092  -2.3737   0.0000   0.0000   0.0000   0.2748
   5.200   0.6392   0.01236   0.00568  -0.0181  0.0188  0.9116  -2.4134   0.0000   0.0000   0.0000   0.2733
   5.300   0.6460   0.01252   0.00587  -0.0174  0.0185  0.9139  -2.4520   0.0000   0.0000   0.0000   0.2718
   5.400   0.6523   0.01269   0.00608  -0.0165  0.0183  0.9161  -2.4894   0.0000   0.0000   0.0000   0.2701
   5.500   0.6579   0.01287   0.00629  -0.0155  0.0181  0.9184  -2.5252   0.0000   0.0000   0.0000   0.2683
   5.600   0.6629   0.01305   0.00651  -0.0144  0.0180  0.9205  -2.5592   0.0000   0.0000   0.0000   0.2663
   5.700   0.6672   0.01324   0.00674  -0.0131  0.0179  0.9226  -2.5915   0.0000   0.0000   0.0000   0.2642
   5.800   0.6709   0.01343   0.00697  -0.0118  0.0179  0.9247  -2.6221   0.0000   0.0000   0.0000   0.2620
   5.900   0.6739   0.01362   0.00720  -0.0103  0.0178  0.9267  -2.6510   0.0000   0.0000   0.0000   0.2596
   6.000   0.6761   0.01382   0.00744  -0.0086  0.0178  0.9286  -2.6779   0.0000   0.0000   0.0000   0.2570
   6.100   0.6757   0.01398   0.00763  -0.0064  0.0178  0.9305  -2.6987   0.0000   0.0000   0.0000   0.2537
   6.200   0.6745   0.01414   0.00783  -0.0041  0.0178  0.9324  -2.7176   0.0000   0.0000   0.0000   0.2502
   6.300   0.6741   0.01434   0.00807  -0.0020  0.0177  0.9341  -2.7379   0.0000   0.0000   0.0000   0.2469
   6.400   0.6744   0.01456   0.00832  -0.0000  0.0177  0.9357  -2.7593   0.0000   0.0000   0.0000   0.2439
   6.500   0.6745   0.01480   0.00860   0.0019  0.0178  0.9373  -2.7798   0.0000   0.0000   0.0000   0.2409
   6.600   0.6699   0.01533   0.00939   0.0048  0.0180  0.9388  -2.7653   0.0000   0.0000   0.0000   0.2365
   6.700   0.6886   0.01478   0.00869   0.0030  0.0149  0.9396  -3.0281   0.0000   0.0000   0.0000   0.2391
   6.800   0.6918   0.01493   0.00883   0.0043  0.0143  0.9408  -3.0913   0.0000   0.0000   0.0000   0.2372
   6.900   0.6939   0.01515   0.00908   0.0058  0.0140  0.9420  -3.1329   0.0000   0.0000   0.0000   0.2350
   7.000   0.6961   0.01539   0.00934   0.0072  0.0138  0.9431  -3.1723   0.0000   0.0000   0.0000   0.2328
   7.100   0.6985   0.01565   0.00962   0.0086  0.0136  0.9441  -3.2111   0.0000   0.0000   0.0000   0.2308
   7.200   0.7011   0.01591   0.00991   0.0100  0.0135  0.9450  -3.2494   0.0000   0.0000   0.0000   0.2288
   7.300   0.7034   0.01619   0.01021   0.0113  0.0133  0.9459  -3.2862   0.0000   0.0000   0.0000   0.2268
   7.400   0.7052   0.01649   0.01055   0.0128  0.0132  0.9469  -3.3210   0.0000   0.0000   0.0000   0.2247
   7.500   0.7073   0.01679   0.01088   0.0141  0.0130  0.9478  -3.3560   0.0000   0.0000   0.0000   0.2227
   7.600   0.7100   0.01710   0.01122   0.0154  0.0129  0.9486  -3.3919   0.0000   0.0000   0.0000   0.2209
   7.700   0.7130   0.01742   0.01156   0.0166  0.0128  0.9493  -3.4288   0.0000   0.0000   0.0000   0.2191
   7.900   0.7219   0.01810   0.01230   0.0185  0.0126  0.9513  -3.5086   0.0000   0.0000   0.0000   0.2166
   8.000   0.7276   0.01847   0.01269   0.0192  0.0125  0.9526  -3.5510   0.0000   0.0000   0.0000   0.2158
   8.100   0.7338   0.01886   0.01311   0.0198  0.0124  0.9537  -3.5941   0.0000   0.0000   0.0000   0.2151
   8.200   0.7406   0.01927   0.01355   0.0203  0.0123  0.9548  -3.6379   0.0000   0.0000   0.0000   0.2146
   8.300   0.7480   0.01972   0.01403   0.0207  0.0122  0.9557  -3.6822   0.0000   0.0000   0.0000   0.2142
   8.400   0.7563   0.02020   0.01456   0.0210  0.0121  0.9565  -3.7270   0.0000   0.0000   0.0000   0.2140
   8.500   0.7657   0.02075   0.01514   0.0211  0.0120  0.9571  -3.7723   0.0000   0.0000   0.0000   0.2141
   8.600   0.7767   0.02139   0.01583   0.0210  0.0119  0.9577  -3.8180   0.0000   0.0000   0.0000   0.2146
   8.700   0.7901   0.02219   0.01668   0.0205  0.0117  0.9581  -3.8636   0.0000   0.0000   0.0000   0.2156
   8.800   0.8042   0.02320   0.01776   0.0198  0.0116  0.9585  -3.9018   0.0000   0.0000   0.0000   0.2169
   8.900   0.8206   0.02461   0.01927   0.0186  0.0114  0.9588  -3.9276   0.0000   0.0000   0.0000   0.2187
   9.000   0.8371   0.02634   0.02112   0.0173  0.0113  0.9590  -3.9422   0.0000   0.0000   0.0000   0.2207
   9.100   0.8384   0.02632   0.02112   0.0187  0.0112  0.9600  -4.0067   0.0000   0.0000   0.0000   0.2189
   9.200   0.8409   0.02638   0.02120   0.0198  0.0112  0.9609  -4.0713   0.0000   0.0000   0.0000   0.2174
   9.300   0.8441   0.02650   0.02134   0.0209  0.0111  0.9617  -4.1367   0.0000   0.0000   0.0000   0.2162
   9.400   0.8478   0.02665   0.02151   0.0218  0.0111  0.9625  -4.2023   0.0000   0.0000   0.0000   0.2151
   9.500   0.8391   0.02485   0.01963   0.0247  0.0107  0.9640  -4.4049   0.0000   0.0000   0.0000   0.2112
   9.600   0.8412   0.02460   0.01937   0.0257  0.0104  0.9649  -4.5210   0.0000   0.0000   0.0000   0.2099
   9.700   0.8456   0.02466   0.01943   0.0264  0.0102  0.9656  -4.6159   0.0000   0.0000   0.0000   0.2090
   9.800   0.8506   0.02481   0.01959   0.0271  0.0100  0.9663  -4.7034   0.0000   0.0000   0.0000   0.2084
   9.900   0.8559   0.02501   0.01981   0.0276  0.0098  0.9672  -4.7877   0.0000   0.0000   0.0000   0.2078
  10.000   0.8611   0.02524   0.02006   0.0282  0.0097  0.9682  -4.8693   0.0000   0.0000   0.0000   0.2072
  10.100   0.8660   0.02549   0.02033   0.0287  0.0095  0.9692  -4.9482   0.0000   0.0000   0.0000   0.2066
  10.200   0.8708   0.02576   0.02062   0.0293  0.0094  0.9701  -5.0262   0.0000   0.0000   0.0000   0.2060
  10.300   0.8755   0.02603   0.02091   0.0299  0.0093  0.9709  -5.1040   0.0000   0.0000   0.0000   0.2054
  10.400   0.8801   0.02630   0.02120   0.0304  0.0092  0.9716  -5.1824   0.0000   0.0000   0.0000   0.2048
  10.500   0.8847   0.02657   0.02149   0.0310  0.0090  0.9721  -5.2616   0.0000   0.0000   0.0000   0.2042
  10.600   0.8892   0.02684   0.02178   0.0316  0.0089  0.9726  -5.3415   0.0000   0.0000   0.0000   0.2036
  10.700   0.8939   0.02712   0.02208   0.0321  0.0088  0.9733  -5.4231   0.0000   0.0000   0.0000   0.2030
  10.800   0.8988   0.02740   0.02238   0.0326  0.0087  0.9742  -5.5077   0.0000   0.0000   0.0000   0.2025
  10.900   0.9040   0.02769   0.02269   0.0330  0.0086  0.9754  -5.5957   0.0000   0.0000   0.0000   0.2022
  11.000   0.9095   0.02798   0.02300   0.0332  0.0085  0.9769  -5.6879   0.0000   0.0000   0.0000   0.2020
  11.100   0.9151   0.02828   0.02332   0.0335  0.0083  0.9785  -5.7816   0.0000   0.0000   0.0000   0.2018
  11.200   0.9202   0.02860   0.02365   0.0337  0.0082  0.9801  -5.8741   0.0000   0.0000   0.0000   0.2015
  11.300   0.9250   0.02892   0.02399   0.0340  0.0081  0.9817  -5.9672   0.0000   0.0000   0.0000   0.2013
  11.400   0.9299   0.02924   0.02432   0.0342  0.0081  0.9830  -6.0619   0.0000   0.0000   0.0000   0.2010
  11.500   0.9347   0.02955   0.02464   0.0345  0.0080  0.9842  -6.1579   0.0000   0.0000   0.0000   0.2008
  11.600   0.9392   0.02985   0.02496   0.0349  0.0079  0.9851  -6.2538   0.0000   0.0000   0.0000   0.2004
  11.700   0.9434   0.03014   0.02526   0.0353  0.0078  0.9857  -6.3483   0.0000   0.0000   0.0000   0.2000
  11.800   0.9470   0.03044   0.02556   0.0358  0.0077  0.9859  -6.4402   0.0000   0.0000   0.0000   0.1994
  11.900   0.9503   0.03073   0.02587   0.0363  0.0076  0.9861  -6.5310   0.0000   0.0000   0.0000   0.1988
  12.000   0.9535   0.03104   0.02618   0.0369  0.0076  0.9862  -6.6215   0.0000   0.0000   0.0000   0.1982
  12.100   0.9560   0.03140   0.02655   0.0375  0.0075  0.9863  -6.7065   0.0000   0.0000   0.0000   0.1975
  12.200   0.9578   0.03179   0.02695   0.0381  0.0074  0.9865  -6.7864   0.0000   0.0000   0.0000   0.1968
  12.300   0.9597   0.03220   0.02738   0.0387  0.0073  0.9866  -6.8660   0.0000   0.0000   0.0000   0.1961
  12.400   0.9617   0.03263   0.02782   0.0393  0.0073  0.9867  -6.9450   0.0000   0.0000   0.0000   0.1954
  12.500   0.9636   0.03310   0.02831   0.0399  0.0072  0.9868  -7.0205   0.0000   0.0000   0.0000   0.1947
  12.600   0.9651   0.03365   0.02888   0.0404  0.0071  0.9869  -7.0881   0.0000   0.0000   0.0000   0.1940
  12.700   0.9655   0.03435   0.02962   0.0411  0.0069  0.9871  -7.1393   0.0000   0.0000   0.0000   0.1932
  12.800   0.9630   0.03547   0.03082   0.0419  0.0067  0.9872  -7.1449   0.0000   0.0000   0.0000   0.1920
  12.900   0.9488   0.03813   0.03370   0.0434  0.0064  0.9873  -6.9839   0.0000   0.0000   0.0000   0.1897
  13.000   0.9509   0.03854   0.03413   0.0438  0.0064  0.9874  -7.0700   0.0000   0.0000   0.0000   0.1892
  13.100   0.9522   0.03901   0.03463   0.0443  0.0064  0.9875  -7.1500   0.0000   0.0000   0.0000   0.1886
  13.200   0.9539   0.03948   0.03512   0.0447  0.0063  0.9876  -7.2326   0.0000   0.0000   0.0000   0.1880
  13.300   0.9560   0.03994   0.03561   0.0451  0.0063  0.9877  -7.3188   0.0000   0.0000   0.0000   0.1875
  13.400   0.9583   0.04041   0.03610   0.0454  0.0063  0.9879  -7.4068   0.0000   0.0000   0.0000   0.1871
  13.500   0.9607   0.04089   0.03661   0.0458  0.0062  0.9880  -7.4955   0.0000   0.0000   0.0000   0.1867
  13.600   0.9630   0.04139   0.03713   0.0461  0.0062  0.9881  -7.5836   0.0000   0.0000   0.0000   0.1863
  13.700   0.9652   0.04192   0.03768   0.0464  0.0062  0.9882  -7.6705   0.0000   0.0000   0.0000   0.1859
  13.800   0.9672   0.04248   0.03826   0.0467  0.0061  0.9884  -7.7554   0.0000   0.0000   0.0000   0.1855
  14.000   0.9603   0.04475   0.04074   0.0476  0.0062  0.9886  -7.7382   0.0000   0.0000   0.0000   0.1838
  14.100   0.9580   0.04578   0.04183   0.0479  0.0062  0.9887  -7.7539   0.0000   0.0000   0.0000   0.1832
  14.200   0.9574   0.04665   0.04274   0.0482  0.0061  0.9889  -7.7985   0.0000   0.0000   0.0000   0.1827
  14.300   0.9576   0.04745   0.04359   0.0484  0.0061  0.9890  -7.8568   0.0000   0.0000   0.0000   0.1823
  14.400   0.9581   0.04824   0.04441   0.0486  0.0061  0.9891  -7.9213   0.0000   0.0000   0.0000   0.1819
  14.500   0.9586   0.04903   0.04524   0.0487  0.0060  0.9893  -7.9877   0.0000   0.0000   0.0000   0.1816
  14.600   0.9587   0.04985   0.04610   0.0489  0.0060  0.9894  -8.0521   0.0000   0.0000   0.0000   0.1813
  14.700   0.9568   0.05086   0.04715   0.0490  0.0059  0.9895  -8.0972   0.0000   0.0000   0.0000   0.1809
  14.800   0.9548   0.05192   0.04825   0.0490  0.0059  0.9897  -8.1411   0.0000   0.0000   0.0000   0.1805
  14.900   0.9536   0.05295   0.04932   0.0490  0.0058  0.9898  -8.1921   0.0000   0.0000   0.0000   0.1802
  15.000   0.9526   0.05399   0.05040   0.0490  0.0058  0.9900  -8.2449   0.0000   0.0000   0.0000   0.1800
  15.100   0.9515   0.05507   0.05152   0.0490  0.0057  0.9901  -8.2961   0.0000   0.0000   0.0000   0.1798
  15.200   0.9501   0.05620   0.05271   0.0489  0.0057  0.9903  -8.3432   0.0000   0.0000   0.0000   0.1796
  15.300   0.9477   0.05748   0.05403   0.0487  0.0056  0.9904  -8.3786   0.0000   0.0000   0.0000   0.1794
  15.400   0.9431   0.05903   0.05563   0.0484  0.0056  0.9906  -8.3896   0.0000   0.0000   0.0000   0.1792
  15.500   0.9396   0.06050   0.05715   0.0481  0.0056  0.9907  -8.4104   0.0000   0.0000   0.0000   0.1791
  15.600   0.9365   0.06196   0.05866   0.0478  0.0055  0.9909  -8.4351   0.0000   0.0000   0.0000   0.1791
  15.700   0.9334   0.06348   0.06023   0.0474  0.0055  0.9911  -8.4574   0.0000   0.0000   0.0000   0.1791
  15.800   0.9296   0.06512   0.06192   0.0469  0.0054  0.9912  -8.4705   0.0000   0.0000   0.0000   0.1792
  15.900   0.9229   0.06719   0.06405   0.0462  0.0054  0.9914  -8.4463   0.0000   0.0000   0.0000   0.1794
  16.000   0.9173   0.06917   0.06609   0.0455  0.0054  0.9916  -8.4336   0.0000   0.0000   0.0000   0.1797
  16.100   0.9122   0.07114   0.06812   0.0447  0.0054  0.9917  -8.4230   0.0000   0.0000   0.0000   0.1800
  16.200   0.9061   0.07335   0.07038   0.0438  0.0054  0.9919  -8.3968   0.0000   0.0000   0.0000   0.1805
  16.300   0.8971   0.07607   0.07318   0.0425  0.0054  0.9921  -8.3299   0.0000   0.0000   0.0000   0.1812
  16.400   0.8896   0.07864   0.07581   0.0413  0.0054  0.9922  -8.2781   0.0000   0.0000   0.0000   0.1820
  16.500   0.8805   0.08159   0.07883   0.0397  0.0054  0.9924  -8.1990   0.0000   0.0000   0.0000   0.1830
  16.600   0.8690   0.08510   0.08242   0.0378  0.0054  0.9925  -8.0782   0.0000   0.0000   0.0000   0.1844
  16.700   0.8566   0.08892   0.08632   0.0356  0.0054  0.9926  -7.9363   0.0000   0.0000   0.0000   0.1861
  16.800   0.8408   0.09369   0.09118   0.0328  0.0055  0.9927  -7.7308   0.0000   0.0000   0.0000   0.1885
  16.900   0.8189   0.10016   0.09777   0.0290  0.0055  0.9927  -7.4096   0.0000   0.0000   0.0000   0.1921
  17.000   0.7906   0.10885   0.10657   0.0239  0.0056  0.9926  -6.9683   0.0000   0.0000   0.0000   0.1973


