xflr5 v6.61

 Calculated polar for: NACA 23012  12%

 1 1 Reynolds number fixed          Mach number fixed         

 xtrf =   1.000 (top)        1.000 (bottom)
 Mach =   0.000     Re =     0.200 e 6     Ncrit =   9.000

  alpha     CL        CD       CDp       Cm    Top Xtr Bot Xtr   Cpmin    Chinge    XCp    
 ------- -------- --------- --------- -------- ------- ------- -------- --------- ---------
 -10.000  -0.5309   0.09656   0.09287  -0.0107  1.0000  0.0611  -1.8516   0.0000   0.0000   0.0000   0.2212
  -9.900  -0.5313   0.09487   0.09118  -0.0117  1.0000  0.0621  -1.8537   0.0000   0.0000   0.0000   0.2194
  -9.800  -0.5321   0.09306   0.08938  -0.0129  1.0000  0.0630  -1.8609   0.0000   0.0000   0.0000   0.2173
  -9.700  -0.5335   0.09111   0.08745  -0.0143  1.0000  0.0638  -1.8737   0.0000   0.0000   0.0000   0.2149
  -9.600  -0.5355   0.08901   0.08536  -0.0159  1.0000  0.0646  -1.8928   0.0000   0.0000   0.0000   0.2121
  -9.500  -0.5384   0.08669   0.08306  -0.0179  1.0000  0.0654  -1.9201   0.0000   0.0000   0.0000   0.2088
  -9.400  -0.5426   0.08402   0.08040  -0.0204  1.0000  0.0660  -1.9597   0.0000   0.0000   0.0000   0.2045
  -9.300  -0.5496   0.08069   0.07707  -0.0240  1.0000  0.0662  -2.0208   0.0000   0.0000   0.0000   0.1987
  -9.200  -0.5579   0.07765   0.07401  -0.0271  1.0000  0.0663  -2.0792   0.0000   0.0000   0.0000   0.1940
  -9.100  -0.5663   0.07528   0.07162  -0.0289  1.0000  0.0665  -2.1247   0.0000   0.0000   0.0000   0.1916
  -9.000  -0.5748   0.07335   0.06966  -0.0299  1.0000  0.0667  -2.1618   0.0000   0.0000   0.0000   0.1909
  -8.900  -0.5830   0.07174   0.06801  -0.0301  1.0000  0.0671  -2.1926   0.0000   0.0000   0.0000   0.1914
  -8.800  -0.5900   0.07031   0.06653  -0.0301  1.0000  0.0676  -2.2185   0.0000   0.0000   0.0000   0.1922
  -8.700  -0.5956   0.06904   0.06519  -0.0302  1.0000  0.0684  -2.2402   0.0000   0.0000   0.0000   0.1927
  -8.600  -0.5976   0.06863   0.06470  -0.0300  1.0000  0.0698  -2.2434   0.0000   0.0000   0.0000   0.1933
  -8.500  -0.5959   0.06972   0.06568  -0.0292  1.0000  0.0713  -2.2181   0.0000   0.0000   0.0000   0.1946
  -8.400  -0.5959   0.06974   0.06561  -0.0286  1.0000  0.0718  -2.2007   0.0000   0.0000   0.0000   0.1958
  -8.300  -0.5959   0.06916   0.06496  -0.0280  1.0000  0.0721  -2.1868   0.0000   0.0000   0.0000   0.1968
  -8.200  -0.5957   0.06835   0.06408  -0.0274  1.0000  0.0722  -2.1731   0.0000   0.0000   0.0000   0.1978
  -8.100  -0.5951   0.06740   0.06307  -0.0268  1.0000  0.0723  -2.1589   0.0000   0.0000   0.0000   0.1989
  -8.000  -0.5944   0.06638   0.06199  -0.0262  1.0000  0.0724  -2.1440   0.0000   0.0000   0.0000   0.1999
  -7.900  -0.5935   0.06534   0.06089  -0.0256  1.0000  0.0724  -2.1282   0.0000   0.0000   0.0000   0.2010
  -7.800  -0.5924   0.06429   0.05977  -0.0249  1.0000  0.0725  -2.1113   0.0000   0.0000   0.0000   0.2021
  -7.700  -0.5910   0.06322   0.05865  -0.0241  1.0000  0.0725  -2.0935   0.0000   0.0000   0.0000   0.2033
  -7.600  -0.5895   0.06216   0.05752  -0.0234  1.0000  0.0726  -2.0754   0.0000   0.0000   0.0000   0.2046
  -7.500  -0.5879   0.06109   0.05640  -0.0226  1.0000  0.0726  -2.0712   0.0000   0.0000   0.0000   0.2059
  -7.400  -0.6160   0.05262   0.04773  -0.0215  1.0000  0.0746  -2.2322   0.0000   0.0000   0.0000   0.2095
  -7.300  -0.6173   0.05003   0.04511  -0.0209  1.0000  0.0756  -2.2386   0.0000   0.0000   0.0000   0.2106
  -7.200  -0.6152   0.04844   0.04349  -0.0202  1.0000  0.0764  -2.2268   0.0000   0.0000   0.0000   0.2117
  -7.100  -0.6121   0.04716   0.04219  -0.0194  1.0000  0.0770  -2.2094   0.0000   0.0000   0.0000   0.2128
  -7.000  -0.6075   0.04605   0.04109  -0.0188  1.0000  0.0776  -2.1856   0.0000   0.0000   0.0000   0.2137
  -6.900  -0.6031   0.04504   0.04008  -0.0181  1.0000  0.0781  -2.1622   0.0000   0.0000   0.0000   0.2147
  -6.800  -0.5988   0.04409   0.03913  -0.0173  1.0000  0.0787  -2.1393   0.0000   0.0000   0.0000   0.2158
  -6.700  -0.5945   0.04320   0.03821  -0.0165  1.0000  0.0793  -2.1169   0.0000   0.0000   0.0000   0.2170
  -6.600  -0.5903   0.04234   0.03734  -0.0157  1.0000  0.0799  -2.0952   0.0000   0.0000   0.0000   0.2183
  -6.500  -0.5861   0.04151   0.03649  -0.0148  1.0000  0.0805  -2.0742   0.0000   0.0000   0.0000   0.2196
  -6.400  -0.5819   0.04071   0.03566  -0.0139  1.0000  0.0812  -2.0538   0.0000   0.0000   0.0000   0.2210
  -6.300  -0.5777   0.03993   0.03484  -0.0130  1.0000  0.0819  -2.0341   0.0000   0.0000   0.0000   0.2225
  -6.200  -0.5735   0.03917   0.03405  -0.0121  1.0000  0.0826  -2.0150   0.0000   0.0000   0.0000   0.2240
  -6.100  -0.5692   0.03843   0.03326  -0.0111  1.0000  0.0834  -1.9966   0.0000   0.0000   0.0000   0.2256
  -5.700  -0.5525   0.03070   0.02411  -0.0036  1.0000  0.0521  -2.3539   0.0000   0.0000   0.0000   0.2384
  -5.600  -0.5444   0.03093   0.02431  -0.0028  1.0000  0.0513  -2.3176   0.0000   0.0000   0.0000   0.2398
  -5.400  -0.5303   0.02891   0.02222  -0.0013  1.0000  0.0480  -2.3063   0.0000   0.0000   0.0000   0.2425
  -5.300  -0.5248   0.02763   0.02082  -0.0004  1.0000  0.0474  -2.3135   0.0000   0.0000   0.0000   0.2442
  -5.200  -0.5187   0.02659   0.01969   0.0004  1.0000  0.0469  -2.3135   0.0000   0.0000   0.0000   0.2459
  -5.100  -0.5120   0.02569   0.01869   0.0012  1.0000  0.0466  -2.3104   0.0000   0.0000   0.0000   0.2474
  -5.000  -0.5050   0.02492   0.01782   0.0019  1.0000  0.0464  -2.3064   0.0000   0.0000   0.0000   0.2490
  -4.900  -0.4975   0.02406   0.01672   0.0027  1.0000  0.0463  -2.3127   0.0000   0.0000   0.0000   0.2505
  -4.800  -0.4899   0.02333   0.01591   0.0033  1.0000  0.0461  -2.3043   0.0000   0.0000   0.0000   0.2520
  -4.700  -0.4820   0.02264   0.01515   0.0040  1.0000  0.0461  -2.2945   0.0000   0.0000   0.0000   0.2534
  -4.600  -0.4739   0.02200   0.01444   0.0046  1.0000  0.0462  -2.2836   0.0000   0.0000   0.0000   0.2549
  -4.500  -0.4657   0.02142   0.01379   0.0051  1.0000  0.0464  -2.2716   0.0000   0.0000   0.0000   0.2563
  -4.400  -0.4573   0.02088   0.01320   0.0057  1.0000  0.0467  -2.2588   0.0000   0.0000   0.0000   0.2578
  -4.300  -0.4411   0.02025   0.01250   0.0048  0.9985  0.0474  -2.2371   0.0000   0.0000   0.0000   0.2562
  -4.200  -0.4236   0.01978   0.01197   0.0037  0.9968  0.0485  -2.2088   0.0000   0.0000   0.0000   0.2540
  -4.100  -0.4055   0.01966   0.01181   0.0024  0.9944  0.0496  -2.1653   0.0000   0.0000   0.0000   0.2512
  -4.000  -0.3938   0.01759   0.00973   0.0023  0.9936  0.0569  -2.2170   0.0000   0.0000   0.0000   0.2509
  -3.900  -0.3765   0.01739   0.00958   0.0009  0.9914  0.0609  -2.1560   0.0000   0.0000   0.0000   0.2475
  -3.800  -0.3589   0.01721   0.00940  -0.0005  0.9896  0.0642  -2.0950   0.0000   0.0000   0.0000   0.2438
  -3.700  -0.3426   0.01699   0.00918  -0.0016  0.9869  0.0667  -2.0361   0.0000   0.0000   0.0000   0.2406
  -3.600  -0.3261   0.01678   0.00895  -0.0026  0.9839  0.0686  -1.9754   0.0000   0.0000   0.0000   0.2370
  -3.500  -0.3085   0.01658   0.00874  -0.0039  0.9811  0.0702  -1.9114   0.0000   0.0000   0.0000   0.2323
  -3.400  -0.2900   0.01643   0.00859  -0.0054  0.9787  0.0717  -1.8423   0.0000   0.0000   0.0000   0.2263
  -3.300  -0.2721   0.01603   0.00819  -0.0068  0.9767  0.0746  -1.7806   0.0000   0.0000   0.0000   0.2197
  -3.200  -0.2574   0.01538   0.00758  -0.0076  0.9740  0.0797  -1.7332   0.0000   0.0000   0.0000   0.2150
  -3.100  -0.2435   0.01506   0.00729  -0.0082  0.9696  0.0833  -1.6781   0.0000   0.0000   0.0000   0.2108
  -3.000  -0.2275   0.01476   0.00701  -0.0092  0.9661  0.0867  -1.6212   0.0000   0.0000   0.0000   0.2040
  -2.900  -0.2100   0.01446   0.00671  -0.0105  0.9630  0.0912  -1.5633   0.0000   0.0000   0.0000   0.1945
  -2.800  -0.1904   0.01419   0.00643  -0.0121  0.9604  0.0966  -1.5006   0.0000   0.0000   0.0000   0.1807
  -2.700  -0.1698   0.01381   0.00602  -0.0139  0.9581  0.1043  -1.4394   0.0000   0.0000   0.0000   0.1620
  -2.600  -0.1553   0.01341   0.00567  -0.0145  0.9529  0.1163  -1.3893   0.0000   0.0000   0.0000   0.1504
  -2.500  -0.1411   0.01311   0.00540  -0.0149  0.9468  0.1283  -1.3360   0.0000   0.0000   0.0000   0.1374
  -2.400  -0.1314   0.01186   0.00501  -0.0152  0.9418  0.3062  -1.2993   0.0000   0.0000   0.0000   0.1275
  -2.300  -0.1246   0.01069   0.00491  -0.0146  0.9373  0.5427  -1.2619   0.0000   0.0000   0.0000   0.1263
  -2.200  -0.1118   0.01027   0.00489  -0.0145  0.9337  0.6294  -1.2067   0.0000   0.0000   0.0000   0.1135
  -2.100  -0.1045   0.01010   0.00488  -0.0133  0.9257  0.6698  -1.1637   0.0000   0.0000   0.0000   0.1157
  -2.000  -0.0939   0.00997   0.00486  -0.0128  0.9191  0.7051  -1.1128   0.0000   0.0000   0.0000   0.1064
  -1.900  -0.0820   0.00984   0.00486  -0.0124  0.9139  0.7363  -1.0590   0.0000   0.0000   0.0000   0.0904
  -1.800  -0.0691   0.00975   0.00485  -0.0123  0.9094  0.7641  -1.0030   0.0000   0.0000   0.0000   0.0634
  -1.700  -0.0558   0.00969   0.00484  -0.0122  0.9053  0.7915  -0.9469   0.0000   0.0000   0.0000   0.0220
  -1.600  -0.0470   0.00968   0.00493  -0.0111  0.8977  0.8129  -0.9007   0.0000   0.0000   0.0000   0.0024
  -1.500  -0.0385   0.00967   0.00494  -0.0101  0.8898  0.8340  -0.8556   0.0000   0.0000   0.0000  -0.0252
  -1.400  -0.0256   0.00969   0.00502  -0.0097  0.8836  0.8518  -0.8193   0.0000   0.0000   0.0000  -0.1459
  -1.300  -0.0142   0.00969   0.00494  -0.0092  0.8774  0.8672  -0.7953   0.0000   0.0000   0.0000  -0.4246
  -1.200  -0.0004   0.00970   0.00492  -0.0092  0.8718  0.8766  -0.7572   0.0000   0.0000   0.0000  -22.3299
  -1.100   0.0112   0.00975   0.00498  -0.0089  0.8631  0.8854  -0.7227   0.0000   0.0000   0.0000   1.0708
  -1.000   0.0220   0.00978   0.00499  -0.0084  0.8542  0.8953  -0.6898   0.0000   0.0000   0.0000   0.6423
  -0.900   0.0319   0.00980   0.00496  -0.0077  0.8456  0.9057  -0.6582   0.0000   0.0000   0.0000   0.4960
  -0.800   0.0493   0.00988   0.00499  -0.0082  0.8376  0.9132  -0.6156   0.0000   0.0000   0.0000   0.4196
  -0.700   0.0633   0.00999   0.00507  -0.0082  0.8281  0.9227  -0.5913   0.0000   0.0000   0.0000   0.3816
  -0.600   0.0723   0.01006   0.00511  -0.0073  0.8172  0.9336  -0.6030   0.0000   0.0000   0.0000   0.3517
  -0.500   0.0942   0.01020   0.00518  -0.0088  0.8057  0.9392  -0.6234   0.0000   0.0000   0.0000   0.3432
  -0.300   0.1303   0.01037   0.00522  -0.0108  0.7827  0.9501  -0.6590   0.0000   0.0000   0.0000   0.3317
  -0.200   0.1412   0.01042   0.00521  -0.0105  0.7704  0.9569  -0.6721   0.0000   0.0000   0.0000   0.3229
  -0.100   0.1606   0.01045   0.00515  -0.0119  0.7578  0.9587  -0.6908   0.0000   0.0000   0.0000   0.3228
   0.100   0.1974   0.01052   0.00509  -0.0147  0.7330  0.9640  -0.7293   0.0000   0.0000   0.0000   0.3223
   0.200   0.2139   0.01056   0.00505  -0.0156  0.7191  0.9675  -0.7497   0.0000   0.0000   0.0000   0.3209
   0.300   0.2285   0.01062   0.00500  -0.0162  0.7057  0.9716  -0.7687   0.0000   0.0000   0.0000   0.3185
   0.400   0.2424   0.01065   0.00499  -0.0167  0.6937  0.9760  -0.7869   0.0000   0.0000   0.0000   0.3166
   0.500   0.2602   0.01067   0.00494  -0.0181  0.6788  0.9780  -0.8086   0.0000   0.0000   0.0000   0.3169
   0.600   0.2770   0.01071   0.00487  -0.0192  0.6635  0.9805  -0.8295   0.0000   0.0000   0.0000   0.3165
   0.700   0.2936   0.01076   0.00484  -0.0203  0.6497  0.9835  -0.8502   0.0000   0.0000   0.0000   0.3163
   0.800   0.3097   0.01079   0.00482  -0.0213  0.6350  0.9872  -0.8707   0.0000   0.0000   0.0000   0.3160
   0.900   0.3263   0.01084   0.00477  -0.0224  0.6186  0.9901  -0.8917   0.0000   0.0000   0.0000   0.3158
   1.000   0.3440   0.01090   0.00471  -0.0238  0.6024  0.9925  -0.9137   0.0000   0.0000   0.0000   0.3162
   1.100   0.3618   0.01091   0.00468  -0.0252  0.5873  0.9954  -0.9357   0.0000   0.0000   0.0000   0.3167
   1.200   0.3788   0.01096   0.00463  -0.0265  0.5699  0.9979  -0.9573   0.0000   0.0000   0.0000   0.3168
   1.300   0.3952   0.01104   0.00457  -0.0277  0.5522  1.0000  -0.9784   0.0000   0.0000   0.0000   0.3168
   1.400   0.4043   0.01104   0.00455  -0.0274  0.5399  1.0000  -0.9932   0.0000   0.0000   0.0000   0.3145
   1.500   0.4132   0.01108   0.00451  -0.0271  0.5249  1.0000  -1.0081   0.0000   0.0000   0.0000   0.3122
   1.600   0.4219   0.01117   0.00447  -0.0268  0.5089  1.0000  -1.0228   0.0000   0.0000   0.0000   0.3099
   1.700   0.4309   0.01123   0.00447  -0.0265  0.4951  1.0000  -1.0376   0.0000   0.0000   0.0000   0.3078
   1.800   0.4400   0.01126   0.00445  -0.0262  0.4811  1.0000  -1.0526   0.0000   0.0000   0.0000   0.3058
   1.900   0.4488   0.01135   0.00449  -0.0259  0.4657  1.0000  -1.0676   0.0000   0.0000   0.0000   0.3038
   2.000   0.4574   0.01149   0.00449  -0.0255  0.4489  1.0000  -1.0823   0.0000   0.0000   0.0000   0.3018
   2.100   0.4667   0.01151   0.00450  -0.0253  0.4387  1.0000  -1.0975   0.0000   0.0000   0.0000   0.3001
   2.200   0.4758   0.01158   0.00450  -0.0250  0.4263  1.0000  -1.1125   0.0000   0.0000   0.0000   0.2984
   2.300   0.4846   0.01168   0.00450  -0.0246  0.4137  1.0000  -1.1274   0.0000   0.0000   0.0000   0.2966
   2.400   0.4932   0.01185   0.00454  -0.0243  0.3993  1.0000  -1.1418   0.0000   0.0000   0.0000   0.2949
   2.500   0.5025   0.01190   0.00458  -0.0240  0.3916  1.0000  -1.1569   0.0000   0.0000   0.0000   0.2934
   2.600   0.5117   0.01195   0.00461  -0.0237  0.3834  1.0000  -1.1719   0.0000   0.0000   0.0000   0.2918
   2.700   0.5206   0.01204   0.00464  -0.0233  0.3745  1.0000  -1.1893   0.0000   0.0000   0.0000   0.2903
   2.800   0.5293   0.01216   0.00467  -0.0230  0.3655  1.0000  -1.2079   0.0000   0.0000   0.0000   0.2888
   2.900   0.5377   0.01232   0.00474  -0.0226  0.3557  1.0000  -1.2261   0.0000   0.0000   0.0000   0.2872
   3.000   0.5465   0.01252   0.00485  -0.0222  0.3461  1.0000  -1.2443   0.0000   0.0000   0.0000   0.2858
   3.100   0.5557   0.01255   0.00490  -0.0219  0.3424  1.0000  -1.2636   0.0000   0.0000   0.0000   0.2845
   3.200   0.5649   0.01261   0.00496  -0.0216  0.3379  1.0000  -1.2829   0.0000   0.0000   0.0000   0.2832
   3.300   0.5740   0.01268   0.00503  -0.0212  0.3330  1.0000  -1.3022   0.0000   0.0000   0.0000   0.2819
   3.400   0.5830   0.01277   0.00509  -0.0208  0.3279  1.0000  -1.3214   0.0000   0.0000   0.0000   0.2806
   3.500   0.5918   0.01288   0.00515  -0.0205  0.3227  1.0000  -1.3405   0.0000   0.0000   0.0000   0.2793
   3.600   0.6005   0.01300   0.00522  -0.0201  0.3176  1.0000  -1.3596   0.0000   0.0000   0.0000   0.2781
   3.700   0.6091   0.01315   0.00532  -0.0196  0.3122  1.0000  -1.3784   0.0000   0.0000   0.0000   0.2768
   3.800   0.6176   0.01336   0.00546  -0.0192  0.3058  1.0000  -1.3967   0.0000   0.0000   0.0000   0.2756
   3.900   0.6266   0.01368   0.00573  -0.0189  0.2984  1.0000  -1.4144   0.0000   0.0000   0.0000   0.2745
   4.000   0.6357   0.01374   0.00580  -0.0185  0.2966  1.0000  -1.4341   0.0000   0.0000   0.0000   0.2734
   4.100   0.6448   0.01379   0.00587  -0.0181  0.2945  1.0000  -1.4540   0.0000   0.0000   0.0000   0.2724
   4.200   0.6539   0.01386   0.00595  -0.0178  0.2919  1.0000  -1.4739   0.0000   0.0000   0.0000   0.2713
   4.300   0.6629   0.01393   0.00603  -0.0174  0.2889  1.0000  -1.4937   0.0000   0.0000   0.0000   0.2703
   4.400   0.6719   0.01401   0.00612  -0.0170  0.2855  1.0000  -1.5137   0.0000   0.0000   0.0000   0.2693
   4.500   0.6808   0.01410   0.00620  -0.0166  0.2821  1.0000  -1.5370   0.0000   0.0000   0.0000   0.2683
   4.600   0.6897   0.01419   0.00629  -0.0162  0.2786  1.0000  -1.5622   0.0000   0.0000   0.0000   0.2673
   4.700   0.6985   0.01430   0.00638  -0.0158  0.2751  1.0000  -1.5873   0.0000   0.0000   0.0000   0.2663
   4.800   0.7073   0.01443   0.00648  -0.0154  0.2716  1.0000  -1.6124   0.0000   0.0000   0.0000   0.2653
   4.900   0.7159   0.01458   0.00660  -0.0150  0.2682  1.0000  -1.6373   0.0000   0.0000   0.0000   0.2644
   5.000   0.7246   0.01477   0.00675  -0.0145  0.2647  1.0000  -1.6621   0.0000   0.0000   0.0000   0.2634
   5.100   0.7333   0.01501   0.00696  -0.0141  0.2607  1.0000  -1.6865   0.0000   0.0000   0.0000   0.2626
   5.200   0.7421   0.01534   0.00726  -0.0138  0.2561  1.0000  -1.7104   0.0000   0.0000   0.0000   0.2617
   5.300   0.7512   0.01581   0.00773  -0.0135  0.2514  1.0000  -1.7335   0.0000   0.0000   0.0000   0.2610
   5.400   0.7603   0.01588   0.00783  -0.0131  0.2505  1.0000  -1.7597   0.0000   0.0000   0.0000   0.2602
   5.500   0.7695   0.01596   0.00793  -0.0127  0.2495  1.0000  -1.7860   0.0000   0.0000   0.0000   0.2595
   5.600   0.7787   0.01604   0.00804  -0.0124  0.2482  1.0000  -1.8123   0.0000   0.0000   0.0000   0.2587
   5.700   0.7878   0.01614   0.00817  -0.0120  0.2467  1.0000  -1.8386   0.0000   0.0000   0.0000   0.2580
   5.800   0.7969   0.01625   0.00830  -0.0116  0.2450  1.0000  -1.8649   0.0000   0.0000   0.0000   0.2572
   5.900   0.8060   0.01636   0.00862  -0.0113  0.2429  1.0000  -1.8852   0.0000   0.0000   0.0000   0.2565
   6.000   0.8151   0.01649   0.00877  -0.0109  0.2408  1.0000  -1.9226   0.0000   0.0000   0.0000   0.2558
   6.100   0.8241   0.01662   0.00892  -0.0105  0.2385  1.0000  -1.9588   0.0000   0.0000   0.0000   0.2551
   6.200   0.8331   0.01675   0.00906  -0.0102  0.2360  1.0000  -1.9946   0.0000   0.0000   0.0000   0.2544
   6.300   0.8421   0.01687   0.00919  -0.0098  0.2333  1.0000  -2.0304   0.0000   0.0000   0.0000   0.2537
   6.400   0.8509   0.01698   0.00930  -0.0094  0.2306  1.0000  -2.0663   0.0000   0.0000   0.0000   0.2530
   6.500   0.8597   0.01710   0.00941  -0.0090  0.2278  1.0000  -2.1022   0.0000   0.0000   0.0000   0.2523
   6.600   0.8684   0.01723   0.00953  -0.0086  0.2249  1.0000  -2.1381   0.0000   0.0000   0.0000   0.2516
   6.700   0.8770   0.01740   0.00967  -0.0082  0.2218  1.0000  -2.1736   0.0000   0.0000   0.0000   0.2509
   6.800   0.8855   0.01765   0.00988  -0.0077  0.2183  1.0000  -2.2086   0.0000   0.0000   0.0000   0.2502
   6.900   0.8941   0.01804   0.01025  -0.0074  0.2142  1.0000  -2.2423   0.0000   0.0000   0.0000   0.2496
   7.000   0.9024   0.01882   0.01105  -0.0071  0.2090  1.0000  -2.2724   0.0000   0.0000   0.0000   0.2491
   7.100   0.9112   0.01917   0.01144  -0.0068  0.2070  1.0000  -2.3123   0.0000   0.0000   0.0000   0.2486
   7.200   0.9205   0.01924   0.01155  -0.0064  0.2062  1.0000  -2.3618   0.0000   0.0000   0.0000   0.2480
   7.300   0.9297   0.01933   0.01167  -0.0061  0.2052  1.0000  -2.4116   0.0000   0.0000   0.0000   0.2475
   7.400   0.9388   0.01943   0.01181  -0.0057  0.2041  1.0000  -2.4613   0.0000   0.0000   0.0000   0.2469
   7.500   0.9479   0.01954   0.01196  -0.0054  0.2027  1.0000  -2.5112   0.0000   0.0000   0.0000   0.2464
   7.600   0.9570   0.01967   0.01212  -0.0051  0.2011  1.0000  -2.5612   0.0000   0.0000   0.0000   0.2459
   7.700   0.9661   0.01981   0.01230  -0.0047  0.1994  1.0000  -2.6115   0.0000   0.0000   0.0000   0.2453
   7.800   0.9751   0.01995   0.01248  -0.0044  0.1975  1.0000  -2.6621   0.0000   0.0000   0.0000   0.2448
   7.900   0.9841   0.02011   0.01267  -0.0041  0.1955  1.0000  -2.7129   0.0000   0.0000   0.0000   0.2443
   8.000   0.9931   0.02026   0.01285  -0.0037  0.1933  1.0000  -2.7642   0.0000   0.0000   0.0000   0.2438
   8.100   1.0021   0.02038   0.01299  -0.0034  0.1910  1.0000  -2.8162   0.0000   0.0000   0.0000   0.2433
   8.200   1.0111   0.02047   0.01309  -0.0031  0.1884  1.0000  -2.8691   0.0000   0.0000   0.0000   0.2428
   8.300   1.0200   0.02054   0.01316  -0.0027  0.1858  1.0000  -2.9228   0.0000   0.0000   0.0000   0.2423
   8.400   1.0288   0.02060   0.01321  -0.0024  0.1831  1.0000  -2.9768   0.0000   0.0000   0.0000   0.2418
   8.500   1.0374   0.02069   0.01328  -0.0020  0.1803  1.0000  -3.0307   0.0000   0.0000   0.0000   0.2413
   8.600   1.0457   0.02087   0.01342  -0.0016  0.1771  1.0000  -3.0836   0.0000   0.0000   0.0000   0.2408
   8.700   1.0538   0.02124   0.01376  -0.0013  0.1731  1.0000  -3.1337   0.0000   0.0000   0.0000   0.2403
   8.800   1.0605   0.02241   0.01496  -0.0009  0.1670  1.0000  -3.1726   0.0000   0.0000   0.0000   0.2398
   8.900   1.0693   0.02257   0.01516  -0.0006  0.1655  1.0000  -3.2261   0.0000   0.0000   0.0000   0.2394
   9.000   1.0784   0.02250   0.01512  -0.0003  0.1645  1.0000  -3.2834   0.0000   0.0000   0.0000   0.2389
   9.100   1.0874   0.02245   0.01511   0.0001  0.1631  1.0000  -3.3405   0.0000   0.0000   0.0000   0.2385
   9.200   1.0963   0.02243   0.01512   0.0004  0.1613  1.0000  -3.3975   0.0000   0.0000   0.0000   0.2380
   9.300   1.1051   0.02243   0.01516   0.0007  0.1592  1.0000  -3.4646   0.0000   0.0000   0.0000   0.2376
   9.400   1.1135   0.02293   0.01589   0.0011  0.1583  1.0000  -3.5223   0.0000   0.0000   0.0000   0.2371
   9.500   1.1220   0.02306   0.01607   0.0015  0.1561  1.0000  -3.5885   0.0000   0.0000   0.0000   0.2367
   9.600   1.1306   0.02316   0.01619   0.0018  0.1537  1.0000  -3.6629   0.0000   0.0000   0.0000   0.2362
   9.700   1.1391   0.02322   0.01628   0.0022  0.1510  1.0000  -3.7392   0.0000   0.0000   0.0000   0.2357
   9.800   1.1475   0.02326   0.01633   0.0026  0.1483  1.0000  -3.8169   0.0000   0.0000   0.0000   0.2353
   9.900   1.1559   0.02328   0.01635   0.0029  0.1455  1.0000  -3.8957   0.0000   0.0000   0.0000   0.2348
  10.000   1.1639   0.02331   0.01636   0.0033  0.1427  1.0000  -3.9742   0.0000   0.0000   0.0000   0.2343
  10.100   1.1715   0.02341   0.01643   0.0038  0.1396  1.0000  -4.0508   0.0000   0.0000   0.0000   0.2338
  10.200   1.1782   0.02368   0.01665   0.0043  0.1359  1.0000  -4.1227   0.0000   0.0000   0.0000   0.2332
  10.300   1.1840   0.02444   0.01740   0.0049  0.1306  1.0000  -4.1841   0.0000   0.0000   0.0000   0.2326
  10.400   1.1902   0.02522   0.01823   0.0054  0.1271  1.0000  -4.2467   0.0000   0.0000   0.0000   0.2321
  10.500   1.1984   0.02523   0.01829   0.0058  0.1262  1.0000  -4.3273   0.0000   0.0000   0.0000   0.2316
  10.600   1.2064   0.02527   0.01839   0.0062  0.1249  1.0000  -4.4073   0.0000   0.0000   0.0000   0.2311
  10.700   1.2143   0.02534   0.01851   0.0066  0.1233  1.0000  -4.4868   0.0000   0.0000   0.0000   0.2306
  10.800   1.2219   0.02542   0.01865   0.0070  0.1212  1.0000  -4.5660   0.0000   0.0000   0.0000   0.2302
  10.900   1.2294   0.02552   0.01878   0.0075  0.1188  1.0000  -4.6451   0.0000   0.0000   0.0000   0.2297
  11.000   1.2368   0.02561   0.01890   0.0080  0.1160  1.0000  -4.7245   0.0000   0.0000   0.0000   0.2292
  11.100   1.2439   0.02568   0.01899   0.0084  0.1131  1.0000  -4.8043   0.0000   0.0000   0.0000   0.2286
  11.200   1.2507   0.02575   0.01906   0.0089  0.1101  1.0000  -4.8837   0.0000   0.0000   0.0000   0.2281
  11.300   1.2567   0.02588   0.01915   0.0095  0.1070  1.0000  -4.9597   0.0000   0.0000   0.0000   0.2275
  11.400   1.2614   0.02609   0.01931   0.0103  0.1036  1.0000  -5.0298   0.0000   0.0000   0.0000   0.2267
  11.500   1.2644   0.02653   0.01971   0.0112  0.0994  1.0000  -5.0884   0.0000   0.0000   0.0000   0.2259
  11.600   1.2646   0.02769   0.02088   0.0123  0.0932  1.0000  -5.1214   0.0000   0.0000   0.0000   0.2248
  11.700   1.2707   0.02783   0.02105   0.0129  0.0918  1.0000  -5.1982   0.0000   0.0000   0.0000   0.2242
  11.800   1.2769   0.02784   0.02111   0.0135  0.0905  1.0000  -5.2781   0.0000   0.0000   0.0000   0.2237
  11.900   1.2825   0.02792   0.02124   0.0141  0.0888  1.0000  -5.3542   0.0000   0.0000   0.0000   0.2230
  12.000   1.2875   0.02808   0.02144   0.0148  0.0866  1.0000  -5.4270   0.0000   0.0000   0.0000   0.2224
  12.100   1.2920   0.02830   0.02169   0.0155  0.0841  1.0000  -5.4970   0.0000   0.0000   0.0000   0.2217
  12.200   1.2960   0.02856   0.02198   0.0163  0.0815  1.0000  -5.5644   0.0000   0.0000   0.0000   0.2209
  12.300   1.2991   0.02889   0.02232   0.0171  0.0788  1.0000  -5.6268   0.0000   0.0000   0.0000   0.2202
  12.400   1.3011   0.02932   0.02272   0.0179  0.0762  1.0000  -5.6833   0.0000   0.0000   0.0000   0.2194
  12.500   1.3017   0.02985   0.02323   0.0188  0.0736  1.0000  -5.7316   0.0000   0.0000   0.0000   0.2185
  12.600   1.3007   0.03052   0.02389   0.0198  0.0708  1.0000  -5.7696   0.0000   0.0000   0.0000   0.2175
  12.700   1.2975   0.03146   0.02483   0.0209  0.0676  1.0000  -5.7907   0.0000   0.0000   0.0000   0.2164
  12.800   1.2910   0.03286   0.02628   0.0222  0.0637  1.0000  -5.7849   0.0000   0.0000   0.0000   0.2151
  12.900   1.2906   0.03374   0.02720   0.0230  0.0620  1.0000  -5.8193   0.0000   0.0000   0.0000   0.2144
  13.000   1.2942   0.03418   0.02770   0.0233  0.0612  1.0000  -5.8825   0.0000   0.0000   0.0000   0.2140
  13.100   1.2972   0.03470   0.02829   0.0236  0.0602  1.0000  -5.9413   0.0000   0.0000   0.0000   0.2136
  13.200   1.2991   0.03532   0.02897   0.0240  0.0590  1.0000  -5.9930   0.0000   0.0000   0.0000   0.2131
  13.300   1.3001   0.03602   0.02973   0.0244  0.0576  1.0000  -6.0392   0.0000   0.0000   0.0000   0.2126
  13.400   1.3005   0.03681   0.03057   0.0247  0.0561  1.0000  -6.0805   0.0000   0.0000   0.0000   0.2122
  13.500   1.2982   0.03793   0.03187   0.0251  0.0551  1.0000  -6.1128   0.0000   0.0000   0.0000   0.2116
  13.600   1.2972   0.03893   0.03293   0.0254  0.0538  1.0000  -6.1463   0.0000   0.0000   0.0000   0.2112
  13.700   1.2958   0.04000   0.03405   0.0255  0.0526  1.0000  -6.1771   0.0000   0.0000   0.0000   0.2109
  13.800   1.2941   0.04113   0.03523   0.0256  0.0515  1.0000  -6.2058   0.0000   0.0000   0.0000   0.2106
  13.900   1.2923   0.04232   0.03646   0.0255  0.0505  1.0000  -6.2328   0.0000   0.0000   0.0000   0.2104
  14.000   1.2896   0.04363   0.03782   0.0254  0.0495  1.0000  -6.2542   0.0000   0.0000   0.0000   0.2102
  14.100   1.2867   0.04501   0.03923   0.0252  0.0487  1.0000  -6.2735   0.0000   0.0000   0.0000   0.2101
  14.200   1.2832   0.04649   0.04076   0.0248  0.0479  1.0000  -6.2884   0.0000   0.0000   0.0000   0.2101
  14.300   1.2792   0.04807   0.04238   0.0244  0.0471  1.0000  -6.2990   0.0000   0.0000   0.0000   0.2101
  14.400   1.2750   0.04969   0.04405   0.0240  0.0464  1.0000  -6.3076   0.0000   0.0000   0.0000   0.2101
  14.500   1.2699   0.05148   0.04589   0.0234  0.0458  1.0000  -6.3094   0.0000   0.0000   0.0000   0.2103
  14.600   1.2647   0.05329   0.04775   0.0228  0.0451  1.0000  -6.3094   0.0000   0.0000   0.0000   0.2104
  14.700   1.2592   0.05516   0.04968   0.0222  0.0445  1.0000  -6.3061   0.0000   0.0000   0.0000   0.2106
  14.800   1.2525   0.05715   0.05173   0.0215  0.0440  1.0000  -6.2951   0.0000   0.0000   0.0000   0.2109
  14.900   1.2460   0.05913   0.05376   0.0209  0.0435  1.0000  -6.2839   0.0000   0.0000   0.0000   0.2111
  15.000   1.2394   0.06118   0.05588   0.0202  0.0430  1.0000  -6.2703   0.0000   0.0000   0.0000   0.2113
  15.100   1.2320   0.06342   0.05818   0.0193  0.0426  1.0000  -6.2507   0.0000   0.0000   0.0000   0.2117
  15.200   1.2249   0.06565   0.06048   0.0184  0.0421  1.0000  -6.2312   0.0000   0.0000   0.0000   0.2121
  15.300   1.2178   0.06792   0.06282   0.0176  0.0416  1.0000  -6.2097   0.0000   0.0000   0.0000   0.2125
  15.400   1.2093   0.07050   0.06547   0.0164  0.0413  1.0000  -6.1784   0.0000   0.0000   0.0000   0.2131
  15.500   1.2008   0.07312   0.06817   0.0153  0.0410  1.0000  -6.1452   0.0000   0.0000   0.0000   0.2138
  15.600   1.1923   0.07577   0.07089   0.0141  0.0407  1.0000  -6.1102   0.0000   0.0000   0.0000   0.2144
  15.700   1.1829   0.07864   0.07384   0.0127  0.0404  1.0000  -6.0679   0.0000   0.0000   0.0000   0.2153
  15.800   1.1728   0.08170   0.07698   0.0111  0.0403  1.0000  -6.0192   0.0000   0.0000   0.0000   0.2164
  15.900   1.1628   0.08474   0.08011   0.0095  0.0401  1.0000  -5.9693   0.0000   0.0000   0.0000   0.2174
  16.000   1.1523   0.08794   0.08338   0.0078  0.0399  1.0000  -5.9136   0.0000   0.0000   0.0000   0.2187
  16.100   1.1408   0.09141   0.08693   0.0058  0.0399  1.0000  -5.8488   0.0000   0.0000   0.0000   0.2202
  16.200   1.1294   0.09484   0.09044   0.0038  0.0398  1.0000  -5.7827   0.0000   0.0000   0.0000   0.2216
  16.300   1.1175   0.09842   0.09409   0.0018  0.0398  1.0000  -5.7095   0.0000   0.0000   0.0000   0.2233
  16.400   1.1040   0.10240   0.09815  -0.0006  0.0398  1.0000  -5.6212   0.0000   0.0000   0.0000   0.2253
  16.500   1.0900   0.10644   0.10226  -0.0030  0.0397  1.0000  -5.5248   0.0000   0.0000   0.0000   0.2274
  16.600   1.0623   0.11314   0.10896  -0.0072  0.0391  1.0000  -5.2931   0.0000   0.0000   0.0000   0.2313
  16.700   1.0484   0.11734   0.11322  -0.0097  0.0393  1.0000  -5.1905   0.0000   0.0000   0.0000   0.2337
  16.800   1.0336   0.12174   0.11768  -0.0124  0.0395  1.0000  -5.0757   0.0000   0.0000   0.0000   0.2364
  16.900   1.0154   0.12678   0.12278  -0.0157  0.0399  1.0000  -4.9254   0.0000   0.0000   0.0000   0.2398
  17.000   0.9960   0.13207   0.12813  -0.0189  0.0402  1.0000  -4.7547   0.0000   0.0000   0.0000   0.2434
  17.200   0.8684   0.16814   0.16425  -0.0367  0.0421  1.0000  -3.2798   0.0000   0.0000   0.0000   0.2688
  17.300   0.8699   0.16948   0.16559  -0.0373  0.0415  1.0000  -3.2981   0.0000   0.0000   0.0000   0.2693
  17.400   0.8704   0.17114   0.16725  -0.0381  0.0409  1.0000  -3.3021   0.0000   0.0000   0.0000   0.2700
  17.500   0.8690   0.17338   0.16949  -0.0391  0.0403  1.0000  -3.2810   0.0000   0.0000   0.0000   0.2711
  17.600   0.8653   0.17639   0.17250  -0.0403  0.0397  1.0000  -3.2270   0.0000   0.0000   0.0000   0.2727
  17.700   0.8583   0.18054   0.17665  -0.0419  0.0390  1.0000  -3.1251   0.0000   0.0000   0.0000   0.2750
  17.800   0.8446   0.18715   0.18324  -0.0442  0.0382  1.0000  -2.9252   0.0000   0.0000   0.0000   0.2787
  17.900   0.8359   0.19241   0.18846  -0.0463  0.0374  1.0000  -2.7852   0.0000   0.0000   0.0000   0.2818
  18.000   0.8403   0.19320   0.18926  -0.0470  0.0368  1.0000  -2.8226   0.0000   0.0000   0.0000   0.2822
  18.100   0.8434   0.19457   0.19063  -0.0478  0.0360  1.0000  -2.8346   0.0000   0.0000   0.0000   0.2828
  18.200   0.8446   0.19675   0.19282  -0.0488  0.0348  1.0000  -2.8084   0.0000   0.0000   0.0000   0.2839
  18.300   0.8428   0.20013   0.19619  -0.0502  0.0332  1.0000  -2.7240   0.0000   0.0000   0.0000   0.2857
  18.400   0.8393   0.20420   0.20026  -0.0517  0.0318  1.0000  -2.6063   0.0000   0.0000   0.0000   0.2878
  18.500   0.8360   0.20814   0.20419  -0.0531  0.0310  1.0000  -2.4972   0.0000   0.0000   0.0000   0.2897
  18.600   0.8335   0.21180   0.20785  -0.0543  0.0305  1.0000  -2.4035   0.0000   0.0000   0.0000   0.2914
  18.700   0.8316   0.21524   0.21129  -0.0554  0.0304  1.0000  -2.3226   0.0000   0.0000   0.0000   0.2929
  18.800   0.8301   0.21851   0.21456  -0.0565  0.0304  1.0000  -2.2512   0.0000   0.0000   0.0000   0.2943
  18.900   0.8290   0.22163   0.21768  -0.0574  0.0306  1.0000  -2.1882   0.0000   0.0000   0.0000   0.2955
  19.000   0.8281   0.22464   0.22068  -0.0583  0.0309  1.0000  -2.1319   0.0000   0.0000   0.0000   0.2966
  19.100   0.8275   0.22755   0.22360  -0.0592  0.0313  1.0000  -2.0810   0.0000   0.0000   0.0000   0.2977
  19.200   0.8272   0.23034   0.22639  -0.0600  0.0319  1.0000  -2.0368   0.0000   0.0000   0.0000   0.2986
  19.300   0.8271   0.23301   0.22906  -0.0607  0.0325  1.0000  -1.9993   0.0000   0.0000   0.0000   0.2994
  19.400   0.8273   0.23558   0.23163  -0.0613  0.0332  1.0000  -1.9683   0.0000   0.0000   0.0000   0.3000
  19.500   0.8274   0.23815   0.23421  -0.0618  0.0340  1.0000  -1.9406   0.0000   0.0000   0.0000   0.3005
  19.600   0.8269   0.24105   0.23711  -0.0622  0.0352  1.0000  -1.9095   0.0000   0.0000   0.0000   0.3009
  19.900   0.8354   0.24781   0.24394  -0.0616  0.0385  1.0000  -1.9250   0.0000   0.0000   0.0000   0.2989
  20.000   0.8385   0.24900   0.24513  -0.0622  0.0388  1.0000  -1.9344   0.0000   0.0000   0.0000   0.2992
  20.100   0.8405   0.25071   0.24685  -0.0628  0.0389  1.0000  -1.9306   0.0000   0.0000   0.0000   0.2996
  20.200   0.8416   0.25284   0.24899  -0.0634  0.0390  1.0000  -1.9187   0.0000   0.0000   0.0000   0.3002
  20.300   0.8420   0.25531   0.25146  -0.0640  0.0389  1.0000  -1.9018   0.0000   0.0000   0.0000   0.3007
  20.400   0.8409   0.25854   0.25469  -0.0646  0.0387  1.0000  -1.8713   0.0000   0.0000   0.0000   0.3015
  20.500   0.8277   0.26816   0.26426  -0.0659  0.0377  1.0000  -1.6936   0.0000   0.0000   0.0000   0.3046
  20.600   0.8285   0.27039   0.26649  -0.0665  0.0377  1.0000  -1.6823   0.0000   0.0000   0.0000   0.3051
  20.700   0.8292   0.27261   0.26871  -0.0670  0.0377  1.0000  -1.6713   0.0000   0.0000   0.0000   0.3056
  20.800   0.8298   0.27480   0.27091  -0.0676  0.0377  1.0000  -1.6604   0.0000   0.0000   0.0000   0.3061
  20.900   0.8304   0.27698   0.27310  -0.0682  0.0377  1.0000  -1.6498   0.0000   0.0000   0.0000   0.3066
  21.000   0.8310   0.27914   0.27526  -0.0687  0.0377  1.0000  -1.6394   0.0000   0.0000   0.0000   0.3071
  21.100   0.8315   0.28129   0.27741  -0.0693  0.0376  1.0000  -1.6292   0.0000   0.0000   0.0000   0.3076
  21.200   0.8320   0.28342   0.27955  -0.0698  0.0376  1.0000  -1.6191   0.0000   0.0000   0.0000   0.3081
  21.300   0.8324   0.28552   0.28166  -0.0703  0.0376  1.0000  -1.6091   0.0000   0.0000   0.0000   0.3086
  21.400   0.8328   0.28761   0.28375  -0.0708  0.0376  1.0000  -1.5993   0.0000   0.0000   0.0000   0.3090
  21.500   0.8331   0.28968   0.28583  -0.0713  0.0376  1.0000  -1.5895   0.0000   0.0000   0.0000   0.3095
  21.600   0.8333   0.29173   0.28788  -0.0718  0.0376  1.0000  -1.5798   0.0000   0.0000   0.0000   0.3099
  21.700   0.8335   0.29375   0.28991  -0.0723  0.0376  1.0000  -1.5701   0.0000   0.0000   0.0000   0.3104
  21.800   0.8336   0.29575   0.29191  -0.0728  0.0376  1.0000  -1.5605   0.0000   0.0000   0.0000   0.3108
  21.900   0.8336   0.29771   0.29388  -0.0732  0.0376  1.0000  -1.5508   0.0000   0.0000   0.0000   0.3112
  22.000   0.8335   0.29965   0.29583  -0.0737  0.0376  1.0000  -1.5411   0.0000   0.0000   0.0000   0.3117
  22.100   0.8333   0.30156   0.29774  -0.0741  0.0375  1.0000  -1.5314   0.0000   0.0000   0.0000   0.3121
  22.200   0.8330   0.30343   0.29962  -0.0745  0.0375  1.0000  -1.5217   0.0000   0.0000   0.0000   0.3125
  22.300   0.8326   0.30527   0.30147  -0.0749  0.0375  1.0000  -1.5119   0.0000   0.0000   0.0000   0.3129
  22.400   0.8321   0.30706   0.30327  -0.0752  0.0375  1.0000  -1.5021   0.0000   0.0000   0.0000   0.3133
  22.500   0.8315   0.30882   0.30503  -0.0756  0.0375  1.0000  -1.4921   0.0000   0.0000   0.0000   0.3137
  22.600   0.8307   0.31052   0.30674  -0.0759  0.0375  1.0000  -1.4820   0.0000   0.0000   0.0000   0.3141
  22.700   0.8298   0.31217   0.30840  -0.0762  0.0375  1.0000  -1.4718   0.0000   0.0000   0.0000   0.3144
  22.800   0.8287   0.31376   0.31000  -0.0765  0.0375  1.0000  -1.4613   0.0000   0.0000   0.0000   0.3148
  22.900   0.8275   0.31528   0.31153  -0.0768  0.0374  1.0000  -1.4506   0.0000   0.0000   0.0000   0.3151
  23.000   0.8260   0.31673   0.31298  -0.0770  0.0374  1.0000  -1.4396   0.0000   0.0000   0.0000   0.3155
  23.100   0.8243   0.31808   0.31435  -0.0772  0.0374  1.0000  -1.4283   0.0000   0.0000   0.0000   0.3158
  23.200   0.8224   0.31933   0.31561  -0.0773  0.0374  1.0000  -1.4166   0.0000   0.0000   0.0000   0.3161
  23.300   0.8201   0.32046   0.31675  -0.0774  0.0374  1.0000  -1.4043   0.0000   0.0000   0.0000   0.3164
  23.400   0.8164   0.32118   0.31748  -0.0772  0.0374  1.0000  -1.3895   0.0000   0.0000   0.0000   0.3167
  23.500   0.8007   0.31819   0.31452  -0.0752  0.0374  1.0000  -1.3504   0.0000   0.0000   0.0000   0.3163
  23.600   0.7893   0.31613   0.31249  -0.0739  0.0373  1.0000  -1.3203   0.0000   0.0000   0.0000   0.3162
  23.700   0.7822   0.31522   0.31159  -0.0732  0.0373  1.0000  -1.2987   0.0000   0.0000   0.0000   0.3162
  23.800   0.7767   0.31472   0.31111  -0.0727  0.0373  1.0000  -1.2805   0.0000   0.0000   0.0000   0.3164
  23.900   0.7720   0.31445   0.31085  -0.0724  0.0373  1.0000  -1.2642   0.0000   0.0000   0.0000   0.3165
  24.000   0.7680   0.31431   0.31073  -0.0722  0.0373  1.0000  -1.2493   0.0000   0.0000   0.0000   0.3168
  24.100   0.7644   0.31426   0.31069  -0.0721  0.0372  1.0000  -1.2353   0.0000   0.0000   0.0000   0.3170
  24.200   0.7612   0.31429   0.31073  -0.0720  0.0372  1.0000  -1.2220   0.0000   0.0000   0.0000   0.3173
  24.300   0.7582   0.31436   0.31081  -0.0719  0.0372  1.0000  -1.2095   0.0000   0.0000   0.0000   0.3176
  24.400   0.7555   0.31447   0.31094  -0.0719  0.0372  1.0000  -1.1975   0.0000   0.0000   0.0000   0.3179
  24.500   0.7530   0.31462   0.31109  -0.0719  0.0371  1.0000  -1.1860   0.0000   0.0000   0.0000   0.3182
  24.600   0.7506   0.31477   0.31126  -0.0720  0.0371  1.0000  -1.1748   0.0000   0.0000   0.0000   0.3185
  24.700   0.7482   0.31492   0.31141  -0.0720  0.0371  1.0000  -1.1636   0.0000   0.0000   0.0000   0.3188
  24.800   0.7460   0.31507   0.31158  -0.0721  0.0371  1.0000  -1.1528   0.0000   0.0000   0.0000   0.3192
  24.900   0.7440   0.31525   0.31177  -0.0722  0.0370  1.0000  -1.1423   0.0000   0.0000   0.0000   0.3195
  25.000   0.7420   0.31543   0.31196  -0.0723  0.0370  1.0000  -1.1379   0.0000   0.0000   0.0000   0.3199
  25.100   0.7402   0.31562   0.31216  -0.0725  0.0369  1.0000  -1.1399   0.0000   0.0000   0.0000   0.3203
  25.200   0.7384   0.31580   0.31235  -0.0726  0.0369  1.0000  -1.1415   0.0000   0.0000   0.0000   0.3207
  25.300   0.7364   0.31592   0.31248  -0.0728  0.0369  1.0000  -1.1418   0.0000   0.0000   0.0000   0.3211
  25.400   0.7346   0.31604   0.31261  -0.0730  0.0368  1.0000  -1.1423   0.0000   0.0000   0.0000   0.3216
  25.500   0.7325   0.31601   0.31265  -0.0733  0.0367  1.0000  -1.1344   0.0000   0.0000   0.0000   0.3222
  25.600   0.7306   0.31589   0.31254  -0.0736  0.0366  1.0000  -1.1312   0.0000   0.0000   0.0000   0.3228
  25.700   0.7289   0.31569   0.31235  -0.0740  0.0364  1.0000  -1.1279   0.0000   0.0000   0.0000   0.3235
  25.800   0.7275   0.31546   0.31213  -0.0746  0.0360  1.0000  -1.1236   0.0000   0.0000   0.0000   0.3244
  25.900   0.7268   0.31534   0.31202  -0.0754  0.0353  1.0000  -1.1163   0.0000   0.0000   0.0000   0.3256
  26.000   0.7274   0.31583   0.31251  -0.0765  0.0337  1.0000  -1.1069   0.0000   0.0000   0.0000   0.3269
  26.100   0.7274   0.31650   0.31319  -0.0771  0.0317  1.0000  -1.1071   0.0000   0.0000   0.0000   0.3276
  26.200   0.7270   0.31700   0.31370  -0.0775  0.0302  1.0000  -1.1135   0.0000   0.0000   0.0000   0.3281
  26.300   0.7264   0.31743   0.31414  -0.0778  0.0290  1.0000  -1.1216   0.0000   0.0000   0.0000   0.3284
  26.400   0.7258   0.31785   0.31457  -0.0780  0.0282  1.0000  -1.1290   0.0000   0.0000   0.0000   0.3287
  26.500   0.7253   0.31825   0.31498  -0.0782  0.0275  1.0000  -1.1373   0.0000   0.0000   0.0000   0.3290
  26.600   0.7248   0.31863   0.31537  -0.0785  0.0268  1.0000  -1.1466   0.0000   0.0000   0.0000   0.3293
  26.700   0.7243   0.31899   0.31574  -0.0787  0.0261  1.0000  -1.1571   0.0000   0.0000   0.0000   0.3295
  26.800   0.7240   0.31932   0.31608  -0.0789  0.0254  1.0000  -1.1689   0.0000   0.0000   0.0000   0.3297
  26.900   0.7238   0.31962   0.31639  -0.0791  0.0247  1.0000  -1.1825   0.0000   0.0000   0.0000   0.3299
  27.000   0.7237   0.31987   0.31665  -0.0793  0.0241  1.0000  -1.1982   0.0000   0.0000   0.0000   0.3300
  27.100   0.7237   0.32008   0.31687  -0.0795  0.0234  1.0000  -1.2165   0.0000   0.0000   0.0000   0.3300
  27.200   0.7239   0.32024   0.31703  -0.0797  0.0228  1.0000  -1.2380   0.0000   0.0000   0.0000   0.3300
  27.300   0.7242   0.32033   0.31714  -0.0798  0.0222  1.0000  -1.2634   0.0000   0.0000   0.0000   0.3299
  27.400   0.7247   0.32037   0.31719  -0.0798  0.0217  1.0000  -1.2930   0.0000   0.0000   0.0000   0.3296
  27.500   0.7254   0.32039   0.31722  -0.0798  0.0212  1.0000  -1.3272   0.0000   0.0000   0.0000   0.3292
  27.600   0.7264   0.32047   0.31732  -0.0796  0.0208  1.0000  -1.3666   0.0000   0.0000   0.0000   0.3286
  27.700   0.7278   0.32088   0.31774  -0.0793  0.0203  1.0000  -1.4119   0.0000   0.0000   0.0000   0.3276
  27.900   0.7152   0.32604   0.32287  -0.0784  0.0190  1.0000  -1.2257   0.0000   0.0000   0.0000   0.3290
  28.000   0.7140   0.32656   0.32339  -0.0787  0.0190  1.0000  -1.2000   0.0000   0.0000   0.0000   0.3296
  28.100   0.7129   0.32711   0.32395  -0.0790  0.0189  1.0000  -1.1769   0.0000   0.0000   0.0000   0.3301
  28.200   0.7119   0.32768   0.32452  -0.0793  0.0189  1.0000  -1.1562   0.0000   0.0000   0.0000   0.3305
  28.300   0.7110   0.32826   0.32511  -0.0796  0.0189  1.0000  -1.1376   0.0000   0.0000   0.0000   0.3310
  28.400   0.7102   0.32883   0.32569  -0.0799  0.0189  1.0000  -1.1204   0.0000   0.0000   0.0000   0.3315
  28.500   0.7094   0.32940   0.32626  -0.0801  0.0188  1.0000  -1.1046   0.0000   0.0000   0.0000   0.3319
  28.600   0.7086   0.32996   0.32684  -0.0804  0.0188  1.0000  -1.0900   0.0000   0.0000   0.0000   0.3324
  28.700   0.7080   0.33054   0.32742  -0.0807  0.0188  1.0000  -1.0766   0.0000   0.0000   0.0000   0.3328
  28.800   0.7073   0.33110   0.32799  -0.0811  0.0188  1.0000  -1.0640   0.0000   0.0000   0.0000   0.3333
  28.900   0.7067   0.33167   0.32857  -0.0814  0.0188  1.0000  -1.0523   0.0000   0.0000   0.0000   0.3337
  29.000   0.7061   0.33224   0.32914  -0.0817  0.0187  1.0000  -1.0412   0.0000   0.0000   0.0000   0.3341
  29.100   0.7056   0.33281   0.32971  -0.0820  0.0187  1.0000  -1.0308   0.0000   0.0000   0.0000   0.3346
  29.200   0.7051   0.33337   0.33028  -0.0823  0.0187  1.0000  -1.0209   0.0000   0.0000   0.0000   0.3350
  29.300   0.7046   0.33393   0.33085  -0.0826  0.0187  1.0000  -1.0115   0.0000   0.0000   0.0000   0.3354
  29.400   0.7042   0.33448   0.33141  -0.0830  0.0186  1.0000  -1.0024   0.0000   0.0000   0.0000   0.3359
  29.500   0.7037   0.33504   0.33197  -0.0833  0.0186  1.0000  -0.9938   0.0000   0.0000   0.0000   0.3363
  29.600   0.7033   0.33559   0.33253  -0.0837  0.0186  1.0000  -0.9856   0.0000   0.0000   0.0000   0.3367
  29.700   0.7029   0.33611   0.33306  -0.0840  0.0186  1.0000  -0.9764   0.0000   0.0000   0.0000   0.3372
  29.800   0.7024   0.33662   0.33358  -0.0844  0.0185  1.0000  -0.9674   0.0000   0.0000   0.0000   0.3377
  29.900   0.7019   0.33713   0.33410  -0.0848  0.0185  1.0000  -0.9588   0.0000   0.0000   0.0000   0.3381
  30.000   0.7015   0.33765   0.33462  -0.0851  0.0185  1.0000  -0.9504   0.0000   0.0000   0.0000   0.3386


