xflr5 v6.61

 Calculated polar for: NACA 65-206

 1 1 Reynolds number fixed          Mach number fixed         

 xtrf =   1.000 (top)        1.000 (bottom)
 Mach =   0.000     Re =     1.000 e 6     Ncrit =   9.000

  alpha     CL        CD       CDp       Cm    Top Xtr Bot Xtr   Cpmin    Chinge    XCp    
 ------- -------- --------- --------- -------- ------- ------- -------- --------- ---------
 -10.000  -0.4230   0.10121   0.09919  -0.0280  0.9909  0.0051  -1.6515   0.0000   0.0000   0.0000   0.1809
  -9.900  -0.4235   0.10006   0.09805  -0.0279  0.9916  0.0051  -1.6662   0.0000   0.0000   0.0000   0.1812
  -9.800  -0.4241   0.09892   0.09692  -0.0278  0.9922  0.0051  -1.6813   0.0000   0.0000   0.0000   0.1815
  -9.700  -0.4247   0.09778   0.09578  -0.0278  0.9928  0.0051  -1.6968   0.0000   0.0000   0.0000   0.1818
  -9.600  -0.4254   0.09663   0.09464  -0.0277  0.9933  0.0051  -1.7127   0.0000   0.0000   0.0000   0.1820
  -9.500  -0.4260   0.09547   0.09349  -0.0277  0.9937  0.0051  -1.7292   0.0000   0.0000   0.0000   0.1822
  -9.400  -0.4266   0.09430   0.09232  -0.0277  0.9940  0.0051  -1.7461   0.0000   0.0000   0.0000   0.1823
  -9.300  -0.4272   0.09312   0.09115  -0.0278  0.9943  0.0052  -1.7635   0.0000   0.0000   0.0000   0.1823
  -9.200  -0.4277   0.09192   0.08995  -0.0279  0.9946  0.0052  -1.7816   0.0000   0.0000   0.0000   0.1821
  -9.100  -0.4281   0.09069   0.08872  -0.0281  0.9947  0.0052  -1.8003   0.0000   0.0000   0.0000   0.1818
  -9.000  -0.4284   0.08942   0.08746  -0.0283  0.9949  0.0052  -1.8195   0.0000   0.0000   0.0000   0.1814
  -4.700  -0.3264   0.02384   0.02010  -0.0437  0.9208  0.0087  -2.7384   0.0000   0.0000   0.0000   0.1147
  -4.600  -0.3184   0.02341   0.01963  -0.0437  0.9102  0.0090  -2.5487   0.0000   0.0000   0.0000   0.1115
  -4.500  -0.3096   0.02296   0.01912  -0.0436  0.9000  0.0096  -2.3934   0.0000   0.0000   0.0000   0.1080
  -4.400  -0.2995   0.02243   0.01853  -0.0435  0.8956  0.0104  -2.2754   0.0000   0.0000   0.0000   0.1038
  -3.600  -0.2159   0.01116   0.00579  -0.0391  0.8393  0.0091  -2.5052   0.0000   0.0000   0.0000   0.0673
  -3.500  -0.2053   0.00952   0.00393  -0.0382  0.8336  0.0075  -2.6278   0.0000   0.0000   0.0000   0.0622
  -3.300  -0.1851   0.00825   0.00242  -0.0376  0.8146  0.0094  -2.5062   0.0000   0.0000   0.0000   0.0453
  -3.200  -0.1748   0.00849   0.00270  -0.0376  0.8020  0.0107  -2.2805   0.0000   0.0000   0.0000   0.0335
  -3.100  -0.1638   0.00873   0.00300  -0.0377  0.7957  0.0120  -2.0575   0.0000   0.0000   0.0000   0.0185
  -3.000  -0.1527   0.00908   0.00338  -0.0378  0.7886  0.0128  -1.8320   0.0000   0.0000   0.0000   0.0010
  -2.900  -0.1423   0.00896   0.00324  -0.0378  0.7802  0.0134  -1.6654   0.0000   0.0000   0.0000  -0.0172
  -2.800  -0.1323   0.00845   0.00263  -0.0377  0.7710  0.0141  -1.6178   0.0000   0.0000   0.0000  -0.0365
  -2.700  -0.1221   0.00821   0.00232  -0.0377  0.7606  0.0147  -1.5808   0.0000   0.0000   0.0000  -0.0599
  -2.600  -0.1117   0.00806   0.00211  -0.0377  0.7506  0.0151  -1.5358   0.0000   0.0000   0.0000  -0.0887
  -2.500  -0.1009   0.00792   0.00194  -0.0377  0.7458  0.0155  -1.4877   0.0000   0.0000   0.0000  -0.1253
  -2.400  -0.0901   0.00780   0.00180  -0.0378  0.7402  0.0162  -1.4343   0.0000   0.0000   0.0000  -0.1707
  -2.300  -0.0795   0.00776   0.00177  -0.0379  0.7336  0.0174  -1.3589   0.0000   0.0000   0.0000  -0.2282
  -2.200  -0.0688   0.00772   0.00172  -0.0379  0.7261  0.0181  -1.2929   0.0000   0.0000   0.0000  -0.3031
  -2.100  -0.0581   0.00762   0.00156  -0.0379  0.7179  0.0180  -1.2594   0.0000   0.0000   0.0000  -0.4050
  -2.000  -0.0474   0.00754   0.00141  -0.0380  0.7095  0.0178  -1.2268   0.0000   0.0000   0.0000  -0.5529
  -1.900  -0.0366   0.00747   0.00129  -0.0380  0.7017  0.0177  -1.1908   0.0000   0.0000   0.0000  -0.7900
  -1.800  -0.0257   0.00740   0.00119  -0.0381  0.6977  0.0175  -1.1515   0.0000   0.0000   0.0000  -1.2346
  -1.700  -0.0148   0.00734   0.00110  -0.0381  0.6941  0.0174  -1.1101   0.0000   0.0000   0.0000  -2.3385
  -1.600  -0.0038   0.00728   0.00102  -0.0382  0.6902  0.0173  -1.0671   0.0000   0.0000   0.0000  -9.7040
  -1.500   0.0070   0.00724   0.00095  -0.0383  0.6854  0.0172  -1.0232   0.0000   0.0000   0.0000   5.6960
  -1.400   0.0179   0.00721   0.00090  -0.0384  0.6796  0.0171  -0.9787   0.0000   0.0000   0.0000   2.3972
  -1.300   0.0287   0.00719   0.00084  -0.0384  0.6727  0.0170  -0.9340   0.0000   0.0000   0.0000   1.5911
  -1.200   0.0394   0.00718   0.00080  -0.0385  0.6652  0.0169  -0.8892   0.0000   0.0000   0.0000   1.2269
  -1.100   0.0502   0.00718   0.00075  -0.0385  0.6573  0.0169  -0.8446   0.0000   0.0000   0.0000   1.0189
  -1.000   0.0610   0.00717   0.00071  -0.0386  0.6504  0.0169  -0.7998   0.0000   0.0000   0.0000   0.8836
  -0.900   0.0719   0.00715   0.00068  -0.0387  0.6472  0.0168  -0.7550   0.0000   0.0000   0.0000   0.7886
  -0.800   0.0828   0.00712   0.00065  -0.0388  0.6443  0.0168  -0.7104   0.0000   0.0000   0.0000   0.7187
  -0.700   0.0938   0.00710   0.00062  -0.0389  0.6418  0.0169  -0.6659   0.0000   0.0000   0.0000   0.6650
  -0.600   0.1045   0.00711   0.00060  -0.0390  0.6320  0.0170  -0.6220   0.0000   0.0000   0.0000   0.6229
  -0.500   0.1136   0.00740   0.00060  -0.0388  0.5587  0.0171  -0.5817   0.0000   0.0000   0.0000   0.5915
  -0.400   0.1161   0.00942   0.00090  -0.0383  0.0252  0.0171  -0.5593   0.0000   0.0000   0.0000   0.5797
  -0.300   0.1268   0.00944   0.00090  -0.0383  0.0185  0.0173  -0.5157   0.0000   0.0000   0.0000   0.5523
  -0.200   0.1376   0.00944   0.00089  -0.0384  0.0169  0.0174  -0.4716   0.0000   0.0000   0.0000   0.5292
  -0.100   0.1484   0.00944   0.00090  -0.0385  0.0165  0.0175  -0.4271   0.0000   0.0000   0.0000   0.5095
   0.000   0.1592   0.00945   0.00090  -0.0386  0.0160  0.0175  -0.3824   0.0000   0.0000   0.0000   0.4924
   0.100   0.1700   0.00946   0.00091  -0.0387  0.0154  0.0173  -0.3942   0.0000   0.0000   0.0000   0.4775
   0.200   0.1807   0.00946   0.00091  -0.0388  0.0150  0.0171  -0.4416   0.0000   0.0000   0.0000   0.4644
   0.300   0.1915   0.00947   0.00092  -0.0389  0.0145  0.0168  -0.4888   0.0000   0.0000   0.0000   0.4527
   0.400   0.2022   0.00948   0.00093  -0.0389  0.0145  0.0170  -0.5381   0.0000   0.0000   0.0000   0.4423
   0.500   0.2130   0.00949   0.00094  -0.0390  0.0145  0.0173  -0.5879   0.0000   0.0000   0.0000   0.4330
   0.600   0.2238   0.00951   0.00095  -0.0391  0.0144  0.0177  -0.6379   0.0000   0.0000   0.0000   0.4245
   0.700   0.2345   0.00952   0.00097  -0.0392  0.0143  0.0180  -0.6875   0.0000   0.0000   0.0000   0.4168
   0.800   0.2453   0.00954   0.00099  -0.0393  0.0142  0.0183  -0.7369   0.0000   0.0000   0.0000   0.4097
   0.900   0.2560   0.00955   0.00101  -0.0393  0.0142  0.0186  -0.7862   0.0000   0.0000   0.0000   0.4033
   1.000   0.2668   0.00957   0.00104  -0.0394  0.0141  0.0189  -0.8355   0.0000   0.0000   0.0000   0.3973
   1.100   0.2775   0.00959   0.00107  -0.0395  0.0141  0.0197  -0.8851   0.0000   0.0000   0.0000   0.3918
   1.200   0.2883   0.00962   0.00111  -0.0395  0.0141  0.0228  -0.9351   0.0000   0.0000   0.0000   0.3867
   1.300   0.2984   0.00814   0.00113  -0.0406  0.0141  0.5832  -0.9792   0.0000   0.0000   0.0000   0.3855
   1.400   0.3085   0.00794   0.00120  -0.0406  0.0141  0.6667  -1.0286   0.0000   0.0000   0.0000   0.3811
   1.500   0.3189   0.00790   0.00127  -0.0406  0.0142  0.6983  -1.0791   0.0000   0.0000   0.0000   0.3768
   1.600   0.3296   0.00794   0.00133  -0.0407  0.0142  0.7015  -1.1308   0.0000   0.0000   0.0000   0.3728
   1.700   0.3403   0.00799   0.00139  -0.0407  0.0143  0.7059  -1.1827   0.0000   0.0000   0.0000   0.3690
   1.800   0.3510   0.00803   0.00145  -0.0408  0.0144  0.7112  -1.2349   0.0000   0.0000   0.0000   0.3654
   1.900   0.3616   0.00807   0.00153  -0.0408  0.0145  0.7169  -1.2874   0.0000   0.0000   0.0000   0.3620
   2.000   0.3722   0.00812   0.00161  -0.0408  0.0146  0.7228  -1.3400   0.0000   0.0000   0.0000   0.3588
   2.100   0.3828   0.00817   0.00169  -0.0408  0.0147  0.7289  -1.3929   0.0000   0.0000   0.0000   0.3558
   2.200   0.3934   0.00824   0.00178  -0.0408  0.0148  0.7349  -1.4459   0.0000   0.0000   0.0000   0.3529
   2.300   0.4039   0.00831   0.00187  -0.0408  0.0149  0.7403  -1.4989   0.0000   0.0000   0.0000   0.3502
   2.400   0.4145   0.00838   0.00197  -0.0408  0.0151  0.7452  -1.5518   0.0000   0.0000   0.0000   0.3476
   2.500   0.4250   0.00847   0.00208  -0.0408  0.0152  0.7496  -1.6042   0.0000   0.0000   0.0000   0.3451
   2.600   0.4354   0.00855   0.00220  -0.0408  0.0154  0.7582  -1.6557   0.0000   0.0000   0.0000   0.3426
   2.700   0.4456   0.00862   0.00234  -0.0407  0.0155  0.7680  -1.7057   0.0000   0.0000   0.0000   0.3403
   2.800   0.4558   0.00872   0.00249  -0.0406  0.0157  0.7775  -1.7538   0.0000   0.0000   0.0000   0.3380
   2.900   0.4660   0.00884   0.00266  -0.0405  0.0159  0.7862  -1.7993   0.0000   0.0000   0.0000   0.3357
   3.000   0.4762   0.00896   0.00280  -0.0404  0.0156  0.7935  -1.8563   0.0000   0.0000   0.0000   0.3337
   3.100   0.4863   0.00909   0.00294  -0.0404  0.0147  0.7995  -1.9220   0.0000   0.0000   0.0000   0.3317
   3.200   0.4958   0.00928   0.00319  -0.0402  0.0138  0.8105  -1.9737   0.0000   0.0000   0.0000   0.3297
   3.300   0.5052   0.00946   0.00344  -0.0399  0.0135  0.8227  -2.0221   0.0000   0.0000   0.0000   0.3276
   3.400   0.5145   0.00968   0.00371  -0.0396  0.0133  0.8343  -2.0686   0.0000   0.0000   0.0000   0.3256
   3.500   0.5237   0.00998   0.00406  -0.0393  0.0130  0.8435  -2.1100   0.0000   0.0000   0.0000   0.3236
   3.600   0.5325   0.01040   0.00454  -0.0390  0.0126  0.8507  -2.1410   0.0000   0.0000   0.0000   0.3216
   3.700   0.5398   0.01101   0.00526  -0.0382  0.0122  0.8637  -2.1496   0.0000   0.0000   0.0000   0.3192
   3.800   0.5486   0.01115   0.00545  -0.0378  0.0119  0.8776  -2.2707   0.0000   0.0000   0.0000   0.3173
   3.900   0.5594   0.01076   0.00504  -0.0379  0.0115  0.8907  -2.5069   0.0000   0.0000   0.0000   0.3160
   4.000   0.5702   0.01052   0.00478  -0.0380  0.0109  0.9001  -2.7396   0.0000   0.0000   0.0000   0.3148
   4.100   0.5791   0.01029   0.00454  -0.0376  0.0101  0.9160  -2.9597   0.0000   0.0000   0.0000   0.3130
   4.200   0.5886   0.01002   0.00422  -0.0374  0.0091  0.9301  -3.1993   0.0000   0.0000   0.0000   0.3116
   4.300   0.5984   0.00988   0.00398  -0.0373  0.0080  0.9400  -3.4414   0.0000   0.0000   0.0000   0.3103
   4.400   0.6061   0.01046   0.00462  -0.0366  0.0067  0.9455  -3.5332   0.0000   0.0000   0.0000   0.3082
   4.500   0.6148   0.01082   0.00504  -0.0360  0.0063  0.9495  -3.6599   0.0000   0.0000   0.0000   0.3064
   4.600   0.6230   0.01188   0.00624  -0.0352  0.0062  0.9578  -3.6755   0.0000   0.0000   0.0000   0.3042
   4.700   0.6308   0.01450   0.00909  -0.0336  0.0075  0.9627  -3.4854   0.0000   0.0000   0.0000   0.3010


