xflr5 v6.61

 Calculated polar for: NACA 23012  12%

 1 1 Reynolds number fixed          Mach number fixed         

 xtrf =   1.000 (top)        1.000 (bottom)
 Mach =   0.000     Re =     0.625 e 6     Ncrit =   9.000

  alpha     CL        CD       CDp       Cm    Top Xtr Bot Xtr   Cpmin    Chinge    XCp    
 ------- -------- --------- --------- -------- ------- ------- -------- --------- ---------
 -10.000  -0.5489   0.08155   0.07935  -0.0247  1.0000  0.0308  -2.5160   0.0000   0.0000   0.0000   0.1959
  -9.900  -0.5555   0.07859   0.07636  -0.0275  1.0000  0.0308  -2.5734   0.0000   0.0000   0.0000   0.1916
  -9.800  -0.5626   0.07604   0.07378  -0.0297  1.0000  0.0308  -2.6224   0.0000   0.0000   0.0000   0.1885
  -9.700  -0.5701   0.07386   0.07156  -0.0314  1.0000  0.0308  -2.6639   0.0000   0.0000   0.0000   0.1865
  -9.600  -0.5774   0.07189   0.06956  -0.0326  1.0000  0.0308  -2.6986   0.0000   0.0000   0.0000   0.1853
  -9.500  -0.5846   0.07017   0.06780  -0.0333  1.0000  0.0308  -2.7270   0.0000   0.0000   0.0000   0.1850
  -9.400  -0.5916   0.06866   0.06625  -0.0334  1.0000  0.0308  -2.7501   0.0000   0.0000   0.0000   0.1857
  -9.300  -0.5983   0.06728   0.06484  -0.0331  1.0000  0.0308  -2.7684   0.0000   0.0000   0.0000   0.1870
  -9.200  -0.6044   0.06599   0.06351  -0.0325  1.0000  0.0308  -2.7823   0.0000   0.0000   0.0000   0.1887
  -9.100  -0.6085   0.06461   0.06209  -0.0321  1.0000  0.0308  -2.7904   0.0000   0.0000   0.0000   0.1898
  -9.000  -0.6115   0.06321   0.06064  -0.0318  1.0000  0.0308  -2.7943   0.0000   0.0000   0.0000   0.1908
  -8.900  -0.6140   0.06184   0.05921  -0.0314  1.0000  0.0308  -2.7949   0.0000   0.0000   0.0000   0.1917
  -8.800  -0.6159   0.06049   0.05782  -0.0309  1.0000  0.0308  -2.7926   0.0000   0.0000   0.0000   0.1927
  -8.700  -0.6174   0.05917   0.05644  -0.0304  1.0000  0.0308  -2.7876   0.0000   0.0000   0.0000   0.1938
  -8.600  -0.6183   0.05787   0.05509  -0.0298  1.0000  0.0308  -2.7800   0.0000   0.0000   0.0000   0.1948
  -8.500  -0.6189   0.05660   0.05376  -0.0292  1.0000  0.0309  -2.7703   0.0000   0.0000   0.0000   0.1960
  -8.400  -0.6192   0.05535   0.05246  -0.0285  1.0000  0.0309  -2.7585   0.0000   0.0000   0.0000   0.1972
  -8.300  -0.6192   0.05413   0.05119  -0.0277  1.0000  0.0309  -2.7450   0.0000   0.0000   0.0000   0.1986
  -8.200  -0.6190   0.05295   0.04995  -0.0269  1.0000  0.0309  -2.7300   0.0000   0.0000   0.0000   0.2000
  -8.100  -0.6187   0.05180   0.04875  -0.0260  1.0000  0.0309  -2.7137   0.0000   0.0000   0.0000   0.2015
  -8.000  -0.6183   0.05069   0.04757  -0.0250  1.0000  0.0309  -2.6962   0.0000   0.0000   0.0000   0.2032
  -7.900  -0.6177   0.04959   0.04643  -0.0239  1.0000  0.0309  -2.6774   0.0000   0.0000   0.0000   0.2049
  -7.800  -0.6170   0.04853   0.04531  -0.0228  1.0000  0.0309  -2.6575   0.0000   0.0000   0.0000   0.2067
  -7.700  -0.6162   0.04750   0.04422  -0.0217  1.0000  0.0309  -2.6366   0.0000   0.0000   0.0000   0.2086
  -7.600  -0.6154   0.04649   0.04316  -0.0205  1.0000  0.0309  -2.6196   0.0000   0.0000   0.0000   0.2105
  -7.500  -0.6145   0.04551   0.04212  -0.0193  1.0000  0.0309  -2.6146   0.0000   0.0000   0.0000   0.2126
  -7.400  -0.6136   0.04455   0.04110  -0.0180  1.0000  0.0309  -2.6090   0.0000   0.0000   0.0000   0.2147
  -7.300  -0.6126   0.04361   0.04011  -0.0167  1.0000  0.0309  -2.6029   0.0000   0.0000   0.0000   0.2168
  -7.200  -0.6115   0.04269   0.03913  -0.0154  1.0000  0.0309  -2.5963   0.0000   0.0000   0.0000   0.2190
  -7.100  -0.6104   0.04179   0.03817  -0.0140  1.0000  0.0309  -2.5891   0.0000   0.0000   0.0000   0.2212
  -7.000  -0.6091   0.04090   0.03723  -0.0127  1.0000  0.0309  -2.5814   0.0000   0.0000   0.0000   0.2235
  -6.900  -0.6077   0.04003   0.03630  -0.0113  1.0000  0.0310  -2.5731   0.0000   0.0000   0.0000   0.2257
  -6.800  -0.6000   0.03889   0.03508  -0.0113  0.9994  0.0310  -2.5559   0.0000   0.0000   0.0000   0.2256
  -6.200  -0.5526   0.02285   0.01792  -0.0126  0.9916  0.0288  -2.8240   0.0000   0.0000   0.0000   0.2215
  -6.100  -0.5416   0.02092   0.01580  -0.0127  0.9906  0.0280  -2.8592   0.0000   0.0000   0.0000   0.2207
  -6.000  -0.5292   0.01948   0.01421  -0.0130  0.9899  0.0274  -2.8698   0.0000   0.0000   0.0000   0.2196
  -5.900  -0.5160   0.01827   0.01288  -0.0134  0.9892  0.0269  -2.8686   0.0000   0.0000   0.0000   0.2182
  -5.800  -0.5042   0.01727   0.01179  -0.0135  0.9877  0.0265  -2.8607   0.0000   0.0000   0.0000   0.2174
  -5.700  -0.4919   0.01637   0.01082  -0.0137  0.9860  0.0262  -2.8472   0.0000   0.0000   0.0000   0.2163
  -5.600  -0.4791   0.01556   0.00993  -0.0140  0.9845  0.0259  -2.8288   0.0000   0.0000   0.0000   0.2150
  -5.500  -0.4661   0.01483   0.00914  -0.0143  0.9832  0.0258  -2.8060   0.0000   0.0000   0.0000   0.2135
  -5.400  -0.4530   0.01419   0.00845  -0.0147  0.9819  0.0257  -2.7790   0.0000   0.0000   0.0000   0.2118
  -5.300  -0.4399   0.01361   0.00782  -0.0150  0.9807  0.0257  -2.7493   0.0000   0.0000   0.0000   0.2100
  -5.200  -0.4266   0.01301   0.00708  -0.0154  0.9796  0.0259  -2.7347   0.0000   0.0000   0.0000   0.2079
  -5.100  -0.4127   0.01252   0.00655  -0.0160  0.9785  0.0261  -2.6985   0.0000   0.0000   0.0000   0.2054
  -5.000  -0.3986   0.01208   0.00606  -0.0166  0.9774  0.0265  -2.6609   0.0000   0.0000   0.0000   0.2025
  -4.900  -0.3844   0.01169   0.00563  -0.0172  0.9761  0.0272  -2.6230   0.0000   0.0000   0.0000   0.1994
  -4.800  -0.3733   0.01141   0.00531  -0.0171  0.9730  0.0282  -2.5879   0.0000   0.0000   0.0000   0.1983
  -4.700  -0.3614   0.01128   0.00518  -0.0171  0.9695  0.0295  -2.5382   0.0000   0.0000   0.0000   0.1967
  -4.600  -0.3478   0.01130   0.00523  -0.0176  0.9666  0.0304  -2.4659   0.0000   0.0000   0.0000   0.1935
  -4.500  -0.3368   0.01080   0.00471  -0.0176  0.9632  0.0371  -2.4469   0.0000   0.0000   0.0000   0.1919
  -4.400  -0.3230   0.01068   0.00462  -0.0181  0.9600  0.0392  -2.3763   0.0000   0.0000   0.0000   0.1880
  -4.300  -0.3089   0.01059   0.00454  -0.0186  0.9565  0.0406  -2.3034   0.0000   0.0000   0.0000   0.1837
  -4.200  -0.2998   0.01051   0.00447  -0.0181  0.9494  0.0416  -2.2455   0.0000   0.0000   0.0000   0.1837
  -4.100  -0.2886   0.01041   0.00437  -0.0180  0.9429  0.0426  -2.1830   0.0000   0.0000   0.0000   0.1818
  -4.000  -0.2767   0.01031   0.00425  -0.0180  0.9372  0.0435  -2.1197   0.0000   0.0000   0.0000   0.1790
  -3.900  -0.2654   0.01021   0.00414  -0.0179  0.9319  0.0443  -2.0589   0.0000   0.0000   0.0000   0.1765
  -3.800  -0.2555   0.01012   0.00404  -0.0176  0.9255  0.0451  -2.0028   0.0000   0.0000   0.0000   0.1753
  -3.700  -0.2452   0.01003   0.00393  -0.0173  0.9189  0.0458  -1.9460   0.0000   0.0000   0.0000   0.1734
  -3.600  -0.2345   0.00993   0.00381  -0.0170  0.9121  0.0465  -1.8889   0.0000   0.0000   0.0000   0.1712
  -3.500  -0.2238   0.00985   0.00370  -0.0168  0.9057  0.0471  -1.8321   0.0000   0.0000   0.0000   0.1687
  -3.400  -0.2134   0.00977   0.00360  -0.0166  0.8996  0.0477  -1.7766   0.0000   0.0000   0.0000   0.1661
  -3.300  -0.2029   0.00969   0.00351  -0.0163  0.8927  0.0483  -1.7212   0.0000   0.0000   0.0000   0.1632
  -3.200  -0.1924   0.00963   0.00343  -0.0161  0.8853  0.0488  -1.6658   0.0000   0.0000   0.0000   0.1600
  -3.100  -0.1818   0.00958   0.00335  -0.0159  0.8779  0.0492  -1.6104   0.0000   0.0000   0.0000   0.1564
  -3.000  -0.1712   0.00954   0.00328  -0.0156  0.8708  0.0496  -1.5548   0.0000   0.0000   0.0000   0.1521
  -2.900  -0.1618   0.00924   0.00292  -0.0152  0.8640  0.0568  -1.5205   0.0000   0.0000   0.0000   0.1495
  -2.800  -0.1516   0.00910   0.00282  -0.0149  0.8559  0.0634  -1.4707   0.0000   0.0000   0.0000   0.1449
  -2.700  -0.1412   0.00903   0.00274  -0.0147  0.8473  0.0672  -1.4174   0.0000   0.0000   0.0000   0.1393
  -2.600  -0.1307   0.00900   0.00267  -0.0144  0.8384  0.0697  -1.3644   0.0000   0.0000   0.0000   0.1328
  -2.500  -0.1199   0.00897   0.00261  -0.0142  0.8308  0.0715  -1.3107   0.0000   0.0000   0.0000   0.1239
  -2.400  -0.1091   0.00894   0.00256  -0.0141  0.8220  0.0726  -1.2568   0.0000   0.0000   0.0000   0.1131
  -2.300  -0.0991   0.00879   0.00241  -0.0138  0.8114  0.0854  -1.2120   0.0000   0.0000   0.0000   0.1033
  -2.200  -0.0892   0.00871   0.00233  -0.0134  0.7994  0.0947  -1.1629   0.0000   0.0000   0.0000   0.0915
  -2.100  -0.0790   0.00860   0.00225  -0.0132  0.7893  0.1123  -1.1138   0.0000   0.0000   0.0000   0.0747
  -2.000  -0.0697   0.00834   0.00214  -0.0129  0.7786  0.1564  -1.0673   0.0000   0.0000   0.0000   0.0564
  -1.900  -0.0649   0.00750   0.00195  -0.0121  0.7671  0.3329  -1.0325   0.0000   0.0000   0.0000   0.0550
  -1.800  -0.0569   0.00722   0.00187  -0.0115  0.7544  0.4050  -0.9887   0.0000   0.0000   0.0000   0.0379
  -1.700  -0.0480   0.00698   0.00183  -0.0111  0.7455  0.4615  -0.9430   0.0000   0.0000   0.0000   0.0079
  -1.600  -0.0385   0.00681   0.00180  -0.0108  0.7366  0.5048  -0.8960   0.0000   0.0000   0.0000  -0.0424
  -1.500  -0.0292   0.00667   0.00177  -0.0104  0.7262  0.5454  -0.8497   0.0000   0.0000   0.0000  -0.1198
  -1.400  -0.0202   0.00655   0.00175  -0.0099  0.7149  0.5825  -0.8205   0.0000   0.0000   0.0000  -0.2592
  -1.300  -0.0111   0.00645   0.00171  -0.0094  0.7034  0.6207  -0.7962   0.0000   0.0000   0.0000  -0.6248
  -1.200  -0.0008   0.00637   0.00170  -0.0092  0.6960  0.6448  -0.7635   0.0000   0.0000   0.0000  -11.0175
  -1.100   0.0093   0.00632   0.00169  -0.0089  0.6864  0.6670  -0.7313   0.0000   0.0000   0.0000   1.2311
  -1.000   0.0190   0.00626   0.00169  -0.0085  0.6754  0.6921  -0.6999   0.0000   0.0000   0.0000   0.7056
  -0.900   0.0285   0.00624   0.00168  -0.0080  0.6632  0.7148  -0.6689   0.0000   0.0000   0.0000   0.5361
  -0.800   0.0383   0.00621   0.00169  -0.0076  0.6530  0.7382  -0.6379   0.0000   0.0000   0.0000   0.4514
  -0.700   0.0489   0.00618   0.00169  -0.0074  0.6450  0.7549  -0.6061   0.0000   0.0000   0.0000   0.4023
  -0.600   0.0588   0.00615   0.00170  -0.0070  0.6350  0.7720  -0.5967   0.0000   0.0000   0.0000   0.3693
  -0.500   0.0692   0.00618   0.00170  -0.0068  0.6234  0.7847  -0.6091   0.0000   0.0000   0.0000   0.3469
  -0.400   0.0796   0.00623   0.00170  -0.0065  0.6100  0.7943  -0.6216   0.0000   0.0000   0.0000   0.3306
  -0.300   0.0898   0.00622   0.00171  -0.0062  0.6011  0.8068  -0.6341   0.0000   0.0000   0.0000   0.3175
  -0.200   0.1004   0.00622   0.00172  -0.0060  0.5928  0.8186  -0.6468   0.0000   0.0000   0.0000   0.3075
  -0.100   0.1111   0.00625   0.00173  -0.0058  0.5823  0.8286  -0.6596   0.0000   0.0000   0.0000   0.2998
   0.000   0.1215   0.00629   0.00173  -0.0055  0.5704  0.8373  -0.6722   0.0000   0.0000   0.0000   0.2931
   0.100   0.1313   0.00634   0.00176  -0.0051  0.5566  0.8493  -0.6845   0.0000   0.0000   0.0000   0.2864
   0.200   0.1417   0.00636   0.00179  -0.0048  0.5487  0.8619  -0.6973   0.0000   0.0000   0.0000   0.2813
   0.400   0.1625   0.00642   0.00183  -0.0043  0.5299  0.8822  -0.7265   0.0000   0.0000   0.0000   0.2731
   0.500   0.1725   0.00649   0.00187  -0.0039  0.5180  0.8930  -0.7417   0.0000   0.0000   0.0000   0.2691
   0.600   0.1819   0.00657   0.00189  -0.0034  0.5037  0.9034  -0.7566   0.0000   0.0000   0.0000   0.2653
   0.700   0.1927   0.00661   0.00194  -0.0031  0.4957  0.9130  -0.7726   0.0000   0.0000   0.0000   0.2627
   0.800   0.2031   0.00667   0.00198  -0.0028  0.4858  0.9221  -0.7884   0.0000   0.0000   0.0000   0.2601
   0.900   0.2126   0.00676   0.00201  -0.0023  0.4731  0.9299  -0.8035   0.0000   0.0000   0.0000   0.2572
   1.000   0.2228   0.00687   0.00204  -0.0020  0.4569  0.9355  -0.8191   0.0000   0.0000   0.0000   0.2554
   1.100   0.2348   0.00694   0.00208  -0.0021  0.4451  0.9397  -0.8363   0.0000   0.0000   0.0000   0.2552
   1.200   0.2467   0.00701   0.00211  -0.0022  0.4356  0.9435  -0.8534   0.0000   0.0000   0.0000   0.2550
   1.300   0.2577   0.00709   0.00214  -0.0021  0.4243  0.9479  -0.8699   0.0000   0.0000   0.0000   0.2542
   1.400   0.2678   0.00719   0.00218  -0.0018  0.4120  0.9528  -0.8857   0.0000   0.0000   0.0000   0.2527
   1.500   0.2777   0.00729   0.00221  -0.0015  0.3976  0.9573  -0.9013   0.0000   0.0000   0.0000   0.2513
   1.600   0.2918   0.00735   0.00225  -0.0021  0.3912  0.9595  -0.9204   0.0000   0.0000   0.0000   0.2529
   1.700   0.3053   0.00742   0.00228  -0.0026  0.3821  0.9617  -0.9392   0.0000   0.0000   0.0000   0.2541
   1.800   0.3185   0.00753   0.00232  -0.0030  0.3709  0.9641  -0.9578   0.0000   0.0000   0.0000   0.2550
   1.900   0.3314   0.00765   0.00237  -0.0033  0.3573  0.9665  -0.9761   0.0000   0.0000   0.0000   0.2557
   2.000   0.3442   0.00774   0.00241  -0.0037  0.3456  0.9689  -0.9943   0.0000   0.0000   0.0000   0.2563
   2.100   0.3566   0.00780   0.00245  -0.0039  0.3399  0.9715  -1.0124   0.0000   0.0000   0.0000   0.2566
   2.200   0.3676   0.00787   0.00248  -0.0039  0.3325  0.9748  -1.0294   0.0000   0.0000   0.0000   0.2559
   2.300   0.3816   0.00797   0.00252  -0.0045  0.3231  0.9763  -1.0489   0.0000   0.0000   0.0000   0.2572
   2.400   0.3967   0.00810   0.00261  -0.0054  0.3112  0.9773  -1.0696   0.0000   0.0000   0.0000   0.2590
   2.500   0.4122   0.00822   0.00267  -0.0064  0.2979  0.9782  -1.0903   0.0000   0.0000   0.0000   0.2608
   2.600   0.4279   0.00827   0.00270  -0.0074  0.2947  0.9791  -1.1115   0.0000   0.0000   0.0000   0.2624
   2.700   0.4432   0.00834   0.00274  -0.0083  0.2901  0.9802  -1.1325   0.0000   0.0000   0.0000   0.2638
   2.800   0.4580   0.00841   0.00278  -0.0091  0.2846  0.9813  -1.1531   0.0000   0.0000   0.0000   0.2649
   2.900   0.4723   0.00850   0.00282  -0.0098  0.2786  0.9825  -1.1733   0.0000   0.0000   0.0000   0.2658
   3.000   0.4862   0.00860   0.00286  -0.0105  0.2720  0.9838  -1.1959   0.0000   0.0000   0.0000   0.2664
   3.100   0.5000   0.00871   0.00292  -0.0111  0.2636  0.9853  -1.2201   0.0000   0.0000   0.0000   0.2670
   3.200   0.5134   0.00883   0.00300  -0.0116  0.2546  0.9870  -1.2438   0.0000   0.0000   0.0000   0.2674
   3.300   0.5266   0.00891   0.00306  -0.0120  0.2509  0.9889  -1.2677   0.0000   0.0000   0.0000   0.2676
   3.400   0.5422   0.00894   0.00309  -0.0130  0.2496  0.9897  -1.2947   0.0000   0.0000   0.0000   0.2687
   3.500   0.5577   0.00897   0.00312  -0.0140  0.2478  0.9905  -1.3216   0.0000   0.0000   0.0000   0.2697
   3.600   0.5729   0.00902   0.00316  -0.0149  0.2455  0.9913  -1.3483   0.0000   0.0000   0.0000   0.2705
   3.700   0.5878   0.00907   0.00320  -0.0157  0.2431  0.9922  -1.3747   0.0000   0.0000   0.0000   0.2712
   3.800   0.6023   0.00913   0.00324  -0.0165  0.2403  0.9932  -1.4008   0.0000   0.0000   0.0000   0.2717
   3.900   0.6166   0.00919   0.00328  -0.0172  0.2373  0.9942  -1.4268   0.0000   0.0000   0.0000   0.2722
   4.000   0.6309   0.00927   0.00332  -0.0180  0.2340  0.9953  -1.4529   0.0000   0.0000   0.0000   0.2727
   4.100   0.6453   0.00935   0.00337  -0.0187  0.2304  0.9964  -1.4792   0.0000   0.0000   0.0000   0.2731
   4.200   0.6598   0.00945   0.00344  -0.0195  0.2260  0.9973  -1.5055   0.0000   0.0000   0.0000   0.2736
   4.300   0.6746   0.00955   0.00351  -0.0203  0.2208  0.9981  -1.5322   0.0000   0.0000   0.0000   0.2741
   4.400   0.6892   0.00967   0.00361  -0.0212  0.2152  0.9989  -1.5583   0.0000   0.0000   0.0000   0.2746
   4.500   0.7035   0.00982   0.00374  -0.0219  0.2097  0.9997  -1.5870   0.0000   0.0000   0.0000   0.2749
   4.600   0.7142   0.00991   0.00383  -0.0219  0.2074  1.0000  -1.6149   0.0000   0.0000   0.0000   0.2744
   4.700   0.7236   0.00993   0.00386  -0.0216  0.2071  1.0000  -1.6416   0.0000   0.0000   0.0000   0.2734
   4.800   0.7329   0.00996   0.00389  -0.0213  0.2067  1.0000  -1.6684   0.0000   0.0000   0.0000   0.2725
   4.900   0.7423   0.00999   0.00393  -0.0209  0.2062  1.0000  -1.6953   0.0000   0.0000   0.0000   0.2716
   5.000   0.7516   0.01002   0.00397  -0.0206  0.2056  1.0000  -1.7223   0.0000   0.0000   0.0000   0.2707
   5.100   0.7609   0.01005   0.00401  -0.0203  0.2049  1.0000  -1.7494   0.0000   0.0000   0.0000   0.2698
   5.200   0.7702   0.01009   0.00406  -0.0199  0.2042  1.0000  -1.7766   0.0000   0.0000   0.0000   0.2690
   5.300   0.7795   0.01013   0.00410  -0.0196  0.2032  1.0000  -1.8040   0.0000   0.0000   0.0000   0.2681
   5.400   0.7888   0.01017   0.00415  -0.0192  0.2020  1.0000  -1.8315   0.0000   0.0000   0.0000   0.2673
   5.500   0.7981   0.01021   0.00419  -0.0189  0.2005  1.0000  -1.8592   0.0000   0.0000   0.0000   0.2665
   5.600   0.8073   0.01025   0.00423  -0.0186  0.1988  1.0000  -1.8870   0.0000   0.0000   0.0000   0.2657
   5.700   0.8166   0.01030   0.00437  -0.0182  0.1964  1.0000  -1.9100   0.0000   0.0000   0.0000   0.2649
   5.800   0.8257   0.01036   0.00443  -0.0178  0.1946  1.0000  -1.9375   0.0000   0.0000   0.0000   0.2640
   5.900   0.8347   0.01043   0.00449  -0.0174  0.1927  1.0000  -1.9742   0.0000   0.0000   0.0000   0.2632
   6.000   0.8438   0.01050   0.00455  -0.0171  0.1907  1.0000  -2.0106   0.0000   0.0000   0.0000   0.2625
   6.100   0.8528   0.01058   0.00462  -0.0167  0.1886  1.0000  -2.0469   0.0000   0.0000   0.0000   0.2617
   6.200   0.8617   0.01067   0.00469  -0.0163  0.1863  1.0000  -2.0830   0.0000   0.0000   0.0000   0.2609
   6.300   0.8705   0.01077   0.00477  -0.0159  0.1836  1.0000  -2.1190   0.0000   0.0000   0.0000   0.2601
   6.400   0.8793   0.01087   0.00487  -0.0154  0.1806  1.0000  -2.1549   0.0000   0.0000   0.0000   0.2593
   6.500   0.8878   0.01100   0.00498  -0.0150  0.1765  1.0000  -2.1903   0.0000   0.0000   0.0000   0.2585
   6.600   0.8960   0.01117   0.00513  -0.0144  0.1717  1.0000  -2.2248   0.0000   0.0000   0.0000   0.2577
   6.700   0.9038   0.01139   0.00536  -0.0138  0.1666  1.0000  -2.2580   0.0000   0.0000   0.0000   0.2568
   6.800   0.9134   0.01141   0.00539  -0.0136  0.1659  1.0000  -2.2980   0.0000   0.0000   0.0000   0.2562
   6.900   0.9232   0.01142   0.00540  -0.0133  0.1655  1.0000  -2.3501   0.0000   0.0000   0.0000   0.2556
   7.000   0.9330   0.01143   0.00542  -0.0130  0.1649  1.0000  -2.4025   0.0000   0.0000   0.0000   0.2551
   7.100   0.9427   0.01146   0.00546  -0.0128  0.1641  1.0000  -2.4550   0.0000   0.0000   0.0000   0.2545
   7.200   0.9523   0.01150   0.00551  -0.0125  0.1632  1.0000  -2.5076   0.0000   0.0000   0.0000   0.2540
   7.300   0.9618   0.01155   0.00556  -0.0122  0.1620  1.0000  -2.5604   0.0000   0.0000   0.0000   0.2534
   7.400   0.9714   0.01160   0.00563  -0.0119  0.1607  1.0000  -2.6133   0.0000   0.0000   0.0000   0.2529
   7.500   0.9808   0.01167   0.00569  -0.0116  0.1590  1.0000  -2.6664   0.0000   0.0000   0.0000   0.2523
   7.600   0.9902   0.01174   0.00576  -0.0113  0.1570  1.0000  -2.7198   0.0000   0.0000   0.0000   0.2518
   7.700   0.9995   0.01182   0.00584  -0.0110  0.1549  1.0000  -2.7732   0.0000   0.0000   0.0000   0.2512
   7.800   1.0087   0.01191   0.00592  -0.0107  0.1528  1.0000  -2.8266   0.0000   0.0000   0.0000   0.2507
   7.900   1.0179   0.01200   0.00600  -0.0103  0.1505  1.0000  -2.8803   0.0000   0.0000   0.0000   0.2501
   8.000   1.0269   0.01211   0.00609  -0.0100  0.1480  1.0000  -2.9340   0.0000   0.0000   0.0000   0.2495
   8.100   1.0359   0.01223   0.00618  -0.0096  0.1453  1.0000  -2.9877   0.0000   0.0000   0.0000   0.2490
   8.200   1.0448   0.01235   0.00629  -0.0093  0.1422  1.0000  -3.0415   0.0000   0.0000   0.0000   0.2484
   8.300   1.0536   0.01249   0.00641  -0.0089  0.1387  1.0000  -3.0952   0.0000   0.0000   0.0000   0.2479
   8.400   1.0623   0.01264   0.00656  -0.0085  0.1349  1.0000  -3.1486   0.0000   0.0000   0.0000   0.2473
   8.500   1.0708   0.01282   0.00674  -0.0080  0.1312  1.0000  -3.2013   0.0000   0.0000   0.0000   0.2467
   8.600   1.0790   0.01303   0.00696  -0.0076  0.1277  1.0000  -3.2532   0.0000   0.0000   0.0000   0.2460
   8.700   1.0888   0.01309   0.00704  -0.0074  0.1273  1.0000  -3.3119   0.0000   0.0000   0.0000   0.2456
   8.800   1.0987   0.01315   0.00711  -0.0072  0.1269  1.0000  -3.3712   0.0000   0.0000   0.0000   0.2453
   8.900   1.1086   0.01321   0.00719  -0.0070  0.1264  1.0000  -3.4308   0.0000   0.0000   0.0000   0.2449
   9.000   1.1185   0.01327   0.00728  -0.0068  0.1257  1.0000  -3.4963   0.0000   0.0000   0.0000   0.2445
   9.100   1.1279   0.01338   0.00750  -0.0065  0.1254  1.0000  -3.5670   0.0000   0.0000   0.0000   0.2441
   9.200   1.1380   0.01343   0.00755  -0.0064  0.1236  1.0000  -3.6486   0.0000   0.0000   0.0000   0.2438
   9.300   1.1477   0.01351   0.00761  -0.0062  0.1203  1.0000  -3.7311   0.0000   0.0000   0.0000   0.2434
   9.400   1.1569   0.01363   0.00770  -0.0060  0.1164  1.0000  -3.8123   0.0000   0.0000   0.0000   0.2430
   9.500   1.1659   0.01378   0.00782  -0.0057  0.1128  1.0000  -3.8929   0.0000   0.0000   0.0000   0.2426
   9.600   1.1748   0.01395   0.00794  -0.0054  0.1091  1.0000  -3.9735   0.0000   0.0000   0.0000   0.2422
   9.700   1.1834   0.01414   0.00809  -0.0051  0.1050  1.0000  -4.0537   0.0000   0.0000   0.0000   0.2417
   9.800   1.1920   0.01433   0.00827  -0.0047  0.1001  1.0000  -4.1342   0.0000   0.0000   0.0000   0.2413
   9.900   1.2006   0.01453   0.00847  -0.0044  0.0954  1.0000  -4.2146   0.0000   0.0000   0.0000   0.2408
  10.000   1.2094   0.01470   0.00866  -0.0041  0.0925  1.0000  -4.2965   0.0000   0.0000   0.0000   0.2403
  10.100   1.2190   0.01480   0.00878  -0.0039  0.0919  1.0000  -4.3841   0.0000   0.0000   0.0000   0.2400
  10.200   1.2284   0.01492   0.00892  -0.0037  0.0911  1.0000  -4.4716   0.0000   0.0000   0.0000   0.2396
  10.300   1.2377   0.01505   0.00906  -0.0034  0.0899  1.0000  -4.5590   0.0000   0.0000   0.0000   0.2393
  10.400   1.2468   0.01519   0.00921  -0.0032  0.0882  1.0000  -4.6461   0.0000   0.0000   0.0000   0.2389
  10.500   1.2556   0.01536   0.00937  -0.0029  0.0859  1.0000  -4.7327   0.0000   0.0000   0.0000   0.2385
  10.600   1.2642   0.01555   0.00954  -0.0026  0.0831  1.0000  -4.8185   0.0000   0.0000   0.0000   0.2381
  10.700   1.2724   0.01576   0.00973  -0.0022  0.0799  1.0000  -4.9032   0.0000   0.0000   0.0000   0.2376
  10.800   1.2803   0.01601   0.00993  -0.0019  0.0764  1.0000  -4.9870   0.0000   0.0000   0.0000   0.2372
  10.900   1.2881   0.01627   0.01015  -0.0015  0.0724  1.0000  -5.0704   0.0000   0.0000   0.0000   0.2367
  11.000   1.2959   0.01652   0.01040  -0.0011  0.0678  1.0000  -5.1537   0.0000   0.0000   0.0000   0.2362
  11.100   1.3036   0.01677   0.01066  -0.0006  0.0635  1.0000  -5.2368   0.0000   0.0000   0.0000   0.2357
  11.200   1.3122   0.01695   0.01086  -0.0003  0.0621  1.0000  -5.3253   0.0000   0.0000   0.0000   0.2353
  11.300   1.3209   0.01711   0.01104  -0.0000  0.0614  1.0000  -5.4162   0.0000   0.0000   0.0000   0.2349
  11.400   1.3293   0.01728   0.01124   0.0003  0.0603  1.0000  -5.5062   0.0000   0.0000   0.0000   0.2345
  11.500   1.3375   0.01749   0.01145   0.0006  0.0588  1.0000  -5.5950   0.0000   0.0000   0.0000   0.2341
  11.600   1.3451   0.01772   0.01168   0.0010  0.0567  1.0000  -5.6820   0.0000   0.0000   0.0000   0.2337
  11.700   1.3523   0.01800   0.01194   0.0015  0.0543  1.0000  -5.7666   0.0000   0.0000   0.0000   0.2332
  11.800   1.3588   0.01831   0.01222   0.0020  0.0516  1.0000  -5.8488   0.0000   0.0000   0.0000   0.2326
  11.900   1.3650   0.01866   0.01252   0.0026  0.0487  1.0000  -5.9287   0.0000   0.0000   0.0000   0.2320
  12.000   1.3711   0.01901   0.01284   0.0031  0.0451  1.0000  -6.0081   0.0000   0.0000   0.0000   0.2314
  12.100   1.3771   0.01936   0.01319   0.0038  0.0409  1.0000  -6.0851   0.0000   0.0000   0.0000   0.2308
  12.200   1.3826   0.01973   0.01359   0.0045  0.0377  1.0000  -6.1582   0.0000   0.0000   0.0000   0.2302
  12.300   1.3904   0.01991   0.01380   0.0048  0.0373  1.0000  -6.2501   0.0000   0.0000   0.0000   0.2297
  12.400   1.3973   0.02016   0.01414   0.0053  0.0368  1.0000  -6.3432   0.0000   0.0000   0.0000   0.2292
  12.500   1.4040   0.02041   0.01442   0.0058  0.0359  1.0000  -6.4310   0.0000   0.0000   0.0000   0.2287
  12.600   1.4097   0.02071   0.01473   0.0065  0.0347  1.0000  -6.5123   0.0000   0.0000   0.0000   0.2281
  12.700   1.4139   0.02106   0.01509   0.0073  0.0331  1.0000  -6.5847   0.0000   0.0000   0.0000   0.2273
  12.800   1.4168   0.02147   0.01549   0.0084  0.0315  1.0000  -6.6497   0.0000   0.0000   0.0000   0.2264
  12.900   1.4188   0.02194   0.01594   0.0095  0.0299  1.0000  -6.7084   0.0000   0.0000   0.0000   0.2255
  13.000   1.4203   0.02244   0.01643   0.0106  0.0284  1.0000  -6.7643   0.0000   0.0000   0.0000   0.2245
  13.100   1.4220   0.02296   0.01695   0.0117  0.0269  1.0000  -6.8186   0.0000   0.0000   0.0000   0.2236
  13.200   1.4236   0.02349   0.01751   0.0127  0.0256  1.0000  -6.8715   0.0000   0.0000   0.0000   0.2227
  13.300   1.4252   0.02402   0.01809   0.0137  0.0246  1.0000  -6.9238   0.0000   0.0000   0.0000   0.2218
  13.400   1.4263   0.02458   0.01870   0.0147  0.0238  1.0000  -6.9736   0.0000   0.0000   0.0000   0.2209
  13.500   1.4272   0.02517   0.01935   0.0157  0.0231  1.0000  -7.0221   0.0000   0.0000   0.0000   0.2200
  13.600   1.4276   0.02581   0.02005   0.0166  0.0224  1.0000  -7.0677   0.0000   0.0000   0.0000   0.2192
  13.700   1.4275   0.02651   0.02082   0.0175  0.0219  1.0000  -7.1105   0.0000   0.0000   0.0000   0.2184
  13.800   1.4269   0.02728   0.02167   0.0183  0.0214  1.0000  -7.1494   0.0000   0.0000   0.0000   0.2176
  13.900   1.4255   0.02814   0.02261   0.0191  0.0209  1.0000  -7.1828   0.0000   0.0000   0.0000   0.2169
  14.000   1.4233   0.02910   0.02365   0.0198  0.0204  1.0000  -7.2108   0.0000   0.0000   0.0000   0.2161
  14.100   1.4199   0.03019   0.02483   0.0204  0.0199  1.0000  -7.2306   0.0000   0.0000   0.0000   0.2154
  14.200   1.4151   0.03139   0.02613   0.0210  0.0195  1.0000  -7.2410   0.0000   0.0000   0.0000   0.2147
  14.300   1.4099   0.03271   0.02754   0.0215  0.0191  1.0000  -7.2482   0.0000   0.0000   0.0000   0.2141
  14.400   1.4163   0.03304   0.02787   0.0215  0.0191  1.0000  -7.3427   0.0000   0.0000   0.0000   0.2140
  14.500   1.4227   0.03337   0.02820   0.0215  0.0190  1.0000  -7.4379   0.0000   0.0000   0.0000   0.2138
  14.600   1.4291   0.03371   0.02853   0.0215  0.0190  1.0000  -7.5339   0.0000   0.0000   0.0000   0.2137
  14.700   1.4357   0.03404   0.02887   0.0215  0.0189  1.0000  -7.6313   0.0000   0.0000   0.0000   0.2135
  14.800   1.4423   0.03437   0.02919   0.0215  0.0188  1.0000  -7.7298   0.0000   0.0000   0.0000   0.2134
  14.900   1.4490   0.03469   0.02951   0.0214  0.0187  1.0000  -7.8295   0.0000   0.0000   0.0000   0.2133
  15.000   1.4557   0.03502   0.02983   0.0214  0.0185  1.0000  -7.9294   0.0000   0.0000   0.0000   0.2132
  15.100   1.4621   0.03538   0.03020   0.0214  0.0183  1.0000  -8.0270   0.0000   0.0000   0.0000   0.2130
  15.200   1.4677   0.03581   0.03063   0.0214  0.0180  1.0000  -8.1192   0.0000   0.0000   0.0000   0.2129
  15.300   1.4719   0.03642   0.03125   0.0213  0.0174  1.0000  -8.1992   0.0000   0.0000   0.0000   0.2128
  15.400   1.4738   0.03728   0.03212   0.0211  0.0166  1.0000  -8.2597   0.0000   0.0000   0.0000   0.2127
  15.500   1.4710   0.03868   0.03352   0.0209  0.0152  1.0000  -8.2777   0.0000   0.0000   0.0000   0.2125
  15.600   1.4629   0.04078   0.03564   0.0203  0.0141  1.0000  -8.2522   0.0000   0.0000   0.0000   0.2126
  15.700   1.4545   0.04297   0.03788   0.0197  0.0134  1.0000  -8.2234   0.0000   0.0000   0.0000   0.2127
  15.800   1.4458   0.04534   0.04030   0.0188  0.0130  1.0000  -8.1942   0.0000   0.0000   0.0000   0.2129
  15.900   1.4377   0.04761   0.04263   0.0180  0.0126  1.0000  -8.1685   0.0000   0.0000   0.0000   0.2132
  16.000   1.4289   0.05012   0.04521   0.0169  0.0124  1.0000  -8.1400   0.0000   0.0000   0.0000   0.2136
  16.100   1.4208   0.05248   0.04764   0.0159  0.0122  1.0000  -8.1150   0.0000   0.0000   0.0000   0.2139
  16.200   1.4115   0.05515   0.05038   0.0147  0.0121  1.0000  -8.0838   0.0000   0.0000   0.0000   0.2145
  16.300   1.4029   0.05763   0.05293   0.0136  0.0120  1.0000  -8.0557   0.0000   0.0000   0.0000   0.2149
  16.400   1.3928   0.06026   0.05564   0.0125  0.0120  1.0000  -8.0208   0.0000   0.0000   0.0000   0.2154
  16.500   1.3828   0.06293   0.05837   0.0113  0.0119  1.0000  -7.9850   0.0000   0.0000   0.0000   0.2159
  16.600   1.3735   0.06549   0.06100   0.0103  0.0119  1.0000  -7.9522   0.0000   0.0000   0.0000   0.2164
  16.700   1.3622   0.06861   0.06418   0.0088  0.0119  1.0000  -7.9059   0.0000   0.0000   0.0000   0.2172
  16.800   1.3525   0.07139   0.06702   0.0076  0.0119  1.0000  -7.8682   0.0000   0.0000   0.0000   0.2178
  16.900   1.3428   0.07420   0.06990   0.0063  0.0118  1.0000  -7.8295   0.0000   0.0000   0.0000   0.2185
  17.000   1.3310   0.07757   0.07333   0.0047  0.0119  1.0000  -7.7752   0.0000   0.0000   0.0000   0.2194
  17.100   1.3212   0.08046   0.07628   0.0034  0.0119  1.0000  -7.7336   0.0000   0.0000   0.0000   0.2202
  17.200   1.3117   0.08331   0.07920   0.0021  0.0118  1.0000  -7.6927   0.0000   0.0000   0.0000   0.2209
  17.300   1.2995   0.08680   0.08275   0.0004  0.0119  1.0000  -7.6319   0.0000   0.0000   0.0000   0.2220
  17.400   1.2894   0.08986   0.08586  -0.0011  0.0119  1.0000  -7.5833   0.0000   0.0000   0.0000   0.2229
  17.500   1.2803   0.09269   0.08874  -0.0024  0.0119  1.0000  -7.5412   0.0000   0.0000   0.0000   0.2237
  17.600   1.2713   0.09553   0.09163  -0.0038  0.0118  1.0000  -7.4982   0.0000   0.0000   0.0000   0.2246
  17.700   1.2591   0.09905   0.09522  -0.0056  0.0119  1.0000  -7.4309   0.0000   0.0000   0.0000   0.2258
  17.800   1.2488   0.10220   0.09842  -0.0072  0.0119  1.0000  -7.3754   0.0000   0.0000   0.0000   0.2270
  17.900   1.2406   0.10493   0.10120  -0.0085  0.0118  1.0000  -7.3332   0.0000   0.0000   0.0000   0.2279
  18.000   1.2329   0.10757   0.10389  -0.0099  0.0118  1.0000  -7.2940   0.0000   0.0000   0.0000   0.2288
  18.100   1.2252   0.11023   0.10659  -0.0112  0.0117  1.0000  -7.2533   0.0000   0.0000   0.0000   0.2298
  18.200   1.2164   0.11308   0.10949  -0.0127  0.0117  1.0000  -7.2039   0.0000   0.0000   0.0000   0.2309
  18.300   1.2021   0.11709   0.11357  -0.0150  0.0118  1.0000  -7.1084   0.0000   0.0000   0.0000   0.2327
  18.400   1.1950   0.11967   0.11620  -0.0163  0.0118  1.0000  -7.0674   0.0000   0.0000   0.0000   0.2337
  18.500   1.1892   0.12199   0.11856  -0.0176  0.0117  1.0000  -7.0357   0.0000   0.0000   0.0000   0.2346
  18.600   1.1841   0.12419   0.12080  -0.0188  0.0116  1.0000  -7.0088   0.0000   0.0000   0.0000   0.2355
  18.700   1.1794   0.12630   0.12295  -0.0200  0.0116  1.0000  -6.9846   0.0000   0.0000   0.0000   0.2363
  18.800   1.1746   0.12828   0.12498  -0.0211  0.0115  1.0000  -6.9588   0.0000   0.0000   0.0000   0.2372
  18.900   1.1693   0.13029   0.12703  -0.0223  0.0115  1.0000  -6.9286   0.0000   0.0000   0.0000   0.2381
  19.000   1.1631   0.13253   0.12931  -0.0237  0.0115  1.0000  -6.8882   0.0000   0.0000   0.0000   0.2392
  19.100   1.1446   0.13726   0.13413  -0.0267  0.0116  1.0000  -6.7361   0.0000   0.0000   0.0000   0.2420
  19.200   1.1383   0.13976   0.13667  -0.0282  0.0116  1.0000  -6.6898   0.0000   0.0000   0.0000   0.2433
  19.300   1.1341   0.14189   0.13884  -0.0294  0.0115  1.0000  -6.6614   0.0000   0.0000   0.0000   0.2443
  19.400   1.1306   0.14392   0.14091  -0.0306  0.0115  1.0000  -6.6384   0.0000   0.0000   0.0000   0.2453
  19.500   1.1275   0.14592   0.14295  -0.0318  0.0114  1.0000  -6.6174   0.0000   0.0000   0.0000   0.2462
  19.600   1.1244   0.14794   0.14502  -0.0330  0.0114  1.0000  -6.5961   0.0000   0.0000   0.0000   0.2471
  19.700   1.1212   0.15003   0.14714  -0.0342  0.0114  1.0000  -6.5725   0.0000   0.0000   0.0000   0.2481
  19.800   1.1176   0.15223   0.14939  -0.0354  0.0114  1.0000  -6.5442   0.0000   0.0000   0.0000   0.2491
  19.900   1.1136   0.15457   0.15178  -0.0368  0.0113  1.0000  -6.5098   0.0000   0.0000   0.0000   0.2502
  20.000   1.1084   0.15726   0.15452  -0.0382  0.0113  1.0000  -6.4608   0.0000   0.0000   0.0000   0.2516
  20.100   1.0992   0.16095   0.15828  -0.0403  0.0114  1.0000  -6.3674   0.0000   0.0000   0.0000   0.2536
  20.200   1.0755   0.16839   0.16581  -0.0443  0.0115  1.0000  -6.1100   0.0000   0.0000   0.0000   0.2583
  20.300   1.0701   0.17138   0.16885  -0.0459  0.0115  1.0000  -6.0479   0.0000   0.0000   0.0000   0.2599
  20.400   1.0649   0.17438   0.17189  -0.0475  0.0115  1.0000  -5.9850   0.0000   0.0000   0.0000   0.2614
  20.500   1.0593   0.17753   0.17510  -0.0490  0.0115  1.0000  -5.9139   0.0000   0.0000   0.0000   0.2631
  20.600   1.0517   0.18128   0.17891  -0.0509  0.0116  1.0000  -5.8138   0.0000   0.0000   0.0000   0.2651
  21.400   0.8374   0.28005   0.27784  -0.0759  0.0190  1.0000  -1.6867   0.0000   0.0000   0.0000   0.3141
  21.500   0.8377   0.28218   0.27998  -0.0765  0.0190  1.0000  -1.6752   0.0000   0.0000   0.0000   0.3145
  21.600   0.8379   0.28430   0.28210  -0.0770  0.0190  1.0000  -1.6638   0.0000   0.0000   0.0000   0.3150
  21.700   0.8381   0.28639   0.28419  -0.0774  0.0190  1.0000  -1.6526   0.0000   0.0000   0.0000   0.3154
  21.800   0.8382   0.28847   0.28627  -0.0779  0.0190  1.0000  -1.6416   0.0000   0.0000   0.0000   0.3159
  21.900   0.8383   0.29052   0.28833  -0.0784  0.0190  1.0000  -1.6306   0.0000   0.0000   0.0000   0.3163
  22.000   0.8383   0.29256   0.29037  -0.0788  0.0190  1.0000  -1.6198   0.0000   0.0000   0.0000   0.3167
  22.100   0.8382   0.29456   0.29238  -0.0793  0.0190  1.0000  -1.6090   0.0000   0.0000   0.0000   0.3171
  22.200   0.8380   0.29654   0.29436  -0.0797  0.0190  1.0000  -1.5983   0.0000   0.0000   0.0000   0.3175
  22.300   0.8378   0.29850   0.29632  -0.0801  0.0189  1.0000  -1.5875   0.0000   0.0000   0.0000   0.3179
  22.400   0.8374   0.30042   0.29824  -0.0805  0.0189  1.0000  -1.5768   0.0000   0.0000   0.0000   0.3183
  22.500   0.8370   0.30230   0.30014  -0.0808  0.0189  1.0000  -1.5661   0.0000   0.0000   0.0000   0.3187
  22.600   0.8364   0.30415   0.30199  -0.0812  0.0189  1.0000  -1.5553   0.0000   0.0000   0.0000   0.3191
  22.700   0.8357   0.30596   0.30380  -0.0815  0.0189  1.0000  -1.5444   0.0000   0.0000   0.0000   0.3194
  22.800   0.8349   0.30772   0.30556  -0.0818  0.0189  1.0000  -1.5336   0.0000   0.0000   0.0000   0.3198
  22.900   0.8340   0.30942   0.30727  -0.0821  0.0189  1.0000  -1.5227   0.0000   0.0000   0.0000   0.3202
  23.000   0.8329   0.31106   0.30891  -0.0824  0.0189  1.0000  -1.5118   0.0000   0.0000   0.0000   0.3205
  23.100   0.8316   0.31263   0.31049  -0.0826  0.0189  1.0000  -1.5005   0.0000   0.0000   0.0000   0.3208
  23.200   0.8301   0.31412   0.31199  -0.0828  0.0189  1.0000  -1.4891   0.0000   0.0000   0.0000   0.3212
  23.300   0.8284   0.31553   0.31340  -0.0829  0.0189  1.0000  -1.4774   0.0000   0.0000   0.0000   0.3215
  23.400   0.8264   0.31683   0.31471  -0.0831  0.0189  1.0000  -1.4655   0.0000   0.0000   0.0000   0.3218
  23.500   0.8242   0.31802   0.31590  -0.0831  0.0189  1.0000  -1.4531   0.0000   0.0000   0.0000   0.3220
  23.600   0.8190   0.31837   0.31626  -0.0827  0.0189  1.0000  -1.4349   0.0000   0.0000   0.0000   0.3222
  23.700   0.7938   0.31256   0.31048  -0.0791  0.0188  1.0000  -1.3752   0.0000   0.0000   0.0000   0.3214
  23.800   0.7855   0.31138   0.30931  -0.0781  0.0188  1.0000  -1.3508   0.0000   0.0000   0.0000   0.3214
  23.900   0.7796   0.31084   0.30878  -0.0776  0.0188  1.0000  -1.3320   0.0000   0.0000   0.0000   0.3215
  24.000   0.7748   0.31058   0.30852  -0.0772  0.0188  1.0000  -1.3156   0.0000   0.0000   0.0000   0.3216
  24.100   0.7707   0.31048   0.30844  -0.0769  0.0188  1.0000  -1.3008   0.0000   0.0000   0.0000   0.3218
  24.200   0.7671   0.31049   0.30845  -0.0768  0.0188  1.0000  -1.2870   0.0000   0.0000   0.0000   0.3220
  24.300   0.7639   0.31058   0.30855  -0.0766  0.0188  1.0000  -1.2740   0.0000   0.0000   0.0000   0.3223
  24.400   0.7609   0.31072   0.30870  -0.0765  0.0188  1.0000  -1.2614   0.0000   0.0000   0.0000   0.3225
  24.500   0.7581   0.31091   0.30889  -0.0764  0.0188  1.0000  -1.2493   0.0000   0.0000   0.0000   0.3228
  24.600   0.7556   0.31113   0.30912  -0.0764  0.0187  1.0000  -1.2379   0.0000   0.0000   0.0000   0.3230
  24.700   0.7532   0.31138   0.30938  -0.0764  0.0187  1.0000  -1.2270   0.0000   0.0000   0.0000   0.3233
  24.800   0.7510   0.31166   0.30966  -0.0764  0.0187  1.0000  -1.2172   0.0000   0.0000   0.0000   0.3236
  24.900   0.7490   0.31195   0.30997  -0.0765  0.0187  1.0000  -1.2201   0.0000   0.0000   0.0000   0.3239
  25.000   0.7471   0.31227   0.31029  -0.0765  0.0187  1.0000  -1.2232   0.0000   0.0000   0.0000   0.3242
  25.100   0.7453   0.31260   0.31063  -0.0766  0.0187  1.0000  -1.2267   0.0000   0.0000   0.0000   0.3245
  25.200   0.7436   0.31295   0.31098  -0.0767  0.0187  1.0000  -1.2303   0.0000   0.0000   0.0000   0.3248
  25.800   0.7356   0.31520   0.31330  -0.0777  0.0185  1.0000  -1.2494   0.0000   0.0000   0.0000   0.3267
  25.900   0.7346   0.31561   0.31371  -0.0779  0.0185  1.0000  -1.2538   0.0000   0.0000   0.0000   0.3271
  26.000   0.7336   0.31602   0.31413  -0.0781  0.0184  1.0000  -1.2582   0.0000   0.0000   0.0000   0.3274
  26.100   0.7327   0.31643   0.31455  -0.0783  0.0184  1.0000  -1.2627   0.0000   0.0000   0.0000   0.3277
  26.200   0.7319   0.31686   0.31498  -0.0785  0.0183  1.0000  -1.2671   0.0000   0.0000   0.0000   0.3281
  26.300   0.7312   0.31728   0.31541  -0.0788  0.0183  1.0000  -1.2714   0.0000   0.0000   0.0000   0.3284
  26.400   0.7306   0.31772   0.31585  -0.0791  0.0182  1.0000  -1.2744   0.0000   0.0000   0.0000   0.3288
  26.500   0.7302   0.31817   0.31631  -0.0794  0.0181  1.0000  -1.2758   0.0000   0.0000   0.0000   0.3293
  26.600   0.7306   0.31867   0.31682  -0.0799  0.0178  1.0000  -1.2764   0.0000   0.0000   0.0000   0.3297
  26.700   0.7358   0.31990   0.31805  -0.0813  0.0152  1.0000  -1.2858   0.0000   0.0000   0.0000   0.3306
  26.800   0.7368   0.32038   0.31853  -0.0818  0.0128  1.0000  -1.3108   0.0000   0.0000   0.0000   0.3309
  26.900   0.7373   0.32058   0.31874  -0.0821  0.0115  1.0000  -1.3429   0.0000   0.0000   0.0000   0.3311
  27.000   0.7379   0.32070   0.31887  -0.0825  0.0106  1.0000  -1.3792   0.0000   0.0000   0.0000   0.3312
  27.100   0.7386   0.32077   0.31894  -0.0828  0.0099  1.0000  -1.4184   0.0000   0.0000   0.0000   0.3312
  27.200   0.7394   0.32081   0.31898  -0.0831  0.0095  1.0000  -1.4600   0.0000   0.0000   0.0000   0.3312
  27.300   0.7402   0.32082   0.31900  -0.0834  0.0091  1.0000  -1.5036   0.0000   0.0000   0.0000   0.3312
  27.400   0.7411   0.32079   0.31898  -0.0837  0.0088  1.0000  -1.5489   0.0000   0.0000   0.0000   0.3312
  27.500   0.7420   0.32074   0.31894  -0.0840  0.0085  1.0000  -1.5960   0.0000   0.0000   0.0000   0.3311
  27.600   0.7429   0.32067   0.31887  -0.0843  0.0083  1.0000  -1.6447   0.0000   0.0000   0.0000   0.3310
  27.700   0.7439   0.32057   0.31877  -0.0845  0.0081  1.0000  -1.6950   0.0000   0.0000   0.0000   0.3308
  27.800   0.7446   0.32049   0.31870  -0.0848  0.0079  1.0000  -1.7431   0.0000   0.0000   0.0000   0.3307
  27.900   0.7449   0.32039   0.31861  -0.0850  0.0076  1.0000  -1.7887   0.0000   0.0000   0.0000   0.3306
  28.100   0.7359   0.32370   0.32189  -0.0858  0.0052  1.0000  -1.6114   0.0000   0.0000   0.0000   0.3338
  28.200   0.7332   0.32503   0.32323  -0.0859  0.0048  1.0000  -1.5190   0.0000   0.0000   0.0000   0.3345
  28.300   0.7312   0.32594   0.32415  -0.0860  0.0047  1.0000  -1.4633   0.0000   0.0000   0.0000   0.3351
  28.400   0.7294   0.32674   0.32495  -0.0862  0.0047  1.0000  -1.4201   0.0000   0.0000   0.0000   0.3355
  28.500   0.7279   0.32748   0.32569  -0.0863  0.0047  1.0000  -1.3838   0.0000   0.0000   0.0000   0.3360
  28.600   0.7264   0.32817   0.32639  -0.0865  0.0048  1.0000  -1.3521   0.0000   0.0000   0.0000   0.3364
  28.700   0.7250   0.32883   0.32704  -0.0867  0.0050  1.0000  -1.3239   0.0000   0.0000   0.0000   0.3368
  28.800   0.7236   0.32944   0.32766  -0.0868  0.0051  1.0000  -1.2982   0.0000   0.0000   0.0000   0.3372
  28.900   0.7220   0.33001   0.32824  -0.0870  0.0054  1.0000  -1.2732   0.0000   0.0000   0.0000   0.3376
  29.000   0.7199   0.33053   0.32876  -0.0870  0.0057  1.0000  -1.2433   0.0000   0.0000   0.0000   0.3380
  29.100   0.7143   0.33129   0.32952  -0.0865  0.0063  1.0000  -1.1566   0.0000   0.0000   0.0000   0.3385
  29.200   0.7127   0.33199   0.33023  -0.0867  0.0064  1.0000  -1.1313   0.0000   0.0000   0.0000   0.3389
  29.300   0.7116   0.33265   0.33089  -0.0868  0.0064  1.0000  -1.1143   0.0000   0.0000   0.0000   0.3393
  29.400   0.7108   0.33330   0.33154  -0.0871  0.0064  1.0000  -1.1004   0.0000   0.0000   0.0000   0.3397
  29.500   0.7100   0.33394   0.33219  -0.0873  0.0064  1.0000  -1.0882   0.0000   0.0000   0.0000   0.3401
  29.600   0.7093   0.33458   0.33283  -0.0876  0.0065  1.0000  -1.0771   0.0000   0.0000   0.0000   0.3404
  29.700   0.7087   0.33521   0.33347  -0.0878  0.0065  1.0000  -1.0668   0.0000   0.0000   0.0000   0.3408
  29.800   0.7082   0.33584   0.33410  -0.0881  0.0065  1.0000  -1.0571   0.0000   0.0000   0.0000   0.3412
  29.900   0.7076   0.33647   0.33473  -0.0884  0.0065  1.0000  -1.0479   0.0000   0.0000   0.0000   0.3416
  30.000   0.7071   0.33709   0.33536  -0.0887  0.0065  1.0000  -1.0391   0.0000   0.0000   0.0000   0.3420


