xflr5 v6.61

 Calculated polar for: NREL's S822 Airfoil

 1 1 Reynolds number fixed          Mach number fixed         

 xtrf =   1.000 (top)        1.000 (bottom)
 Mach =   0.000     Re =     0.130 e 6     Ncrit =   9.000

  alpha     CL        CD       CDp       Cm    Top Xtr Bot Xtr   Cpmin    Chinge    XCp    
 ------- -------- --------- --------- -------- ------- ------- -------- --------- ---------
 -10.000  -0.9345   0.03923   0.03244  -0.0424  0.9888  0.0517  -5.2918   0.0000   0.0000   0.0000   0.1913
  -9.900  -0.9297   0.03763   0.03072  -0.0422  0.9877  0.0533  -5.2700   0.0000   0.0000   0.0000   0.1914
  -9.800  -0.9230   0.03665   0.02969  -0.0423  0.9866  0.0550  -5.2159   0.0000   0.0000   0.0000   0.1911
  -9.700  -0.9148   0.03622   0.02927  -0.0426  0.9854  0.0572  -5.1306   0.0000   0.0000   0.0000   0.1904
  -9.600  -0.9098   0.03601   0.02906  -0.0422  0.9839  0.0593  -5.0529   0.0000   0.0000   0.0000   0.1907
  -9.500  -0.9055   0.03580   0.02886  -0.0416  0.9822  0.0613  -4.9813   0.0000   0.0000   0.0000   0.1913
  -9.400  -0.9003   0.03555   0.02858  -0.0411  0.9806  0.0635  -4.9110   0.0000   0.0000   0.0000   0.1917
  -9.300  -0.8944   0.03521   0.02819  -0.0407  0.9790  0.0657  -4.8445   0.0000   0.0000   0.0000   0.1920
  -9.200  -0.8877   0.03478   0.02768  -0.0404  0.9774  0.0679  -4.7819   0.0000   0.0000   0.0000   0.1921
  -9.100  -0.8800   0.03431   0.02711  -0.0402  0.9760  0.0699  -4.7198   0.0000   0.0000   0.0000   0.1921
  -9.000  -0.8712   0.03387   0.02657  -0.0401  0.9745  0.0717  -4.6545   0.0000   0.0000   0.0000   0.1918
  -8.900  -0.8610   0.03363   0.02622  -0.0403  0.9729  0.0732  -4.5770   0.0000   0.0000   0.0000   0.1911
  -8.800  -0.8541   0.03144   0.02398  -0.0401  0.9721  0.0787  -4.5647   0.0000   0.0000   0.0000   0.1910
  -8.700  -0.8444   0.03077   0.02335  -0.0404  0.9708  0.0830  -4.4891   0.0000   0.0000   0.0000   0.1901
  -8.600  -0.8327   0.03042   0.02300  -0.0411  0.9694  0.0872  -4.3969   0.0000   0.0000   0.0000   0.1887
  -8.500  -0.8194   0.03012   0.02252  -0.0420  0.9682  0.0920  -4.3027   0.0000   0.0000   0.0000   0.1870
  -8.400  -0.8173   0.02979   0.02214  -0.0406  0.9656  0.0948  -4.2524   0.0000   0.0000   0.0000   0.1887
  -8.300  -0.8119   0.02950   0.02179  -0.0398  0.9631  0.0980  -4.1883   0.0000   0.0000   0.0000   0.1894
  -8.200  -0.8045   0.02933   0.02152  -0.0394  0.9608  0.1007  -4.1137   0.0000   0.0000   0.0000   0.1896
  -8.100  -0.7985   0.02830   0.02054  -0.0388  0.9591  0.1076  -4.0639   0.0000   0.0000   0.0000   0.1900
  -8.000  -0.7922   0.02779   0.02011  -0.0385  0.9572  0.1137  -3.9957   0.0000   0.0000   0.0000   0.1902
  -7.900  -0.7841   0.02753   0.01986  -0.0383  0.9556  0.1196  -3.9155   0.0000   0.0000   0.0000   0.1899
  -7.800  -0.7747   0.02736   0.01965  -0.0384  0.9540  0.1263  -3.8292   0.0000   0.0000   0.0000   0.1893
  -7.700  -0.7638   0.02734   0.01954  -0.0387  0.9525  0.1322  -3.7350   0.0000   0.0000   0.0000   0.1883
  -7.600  -0.7553   0.02666   0.01896  -0.0387  0.9512  0.1428  -3.6619   0.0000   0.0000   0.0000   0.1878
  -7.500  -0.7452   0.02640   0.01880  -0.0391  0.9499  0.1523  -3.5714   0.0000   0.0000   0.0000   0.1867
  -7.400  -0.7330   0.02631   0.01867  -0.0397  0.9487  0.1617  -3.4731   0.0000   0.0000   0.0000   0.1850
  -7.300  -0.7193   0.02634   0.01859  -0.0405  0.9476  0.1689  -3.3700   0.0000   0.0000   0.0000   0.1829
  -7.200  -0.7086   0.02572   0.01815  -0.0409  0.9467  0.1829  -3.2875   0.0000   0.0000   0.0000   0.1815
  -7.100  -0.7022   0.02553   0.01802  -0.0405  0.9451  0.1914  -3.2155   0.0000   0.0000   0.0000   0.1818
  -7.000  -0.7025   0.02533   0.01781  -0.0386  0.9428  0.1969  -3.1720   0.0000   0.0000   0.0000   0.1847
  -6.900  -0.6986   0.02520   0.01762  -0.0375  0.9408  0.2035  -3.1117   0.0000   0.0000   0.0000   0.1860
  -6.800  -0.6926   0.02509   0.01745  -0.0368  0.9388  0.2096  -3.0433   0.0000   0.0000   0.0000   0.1867
  -6.700  -0.6875   0.02464   0.01714  -0.0360  0.9370  0.2216  -2.9810   0.0000   0.0000   0.0000   0.1875
  -6.600  -0.6807   0.02444   0.01703  -0.0356  0.9352  0.2319  -2.9085   0.0000   0.0000   0.0000   0.1877
  -6.500  -0.6723   0.02436   0.01692  -0.0354  0.9335  0.2424  -2.8295   0.0000   0.0000   0.0000   0.1874
  -6.400  -0.6625   0.02436   0.01683  -0.0354  0.9318  0.2510  -2.7464   0.0000   0.0000   0.0000   0.1867
  -6.300  -0.6544   0.02398   0.01663  -0.0352  0.9303  0.2662  -2.6717   0.0000   0.0000   0.0000   0.1863
  -6.200  -0.6447   0.02385   0.01657  -0.0353  0.9288  0.2791  -2.5892   0.0000   0.0000   0.0000   0.1855
  -6.100  -0.6334   0.02381   0.01648  -0.0356  0.9273  0.2910  -2.5022   0.0000   0.0000   0.0000   0.1841
  -6.000  -0.6221   0.02365   0.01635  -0.0359  0.9260  0.3041  -2.4172   0.0000   0.0000   0.0000   0.1826
  -5.900  -0.6110   0.02347   0.01630  -0.0362  0.9248  0.3182  -2.3322   0.0000   0.0000   0.0000   0.1811
  -5.800  -0.5984   0.02342   0.01626  -0.0368  0.9236  0.3319  -2.2427   0.0000   0.0000   0.0000   0.1790
  -5.700  -0.5847   0.02346   0.01622  -0.0375  0.9224  0.3440  -2.1506   0.0000   0.0000   0.0000   0.1764
  -5.600  -0.5723   0.02328   0.01622  -0.0380  0.9214  0.3612  -2.0638   0.0000   0.0000   0.0000   0.1741
  -5.500  -0.5586   0.02329   0.01628  -0.0387  0.9205  0.3773  -1.9758   0.0000   0.0000   0.0000   0.1712
  -5.300  -0.5337   0.02334   0.01639  -0.0397  0.9184  0.4063  -1.8606   0.0000   0.0000   0.0000   0.1663
  -5.200  -0.5393   0.02313   0.01623  -0.0368  0.9155  0.4130  -1.8477   0.0000   0.0000   0.0000   0.1726
  -5.100  -0.5372   0.02302   0.01616  -0.0353  0.9132  0.4234  -1.8160   0.0000   0.0000   0.0000   0.1752
  -5.000  -0.5319   0.02296   0.01607  -0.0344  0.9106  0.4345  -1.7771   0.0000   0.0000   0.0000   0.1764
  -4.900  -0.5244   0.02290   0.01598  -0.0339  0.9081  0.4452  -1.7330   0.0000   0.0000   0.0000   0.1764
  -4.800  -0.5162   0.02278   0.01582  -0.0335  0.9058  0.4590  -1.6864   0.0000   0.0000   0.0000   0.1763
  -4.700  -0.5066   0.02273   0.01584  -0.0333  0.9035  0.4732  -1.6373   0.0000   0.0000   0.0000   0.1755
  -4.600  -0.4958   0.02274   0.01582  -0.0334  0.9015  0.4875  -1.5860   0.0000   0.0000   0.0000   0.1739
  -4.500  -0.4847   0.02272   0.01584  -0.0335  0.8997  0.5015  -1.5344   0.0000   0.0000   0.0000   0.1723
  -4.400  -0.4739   0.02273   0.01597  -0.0334  0.8981  0.5162  -1.4935   0.0000   0.0000   0.0000   0.1709
  -4.300  -0.4626   0.02279   0.01606  -0.0335  0.8967  0.5309  -1.4546   0.0000   0.0000   0.0000   0.1689
  -4.200  -0.4502   0.02287   0.01607  -0.0339  0.8954  0.5440  -1.4149   0.0000   0.0000   0.0000   0.1661
  -4.100  -0.4384   0.02292   0.01624  -0.0340  0.8942  0.5570  -1.3756   0.0000   0.0000   0.0000   0.1639
  -4.000  -0.4261   0.02304   0.01643  -0.0341  0.8931  0.5698  -1.3354   0.0000   0.0000   0.0000   0.1613
  -3.900  -0.4128   0.02319   0.01656  -0.0345  0.8920  0.5835  -1.2946   0.0000   0.0000   0.0000   0.1577
  -3.800  -0.3988   0.02334   0.01664  -0.0352  0.8909  0.5958  -1.2531   0.0000   0.0000   0.0000   0.1530
  -3.700  -0.3854   0.02351   0.01691  -0.0354  0.8900  0.6073  -1.2119   0.0000   0.0000   0.0000   0.1494
  -3.600  -0.3714   0.02376   0.01722  -0.0358  0.8891  0.6187  -1.1701   0.0000   0.0000   0.0000   0.1450
  -3.500  -0.3567   0.02404   0.01747  -0.0364  0.8882  0.6303  -1.1293   0.0000   0.0000   0.0000   0.1392
  -3.400  -0.3419   0.02434   0.01772  -0.0372  0.8873  0.6411  -1.0968   0.0000   0.0000   0.0000   0.1324
  -3.300  -0.3487   0.02426   0.01762  -0.0342  0.8844  0.6468  -1.0930   0.0000   0.0000   0.0000   0.1433
  -3.200  -0.3511   0.02424   0.01767  -0.0318  0.8818  0.6533  -1.0828   0.0000   0.0000   0.0000   0.1511
  -3.100  -0.3489   0.02433   0.01781  -0.0301  0.8796  0.6601  -1.0665   0.0000   0.0000   0.0000   0.1555
  -3.000  -0.3448   0.02447   0.01798  -0.0288  0.8775  0.6676  -1.0477   0.0000   0.0000   0.0000   0.1583
  -2.900  -0.3391   0.02461   0.01812  -0.0279  0.8756  0.6759  -1.0273   0.0000   0.0000   0.0000   0.1599
  -2.800  -0.3323   0.02475   0.01824  -0.0272  0.8737  0.6847  -1.0056   0.0000   0.0000   0.0000   0.1603
  -2.700  -0.3244   0.02488   0.01831  -0.0268  0.8719  0.6930  -0.9829   0.0000   0.0000   0.0000   0.1595
  -2.600  -0.3167   0.02500   0.01845  -0.0262  0.8703  0.7002  -0.9600   0.0000   0.0000   0.0000   0.1596
  -2.500  -0.3091   0.02518   0.01868  -0.0253  0.8687  0.7066  -0.9412   0.0000   0.0000   0.0000   0.1604
  -2.400  -0.3008   0.02539   0.01891  -0.0246  0.8671  0.7131  -0.9221   0.0000   0.0000   0.0000   0.1605
  -2.300  -0.2918   0.02560   0.01912  -0.0241  0.8656  0.7199  -0.9024   0.0000   0.0000   0.0000   0.1597
  -2.200  -0.2822   0.02579   0.01930  -0.0238  0.8642  0.7273  -0.8823   0.0000   0.0000   0.0000   0.1580
  -2.100  -0.2717   0.02597   0.01945  -0.0238  0.8629  0.7349  -0.8616   0.0000   0.0000   0.0000   0.1550
  -2.000  -0.2598   0.02613   0.01956  -0.0241  0.8615  0.7421  -0.8396   0.0000   0.0000   0.0000   0.1497
  -1.900  -0.2485   0.02628   0.01973  -0.0238  0.8601  0.7480  -0.8178   0.0000   0.0000   0.0000   0.1465
  -1.800  -0.2366   0.02651   0.01997  -0.0236  0.8587  0.7533  -0.7953   0.0000   0.0000   0.0000   0.1427
  -1.700  -0.2235   0.02676   0.02023  -0.0235  0.8573  0.7588  -0.7726   0.0000   0.0000   0.0000   0.1370
  -1.600  -0.2094   0.02701   0.02048  -0.0238  0.8561  0.7645  -0.7523   0.0000   0.0000   0.0000   0.1288
  -1.500  -0.1943   0.02727   0.02071  -0.0242  0.8549  0.7705  -0.7314   0.0000   0.0000   0.0000   0.1173
  -1.400  -0.1785   0.02754   0.02089  -0.0250  0.8539  0.7768  -0.7101   0.0000   0.0000   0.0000   0.1020
  -1.300  -0.1620   0.02784   0.02116  -0.0259  0.8529  0.7832  -0.6886   0.0000   0.0000   0.0000   0.0816
  -1.200  -0.1469   0.02827   0.02154  -0.0267  0.8517  0.7888  -0.6684   0.0000   0.0000   0.0000   0.0594
  -1.100  -0.1635   0.02809   0.02141  -0.0220  0.8480  0.7933  -0.6749   0.0000   0.0000   0.0000   0.1077
  -1.000  -0.1705   0.02814   0.02148  -0.0189  0.8452  0.7979  -0.6731   0.0000   0.0000   0.0000   0.1323
  -0.900  -0.1714   0.02827   0.02163  -0.0167  0.8429  0.8028  -0.6661   0.0000   0.0000   0.0000   0.1457
  -0.800  -0.1697   0.02842   0.02179  -0.0151  0.8407  0.8081  -0.6570   0.0000   0.0000   0.0000   0.1546
  -0.700  -0.1661   0.02856   0.02193  -0.0138  0.8388  0.8139  -0.6473   0.0000   0.0000   0.0000   0.1605
  -0.600  -0.1610   0.02870   0.02205  -0.0129  0.8369  0.8199  -0.6376   0.0000   0.0000   0.0000   0.1637
  -0.500  -0.1544   0.02883   0.02216  -0.0124  0.8350  0.8258  -0.6270   0.0000   0.0000   0.0000   0.1640
  -0.400  -0.1458   0.02896   0.02226  -0.0122  0.8329  0.8310  -0.6150   0.0000   0.0000   0.0000   0.1604
  -0.300  -0.1389   0.02896   0.02227  -0.0113  0.8307  0.8356  -0.6038   0.0000   0.0000   0.0000   0.1633
  -0.200  -0.1307   0.02904   0.02235  -0.0105  0.8285  0.8400  -0.5915   0.0000   0.0000   0.0000   0.1648
  -0.100  -0.1208   0.02914   0.02246  -0.0099  0.8264  0.8447  -0.5781   0.0000   0.0000   0.0000   0.1631
   0.000  -0.1097   0.02925   0.02256  -0.0096  0.8245  0.8498  -0.5639   0.0000   0.0000   0.0000   0.1573
   0.100  -0.0975   0.02935   0.02264  -0.0096  0.8228  0.8551  -0.5491   0.0000   0.0000   0.0000   0.1466
   0.200  -0.0849   0.02946   0.02273  -0.0098  0.8213  0.8604  -0.5356   0.0000   0.0000   0.0000   0.1303
   0.300  -0.0722   0.02958   0.02282  -0.0101  0.8199  0.8655  -0.5229   0.0000   0.0000   0.0000   0.1060
   0.400  -0.0591   0.02973   0.02295  -0.0106  0.8188  0.8703  -0.5101   0.0000   0.0000   0.0000   0.0680
   0.500  -0.0467   0.02981   0.02303  -0.0107  0.8177  0.8745  -0.4974   0.0000   0.0000   0.0000   0.0189
   0.600  -0.0336   0.02996   0.02317  -0.0107  0.8168  0.8785  -0.4843   0.0000   0.0000   0.0000  -0.0709
   0.700  -0.0193   0.03016   0.02337  -0.0110  0.8159  0.8825  -0.4704   0.0000   0.0000   0.0000  -0.3198
   0.800  -0.0042   0.03040   0.02361  -0.0116  0.8150  0.8867  -0.4562   0.0000   0.0000   0.0000  -2.5075
   0.900   0.0104   0.03071   0.02392  -0.0121  0.8140  0.8909  -0.4438   0.0000   0.0000   0.0000   1.3961
   1.000   0.0247   0.03118   0.02438  -0.0126  0.8129  0.8950  -0.4416   0.0000   0.0000   0.0000   0.7501
   1.100  -0.0205   0.03059   0.02381  -0.0042  0.8042  0.9065  -0.4548   0.0000   0.0000   0.0000   0.0571
   1.200  -0.0196   0.03052   0.02376  -0.0027  0.8004  0.9116  -0.4506   0.0000   0.0000   0.0000   0.1283
   1.300  -0.0122   0.03055   0.02379  -0.0022  0.7971  0.9162  -0.4427   0.0000   0.0000   0.0000   0.1050
   1.400  -0.0020   0.03061   0.02385  -0.0021  0.7943  0.9210  -0.4333   0.0000   0.0000   0.0000  -0.5708
   1.500   0.0093   0.03069   0.02393  -0.0023  0.7918  0.9259  -0.4366   0.0000   0.0000   0.0000   0.4341
   1.600   0.0204   0.03077   0.02401  -0.0024  0.7897  0.9312  -0.4437   0.0000   0.0000   0.0000   0.3374
   1.700   0.0300   0.03083   0.02407  -0.0023  0.7878  0.9367  -0.4501   0.0000   0.0000   0.0000   0.3031
   1.800   0.0433   0.03091   0.02414  -0.0028  0.7861  0.9409  -0.4589   0.0000   0.0000   0.0000   0.2975
   1.900   0.0626   0.03105   0.02429  -0.0045  0.7846  0.9436  -0.4716   0.0000   0.0000   0.0000   0.3079
   2.000   0.0834   0.03118   0.02442  -0.0064  0.7831  0.9462  -0.4852   0.0000   0.0000   0.0000   0.3149
   2.100   0.1055   0.03129   0.02453  -0.0084  0.7816  0.9486  -0.4996   0.0000   0.0000   0.0000   0.3197
   2.200   0.1287   0.03138   0.02462  -0.0106  0.7802  0.9510  -0.5150   0.0000   0.0000   0.0000   0.3233
   2.300   0.1527   0.03145   0.02469  -0.0129  0.7789  0.9533  -0.5312   0.0000   0.0000   0.0000   0.3260
   2.400   0.1766   0.03150   0.02475  -0.0151  0.7777  0.9554  -0.5488   0.0000   0.0000   0.0000   0.3277
   2.500   0.2004   0.03154   0.02480  -0.0173  0.7767  0.9574  -0.5664   0.0000   0.0000   0.0000   0.3289
   2.600   0.2235   0.03159   0.02486  -0.0194  0.7757  0.9594  -0.5837   0.0000   0.0000   0.0000   0.3297
   2.700   0.2444   0.03169   0.02496  -0.0212  0.7746  0.9616  -0.6004   0.0000   0.0000   0.0000   0.3296
   2.800   0.2644   0.03182   0.02511  -0.0228  0.7736  0.9641  -0.6177   0.0000   0.0000   0.0000   0.3291
   2.900   0.2879   0.03200   0.02530  -0.0250  0.7726  0.9655  -0.6374   0.0000   0.0000   0.0000   0.3298
   3.100   0.2909   0.03267   0.02603  -0.0252  0.7580  0.9743  -0.6425   0.0000   0.0000   0.0000   0.3293
   3.200   0.3073   0.03275   0.02617  -0.0267  0.7542  0.9771  -0.6577   0.0000   0.0000   0.0000   0.3294
   3.300   0.3249   0.03277   0.02621  -0.0282  0.7510  0.9797  -0.6755   0.0000   0.0000   0.0000   0.3294
   3.400   0.3430   0.03275   0.02621  -0.0296  0.7483  0.9822  -0.6939   0.0000   0.0000   0.0000   0.3291
   3.500   0.3618   0.03270   0.02617  -0.0311  0.7459  0.9844  -0.7131   0.0000   0.0000   0.0000   0.3288
   3.600   0.3849   0.03258   0.02608  -0.0333  0.7438  0.9855  -0.7375   0.0000   0.0000   0.0000   0.3293
   3.700   0.4095   0.03241   0.02593  -0.0356  0.7420  0.9866  -0.7650   0.0000   0.0000   0.0000   0.3299
   3.800   0.4348   0.03220   0.02575  -0.0380  0.7404  0.9878  -0.7936   0.0000   0.0000   0.0000   0.3304
   3.900   0.4609   0.03194   0.02552  -0.0405  0.7390  0.9890  -0.8245   0.0000   0.0000   0.0000   0.3308
   4.000   0.4870   0.03165   0.02527  -0.0429  0.7377  0.9901  -0.8594   0.0000   0.0000   0.0000   0.3310
   4.100   0.5126   0.03134   0.02499  -0.0452  0.7363  0.9913  -0.8940   0.0000   0.0000   0.0000   0.3311
   4.200   0.5388   0.03096   0.02465  -0.0475  0.7351  0.9923  -0.9338   0.0000   0.0000   0.0000   0.3311
   4.300   0.5658   0.03048   0.02421  -0.0498  0.7340  0.9930  -0.9781   0.0000   0.0000   0.0000   0.3310
   4.400   0.5932   0.02995   0.02371  -0.0521  0.7330  0.9934  -1.0234   0.0000   0.0000   0.0000   0.3308
   4.500   0.6205   0.02939   0.02319  -0.0544  0.7322  0.9937  -1.0691   0.0000   0.0000   0.0000   0.3307
   4.600   0.6492   0.02873   0.02269  -0.0568  0.7315  0.9937  -1.1170   0.0000   0.0000   0.0000   0.3305
   4.700   0.6798   0.02799   0.02201  -0.0595  0.7308  0.9933  -1.1681   0.0000   0.0000   0.0000   0.3305
   4.800   0.7101   0.02730   0.02136  -0.0622  0.7299  0.9930  -1.2310   0.0000   0.0000   0.0000   0.3306
   5.000   0.5883   0.03032   0.02416  -0.0426  0.7013  1.0000  -1.0838   0.0000   0.0000   0.0000   0.3145
   5.100   0.6034   0.02984   0.02382  -0.0428  0.6989  1.0000  -1.1151   0.0000   0.0000   0.0000   0.3130
   5.200   0.6211   0.02931   0.02332  -0.0434  0.6969  1.0000  -1.1509   0.0000   0.0000   0.0000   0.3119
   5.300   0.6420   0.02867   0.02273  -0.0444  0.6954  1.0000  -1.1995   0.0000   0.0000   0.0000   0.3111
   5.400   0.6672   0.02788   0.02198  -0.0459  0.6941  1.0000  -1.2558   0.0000   0.0000   0.0000   0.3108
   5.500   0.6962   0.02695   0.02110  -0.0480  0.6932  1.0000  -1.3235   0.0000   0.0000   0.0000   0.3109
   5.600   0.7280   0.02594   0.02016  -0.0504  0.6924  1.0000  -1.4116   0.0000   0.0000   0.0000   0.3112
   5.700   0.7687   0.02475   0.01905  -0.0543  0.6915  1.0000  -1.5199   0.0000   0.0000   0.0000   0.3127
   5.800   0.8255   0.02329   0.01768  -0.0609  0.6902  1.0000  -1.6647   0.0000   0.0000   0.0000   0.3158
   5.900   0.8804   0.02168   0.01615  -0.0671  0.6873  1.0000  -1.8091   0.0000   0.0000   0.0000   0.3182
   6.000   0.8893   0.02135   0.01585  -0.0664  0.6826  1.0000  -1.8528   0.0000   0.0000   0.0000   0.3166
   6.200   0.6900   0.02598   0.02021  -0.0334  0.6594  1.0000  -1.4633   0.0000   0.0000   0.0000   0.2894
   6.300   0.7092   0.02516   0.01942  -0.0339  0.6570  1.0000  -1.5275   0.0000   0.0000   0.0000   0.2886
   6.400   0.7312   0.02424   0.01856  -0.0347  0.6548  1.0000  -1.5987   0.0000   0.0000   0.0000   0.2883
   6.500   0.7609   0.02310   0.01748  -0.0365  0.6527  1.0000  -1.6876   0.0000   0.0000   0.0000   0.2888
   6.600   0.8071   0.02159   0.01606  -0.0408  0.6498  1.0000  -1.8149   0.0000   0.0000   0.0000   0.2915
   6.800   0.9122   0.01921   0.01382  -0.0527  0.6339  1.0000  -2.1023   0.0000   0.0000   0.0000   0.2987
   6.900   0.8754   0.01956   0.01414  -0.0446  0.6306  1.0000  -2.0431   0.0000   0.0000   0.0000   0.2917
   7.000   0.8458   0.01999   0.01454  -0.0380  0.6251  1.0000  -1.9999   0.0000   0.0000   0.0000   0.2855
   7.100   0.8408   0.02005   0.01461  -0.0354  0.6170  1.0000  -2.0126   0.0000   0.0000   0.0000   0.2825
   7.200   0.8543   0.01960   0.01418  -0.0353  0.6085  1.0000  -2.0686   0.0000   0.0000   0.0000   0.2816
   7.300   0.9257   0.01807   0.01263  -0.0438  0.5914  1.0000  -2.3203   0.0000   0.0000   0.0000   0.2877
   7.400   0.9056   0.01830   0.01288  -0.0387  0.5865  1.0000  -2.2917   0.0000   0.0000   0.0000   0.2829
   7.500   0.8940   0.01862   0.01322  -0.0352  0.5775  1.0000  -2.2893   0.0000   0.0000   0.0000   0.2793
   7.600   0.8973   0.01858   0.01318  -0.0338  0.5637  1.0000  -2.3349   0.0000   0.0000   0.0000   0.2775
   7.700   0.9212   0.01796   0.01243  -0.0350  0.5418  1.0000  -2.4489   0.0000   0.0000   0.0000   0.2778
   7.800   0.9182   0.01819   0.01266  -0.0329  0.5263  1.0000  -2.4744   0.0000   0.0000   0.0000   0.2754
   7.900   0.9292   0.01801   0.01229  -0.0324  0.4995  1.0000  -2.5478   0.0000   0.0000   0.0000   0.2744
   8.000   0.9325   0.01817   0.01235  -0.0311  0.4768  1.0000  -2.5948   0.0000   0.0000   0.0000   0.2727
   8.100   0.9375   0.01832   0.01227  -0.0300  0.4505  1.0000  -2.6484   0.0000   0.0000   0.0000   0.2712
   8.200   0.9391   0.01862   0.01248  -0.0286  0.4291  1.0000  -2.6895   0.0000   0.0000   0.0000   0.2695
   8.300   0.9403   0.01899   0.01283  -0.0271  0.4064  1.0000  -2.7304   0.0000   0.0000   0.0000   0.2677
   8.400   0.9418   0.01937   0.01311  -0.0258  0.3867  1.0000  -2.7712   0.0000   0.0000   0.0000   0.2662
   8.500   0.9420   0.01981   0.01342  -0.0244  0.3664  1.0000  -2.8129   0.0000   0.0000   0.0000   0.2645
   8.600   0.9425   0.02029   0.01375  -0.0230  0.3474  1.0000  -2.8599   0.0000   0.0000   0.0000   0.2628
   8.700   0.9432   0.02075   0.01413  -0.0217  0.3287  1.0000  -2.9072   0.0000   0.0000   0.0000   0.2613
   8.800   0.9418   0.02133   0.01453  -0.0202  0.3108  1.0000  -2.9466   0.0000   0.0000   0.0000   0.2595
   8.900   0.9438   0.02179   0.01493  -0.0191  0.2934  1.0000  -2.9992   0.0000   0.0000   0.0000   0.2582
   9.000   0.9434   0.02235   0.01537  -0.0178  0.2767  1.0000  -3.0427   0.0000   0.0000   0.0000   0.2567
   9.100   0.9427   0.02298   0.01584  -0.0165  0.2607  1.0000  -3.0839   0.0000   0.0000   0.0000   0.2551
   9.200   0.9453   0.02344   0.01628  -0.0156  0.2455  1.0000  -3.1395   0.0000   0.0000   0.0000   0.2540
   9.300   0.9448   0.02407   0.01677  -0.0144  0.2314  1.0000  -3.1823   0.0000   0.0000   0.0000   0.2526
   9.400   0.9451   0.02471   0.01729  -0.0133  0.2175  1.0000  -3.2271   0.0000   0.0000   0.0000   0.2512
   9.500   0.9485   0.02517   0.01774  -0.0126  0.2050  1.0000  -3.2861   0.0000   0.0000   0.0000   0.2502
   9.600   0.9492   0.02578   0.01823  -0.0116  0.1933  1.0000  -3.3340   0.0000   0.0000   0.0000   0.2490
   9.700   0.9486   0.02655   0.01882  -0.0104  0.1808  1.0000  -3.3733   0.0000   0.0000   0.0000   0.2476
   9.800   0.9540   0.02693   0.01928  -0.0099  0.1725  1.0000  -3.4401   0.0000   0.0000   0.0000   0.2469
   9.900   0.9572   0.02745   0.01977  -0.0092  0.1635  1.0000  -3.4976   0.0000   0.0000   0.0000   0.2459
  10.000   0.9583   0.02811   0.02033  -0.0083  0.1553  1.0000  -3.5459   0.0000   0.0000   0.0000   0.2448
  10.100   0.9594   0.02897   0.02102  -0.0073  0.1444  1.0000  -3.5883   0.0000   0.0000   0.0000   0.2436
  10.200   0.9647   0.02936   0.02149  -0.0068  0.1393  1.0000  -3.6548   0.0000   0.0000   0.0000   0.2429
  10.300   0.9692   0.02984   0.02201  -0.0062  0.1329  1.0000  -3.7171   0.0000   0.0000   0.0000   0.2422
  10.400   0.9725   0.03039   0.02254  -0.0056  0.1268  1.0000  -3.7750   0.0000   0.0000   0.0000   0.2413
  10.500   0.9745   0.03107   0.02314  -0.0048  0.1208  1.0000  -3.8261   0.0000   0.0000   0.0000   0.2404
  10.600   0.9798   0.03204   0.02397  -0.0041  0.1112  1.0000  -3.8779   0.0000   0.0000   0.0000   0.2395
  10.700   0.9846   0.03245   0.02446  -0.0036  0.1081  1.0000  -3.9419   0.0000   0.0000   0.0000   0.2388
  10.800   0.9892   0.03292   0.02499  -0.0031  0.1038  1.0000  -4.0044   0.0000   0.0000   0.0000   0.2382
  10.900   0.9932   0.03343   0.02552  -0.0026  0.0993  1.0000  -4.0657   0.0000   0.0000   0.0000   0.2375
  11.000   0.9964   0.03398   0.02606  -0.0020  0.0950  1.0000  -4.1257   0.0000   0.0000   0.0000   0.2367
  11.100   0.9989   0.03463   0.02665  -0.0014  0.0907  1.0000  -4.1819   0.0000   0.0000   0.0000   0.2360
  11.200   1.0069   0.03582   0.02771  -0.0010  0.0822  1.0000  -4.2401   0.0000   0.0000   0.0000   0.2355
  11.300   1.0102   0.03620   0.02815  -0.0005  0.0805  1.0000  -4.3035   0.0000   0.0000   0.0000   0.2348
  11.400   1.0141   0.03664   0.02866  -0.0000  0.0781  1.0000  -4.3669   0.0000   0.0000   0.0000   0.2342
  11.500   1.0185   0.03715   0.02921   0.0004  0.0754  1.0000  -4.4300   0.0000   0.0000   0.0000   0.2336
  11.600   1.0236   0.03770   0.02981   0.0009  0.0729  1.0000  -4.4933   0.0000   0.0000   0.0000   0.2330
  11.700   1.0284   0.03828   0.03041   0.0013  0.0706  1.0000  -4.5561   0.0000   0.0000   0.0000   0.2324
  11.800   1.0329   0.03887   0.03103   0.0017  0.0685  1.0000  -4.6189   0.0000   0.0000   0.0000   0.2318
  11.900   1.0372   0.03949   0.03165   0.0022  0.0666  1.0000  -4.6815   0.0000   0.0000   0.0000   0.2313
  12.000   1.0416   0.04014   0.03231   0.0026  0.0648  1.0000  -4.7441   0.0000   0.0000   0.0000   0.2307
  12.100   1.0471   0.04088   0.03305   0.0030  0.0627  1.0000  -4.8081   0.0000   0.0000   0.0000   0.2302
  12.300   1.0720   0.04370   0.03600   0.0030  0.0569  1.0000  -4.9379   0.0000   0.0000   0.0000   0.2302
  12.400   1.0756   0.04424   0.03662   0.0035  0.0562  1.0000  -4.9942   0.0000   0.0000   0.0000   0.2296
  12.500   1.0793   0.04486   0.03731   0.0040  0.0553  1.0000  -5.0479   0.0000   0.0000   0.0000   0.2290
  12.600   1.0830   0.04555   0.03809   0.0045  0.0542  1.0000  -5.0981   0.0000   0.0000   0.0000   0.2284
  12.700   1.0863   0.04632   0.03895   0.0050  0.0530  1.0000  -5.1436   0.0000   0.0000   0.0000   0.2278
  12.800   1.0893   0.04717   0.03987   0.0055  0.0517  1.0000  -5.1853   0.0000   0.0000   0.0000   0.2272
  12.900   1.0921   0.04807   0.04086   0.0060  0.0505  1.0000  -5.2237   0.0000   0.0000   0.0000   0.2266
  13.000   1.0944   0.04903   0.04191   0.0065  0.0494  1.0000  -5.2588   0.0000   0.0000   0.0000   0.2259
  13.100   1.0965   0.05004   0.04301   0.0070  0.0484  1.0000  -5.2921   0.0000   0.0000   0.0000   0.2253
  13.200   1.0983   0.05109   0.04414   0.0075  0.0475  1.0000  -5.3235   0.0000   0.0000   0.0000   0.2247
  13.300   1.0998   0.05218   0.04532   0.0080  0.0468  1.0000  -5.3530   0.0000   0.0000   0.0000   0.2241
  13.400   1.1009   0.05331   0.04654   0.0085  0.0461  1.0000  -5.3802   0.0000   0.0000   0.0000   0.2235
  13.500   1.1015   0.05449   0.04795   0.0089  0.0456  1.0000  -5.4042   0.0000   0.0000   0.0000   0.2229
  13.600   1.1016   0.05573   0.04927   0.0094  0.0451  1.0000  -5.4254   0.0000   0.0000   0.0000   0.2223
  13.700   1.1011   0.05701   0.05066   0.0099  0.0447  1.0000  -5.4431   0.0000   0.0000   0.0000   0.2217
  13.800   1.0998   0.05836   0.05211   0.0103  0.0444  1.0000  -5.4562   0.0000   0.0000   0.0000   0.2211
  13.900   1.0974   0.05978   0.05363   0.0108  0.0442  1.0000  -5.4635   0.0000   0.0000   0.0000   0.2205
  14.000   1.0943   0.06126   0.05521   0.0112  0.0440  1.0000  -5.4667   0.0000   0.0000   0.0000   0.2199
  14.100   1.0907   0.06279   0.05686   0.0116  0.0439  1.0000  -5.4662   0.0000   0.0000   0.0000   0.2193
  14.200   1.0864   0.06438   0.05856   0.0120  0.0438  1.0000  -5.4617   0.0000   0.0000   0.0000   0.2187
  14.300   1.0814   0.06603   0.06031   0.0123  0.0437  1.0000  -5.4528   0.0000   0.0000   0.0000   0.2182
  14.400   1.0755   0.06776   0.06215   0.0126  0.0437  1.0000  -5.4390   0.0000   0.0000   0.0000   0.2177
  14.500   1.0686   0.06959   0.06409   0.0128  0.0437  1.0000  -5.4194   0.0000   0.0000   0.0000   0.2172
  14.600   1.0613   0.07152   0.06613   0.0129  0.0437  1.0000  -5.3963   0.0000   0.0000   0.0000   0.2168
  14.700   1.0536   0.07355   0.06827   0.0128  0.0437  1.0000  -5.3695   0.0000   0.0000   0.0000   0.2166
  14.800   1.0452   0.07569   0.07053   0.0127  0.0438  1.0000  -5.3377   0.0000   0.0000   0.0000   0.2164
  14.900   1.0357   0.07798   0.07292   0.0124  0.0439  1.0000  -5.2996   0.0000   0.0000   0.0000   0.2163
  15.000   1.0259   0.08039   0.07544   0.0120  0.0440  1.0000  -5.2577   0.0000   0.0000   0.0000   0.2164
  15.100   1.0157   0.08294   0.07809   0.0114  0.0441  1.0000  -5.2111   0.0000   0.0000   0.0000   0.2166
  15.200   1.0041   0.08568   0.08094   0.0106  0.0443  1.0000  -5.1569   0.0000   0.0000   0.0000   0.2171
  15.300   0.9923   0.08859   0.08395   0.0095  0.0445  1.0000  -5.0973   0.0000   0.0000   0.0000   0.2177
  15.400   0.9800   0.09168   0.08714   0.0083  0.0447  1.0000  -5.0317   0.0000   0.0000   0.0000   0.2186
  15.500   0.9665   0.09505   0.09061   0.0068  0.0449  1.0000  -4.9563   0.0000   0.0000   0.0000   0.2199
  15.600   0.9511   0.09888   0.09442   0.0048  0.0453  1.0000  -4.8629   0.0000   0.0000   0.0000   0.2216
  15.700   0.9332   0.10332   0.09896   0.0022  0.0456  1.0000  -4.7475   0.0000   0.0000   0.0000   0.2240
  15.800   0.9127   0.10861   0.10434  -0.0011  0.0461  1.0000  -4.6021   0.0000   0.0000   0.0000   0.2273
  15.900   0.8867   0.11553   0.11136  -0.0056  0.0469  1.0000  -4.3953   0.0000   0.0000   0.0000   0.2323
  16.000   0.8462   0.12706   0.12297  -0.0133  0.0485  1.0000  -4.0092   0.0000   0.0000   0.0000   0.2416
  16.100   0.8085   0.14022   0.13611  -0.0209  0.0505  1.0000  -3.5435   0.0000   0.0000   0.0000   0.2520
  16.200   0.7956   0.14608   0.14194  -0.0240  0.0514  1.0000  -3.3605   0.0000   0.0000   0.0000   0.2563
  16.300   0.7877   0.15042   0.14626  -0.0262  0.0521  1.0000  -3.2401   0.0000   0.0000   0.0000   0.2595
  16.400   0.7820   0.15413   0.14996  -0.0281  0.0527  1.0000  -3.1473   0.0000   0.0000   0.0000   0.2620
  16.500   0.7778   0.15748   0.15329  -0.0297  0.0534  1.0000  -3.0717   0.0000   0.0000   0.0000   0.2642
  16.600   0.7746   0.16059   0.15639  -0.0312  0.0541  1.0000  -3.0081   0.0000   0.0000   0.0000   0.2661
  16.700   0.7721   0.16357   0.15937  -0.0324  0.0548  1.0000  -2.9533   0.0000   0.0000   0.0000   0.2678
  16.800   0.7698   0.16663   0.16242  -0.0334  0.0558  1.0000  -2.9025   0.0000   0.0000   0.0000   0.2691
  16.900   0.7817   0.16656   0.16243  -0.0320  0.0586  1.0000  -2.9882   0.0000   0.0000   0.0000   0.2665
  17.000   0.7665   0.18162   0.17748  -0.0380  0.0859  1.0000  -2.4599   0.0000   0.0000   0.0000   0.2759
  17.100   0.7688   0.18366   0.17952  -0.0387  0.0857  1.0000  -2.4598   0.0000   0.0000   0.0000   0.2765
  17.200   0.7717   0.18570   0.18157  -0.0392  0.0853  1.0000  -2.4659   0.0000   0.0000   0.0000   0.2768
  17.300   0.7745   0.18793   0.18381  -0.0396  0.0849  1.0000  -2.4716   0.0000   0.0000   0.0000   0.2770
  17.400   0.7755   0.19081   0.18669  -0.0402  0.0842  1.0000  -2.4653   0.0000   0.0000   0.0000   0.2776
  17.500   0.7647   0.19987   0.19569  -0.0421  0.0825  1.0000  -2.3447   0.0000   0.0000   0.0000   0.2809
  17.600   0.7659   0.20210   0.19792  -0.0431  0.0825  1.0000  -2.3292   0.0000   0.0000   0.0000   0.2820
  17.700   0.7670   0.20427   0.20009  -0.0442  0.0824  1.0000  -2.3135   0.0000   0.0000   0.0000   0.2831
  17.800   0.7681   0.20636   0.20218  -0.0452  0.0824  1.0000  -2.2974   0.0000   0.0000   0.0000   0.2843
  17.900   0.7691   0.20834   0.20415  -0.0463  0.0823  1.0000  -2.2808   0.0000   0.0000   0.0000   0.2854
  18.000   0.7700   0.21017   0.20599  -0.0474  0.0822  1.0000  -2.2636   0.0000   0.0000   0.0000   0.2867
  18.100   0.7707   0.21182   0.20764  -0.0485  0.0821  1.0000  -2.2457   0.0000   0.0000   0.0000   0.2879
  18.200   0.7714   0.21320   0.20901  -0.0498  0.0818  1.0000  -2.2270   0.0000   0.0000   0.0000   0.2893
  18.300   0.7717   0.21407   0.20987  -0.0511  0.0814  1.0000  -2.2063   0.0000   0.0000   0.0000   0.2909
  18.400   0.7694   0.21403   0.20982  -0.0533  0.0802  1.0000  -2.1641   0.0000   0.0000   0.0000   0.2936
  18.500   0.7640   0.21425   0.21001  -0.0560  0.0779  1.0000  -2.0976   0.0000   0.0000   0.0000   0.2974
  18.600   0.7621   0.21544   0.21119  -0.0579  0.0749  1.0000  -2.0588   0.0000   0.0000   0.0000   0.2999
  18.700   0.7631   0.21690   0.21264  -0.0590  0.0720  1.0000  -2.0483   0.0000   0.0000   0.0000   0.3011
  18.800   0.7653   0.21835   0.21410  -0.0598  0.0696  1.0000  -2.0514   0.0000   0.0000   0.0000   0.3017
  18.900   0.7678   0.21990   0.21565  -0.0605  0.0681  1.0000  -2.0614   0.0000   0.0000   0.0000   0.3022
  19.000   0.7704   0.22150   0.21726  -0.0611  0.0669  1.0000  -2.0719   0.0000   0.0000   0.0000   0.3026
  19.100   0.7734   0.22307   0.21883  -0.0617  0.0658  1.0000  -2.0860   0.0000   0.0000   0.0000   0.3029
  19.200   0.7766   0.22461   0.22037  -0.0622  0.0648  1.0000  -2.1038   0.0000   0.0000   0.0000   0.3030
  19.300   0.7803   0.22613   0.22190  -0.0626  0.0638  1.0000  -2.1261   0.0000   0.0000   0.0000   0.3030
  19.400   0.7844   0.22764   0.22342  -0.0629  0.0629  1.0000  -2.1535   0.0000   0.0000   0.0000   0.3028
  19.500   0.7891   0.22917   0.22495  -0.0630  0.0621  1.0000  -2.1874   0.0000   0.0000   0.0000   0.3023
  19.600   0.7947   0.23077   0.22657  -0.0630  0.0613  1.0000  -2.2300   0.0000   0.0000   0.0000   0.3015
  19.700   0.8015   0.23257   0.22838  -0.0627  0.0605  1.0000  -2.2836   0.0000   0.0000   0.0000   0.3003
  19.800   0.8079   0.23464   0.23048  -0.0623  0.0597  1.0000  -2.3352   0.0000   0.0000   0.0000   0.2991
  19.900   0.8132   0.23780   0.23366  -0.0620  0.0588  1.0000  -2.3763   0.0000   0.0000   0.0000   0.2981
  20.000   0.8060   0.24743   0.24322  -0.0634  0.0574  1.0000  -2.2613   0.0000   0.0000   0.0000   0.3006
  20.100   0.8075   0.24961   0.24540  -0.0643  0.0574  1.0000  -2.2476   0.0000   0.0000   0.0000   0.3014
  20.200   0.8090   0.25175   0.24754  -0.0653  0.0573  1.0000  -2.2339   0.0000   0.0000   0.0000   0.3023
  20.300   0.8105   0.25384   0.24963  -0.0662  0.0573  1.0000  -2.2203   0.0000   0.0000   0.0000   0.3032
  20.400   0.8119   0.25587   0.25166  -0.0672  0.0572  1.0000  -2.2066   0.0000   0.0000   0.0000   0.3041
  20.500   0.8133   0.25785   0.25363  -0.0682  0.0572  1.0000  -2.1929   0.0000   0.0000   0.0000   0.3050
  20.600   0.8147   0.25974   0.25553  -0.0692  0.0571  1.0000  -2.1793   0.0000   0.0000   0.0000   0.3059
  20.700   0.8160   0.26155   0.25734  -0.0702  0.0570  1.0000  -2.1656   0.0000   0.0000   0.0000   0.3068
  20.800   0.8173   0.26326   0.25904  -0.0712  0.0569  1.0000  -2.1517   0.0000   0.0000   0.0000   0.3078
  20.900   0.8185   0.26482   0.26060  -0.0722  0.0567  1.0000  -2.1376   0.0000   0.0000   0.0000   0.3088
  21.000   0.8197   0.26618   0.26196  -0.0733  0.0565  1.0000  -2.1228   0.0000   0.0000   0.0000   0.3098
  21.100   0.8196   0.26722   0.26300  -0.0747  0.0562  1.0000  -2.0978   0.0000   0.0000   0.0000   0.3112
  21.200   0.8178   0.26782   0.26359  -0.0763  0.0556  1.0000  -2.0596   0.0000   0.0000   0.0000   0.3133
  21.300   0.8154   0.26826   0.26401  -0.0784  0.0546  1.0000  -2.0089   0.0000   0.0000   0.0000   0.3158
  21.400   0.8147   0.26943   0.26517  -0.0802  0.0528  1.0000  -1.9665   0.0000   0.0000   0.0000   0.3180
  21.500   0.8156   0.27120   0.26694  -0.0815  0.0512  1.0000  -1.9459   0.0000   0.0000   0.0000   0.3192
  21.600   0.8171   0.27311   0.26885  -0.0825  0.0498  1.0000  -1.9357   0.0000   0.0000   0.0000   0.3201
  21.700   0.8187   0.27504   0.27079  -0.0834  0.0486  1.0000  -1.9301   0.0000   0.0000   0.0000   0.3207
  21.800   0.8205   0.27698   0.27273  -0.0842  0.0477  1.0000  -1.9267   0.0000   0.0000   0.0000   0.3214
  21.900   0.8223   0.27892   0.27467  -0.0849  0.0467  1.0000  -1.9252   0.0000   0.0000   0.0000   0.3219
  22.000   0.8242   0.28083   0.27659  -0.0857  0.0459  1.0000  -1.9254   0.0000   0.0000   0.0000   0.3224
  22.100   0.8262   0.28274   0.27850  -0.0864  0.0451  1.0000  -1.9270   0.0000   0.0000   0.0000   0.3228
  22.200   0.8281   0.28463   0.28040  -0.0871  0.0444  1.0000  -1.9300   0.0000   0.0000   0.0000   0.3233
  22.300   0.8301   0.28651   0.28228  -0.0878  0.0437  1.0000  -1.9344   0.0000   0.0000   0.0000   0.3236
  22.400   0.8322   0.28838   0.28424  -0.0884  0.0431  1.0000  -1.9396   0.0000   0.0000   0.0000   0.3240
  22.500   0.8343   0.29023   0.28610  -0.0890  0.0425  1.0000  -1.9470   0.0000   0.0000   0.0000   0.3243
  22.600   0.8364   0.29207   0.28795  -0.0896  0.0419  1.0000  -1.9561   0.0000   0.0000   0.0000   0.3245
  22.700   0.8386   0.29391   0.28979  -0.0901  0.0414  1.0000  -1.9670   0.0000   0.0000   0.0000   0.3247
  22.800   0.8409   0.29574   0.29163  -0.0906  0.0409  1.0000  -1.9799   0.0000   0.0000   0.0000   0.3248
  22.900   0.8433   0.29757   0.29347  -0.0911  0.0404  1.0000  -1.9950   0.0000   0.0000   0.0000   0.3249
  23.000   0.8458   0.29943   0.29534  -0.0915  0.0400  1.0000  -2.0125   0.0000   0.0000   0.0000   0.3249
  23.100   0.8484   0.30132   0.29724  -0.0918  0.0396  1.0000  -2.0329   0.0000   0.0000   0.0000   0.3247
  23.200   0.8513   0.30328   0.29921  -0.0921  0.0392  1.0000  -2.0570   0.0000   0.0000   0.0000   0.3245
  23.300   0.8546   0.30537   0.30131  -0.0922  0.0388  1.0000  -2.0851   0.0000   0.0000   0.0000   0.3241
  23.400   0.8584   0.30772   0.30367  -0.0922  0.0384  1.0000  -2.1185   0.0000   0.0000   0.0000   0.3235
  23.500   0.8633   0.31069   0.30666  -0.0920  0.0379  1.0000  -2.1602   0.0000   0.0000   0.0000   0.3225
  23.600   0.8655   0.31659   0.31259  -0.0919  0.0371  1.0000  -2.1634   0.0000   0.0000   0.0000   0.3221
  23.700   0.8613   0.32413   0.32008  -0.0928  0.0366  1.0000  -2.0687   0.0000   0.0000   0.0000   0.3237
  23.800   0.8620   0.32630   0.32225  -0.0935  0.0366  1.0000  -2.0552   0.0000   0.0000   0.0000   0.3244
  23.900   0.8626   0.32845   0.32441  -0.0943  0.0365  1.0000  -2.0415   0.0000   0.0000   0.0000   0.3250
  24.000   0.8631   0.33058   0.32655  -0.0950  0.0365  1.0000  -2.0277   0.0000   0.0000   0.0000   0.3257
  24.100   0.8635   0.33268   0.32865  -0.0958  0.0365  1.0000  -2.0135   0.0000   0.0000   0.0000   0.3263
  24.200   0.8637   0.33475   0.33073  -0.0965  0.0365  1.0000  -1.9991   0.0000   0.0000   0.0000   0.3270
  24.300   0.8639   0.33680   0.33279  -0.0972  0.0365  1.0000  -1.9844   0.0000   0.0000   0.0000   0.3277
  24.400   0.8639   0.33881   0.33481  -0.0979  0.0364  1.0000  -1.9693   0.0000   0.0000   0.0000   0.3284
  24.500   0.8637   0.34078   0.33679  -0.0986  0.0364  1.0000  -1.9538   0.0000   0.0000   0.0000   0.3291
  24.600   0.8632   0.34269   0.33871  -0.0992  0.0364  1.0000  -1.9376   0.0000   0.0000   0.0000   0.3298
  24.700   0.8626   0.34455   0.34057  -0.0999  0.0364  1.0000  -1.9208   0.0000   0.0000   0.0000   0.3305
  24.800   0.8616   0.34633   0.34237  -0.1005  0.0363  1.0000  -1.9032   0.0000   0.0000   0.0000   0.3312
  24.900   0.8603   0.34803   0.34408  -0.1011  0.0363  1.0000  -1.8846   0.0000   0.0000   0.0000   0.3320
  25.000   0.8583   0.34959   0.34566  -0.1016  0.0363  1.0000  -1.8644   0.0000   0.0000   0.0000   0.3328
  25.100   0.8556   0.35097   0.34705  -0.1020  0.0362  1.0000  -1.8418   0.0000   0.0000   0.0000   0.3337
  25.200   0.7975   0.33810   0.33440  -0.0966  0.0362  1.0000  -1.6630   0.0000   0.0000   0.0000   0.3381
  25.300   0.7908   0.33719   0.33353  -0.0965  0.0362  1.0000  -1.6303   0.0000   0.0000   0.0000   0.3392
  25.400   0.7854   0.33655   0.33292  -0.0966  0.0362  1.0000  -1.6011   0.0000   0.0000   0.0000   0.3403
  25.500   0.7807   0.33604   0.33242  -0.0968  0.0361  1.0000  -1.5732   0.0000   0.0000   0.0000   0.3414
  25.600   0.7759   0.33543   0.33184  -0.0971  0.0361  1.0000  -1.5431   0.0000   0.0000   0.0000   0.3426
  25.700   0.7715   0.33489   0.33132  -0.0974  0.0360  1.0000  -1.5140   0.0000   0.0000   0.0000   0.3438
  25.800   0.7675   0.33442   0.33087  -0.0978  0.0359  1.0000  -1.4860   0.0000   0.0000   0.0000   0.3450
  25.900   0.7639   0.33400   0.33046  -0.0983  0.0358  1.0000  -1.4586   0.0000   0.0000   0.0000   0.3462
  26.000   0.7606   0.33362   0.33010  -0.0988  0.0357  1.0000  -1.4318   0.0000   0.0000   0.0000   0.3475
  26.100   0.7576   0.33330   0.32980  -0.0993  0.0356  1.0000  -1.4051   0.0000   0.0000   0.0000   0.3487
  26.200   0.7549   0.33304   0.32955  -0.0999  0.0354  1.0000  -1.3784   0.0000   0.0000   0.0000   0.3499
  26.300   0.7526   0.33288   0.32941  -0.1006  0.0352  1.0000  -1.3514   0.0000   0.0000   0.0000   0.3512
  26.400   0.7508   0.33289   0.32942  -0.1014  0.0349  1.0000  -1.3237   0.0000   0.0000   0.0000   0.3525
  26.500   0.7495   0.33314   0.32969  -0.1023  0.0344  1.0000  -1.2959   0.0000   0.0000   0.0000   0.3538
  26.600   0.7488   0.33364   0.33019  -0.1031  0.0338  1.0000  -1.2704   0.0000   0.0000   0.0000   0.3550
  26.700   0.7481   0.33423   0.33080  -0.1038  0.0330  1.0000  -1.2491   0.0000   0.0000   0.0000   0.3559
  26.800   0.7475   0.33482   0.33140  -0.1044  0.0323  1.0000  -1.2319   0.0000   0.0000   0.0000   0.3568
  26.900   0.7469   0.33537   0.33197  -0.1049  0.0316  1.0000  -1.2174   0.0000   0.0000   0.0000   0.3575
  27.000   0.7462   0.33590   0.33251  -0.1054  0.0310  1.0000  -1.2049   0.0000   0.0000   0.0000   0.3582
  27.100   0.7456   0.33641   0.33303  -0.1058  0.0304  1.0000  -1.1936   0.0000   0.0000   0.0000   0.3589
  27.200   0.7450   0.33691   0.33355  -0.1063  0.0298  1.0000  -1.1835   0.0000   0.0000   0.0000   0.3595
  27.300   0.7444   0.33740   0.33405  -0.1067  0.0293  1.0000  -1.1741   0.0000   0.0000   0.0000   0.3602
  27.400   0.7439   0.33789   0.33455  -0.1071  0.0288  1.0000  -1.1654   0.0000   0.0000   0.0000   0.3608
  27.500   0.7435   0.33838   0.33505  -0.1076  0.0283  1.0000  -1.1572   0.0000   0.0000   0.0000   0.3614
  27.600   0.7430   0.33886   0.33555  -0.1080  0.0279  1.0000  -1.1495   0.0000   0.0000   0.0000   0.3619
  27.700   0.7426   0.33935   0.33605  -0.1084  0.0275  1.0000  -1.1420   0.0000   0.0000   0.0000   0.3625
  27.800   0.7423   0.33983   0.33655  -0.1089  0.0272  1.0000  -1.1350   0.0000   0.0000   0.0000   0.3631
  27.900   0.7419   0.34032   0.33704  -0.1093  0.0268  1.0000  -1.1284   0.0000   0.0000   0.0000   0.3636
  28.000   0.7416   0.34080   0.33754  -0.1097  0.0265  1.0000  -1.1222   0.0000   0.0000   0.0000   0.3642
  28.100   0.7414   0.34129   0.33804  -0.1102  0.0262  1.0000  -1.1165   0.0000   0.0000   0.0000   0.3647
  28.200   0.7412   0.34177   0.33853  -0.1106  0.0259  1.0000  -1.1112   0.0000   0.0000   0.0000   0.3652
  28.300   0.7410   0.34225   0.33902  -0.1110  0.0256  1.0000  -1.1064   0.0000   0.0000   0.0000   0.3657
  28.400   0.7408   0.34272   0.33951  -0.1115  0.0253  1.0000  -1.1019   0.0000   0.0000   0.0000   0.3662
  28.500   0.7407   0.34320   0.34000  -0.1119  0.0250  1.0000  -1.0979   0.0000   0.0000   0.0000   0.3667
  28.600   0.7406   0.34367   0.34048  -0.1123  0.0247  1.0000  -1.0972   0.0000   0.0000   0.0000   0.3672
  28.700   0.7405   0.34414   0.34096  -0.1127  0.0245  1.0000  -1.0980   0.0000   0.0000   0.0000   0.3677
  28.800   0.7404   0.34461   0.34144  -0.1132  0.0242  1.0000  -1.0991   0.0000   0.0000   0.0000   0.3681
  28.900   0.7404   0.34507   0.34191  -0.1136  0.0240  1.0000  -1.1006   0.0000   0.0000   0.0000   0.3686
  29.000   0.7403   0.34552   0.34238  -0.1140  0.0238  1.0000  -1.1025   0.0000   0.0000   0.0000   0.3690
  29.100   0.7403   0.34598   0.34285  -0.1144  0.0236  1.0000  -1.1047   0.0000   0.0000   0.0000   0.3694
  29.200   0.7404   0.34642   0.34331  -0.1148  0.0233  1.0000  -1.1075   0.0000   0.0000   0.0000   0.3698
  29.300   0.7404   0.34687   0.34376  -0.1152  0.0231  1.0000  -1.1107   0.0000   0.0000   0.0000   0.3702
  29.400   0.7405   0.34731   0.34427  -0.1156  0.0229  1.0000  -1.1140   0.0000   0.0000   0.0000   0.3706
  29.500   0.7405   0.34774   0.34472  -0.1160  0.0227  1.0000  -1.1182   0.0000   0.0000   0.0000   0.3710
  29.600   0.7406   0.34818   0.34517  -0.1164  0.0226  1.0000  -1.1229   0.0000   0.0000   0.0000   0.3713
  29.700   0.7408   0.34861   0.34561  -0.1168  0.0224  1.0000  -1.1283   0.0000   0.0000   0.0000   0.3716
  29.800   0.7409   0.34905   0.34606  -0.1171  0.0222  1.0000  -1.1343   0.0000   0.0000   0.0000   0.3719
  29.900   0.7411   0.34949   0.34652  -0.1175  0.0220  1.0000  -1.1409   0.0000   0.0000   0.0000   0.3722
  30.000   0.7414   0.34996   0.34699  -0.1178  0.0219  1.0000  -1.1484   0.0000   0.0000   0.0000   0.3724


