xflr5 v6.61

 Calculated polar for: NREL's S822 Airfoil

 1 1 Reynolds number fixed          Mach number fixed         

 xtrf =   1.000 (top)        1.000 (bottom)
 Mach =   0.000     Re =     0.400 e 6     Ncrit =   9.000

  alpha     CL        CD       CDp       Cm    Top Xtr Bot Xtr   Cpmin    Chinge    XCp    
 ------- -------- --------- --------- -------- ------- ------- -------- --------- ---------
 -10.000  -0.6497   0.01769   0.01146  -0.0973  0.9214  0.0482  -4.5497   0.0000   0.0000   0.0000   0.0844
  -9.900  -0.6399   0.01764   0.01131  -0.0974  0.9189  0.0492  -4.4460   0.0000   0.0000   0.0000   0.0821
  -9.800  -0.6355   0.01744   0.01109  -0.0965  0.9170  0.0506  -4.3742   0.0000   0.0000   0.0000   0.0825
  -9.700  -0.6385   0.01692   0.01054  -0.0945  0.9141  0.0554  -4.3519   0.0000   0.0000   0.0000   0.0866
  -9.600  -0.6371   0.01659   0.01024  -0.0932  0.9114  0.0599  -4.2990   0.0000   0.0000   0.0000   0.0886
  -9.500  -0.6337   0.01637   0.01005  -0.0922  0.9092  0.0634  -4.2320   0.0000   0.0000   0.0000   0.0896
  -9.400  -0.6292   0.01620   0.00989  -0.0913  0.9071  0.0667  -4.1593   0.0000   0.0000   0.0000   0.0901
  -9.300  -0.6236   0.01606   0.00975  -0.0905  0.9053  0.0696  -4.0812   0.0000   0.0000   0.0000   0.0901
  -9.200  -0.6167   0.01597   0.00962  -0.0899  0.9035  0.0718  -3.9968   0.0000   0.0000   0.0000   0.0895
  -9.100  -0.6086   0.01590   0.00952  -0.0895  0.9020  0.0732  -3.9066   0.0000   0.0000   0.0000   0.0884
  -9.000  -0.6057   0.01560   0.00921  -0.0883  0.9000  0.0796  -3.8487   0.0000   0.0000   0.0000   0.0898
  -8.900  -0.6010   0.01533   0.00899  -0.0875  0.8982  0.0861  -3.7791   0.0000   0.0000   0.0000   0.0902
  -8.800  -0.5949   0.01513   0.00883  -0.0868  0.8965  0.0912  -3.7010   0.0000   0.0000   0.0000   0.0899
  -8.700  -0.5876   0.01499   0.00869  -0.0863  0.8950  0.0956  -3.6176   0.0000   0.0000   0.0000   0.0890
  -8.600  -0.5793   0.01489   0.00857  -0.0860  0.8935  0.0991  -3.5296   0.0000   0.0000   0.0000   0.0875
  -8.500  -0.5701   0.01484   0.00848  -0.0858  0.8920  0.1012  -3.4379   0.0000   0.0000   0.0000   0.0855
  -8.400  -0.5640   0.01464   0.00830  -0.0851  0.8900  0.1092  -3.3648   0.0000   0.0000   0.0000   0.0852
  -8.300  -0.5577   0.01450   0.00821  -0.0846  0.8877  0.1164  -3.2890   0.0000   0.0000   0.0000   0.0846
  -8.200  -0.5511   0.01435   0.00810  -0.0840  0.8863  0.1223  -3.2116   0.0000   0.0000   0.0000   0.0839
  -8.100  -0.5436   0.01422   0.00798  -0.0835  0.8853  0.1275  -3.1309   0.0000   0.0000   0.0000   0.0828
  -8.000  -0.5355   0.01413   0.00788  -0.0831  0.8841  0.1314  -3.0477   0.0000   0.0000   0.0000   0.0813
  -7.900  -0.5271   0.01404   0.00777  -0.0827  0.8828  0.1350  -2.9646   0.0000   0.0000   0.0000   0.0796
  -7.800  -0.5208   0.01386   0.00762  -0.0820  0.8813  0.1444  -2.8920   0.0000   0.0000   0.0000   0.0791
  -7.700  -0.5142   0.01368   0.00750  -0.0814  0.8797  0.1520  -2.8179   0.0000   0.0000   0.0000   0.0784
  -7.600  -0.5068   0.01354   0.00739  -0.0809  0.8781  0.1587  -2.7407   0.0000   0.0000   0.0000   0.0771
  -7.500  -0.4985   0.01344   0.00729  -0.0805  0.8767  0.1645  -2.6604   0.0000   0.0000   0.0000   0.0752
  -7.400  -0.4893   0.01337   0.00721  -0.0803  0.8753  0.1688  -2.5774   0.0000   0.0000   0.0000   0.0727
  -7.300  -0.4818   0.01322   0.00709  -0.0798  0.8738  0.1794  -2.5028   0.0000   0.0000   0.0000   0.0713
  -7.200  -0.4747   0.01304   0.00699  -0.0793  0.8723  0.1897  -2.4299   0.0000   0.0000   0.0000   0.0699
  -7.100  -0.4667   0.01291   0.00689  -0.0789  0.8709  0.1986  -2.3537   0.0000   0.0000   0.0000   0.0679
  -7.000  -0.4576   0.01282   0.00680  -0.0786  0.8695  0.2055  -2.2741   0.0000   0.0000   0.0000   0.0651
  -6.900  -0.4482   0.01273   0.00671  -0.0784  0.8682  0.2120  -2.1948   0.0000   0.0000   0.0000   0.0620
  -6.800  -0.4404   0.01257   0.00660  -0.0780  0.8668  0.2239  -2.1225   0.0000   0.0000   0.0000   0.0599
  -6.700  -0.4321   0.01242   0.00650  -0.0776  0.8655  0.2332  -2.0489   0.0000   0.0000   0.0000   0.0574
  -6.600  -0.4230   0.01231   0.00641  -0.0774  0.8642  0.2413  -1.9729   0.0000   0.0000   0.0000   0.0541
  -6.500  -0.4132   0.01224   0.00632  -0.0773  0.8630  0.2479  -1.9093   0.0000   0.0000   0.0000   0.0501
  -6.400  -0.4036   0.01215   0.00623  -0.0771  0.8618  0.2560  -1.8581   0.0000   0.0000   0.0000   0.0461
  -6.300  -0.3954   0.01199   0.00614  -0.0767  0.8605  0.2692  -1.8107   0.0000   0.0000   0.0000   0.0431
  -6.200  -0.3867   0.01187   0.00607  -0.0764  0.8593  0.2803  -1.7623   0.0000   0.0000   0.0000   0.0395
  -6.100  -0.3772   0.01180   0.00591  -0.0762  0.8580  0.2893  -1.7120   0.0000   0.0000   0.0000   0.0350
  -6.000  -0.3670   0.01177   0.00587  -0.0761  0.8566  0.2952  -1.6609   0.0000   0.0000   0.0000   0.0296
  -5.900  -0.3581   0.01170   0.00583  -0.0759  0.8550  0.3068  -1.6136   0.0000   0.0000   0.0000   0.0251
  -5.800  -0.3497   0.01167   0.00585  -0.0755  0.8530  0.3176  -1.5678   0.0000   0.0000   0.0000   0.0210
  -5.700  -0.3415   0.01167   0.00589  -0.0752  0.8512  0.3269  -1.5226   0.0000   0.0000   0.0000   0.0168
  -5.600  -0.3320   0.01159   0.00583  -0.0750  0.8506  0.3352  -1.4748   0.0000   0.0000   0.0000   0.0111
  -5.500  -0.3221   0.01154   0.00577  -0.0748  0.8499  0.3418  -1.4383   0.0000   0.0000   0.0000   0.0046
  -5.400  -0.3134   0.01144   0.00570  -0.0745  0.8491  0.3538  -1.4045   0.0000   0.0000   0.0000  -0.0010
  -5.300  -0.3051   0.01131   0.00565  -0.0741  0.8482  0.3666  -1.3717   0.0000   0.0000   0.0000  -0.0061
  -5.200  -0.2962   0.01122   0.00561  -0.0738  0.8472  0.3778  -1.3379   0.0000   0.0000   0.0000  -0.0125
  -5.100  -0.2867   0.01116   0.00556  -0.0736  0.8461  0.3867  -1.3033   0.0000   0.0000   0.0000  -0.0201
  -5.000  -0.2768   0.01113   0.00552  -0.0734  0.8450  0.3931  -1.2683   0.0000   0.0000   0.0000  -0.0289
  -4.900  -0.2681   0.01103   0.00546  -0.0731  0.8438  0.4058  -1.2358   0.0000   0.0000   0.0000  -0.0362
  -4.800  -0.2592   0.01093   0.00543  -0.0728  0.8425  0.4167  -1.2029   0.0000   0.0000   0.0000  -0.0445
  -4.700  -0.2498   0.01087   0.00539  -0.0725  0.8412  0.4266  -1.1694   0.0000   0.0000   0.0000  -0.0543
  -4.600  -0.2399   0.01082   0.00536  -0.0724  0.8399  0.4351  -1.1354   0.0000   0.0000   0.0000  -0.0659
  -4.500  -0.2296   0.01079   0.00532  -0.0723  0.8386  0.4418  -1.1043   0.0000   0.0000   0.0000  -0.0793
  -4.400  -0.2204   0.01070   0.00527  -0.0720  0.8372  0.4552  -1.0792   0.0000   0.0000   0.0000  -0.0913
  -4.300  -0.2111   0.01060   0.00524  -0.0718  0.8359  0.4681  -1.0540   0.0000   0.0000   0.0000  -0.1047
  -4.200  -0.2012   0.01054   0.00521  -0.0716  0.8345  0.4796  -1.0281   0.0000   0.0000   0.0000  -0.1209
  -4.100  -0.1907   0.01049   0.00518  -0.0715  0.8333  0.4888  -1.0017   0.0000   0.0000   0.0000  -0.1405
  -4.000  -0.1801   0.01045   0.00513  -0.0715  0.8320  0.4969  -0.9753   0.0000   0.0000   0.0000  -0.1629
  -3.900  -0.1702   0.01036   0.00510  -0.0713  0.8307  0.5093  -0.9500   0.0000   0.0000   0.0000  -0.1852
  -3.800  -0.1599   0.01030   0.00508  -0.0712  0.8295  0.5199  -0.9243   0.0000   0.0000   0.0000  -0.2119
  -3.700  -0.1492   0.01024   0.00505  -0.0712  0.8282  0.5301  -0.9024   0.0000   0.0000   0.0000  -0.2443
  -3.600  -0.1381   0.01020   0.00501  -0.0712  0.8270  0.5393  -0.8810   0.0000   0.0000   0.0000  -0.2834
  -3.500  -0.1270   0.01015   0.00497  -0.0712  0.8257  0.5480  -0.8596   0.0000   0.0000   0.0000  -0.3299
  -3.400  -0.1165   0.01008   0.00495  -0.0711  0.8244  0.5608  -0.8390   0.0000   0.0000   0.0000  -0.3803
  -3.300  -0.1056   0.01003   0.00494  -0.0710  0.8231  0.5717  -0.8179   0.0000   0.0000   0.0000  -0.4443
  -3.200  -0.0943   0.01000   0.00492  -0.0711  0.8218  0.5811  -0.7968   0.0000   0.0000   0.0000  -0.5264
  -3.100  -0.0829   0.00999   0.00490  -0.0711  0.8204  0.5883  -0.7756   0.0000   0.0000   0.0000  -0.6328
  -3.000  -0.0716   0.01000   0.00489  -0.0712  0.8189  0.5935  -0.7545   0.0000   0.0000   0.0000  -0.7733
  -2.900  -0.0606   0.01002   0.00491  -0.0712  0.8172  0.6001  -0.7344   0.0000   0.0000   0.0000  -0.9576
  -2.800  -0.0504   0.01009   0.00501  -0.0711  0.8150  0.6087  -0.7181   0.0000   0.0000   0.0000  -1.1984
  -2.700  -0.0413   0.01024   0.00520  -0.0708  0.8126  0.6166  -0.7028   0.0000   0.0000   0.0000  -1.5081
  -2.600  -0.0308   0.01022   0.00518  -0.0707  0.8120  0.6243  -0.6864   0.0000   0.0000   0.0000  -2.0999
  -2.500  -0.0202   0.01021   0.00518  -0.0706  0.8113  0.6314  -0.6699   0.0000   0.0000   0.0000  -3.3175
  -2.400  -0.0096   0.01021   0.00517  -0.0705  0.8105  0.6373  -0.6536   0.0000   0.0000   0.0000  -7.2494
  -2.300   0.0010   0.01021   0.00517  -0.0704  0.8096  0.6418  -0.6373   0.0000   0.0000   0.0000  71.5513
  -2.200   0.0116   0.01023   0.00516  -0.0704  0.8086  0.6451  -0.6211   0.0000   0.0000   0.0000   6.4429
  -2.100   0.0220   0.01020   0.00515  -0.0703  0.8075  0.6507  -0.6052   0.0000   0.0000   0.0000   3.5055
  -2.000   0.0322   0.01018   0.00516  -0.0701  0.8064  0.6570  -0.5913   0.0000   0.0000   0.0000   2.4666
  -1.900   0.0424   0.01017   0.00518  -0.0699  0.8051  0.6629  -0.5781   0.0000   0.0000   0.0000   1.9271
  -1.800   0.0528   0.01017   0.00522  -0.0698  0.8038  0.6686  -0.5647   0.0000   0.0000   0.0000   1.5944
  -1.700   0.0632   0.01018   0.00524  -0.0697  0.8024  0.6741  -0.5514   0.0000   0.0000   0.0000   1.3689
  -1.600   0.0738   0.01019   0.00526  -0.0696  0.8011  0.6793  -0.5380   0.0000   0.0000   0.0000   1.2060
  -1.500   0.0846   0.01021   0.00527  -0.0695  0.7997  0.6838  -0.5245   0.0000   0.0000   0.0000   1.0830
  -1.400   0.0954   0.01022   0.00527  -0.0695  0.7983  0.6877  -0.5266   0.0000   0.0000   0.0000   0.9871
  -1.300   0.1065   0.01023   0.00527  -0.0695  0.7969  0.6909  -0.5309   0.0000   0.0000   0.0000   0.9103
  -1.200   0.1176   0.01025   0.00527  -0.0695  0.7955  0.6933  -0.5353   0.0000   0.0000   0.0000   0.8474
  -1.100   0.1288   0.01025   0.00526  -0.0696  0.7941  0.6957  -0.5398   0.0000   0.0000   0.0000   0.7952
  -1.000   0.1399   0.01021   0.00524  -0.0696  0.7928  0.7017  -0.5442   0.0000   0.0000   0.0000   0.7515
  -0.900   0.1510   0.01019   0.00525  -0.0696  0.7915  0.7070  -0.5486   0.0000   0.0000   0.0000   0.7141
  -0.800   0.1621   0.01019   0.00527  -0.0695  0.7902  0.7117  -0.5531   0.0000   0.0000   0.0000   0.6816
  -0.700   0.1734   0.01019   0.00529  -0.0695  0.7889  0.7160  -0.5577   0.0000   0.0000   0.0000   0.6531
  -0.600   0.1848   0.01019   0.00530  -0.0696  0.7877  0.7201  -0.5623   0.0000   0.0000   0.0000   0.6280
  -0.500   0.1963   0.01020   0.00531  -0.0696  0.7865  0.7239  -0.5669   0.0000   0.0000   0.0000   0.6057
  -0.400   0.2080   0.01020   0.00531  -0.0697  0.7853  0.7272  -0.5716   0.0000   0.0000   0.0000   0.5859
  -0.300   0.2197   0.01020   0.00531  -0.0699  0.7841  0.7304  -0.5763   0.0000   0.0000   0.0000   0.5682
  -0.200   0.2314   0.01021   0.00531  -0.0700  0.7829  0.7335  -0.5811   0.0000   0.0000   0.0000   0.5523
  -0.100   0.2431   0.01023   0.00532  -0.0701  0.7817  0.7366  -0.5858   0.0000   0.0000   0.0000   0.5380
   0.000   0.2547   0.01025   0.00534  -0.0702  0.7804  0.7393  -0.5904   0.0000   0.0000   0.0000   0.5250
   0.100   0.2663   0.01029   0.00536  -0.0703  0.7790  0.7416  -0.5953   0.0000   0.0000   0.0000   0.5131
   0.200   0.2778   0.01033   0.00539  -0.0704  0.7773  0.7442  -0.6005   0.0000   0.0000   0.0000   0.5023
   0.300   0.2891   0.01038   0.00545  -0.0705  0.7752  0.7488  -0.6055   0.0000   0.0000   0.0000   0.4925
   0.400   0.2986   0.01061   0.00571  -0.0703  0.7717  0.7525  -0.6092   0.0000   0.0000   0.0000   0.4838
   0.500   0.3092   0.01058   0.00570  -0.0702  0.7710  0.7556  -0.6140   0.0000   0.0000   0.0000   0.4751
   0.600   0.3197   0.01057   0.00571  -0.0700  0.7702  0.7586  -0.6194   0.0000   0.0000   0.0000   0.4671
   0.700   0.3300   0.01056   0.00573  -0.0698  0.7692  0.7616  -0.6247   0.0000   0.0000   0.0000   0.4595
   0.800   0.3402   0.01057   0.00575  -0.0696  0.7681  0.7648  -0.6300   0.0000   0.0000   0.0000   0.4524
   0.900   0.3505   0.01057   0.00578  -0.0694  0.7668  0.7679  -0.6363   0.0000   0.0000   0.0000   0.4456
   1.000   0.3608   0.01057   0.00579  -0.0693  0.7653  0.7710  -0.6432   0.0000   0.0000   0.0000   0.4393
   1.100   0.3713   0.01056   0.00579  -0.0691  0.7636  0.7740  -0.6502   0.0000   0.0000   0.0000   0.4333
   1.200   0.3819   0.01054   0.00579  -0.0690  0.7618  0.7769  -0.6581   0.0000   0.0000   0.0000   0.4277
   1.300   0.3928   0.01052   0.00577  -0.0689  0.7599  0.7794  -0.6666   0.0000   0.0000   0.0000   0.4224
   1.400   0.4039   0.01050   0.00575  -0.0689  0.7579  0.7817  -0.6758   0.0000   0.0000   0.0000   0.4174
   1.500   0.4152   0.01047   0.00572  -0.0689  0.7558  0.7838  -0.6853   0.0000   0.0000   0.0000   0.4127
   1.600   0.4268   0.01044   0.00569  -0.0690  0.7537  0.7858  -0.6951   0.0000   0.0000   0.0000   0.4082
   1.700   0.4384   0.01041   0.00566  -0.0691  0.7517  0.7874  -0.7060   0.0000   0.0000   0.0000   0.4039
   1.800   0.4501   0.01035   0.00562  -0.0692  0.7498  0.7902  -0.7170   0.0000   0.0000   0.0000   0.3999
   1.900   0.4616   0.01026   0.00555  -0.0692  0.7478  0.7940  -0.7290   0.0000   0.0000   0.0000   0.3960
   2.000   0.4732   0.01019   0.00549  -0.0692  0.7458  0.7970  -0.7415   0.0000   0.0000   0.0000   0.3922
   2.100   0.4847   0.01014   0.00545  -0.0692  0.7438  0.7996  -0.7540   0.0000   0.0000   0.0000   0.3886
   2.200   0.4962   0.01010   0.00541  -0.0692  0.7419  0.8020  -0.7665   0.0000   0.0000   0.0000   0.3852
   2.300   0.5079   0.01006   0.00538  -0.0692  0.7399  0.8043  -0.7807   0.0000   0.0000   0.0000   0.3819
   2.400   0.5197   0.01004   0.00536  -0.0693  0.7376  0.8066  -0.7955   0.0000   0.0000   0.0000   0.3789
   2.500   0.5316   0.01005   0.00536  -0.0694  0.7352  0.8091  -0.8103   0.0000   0.0000   0.0000   0.3760
   2.600   0.5435   0.01010   0.00541  -0.0695  0.7321  0.8117  -0.8261   0.0000   0.0000   0.0000   0.3732
   2.700   0.5548   0.01020   0.00551  -0.0695  0.7287  0.8144  -0.8429   0.0000   0.0000   0.0000   0.3706
   2.800   0.5645   0.01017   0.00550  -0.0692  0.7274  0.8172  -0.8586   0.0000   0.0000   0.0000   0.3678
   2.900   0.5743   0.01015   0.00550  -0.0689  0.7259  0.8198  -0.8743   0.0000   0.0000   0.0000   0.3651
   3.000   0.5842   0.01013   0.00551  -0.0687  0.7241  0.8223  -0.8904   0.0000   0.0000   0.0000   0.3625
   3.100   0.5943   0.01012   0.00551  -0.0684  0.7220  0.8246  -0.9095   0.0000   0.0000   0.0000   0.3601
   3.200   0.6045   0.01010   0.00551  -0.0683  0.7196  0.8266  -0.9289   0.0000   0.0000   0.0000   0.3577
   3.300   0.6150   0.01009   0.00551  -0.0681  0.7172  0.8284  -0.9487   0.0000   0.0000   0.0000   0.3555
   3.400   0.6256   0.01008   0.00551  -0.0680  0.7145  0.8301  -0.9717   0.0000   0.0000   0.0000   0.3533
   3.500   0.6363   0.01006   0.00550  -0.0679  0.7116  0.8315  -0.9964   0.0000   0.0000   0.0000   0.3512
   3.600   0.6466   0.00995   0.00541  -0.0677  0.7086  0.8355  -1.0205   0.0000   0.0000   0.0000   0.3491
   3.700   0.6567   0.00988   0.00535  -0.0674  0.7055  0.8386  -1.0447   0.0000   0.0000   0.0000   0.3470
   3.800   0.6672   0.00983   0.00531  -0.0672  0.7023  0.8412  -1.0696   0.0000   0.0000   0.0000   0.3449
   3.900   0.6781   0.00978   0.00526  -0.0670  0.6990  0.8435  -1.0950   0.0000   0.0000   0.0000   0.3430
   4.000   0.6892   0.00975   0.00522  -0.0669  0.6954  0.8456  -1.1207   0.0000   0.0000   0.0000   0.3411
   4.100   0.7005   0.00974   0.00527  -0.0669  0.6915  0.8477  -1.1469   0.0000   0.0000   0.0000   0.3394
   4.200   0.7124   0.00977   0.00528  -0.0670  0.6870  0.8498  -1.1737   0.0000   0.0000   0.0000   0.3379
   4.300   0.7223   0.00979   0.00532  -0.0668  0.6837  0.8523  -1.1985   0.0000   0.0000   0.0000   0.3362
   4.400   0.7304   0.00978   0.00536  -0.0661  0.6812  0.8551  -1.2268   0.0000   0.0000   0.0000   0.3341
   4.500   0.7386   0.00978   0.00538  -0.0655  0.6777  0.8580  -1.2556   0.0000   0.0000   0.0000   0.3322
   4.600   0.7470   0.00977   0.00540  -0.0649  0.6734  0.8609  -1.2848   0.0000   0.0000   0.0000   0.3303
   4.700   0.7560   0.00976   0.00541  -0.0644  0.6684  0.8636  -1.3151   0.0000   0.0000   0.0000   0.3285
   4.800   0.7656   0.00975   0.00539  -0.0641  0.6629  0.8660  -1.3492   0.0000   0.0000   0.0000   0.3269
   4.900   0.7757   0.00975   0.00537  -0.0638  0.6570  0.8680  -1.3915   0.0000   0.0000   0.0000   0.3254
   5.000   0.7858   0.00975   0.00534  -0.0636  0.6507  0.8698  -1.4344   0.0000   0.0000   0.0000   0.3239
   5.100   0.7961   0.00979   0.00534  -0.0634  0.6442  0.8712  -1.4778   0.0000   0.0000   0.0000   0.3225
   5.200   0.8064   0.00979   0.00533  -0.0632  0.6385  0.8740  -1.5213   0.0000   0.0000   0.0000   0.3212
   5.300   0.8135   0.00976   0.00535  -0.0624  0.6354  0.8775  -1.5590   0.0000   0.0000   0.0000   0.3194
   5.400   0.8206   0.00976   0.00539  -0.0616  0.6313  0.8806  -1.5968   0.0000   0.0000   0.0000   0.3176
   5.500   0.8277   0.00977   0.00544  -0.0607  0.6260  0.8835  -1.6351   0.0000   0.0000   0.0000   0.3158
   5.600   0.8349   0.00979   0.00547  -0.0599  0.6192  0.8865  -1.6738   0.0000   0.0000   0.0000   0.3140
   5.700   0.8422   0.00981   0.00548  -0.0590  0.6107  0.8894  -1.7131   0.0000   0.0000   0.0000   0.3123
   5.800   0.8490   0.00986   0.00547  -0.0581  0.6007  0.8923  -1.7517   0.0000   0.0000   0.0000   0.3105
   5.900   0.8554   0.00993   0.00549  -0.0571  0.5907  0.8953  -1.7895   0.0000   0.0000   0.0000   0.3088
   6.000   0.8622   0.00996   0.00555  -0.0562  0.5822  0.8982  -1.8282   0.0000   0.0000   0.0000   0.3071
   6.100   0.8683   0.01001   0.00559  -0.0553  0.5689  0.9011  -1.8658   0.0000   0.0000   0.0000   0.3054
   6.200   0.8725   0.01012   0.00561  -0.0539  0.5529  0.9039  -1.8998   0.0000   0.0000   0.0000   0.3034
   6.300   0.8767   0.01023   0.00566  -0.0526  0.5390  0.9064  -1.9336   0.0000   0.0000   0.0000   0.3015
   6.400   0.8810   0.01032   0.00570  -0.0513  0.5220  0.9092  -1.9678   0.0000   0.0000   0.0000   0.2996
   6.500   0.8789   0.01041   0.00570  -0.0486  0.5037  0.9141  -1.9885   0.0000   0.0000   0.0000   0.2966
   6.600   0.8772   0.01053   0.00577  -0.0461  0.4879  0.9186  -2.0100   0.0000   0.0000   0.0000   0.2937
   6.700   0.8769   0.01070   0.00587  -0.0439  0.4698  0.9230  -2.0346   0.0000   0.0000   0.0000   0.2911
   6.800   0.8739   0.01096   0.00603  -0.0413  0.4521  0.9282  -2.0531   0.0000   0.0000   0.0000   0.2881
   6.900   0.8754   0.01115   0.00617  -0.0395  0.4365  0.9326  -2.0902   0.0000   0.0000   0.0000   0.2859
   7.000   0.8759   0.01140   0.00634  -0.0377  0.4186  0.9369  -2.1266   0.0000   0.0000   0.0000   0.2836
   7.200   0.8757   0.01188   0.00669  -0.0339  0.3858  0.9472  -2.1959   0.0000   0.0000   0.0000   0.2790
   7.300   0.8753   0.01216   0.00689  -0.0319  0.3686  0.9535  -2.2297   0.0000   0.0000   0.0000   0.2766
   7.400   0.8747   0.01249   0.00714  -0.0301  0.3511  0.9603  -2.2630   0.0000   0.0000   0.0000   0.2744
   7.600   0.8827   0.01321   0.00768  -0.0284  0.3128  0.9724  -2.3580   0.0000   0.0000   0.0000   0.2720
   7.700   0.8907   0.01355   0.00796  -0.0284  0.2951  0.9781  -2.4183   0.0000   0.0000   0.0000   0.2715
   7.800   0.8980   0.01397   0.00828  -0.0284  0.2762  0.9851  -2.4765   0.0000   0.0000   0.0000   0.2711
   8.000   0.9117   0.01464   0.00881  -0.0281  0.2457  1.0000  -2.5917   0.0000   0.0000   0.0000   0.2701
   8.100   0.9147   0.01506   0.00913  -0.0273  0.2311  1.0000  -2.6371   0.0000   0.0000   0.0000   0.2690
   8.200   0.9195   0.01542   0.00941  -0.0268  0.2170  1.0000  -2.6885   0.0000   0.0000   0.0000   0.2680
   8.300   0.9251   0.01574   0.00969  -0.0263  0.2051  1.0000  -2.7435   0.0000   0.0000   0.0000   0.2672
   8.400   0.9285   0.01618   0.01012  -0.0256  0.1911  1.0000  -2.7911   0.0000   0.0000   0.0000   0.2662
   8.500   0.9339   0.01654   0.01041  -0.0251  0.1780  1.0000  -2.8550   0.0000   0.0000   0.0000   0.2654
   8.600   0.9400   0.01686   0.01069  -0.0247  0.1678  1.0000  -2.9274   0.0000   0.0000   0.0000   0.2647
   8.700   0.9441   0.01729   0.01103  -0.0241  0.1564  1.0000  -2.9911   0.0000   0.0000   0.0000   0.2638
   8.800   0.9484   0.01771   0.01138  -0.0235  0.1442  1.0000  -3.0560   0.0000   0.0000   0.0000   0.2629
   8.900   0.9551   0.01799   0.01164  -0.0232  0.1377  1.0000  -3.1327   0.0000   0.0000   0.0000   0.2622
   9.000   0.9607   0.01834   0.01195  -0.0227  0.1299  1.0000  -3.2047   0.0000   0.0000   0.0000   0.2615
   9.100   0.9652   0.01876   0.01230  -0.0221  0.1218  1.0000  -3.2720   0.0000   0.0000   0.0000   0.2606
   9.200   0.9700   0.01916   0.01265  -0.0216  0.1123  1.0000  -3.3407   0.0000   0.0000   0.0000   0.2598
   9.300   0.9773   0.01941   0.01291  -0.0213  0.1084  1.0000  -3.4223   0.0000   0.0000   0.0000   0.2592
   9.400   0.9838   0.01971   0.01319  -0.0210  0.1035  1.0000  -3.5007   0.0000   0.0000   0.0000   0.2586
   9.500   0.9895   0.02007   0.01351  -0.0205  0.0979  1.0000  -3.5756   0.0000   0.0000   0.0000   0.2579
   9.600   0.9941   0.02048   0.01386  -0.0199  0.0917  1.0000  -3.6460   0.0000   0.0000   0.0000   0.2571
   9.700   0.9984   0.02092   0.01427  -0.0193  0.0841  1.0000  -3.7136   0.0000   0.0000   0.0000   0.2562
   9.800   1.0051   0.02120   0.01457  -0.0190  0.0812  1.0000  -3.7946   0.0000   0.0000   0.0000   0.2556
   9.900   1.0116   0.02149   0.01486  -0.0186  0.0786  1.0000  -3.8762   0.0000   0.0000   0.0000   0.2550
  10.000   1.0172   0.02183   0.01519  -0.0182  0.0752  1.0000  -3.9533   0.0000   0.0000   0.0000   0.2543
  10.100   1.0220   0.02222   0.01556  -0.0176  0.0714  1.0000  -4.0270   0.0000   0.0000   0.0000   0.2535
  10.200   1.0261   0.02267   0.01595  -0.0170  0.0669  1.0000  -4.0969   0.0000   0.0000   0.0000   0.2527
  10.300   1.0289   0.02322   0.01647  -0.0163  0.0610  1.0000  -4.1574   0.0000   0.0000   0.0000   0.2518
  10.400   1.0326   0.02370   0.01696  -0.0156  0.0571  1.0000  -4.2224   0.0000   0.0000   0.0000   0.2509
  10.500   1.0402   0.02394   0.01722  -0.0154  0.0558  1.0000  -4.3127   0.0000   0.0000   0.0000   0.2504
  10.600   1.0469   0.02423   0.01754  -0.0151  0.0539  1.0000  -4.3985   0.0000   0.0000   0.0000   0.2499
  10.700   1.0527   0.02458   0.01789  -0.0147  0.0513  1.0000  -4.4791   0.0000   0.0000   0.0000   0.2493
  10.800   1.0576   0.02501   0.01829  -0.0142  0.0485  1.0000  -4.5546   0.0000   0.0000   0.0000   0.2486
  10.900   1.0615   0.02550   0.01874  -0.0136  0.0454  1.0000  -4.6244   0.0000   0.0000   0.0000   0.2478
  11.000   1.0632   0.02616   0.01938  -0.0127  0.0415  1.0000  -4.6770   0.0000   0.0000   0.0000   0.2469
  11.100   1.0600   0.02717   0.02044  -0.0114  0.0378  1.0000  -4.6934   0.0000   0.0000   0.0000   0.2454
  11.200   1.0612   0.02787   0.02118  -0.0105  0.0365  1.0000  -4.7419   0.0000   0.0000   0.0000   0.2444
  11.300   1.0677   0.02818   0.02151  -0.0103  0.0361  1.0000  -4.8300   0.0000   0.0000   0.0000   0.2440
  11.400   1.0741   0.02850   0.02186  -0.0100  0.0357  1.0000  -4.9175   0.0000   0.0000   0.0000   0.2435
  11.500   1.0803   0.02884   0.02222  -0.0097  0.0352  1.0000  -5.0040   0.0000   0.0000   0.0000   0.2430
  11.600   1.0863   0.02920   0.02261  -0.0094  0.0346  1.0000  -5.0893   0.0000   0.0000   0.0000   0.2425
  11.700   1.0921   0.02957   0.02301  -0.0090  0.0339  1.0000  -5.1734   0.0000   0.0000   0.0000   0.2420
  11.800   1.0976   0.02997   0.02342  -0.0087  0.0330  1.0000  -5.2560   0.0000   0.0000   0.0000   0.2415
  11.900   1.1030   0.03038   0.02386  -0.0083  0.0320  1.0000  -5.3375   0.0000   0.0000   0.0000   0.2410
  12.000   1.1082   0.03080   0.02430  -0.0079  0.0309  1.0000  -5.4181   0.0000   0.0000   0.0000   0.2404
  12.100   1.1132   0.03124   0.02476  -0.0076  0.0298  1.0000  -5.4974   0.0000   0.0000   0.0000   0.2399
  12.200   1.1176   0.03174   0.02525  -0.0072  0.0285  1.0000  -5.5723   0.0000   0.0000   0.0000   0.2393
  12.300   1.1208   0.03232   0.02582  -0.0066  0.0270  1.0000  -5.6380   0.0000   0.0000   0.0000   0.2387
  12.400   1.1217   0.03307   0.02657  -0.0059  0.0254  1.0000  -5.6836   0.0000   0.0000   0.0000   0.2379
  12.500   1.1188   0.03413   0.02769  -0.0049  0.0238  1.0000  -5.6966   0.0000   0.0000   0.0000   0.2368
  12.600   1.1144   0.03538   0.02901  -0.0038  0.0224  1.0000  -5.6921   0.0000   0.0000   0.0000   0.2355
  12.700   1.1100   0.03671   0.03046  -0.0026  0.0214  1.0000  -5.6820   0.0000   0.0000   0.0000   0.2343
  12.800   1.1056   0.03816   0.03205  -0.0013  0.0206  1.0000  -5.6649   0.0000   0.0000   0.0000   0.2330
  12.900   1.1072   0.03907   0.03301  -0.0007  0.0203  1.0000  -5.7059   0.0000   0.0000   0.0000   0.2322
  13.000   1.1125   0.03953   0.03350  -0.0005  0.0202  1.0000  -5.7912   0.0000   0.0000   0.0000   0.2319
  13.100   1.1178   0.04000   0.03407  -0.0003  0.0200  1.0000  -5.8767   0.0000   0.0000   0.0000   0.2315
  13.200   1.1229   0.04049   0.03458  -0.0000  0.0199  1.0000  -5.9617   0.0000   0.0000   0.0000   0.2312
  13.300   1.1279   0.04099   0.03511   0.0002  0.0198  1.0000  -6.0456   0.0000   0.0000   0.0000   0.2308
  13.400   1.1326   0.04153   0.03568   0.0004  0.0196  1.0000  -6.1302   0.0000   0.0000   0.0000   0.2304
  13.500   1.1369   0.04212   0.03631   0.0007  0.0195  1.0000  -6.2151   0.0000   0.0000   0.0000   0.2300
  13.600   1.1408   0.04276   0.03699   0.0009  0.0194  1.0000  -6.2961   0.0000   0.0000   0.0000   0.2296
  13.700   1.1443   0.04343   0.03770   0.0012  0.0192  1.0000  -6.3752   0.0000   0.0000   0.0000   0.2292
  13.800   1.1474   0.04415   0.03846   0.0015  0.0190  1.0000  -6.4512   0.0000   0.0000   0.0000   0.2287
  13.900   1.1502   0.04490   0.03925   0.0018  0.0189  1.0000  -6.5264   0.0000   0.0000   0.0000   0.2283
  14.000   1.1531   0.04563   0.04003   0.0020  0.0187  1.0000  -6.6026   0.0000   0.0000   0.0000   0.2279
  14.100   1.1562   0.04637   0.04080   0.0023  0.0185  1.0000  -6.6798   0.0000   0.0000   0.0000   0.2275
  14.200   1.1592   0.04710   0.04158   0.0025  0.0183  1.0000  -6.7575   0.0000   0.0000   0.0000   0.2272
  14.300   1.1622   0.04784   0.04236   0.0027  0.0181  1.0000  -6.8352   0.0000   0.0000   0.0000   0.2268
  14.400   1.1652   0.04860   0.04316   0.0029  0.0179  1.0000  -6.9123   0.0000   0.0000   0.0000   0.2264
  14.500   1.1680   0.04936   0.04397   0.0031  0.0177  1.0000  -6.9888   0.0000   0.0000   0.0000   0.2261
  14.600   1.1708   0.05015   0.04481   0.0033  0.0174  1.0000  -7.0645   0.0000   0.0000   0.0000   0.2257
  14.700   1.1733   0.05097   0.04567   0.0035  0.0172  1.0000  -7.1385   0.0000   0.0000   0.0000   0.2254
  14.800   1.1756   0.05181   0.04656   0.0037  0.0170  1.0000  -7.2105   0.0000   0.0000   0.0000   0.2250
  14.900   1.1774   0.05271   0.04751   0.0039  0.0168  1.0000  -7.2782   0.0000   0.0000   0.0000   0.2247
  15.000   1.1782   0.05371   0.04857   0.0040  0.0166  1.0000  -7.3384   0.0000   0.0000   0.0000   0.2244
  15.100   1.1788   0.05475   0.04966   0.0042  0.0164  1.0000  -7.3958   0.0000   0.0000   0.0000   0.2240
  15.200   1.1795   0.05578   0.05075   0.0043  0.0163  1.0000  -7.4529   0.0000   0.0000   0.0000   0.2237
  15.300   1.1801   0.05680   0.05182   0.0044  0.0161  1.0000  -7.5098   0.0000   0.0000   0.0000   0.2234
  15.400   1.1808   0.05782   0.05290   0.0045  0.0159  1.0000  -7.5667   0.0000   0.0000   0.0000   0.2231
  15.500   1.1815   0.05886   0.05399   0.0046  0.0157  1.0000  -7.6235   0.0000   0.0000   0.0000   0.2228
  15.600   1.1820   0.05993   0.05512   0.0047  0.0155  1.0000  -7.6794   0.0000   0.0000   0.0000   0.2226
  15.700   1.1825   0.06103   0.05628   0.0047  0.0154  1.0000  -7.7342   0.0000   0.0000   0.0000   0.2223
  15.800   1.1827   0.06218   0.05748   0.0047  0.0152  1.0000  -7.7872   0.0000   0.0000   0.0000   0.2221
  15.900   1.1818   0.06347   0.05883   0.0046  0.0150  1.0000  -7.8317   0.0000   0.0000   0.0000   0.2220
  16.000   1.1804   0.06486   0.06027   0.0045  0.0148  1.0000  -7.8717   0.0000   0.0000   0.0000   0.2218
  16.100   1.1794   0.06621   0.06168   0.0044  0.0147  1.0000  -7.9148   0.0000   0.0000   0.0000   0.2217
  16.200   1.1788   0.06755   0.06307   0.0042  0.0145  1.0000  -7.9605   0.0000   0.0000   0.0000   0.2217
  16.300   1.1783   0.06889   0.06447   0.0040  0.0143  1.0000  -8.0066   0.0000   0.0000   0.0000   0.2216
  16.400   1.1777   0.07026   0.06589   0.0038  0.0142  1.0000  -8.0517   0.0000   0.0000   0.0000   0.2216
  16.500   1.1769   0.07167   0.06736   0.0035  0.0140  1.0000  -8.0948   0.0000   0.0000   0.0000   0.2216
  16.600   1.1756   0.07316   0.06890   0.0032  0.0138  1.0000  -8.1336   0.0000   0.0000   0.0000   0.2216
  16.700   1.1727   0.07489   0.07069   0.0028  0.0137  1.0000  -8.1585   0.0000   0.0000   0.0000   0.2217
  16.800   1.1702   0.07659   0.07244   0.0023  0.0135  1.0000  -8.1857   0.0000   0.0000   0.0000   0.2219
  16.900   1.1683   0.07823   0.07414   0.0018  0.0134  1.0000  -8.2178   0.0000   0.0000   0.0000   0.2220
  17.000   1.1666   0.07987   0.07583   0.0013  0.0132  1.0000  -8.2504   0.0000   0.0000   0.0000   0.2222
  17.100   1.1647   0.08154   0.07755   0.0008  0.0131  1.0000  -8.2815   0.0000   0.0000   0.0000   0.2225
  17.200   1.1624   0.08328   0.07935   0.0002  0.0130  1.0000  -8.3080   0.0000   0.0000   0.0000   0.2227
  17.300   1.1582   0.08535   0.08148  -0.0006  0.0129  1.0000  -8.3159   0.0000   0.0000   0.0000   0.2232
  17.400   1.1545   0.08737   0.08355  -0.0014  0.0127  1.0000  -8.3270   0.0000   0.0000   0.0000   0.2236
  17.500   1.1514   0.08931   0.08554  -0.0022  0.0126  1.0000  -8.3431   0.0000   0.0000   0.0000   0.2241
  17.600   1.1484   0.09126   0.08755  -0.0030  0.0125  1.0000  -8.3580   0.0000   0.0000   0.0000   0.2246
  17.700   1.1448   0.09331   0.08965  -0.0039  0.0124  1.0000  -8.3667   0.0000   0.0000   0.0000   0.2251
  17.800   1.1392   0.09575   0.09216  -0.0051  0.0123  1.0000  -8.3527   0.0000   0.0000   0.0000   0.2259
  17.900   1.1344   0.09806   0.09453  -0.0063  0.0122  1.0000  -8.3457   0.0000   0.0000   0.0000   0.2267
  18.000   1.1301   0.10031   0.09684  -0.0074  0.0121  1.0000  -8.3422   0.0000   0.0000   0.0000   0.2275
  18.100   1.1256   0.10261   0.09920  -0.0086  0.0121  1.0000  -8.3343   0.0000   0.0000   0.0000   0.2283
  18.200   1.1187   0.10540   0.10206  -0.0101  0.0120  1.0000  -8.2985   0.0000   0.0000   0.0000   0.2295
  18.300   1.1124   0.10809   0.10481  -0.0116  0.0120  1.0000  -8.2665   0.0000   0.0000   0.0000   0.2306
  18.400   1.1068   0.11068   0.10747  -0.0131  0.0119  1.0000  -8.2393   0.0000   0.0000   0.0000   0.2318
  18.500   1.1003   0.11346   0.11031  -0.0147  0.0119  1.0000  -8.2005   0.0000   0.0000   0.0000   0.2331
  18.600   1.0913   0.11681   0.11374  -0.0167  0.0119  1.0000  -8.1281   0.0000   0.0000   0.0000   0.2348
  18.700   1.0838   0.11985   0.11685  -0.0186  0.0118  1.0000  -8.0698   0.0000   0.0000   0.0000   0.2364
  18.800   1.0760   0.12302   0.12009  -0.0205  0.0118  1.0000  -8.0030   0.0000   0.0000   0.0000   0.2381
  18.900   1.0639   0.12716   0.12432  -0.0232  0.0119  1.0000  -7.8763   0.0000   0.0000   0.0000   0.2406
  19.000   1.0535   0.13075   0.12799  -0.0256  0.0119  1.0000  -7.7659   0.0000   0.0000   0.0000   0.2429
  19.100   1.0355   0.13610   0.13346  -0.0293  0.0121  1.0000  -7.5414   0.0000   0.0000   0.0000   0.2467
  19.500   0.8274   0.20936   0.20698  -0.0643  0.0147  1.0000  -3.3899   0.0000   0.0000   0.0000   0.2987
  19.600   0.8262   0.21267   0.21028  -0.0657  0.0146  1.0000  -3.3003   0.0000   0.0000   0.0000   0.3004
  19.700   0.8253   0.21587   0.21347  -0.0669  0.0146  1.0000  -3.2171   0.0000   0.0000   0.0000   0.3020
  19.800   0.8248   0.21899   0.21659  -0.0682  0.0146  1.0000  -3.1390   0.0000   0.0000   0.0000   0.3034
  19.900   0.8245   0.22204   0.21964  -0.0694  0.0146  1.0000  -3.0650   0.0000   0.0000   0.0000   0.3048
  20.000   0.8243   0.22504   0.22263  -0.0706  0.0147  1.0000  -2.9944   0.0000   0.0000   0.0000   0.3062
  20.100   0.8243   0.22804   0.22563  -0.0717  0.0148  1.0000  -2.9242   0.0000   0.0000   0.0000   0.3075
  20.200   0.8243   0.23100   0.22859  -0.0729  0.0150  1.0000  -2.8565   0.0000   0.0000   0.0000   0.3087
  20.300   0.8245   0.23391   0.23150  -0.0740  0.0152  1.0000  -2.7926   0.0000   0.0000   0.0000   0.3100
  20.400   0.8250   0.23674   0.23432  -0.0750  0.0155  1.0000  -2.7347   0.0000   0.0000   0.0000   0.3111
  20.500   0.8256   0.23946   0.23704  -0.0761  0.0158  1.0000  -2.6836   0.0000   0.0000   0.0000   0.3121
  20.600   0.8264   0.24211   0.23969  -0.0770  0.0161  1.0000  -2.6384   0.0000   0.0000   0.0000   0.3131
  20.700   0.8273   0.24469   0.24227  -0.0780  0.0164  1.0000  -2.5983   0.0000   0.0000   0.0000   0.3140
  20.800   0.8283   0.24722   0.24480  -0.0789  0.0166  1.0000  -2.5623   0.0000   0.0000   0.0000   0.3149
  20.900   0.8295   0.24971   0.24728  -0.0799  0.0169  1.0000  -2.5300   0.0000   0.0000   0.0000   0.3158
  21.000   0.8307   0.25216   0.24974  -0.0808  0.0172  1.0000  -2.5006   0.0000   0.0000   0.0000   0.3165
  21.100   0.8319   0.25460   0.25218  -0.0816  0.0175  1.0000  -2.4739   0.0000   0.0000   0.0000   0.3173
  21.200   0.8331   0.25709   0.25466  -0.0823  0.0181  1.0000  -2.4508   0.0000   0.0000   0.0000   0.3178
  21.300   0.8290   0.26285   0.26042  -0.0828  0.0199  1.0000  -2.3282   0.0000   0.0000   0.0000   0.3189
  21.400   0.8307   0.26518   0.26276  -0.0837  0.0199  1.0000  -2.3106   0.0000   0.0000   0.0000   0.3196
  21.500   0.8323   0.26752   0.26510  -0.0846  0.0199  1.0000  -2.2930   0.0000   0.0000   0.0000   0.3203
  21.600   0.8339   0.26987   0.26744  -0.0854  0.0199  1.0000  -2.2755   0.0000   0.0000   0.0000   0.3209
  21.700   0.8356   0.27219   0.26977  -0.0863  0.0198  1.0000  -2.2586   0.0000   0.0000   0.0000   0.3216
  21.800   0.8372   0.27451   0.27214  -0.0871  0.0198  1.0000  -2.2418   0.0000   0.0000   0.0000   0.3223
  21.900   0.8389   0.27680   0.27443  -0.0880  0.0198  1.0000  -2.2256   0.0000   0.0000   0.0000   0.3229
  22.000   0.8405   0.27909   0.27672  -0.0888  0.0198  1.0000  -2.2098   0.0000   0.0000   0.0000   0.3236
  22.100   0.8422   0.28136   0.27900  -0.0896  0.0198  1.0000  -2.1941   0.0000   0.0000   0.0000   0.3242
  22.200   0.8438   0.28362   0.28126  -0.0905  0.0198  1.0000  -2.1787   0.0000   0.0000   0.0000   0.3249
  22.300   0.8454   0.28587   0.28351  -0.0913  0.0197  1.0000  -2.1634   0.0000   0.0000   0.0000   0.3255
  22.400   0.8470   0.28810   0.28574  -0.0922  0.0197  1.0000  -2.1484   0.0000   0.0000   0.0000   0.3261
  22.500   0.8487   0.29031   0.28795  -0.0930  0.0197  1.0000  -2.1337   0.0000   0.0000   0.0000   0.3268
  22.600   0.8503   0.29249   0.29014  -0.0939  0.0196  1.0000  -2.1194   0.0000   0.0000   0.0000   0.3274
  22.700   0.8519   0.29465   0.29229  -0.0947  0.0196  1.0000  -2.1057   0.0000   0.0000   0.0000   0.3280
  22.800   0.8536   0.29676   0.29441  -0.0956  0.0195  1.0000  -2.0925   0.0000   0.0000   0.0000   0.3286
  22.900   0.8552   0.29880   0.29645  -0.0964  0.0194  1.0000  -2.0802   0.0000   0.0000   0.0000   0.3292
  23.000   0.8570   0.30073   0.29839  -0.0973  0.0192  1.0000  -2.0696   0.0000   0.0000   0.0000   0.3299
  23.100   0.8586   0.30252   0.30017  -0.0984  0.0189  1.0000  -2.0523   0.0000   0.0000   0.0000   0.3308
  23.200   0.8611   0.30405   0.30170  -0.1000  0.0171  1.0000  -2.0191   0.0000   0.0000   0.0000   0.3322
  23.300   0.8629   0.30620   0.30386  -0.1010  0.0160  1.0000  -2.0057   0.0000   0.0000   0.0000   0.3329
  23.400   0.8644   0.30833   0.30599  -0.1018  0.0153  1.0000  -1.9994   0.0000   0.0000   0.0000   0.3335
  23.500   0.8659   0.31042   0.30808  -0.1026  0.0147  1.0000  -1.9961   0.0000   0.0000   0.0000   0.3341
  23.600   0.8673   0.31248   0.31015  -0.1034  0.0142  1.0000  -1.9950   0.0000   0.0000   0.0000   0.3346
  23.700   0.8687   0.31452   0.31219  -0.1042  0.0137  1.0000  -1.9956   0.0000   0.0000   0.0000   0.3351
  23.800   0.8700   0.31653   0.31420  -0.1049  0.0133  1.0000  -1.9976   0.0000   0.0000   0.0000   0.3356
  23.900   0.8714   0.31852   0.31619  -0.1057  0.0129  1.0000  -2.0010   0.0000   0.0000   0.0000   0.3361
  24.000   0.8726   0.32048   0.31816  -0.1064  0.0126  1.0000  -2.0055   0.0000   0.0000   0.0000   0.3366
  24.100   0.8739   0.32242   0.32011  -0.1071  0.0123  1.0000  -2.0113   0.0000   0.0000   0.0000   0.3371
  24.200   0.8751   0.32433   0.32202  -0.1078  0.0120  1.0000  -2.0183   0.0000   0.0000   0.0000   0.3375
  24.300   0.8762   0.32622   0.32392  -0.1085  0.0118  1.0000  -2.0264   0.0000   0.0000   0.0000   0.3380
  24.400   0.8773   0.32809   0.32579  -0.1092  0.0115  1.0000  -2.0356   0.0000   0.0000   0.0000   0.3384
  24.500   0.8783   0.32992   0.32763  -0.1099  0.0113  1.0000  -2.0458   0.0000   0.0000   0.0000   0.3389
  24.600   0.8793   0.33173   0.32945  -0.1105  0.0111  1.0000  -2.0571   0.0000   0.0000   0.0000   0.3393
  24.700   0.8801   0.33351   0.33124  -0.1111  0.0109  1.0000  -2.0692   0.0000   0.0000   0.0000   0.3397
  24.800   0.8809   0.33527   0.33300  -0.1118  0.0108  1.0000  -2.0823   0.0000   0.0000   0.0000   0.3401
  24.900   0.8815   0.33699   0.33472  -0.1123  0.0106  1.0000  -2.0961   0.0000   0.0000   0.0000   0.3405
  25.000   0.8820   0.33867   0.33642  -0.1129  0.0104  1.0000  -2.1106   0.0000   0.0000   0.0000   0.3409
  25.100   0.8823   0.34032   0.33807  -0.1134  0.0103  1.0000  -2.1254   0.0000   0.0000   0.0000   0.3413
  25.200   0.8823   0.34192   0.33969  -0.1139  0.0102  1.0000  -2.1404   0.0000   0.0000   0.0000   0.3417
  25.300   0.8821   0.34348   0.34125  -0.1144  0.0100  1.0000  -2.1549   0.0000   0.0000   0.0000   0.3422
  25.400   0.8814   0.34497   0.34276  -0.1148  0.0099  1.0000  -2.1681   0.0000   0.0000   0.0000   0.3426
  25.500   0.8799   0.34636   0.34416  -0.1152  0.0098  1.0000  -2.1786   0.0000   0.0000   0.0000   0.3431
  25.600   0.8027   0.33110   0.32909  -0.1093  0.0100  1.0000  -1.8317   0.0000   0.0000   0.0000   0.3519
  25.700   0.7998   0.33088   0.32888  -0.1094  0.0099  1.0000  -1.8333   0.0000   0.0000   0.0000   0.3526
  25.800   0.7973   0.33072   0.32874  -0.1095  0.0098  1.0000  -1.8375   0.0000   0.0000   0.0000   0.3532
  25.900   0.7952   0.33061   0.32864  -0.1097  0.0096  1.0000  -1.8436   0.0000   0.0000   0.0000   0.3537
  26.000   0.7930   0.33057   0.32861  -0.1098  0.0095  1.0000  -1.8461   0.0000   0.0000   0.0000   0.3543
  26.100   0.7905   0.33061   0.32867  -0.1100  0.0094  1.0000  -1.8408   0.0000   0.0000   0.0000   0.3550
  26.200   0.7875   0.33071   0.32878  -0.1102  0.0092  1.0000  -1.8258   0.0000   0.0000   0.0000   0.3557
  26.600   0.7638   0.33356   0.33166  -0.1106  0.0086  1.0000  -1.4652   0.0000   0.0000   0.0000   0.3617
  26.700   0.7627   0.33405   0.33215  -0.1110  0.0086  1.0000  -1.4488   0.0000   0.0000   0.0000   0.3624
  26.800   0.7617   0.33455   0.33266  -0.1114  0.0086  1.0000  -1.4329   0.0000   0.0000   0.0000   0.3630
  26.900   0.7608   0.33506   0.33317  -0.1119  0.0086  1.0000  -1.4174   0.0000   0.0000   0.0000   0.3637
  27.000   0.7600   0.33557   0.33370  -0.1123  0.0086  1.0000  -1.4024   0.0000   0.0000   0.0000   0.3644
  27.100   0.7592   0.33609   0.33423  -0.1127  0.0086  1.0000  -1.3878   0.0000   0.0000   0.0000   0.3651
  27.200   0.7584   0.33662   0.33476  -0.1131  0.0086  1.0000  -1.3734   0.0000   0.0000   0.0000   0.3657
  27.300   0.7577   0.33715   0.33530  -0.1136  0.0086  1.0000  -1.3594   0.0000   0.0000   0.0000   0.3664
  27.400   0.7571   0.33769   0.33585  -0.1140  0.0085  1.0000  -1.3458   0.0000   0.0000   0.0000   0.3670
  27.500   0.7564   0.33823   0.33640  -0.1145  0.0085  1.0000  -1.3325   0.0000   0.0000   0.0000   0.3676
  27.600   0.7559   0.33878   0.33695  -0.1149  0.0085  1.0000  -1.3195   0.0000   0.0000   0.0000   0.3683
  27.700   0.7554   0.33933   0.33751  -0.1154  0.0085  1.0000  -1.3068   0.0000   0.0000   0.0000   0.3689
  27.800   0.7549   0.33989   0.33808  -0.1158  0.0085  1.0000  -1.3001   0.0000   0.0000   0.0000   0.3695
  27.900   0.7544   0.34045   0.33865  -0.1163  0.0085  1.0000  -1.2936   0.0000   0.0000   0.0000   0.3701
  28.000   0.7540   0.34102   0.33922  -0.1167  0.0085  1.0000  -1.2871   0.0000   0.0000   0.0000   0.3707
  28.100   0.7536   0.34158   0.33979  -0.1172  0.0085  1.0000  -1.2809   0.0000   0.0000   0.0000   0.3713
  28.200   0.7532   0.34216   0.34037  -0.1176  0.0085  1.0000  -1.2747   0.0000   0.0000   0.0000   0.3719
  28.300   0.7529   0.34273   0.34095  -0.1181  0.0085  1.0000  -1.2686   0.0000   0.0000   0.0000   0.3725
  28.400   0.7526   0.34331   0.34153  -0.1186  0.0085  1.0000  -1.2627   0.0000   0.0000   0.0000   0.3730
  28.500   0.7523   0.34389   0.34212  -0.1190  0.0085  1.0000  -1.2568   0.0000   0.0000   0.0000   0.3736
  28.600   0.7521   0.34447   0.34271  -0.1195  0.0085  1.0000  -1.2510   0.0000   0.0000   0.0000   0.3742
  28.700   0.7518   0.34505   0.34330  -0.1200  0.0085  1.0000  -1.2453   0.0000   0.0000   0.0000   0.3747
  28.800   0.7516   0.34564   0.34389  -0.1204  0.0085  1.0000  -1.2396   0.0000   0.0000   0.0000   0.3753
  28.900   0.7514   0.34623   0.34449  -0.1209  0.0085  1.0000  -1.2341   0.0000   0.0000   0.0000   0.3758
  29.000   0.7512   0.34682   0.34512  -0.1214  0.0085  1.0000  -1.2283   0.0000   0.0000   0.0000   0.3764
  29.100   0.7511   0.34741   0.34572  -0.1219  0.0085  1.0000  -1.2227   0.0000   0.0000   0.0000   0.3769
  29.200   0.7509   0.34800   0.34632  -0.1223  0.0085  1.0000  -1.2172   0.0000   0.0000   0.0000   0.3775
  29.300   0.7508   0.34860   0.34692  -0.1228  0.0085  1.0000  -1.2118   0.0000   0.0000   0.0000   0.3780
  29.400   0.7507   0.34920   0.34752  -0.1233  0.0085  1.0000  -1.2064   0.0000   0.0000   0.0000   0.3785
  29.500   0.7506   0.34980   0.34813  -0.1238  0.0085  1.0000  -1.2011   0.0000   0.0000   0.0000   0.3791
  29.600   0.7505   0.35040   0.34873  -0.1243  0.0085  1.0000  -1.1957   0.0000   0.0000   0.0000   0.3796
  29.700   0.7504   0.35100   0.34934  -0.1247  0.0085  1.0000  -1.1903   0.0000   0.0000   0.0000   0.3801
  29.800   0.7503   0.35160   0.34995  -0.1252  0.0085  1.0000  -1.1850   0.0000   0.0000   0.0000   0.3806
  29.900   0.7503   0.35221   0.35056  -0.1257  0.0085  1.0000  -1.1796   0.0000   0.0000   0.0000   0.3811
  30.000   0.7502   0.35282   0.35117  -0.1262  0.0085  1.0000  -1.1740   0.0000   0.0000   0.0000   0.3816


