xflr5 v6.61

 Calculated polar for: NREL's S822 Airfoil

 1 1 Reynolds number fixed          Mach number fixed         

 xtrf =   1.000 (top)        1.000 (bottom)
 Mach =   0.000     Re =     0.688 e 6     Ncrit =   9.000

  alpha     CL        CD       CDp       Cm    Top Xtr Bot Xtr   Cpmin    Chinge    XCp    
 ------- -------- --------- --------- -------- ------- ------- -------- --------- ---------
 -10.000  -0.6940   0.01516   0.00919  -0.0889  0.8779  0.0300  -4.8207   0.0000   0.0000   0.0000   0.1070
  -9.900  -0.6897   0.01493   0.00892  -0.0879  0.8763  0.0317  -4.7498   0.0000   0.0000   0.0000   0.1077
  -9.800  -0.6899   0.01453   0.00850  -0.0862  0.8743  0.0371  -4.7136   0.0000   0.0000   0.0000   0.1104
  -9.700  -0.6859   0.01431   0.00831  -0.0852  0.8727  0.0404  -4.6421   0.0000   0.0000   0.0000   0.1114
  -9.600  -0.6807   0.01410   0.00807  -0.0844  0.8712  0.0430  -4.5627   0.0000   0.0000   0.0000   0.1117
  -9.500  -0.6740   0.01393   0.00791  -0.0838  0.8699  0.0453  -4.4753   0.0000   0.0000   0.0000   0.1114
  -9.400  -0.6664   0.01379   0.00776  -0.0833  0.8685  0.0472  -4.3840   0.0000   0.0000   0.0000   0.1108
  -9.300  -0.6582   0.01368   0.00763  -0.0830  0.8672  0.0485  -4.2890   0.0000   0.0000   0.0000   0.1099
  -9.200  -0.6494   0.01360   0.00752  -0.0827  0.8659  0.0494  -4.1909   0.0000   0.0000   0.0000   0.1086
  -9.100  -0.6427   0.01341   0.00732  -0.0821  0.8644  0.0542  -4.1088   0.0000   0.0000   0.0000   0.1083
  -9.000  -0.6361   0.01319   0.00714  -0.0815  0.8627  0.0607  -4.0270   0.0000   0.0000   0.0000   0.1081
  -8.900  -0.6292   0.01299   0.00699  -0.0810  0.8609  0.0653  -3.9420   0.0000   0.0000   0.0000   0.1076
  -8.800  -0.6213   0.01285   0.00685  -0.0806  0.8591  0.0691  -3.8523   0.0000   0.0000   0.0000   0.1066
  -8.700  -0.6126   0.01275   0.00675  -0.0804  0.8571  0.0718  -3.7592   0.0000   0.0000   0.0000   0.1052
  -8.600  -0.6032   0.01269   0.00666  -0.0802  0.8550  0.0732  -3.6635   0.0000   0.0000   0.0000   0.1035
  -8.500  -0.5950   0.01256   0.00653  -0.0799  0.8526  0.0789  -3.5768   0.0000   0.0000   0.0000   0.1023
  -8.400  -0.5871   0.01241   0.00642  -0.0795  0.8512  0.0858  -3.4915   0.0000   0.0000   0.0000   0.1012
  -8.300  -0.5793   0.01222   0.00629  -0.0791  0.8507  0.0910  -3.4064   0.0000   0.0000   0.0000   0.1002
  -8.200  -0.5710   0.01208   0.00616  -0.0788  0.8502  0.0954  -3.3192   0.0000   0.0000   0.0000   0.0988
  -8.100  -0.5620   0.01196   0.00606  -0.0786  0.8496  0.0989  -3.2297   0.0000   0.0000   0.0000   0.0971
  -8.000  -0.5525   0.01188   0.00596  -0.0784  0.8490  0.1010  -3.1389   0.0000   0.0000   0.0000   0.0951
  -7.900  -0.5436   0.01175   0.00583  -0.0781  0.8484  0.1070  -3.0525   0.0000   0.0000   0.0000   0.0933
  -7.800  -0.5353   0.01159   0.00571  -0.0778  0.8477  0.1149  -2.9692   0.0000   0.0000   0.0000   0.0917
  -7.700  -0.5269   0.01143   0.00560  -0.0775  0.8469  0.1213  -2.8862   0.0000   0.0000   0.0000   0.0901
  -7.600  -0.5181   0.01130   0.00550  -0.0772  0.8461  0.1267  -2.8016   0.0000   0.0000   0.0000   0.0881
  -7.500  -0.5087   0.01121   0.00541  -0.0770  0.8452  0.1308  -2.7157   0.0000   0.0000   0.0000   0.0858
  -7.400  -0.4989   0.01113   0.00533  -0.0769  0.8443  0.1333  -2.6288   0.0000   0.0000   0.0000   0.0831
  -7.300  -0.4898   0.01101   0.00521  -0.0767  0.8434  0.1419  -2.5466   0.0000   0.0000   0.0000   0.0807
  -7.200  -0.4812   0.01085   0.00511  -0.0764  0.8423  0.1505  -2.4667   0.0000   0.0000   0.0000   0.0786
  -7.100  -0.4723   0.01072   0.00502  -0.0761  0.8413  0.1576  -2.3864   0.0000   0.0000   0.0000   0.0761
  -7.000  -0.4628   0.01061   0.00493  -0.0759  0.8403  0.1634  -2.3049   0.0000   0.0000   0.0000   0.0733
  -6.900  -0.4530   0.01053   0.00485  -0.0758  0.8392  0.1676  -2.2225   0.0000   0.0000   0.0000   0.0699
  -6.800  -0.4432   0.01045   0.00477  -0.0757  0.8382  0.1738  -2.1416   0.0000   0.0000   0.0000   0.0666
  -6.700  -0.4344   0.01029   0.00466  -0.0754  0.8370  0.1858  -2.0657   0.0000   0.0000   0.0000   0.0637
  -6.600  -0.4255   0.01014   0.00458  -0.0752  0.8359  0.1960  -1.9900   0.0000   0.0000   0.0000   0.0607
  -6.500  -0.4159   0.01004   0.00450  -0.0750  0.8348  0.2038  -1.9211   0.0000   0.0000   0.0000   0.0570
  -6.400  -0.4057   0.00997   0.00443  -0.0750  0.8337  0.2084  -1.8678   0.0000   0.0000   0.0000   0.0526
  -6.300  -0.3963   0.00985   0.00434  -0.0748  0.8326  0.2206  -1.8174   0.0000   0.0000   0.0000   0.0487
  -6.200  -0.3871   0.00971   0.00425  -0.0745  0.8315  0.2305  -1.7677   0.0000   0.0000   0.0000   0.0448
  -6.100  -0.3774   0.00961   0.00410  -0.0744  0.8304  0.2386  -1.7170   0.0000   0.0000   0.0000   0.0402
  -6.000  -0.3674   0.00953   0.00404  -0.0743  0.8293  0.2453  -1.6659   0.0000   0.0000   0.0000   0.0351
  -5.900  -0.3570   0.00947   0.00398  -0.0742  0.8282  0.2503  -1.6144   0.0000   0.0000   0.0000   0.0292
  -5.800  -0.3474   0.00935   0.00390  -0.0741  0.8270  0.2636  -1.5657   0.0000   0.0000   0.0000   0.0239
  -5.700  -0.3382   0.00921   0.00382  -0.0739  0.8258  0.2760  -1.5180   0.0000   0.0000   0.0000   0.0187
  -5.600  -0.3283   0.00912   0.00376  -0.0738  0.8246  0.2856  -1.4690   0.0000   0.0000   0.0000   0.0124
  -5.500  -0.3178   0.00907   0.00372  -0.0737  0.8233  0.2922  -1.4306   0.0000   0.0000   0.0000   0.0050
  -5.400  -0.3071   0.00904   0.00367  -0.0738  0.8219  0.2967  -1.3932   0.0000   0.0000   0.0000  -0.0033
  -5.300  -0.2972   0.00895   0.00362  -0.0737  0.8203  0.3091  -1.3578   0.0000   0.0000   0.0000  -0.0111
  -5.200  -0.2874   0.00887   0.00358  -0.0735  0.8186  0.3197  -1.3227   0.0000   0.0000   0.0000  -0.0193
  -5.100  -0.2773   0.00882   0.00356  -0.0735  0.8168  0.3289  -1.2873   0.0000   0.0000   0.0000  -0.0285
  -5.000  -0.2669   0.00881   0.00357  -0.0735  0.8148  0.3372  -1.2517   0.0000   0.0000   0.0000  -0.0389
  -4.900  -0.2564   0.00884   0.00360  -0.0735  0.8127  0.3429  -1.2162   0.0000   0.0000   0.0000  -0.0503
  -4.800  -0.2467   0.00872   0.00354  -0.0733  0.8124  0.3580  -1.1822   0.0000   0.0000   0.0000  -0.0613
  -4.700  -0.2370   0.00860   0.00348  -0.0732  0.8120  0.3703  -1.1484   0.0000   0.0000   0.0000  -0.0731
  -4.600  -0.2267   0.00851   0.00343  -0.0731  0.8116  0.3799  -1.1144   0.0000   0.0000   0.0000  -0.0870
  -4.500  -0.2160   0.00846   0.00339  -0.0731  0.8111  0.3868  -1.0872   0.0000   0.0000   0.0000  -0.1033
  -4.400  -0.2051   0.00842   0.00335  -0.0731  0.8106  0.3916  -1.0599   0.0000   0.0000   0.0000  -0.1218
  -4.300  -0.1948   0.00834   0.00330  -0.0731  0.8100  0.4029  -1.0336   0.0000   0.0000   0.0000  -0.1406
  -4.200  -0.1848   0.00824   0.00325  -0.0730  0.8094  0.4145  -1.0079   0.0000   0.0000   0.0000  -0.1606
  -4.100  -0.1746   0.00816   0.00321  -0.0729  0.8086  0.4244  -0.9819   0.0000   0.0000   0.0000  -0.1838
  -4.000  -0.1640   0.00809   0.00317  -0.0729  0.8078  0.4338  -0.9556   0.0000   0.0000   0.0000  -0.2110
  -3.900  -0.1531   0.00805   0.00314  -0.0729  0.8069  0.4409  -0.9292   0.0000   0.0000   0.0000  -0.2432
  -3.800  -0.1428   0.00797   0.00309  -0.0728  0.8060  0.4533  -0.9062   0.0000   0.0000   0.0000  -0.2779
  -3.700  -0.1328   0.00787   0.00305  -0.0727  0.8049  0.4669  -0.8859   0.0000   0.0000   0.0000  -0.3160
  -3.600  -0.1223   0.00779   0.00301  -0.0726  0.8037  0.4775  -0.8652   0.0000   0.0000   0.0000  -0.3632
  -3.500  -0.1115   0.00774   0.00298  -0.0726  0.8026  0.4855  -0.8442   0.0000   0.0000   0.0000  -0.4224
  -3.400  -0.1004   0.00771   0.00295  -0.0727  0.8014  0.4913  -0.8231   0.0000   0.0000   0.0000  -0.4965
  -3.300  -0.0894   0.00766   0.00291  -0.0727  0.8002  0.4995  -0.8023   0.0000   0.0000   0.0000  -0.5868
  -3.200  -0.0792   0.00758   0.00288  -0.0726  0.7989  0.5130  -0.7822   0.0000   0.0000   0.0000  -0.6936
  -3.100  -0.0686   0.00751   0.00286  -0.0725  0.7977  0.5249  -0.7620   0.0000   0.0000   0.0000  -0.8363
  -3.000  -0.0577   0.00746   0.00284  -0.0726  0.7966  0.5352  -0.7415   0.0000   0.0000   0.0000  -1.0400
  -2.900  -0.0465   0.00743   0.00282  -0.0726  0.7954  0.5426  -0.7230   0.0000   0.0000   0.0000  -1.3501
  -2.800  -0.0356   0.00738   0.00280  -0.0726  0.7943  0.5528  -0.7063   0.0000   0.0000   0.0000  -1.8374
  -2.700  -0.0250   0.00732   0.00276  -0.0726  0.7931  0.5642  -0.6897   0.0000   0.0000   0.0000  -2.7197
  -2.600  -0.0141   0.00728   0.00275  -0.0726  0.7919  0.5733  -0.6730   0.0000   0.0000   0.0000  -5.0255
  -2.500  -0.0029   0.00725   0.00273  -0.0726  0.7907  0.5812  -0.6562   0.0000   0.0000   0.0000  -25.3012
  -2.400   0.0084   0.00723   0.00272  -0.0727  0.7896  0.5875  -0.6394   0.0000   0.0000   0.0000   9.0693
  -2.300   0.0198   0.00722   0.00270  -0.0728  0.7883  0.5923  -0.6225   0.0000   0.0000   0.0000   3.9927
  -2.200   0.0313   0.00722   0.00268  -0.0729  0.7871  0.5965  -0.6057   0.0000   0.0000   0.0000   2.6214
  -2.100   0.0422   0.00717   0.00267  -0.0729  0.7857  0.6070  -0.5908   0.0000   0.0000   0.0000   2.0071
  -2.000   0.0532   0.00714   0.00267  -0.0729  0.7843  0.6158  -0.5771   0.0000   0.0000   0.0000   1.6434
  -1.900   0.0643   0.00713   0.00267  -0.0729  0.7828  0.6230  -0.5632   0.0000   0.0000   0.0000   1.4007
  -1.800   0.0757   0.00713   0.00268  -0.0730  0.7811  0.6290  -0.5493   0.0000   0.0000   0.0000   1.2282
  -1.700   0.0872   0.00715   0.00269  -0.0731  0.7792  0.6337  -0.5353   0.0000   0.0000   0.0000   1.0999
  -1.600   0.0987   0.00718   0.00271  -0.0733  0.7771  0.6376  -0.5398   0.0000   0.0000   0.0000   1.0012
  -1.500   0.1102   0.00725   0.00277  -0.0734  0.7745  0.6409  -0.5443   0.0000   0.0000   0.0000   0.9237
  -1.400   0.1214   0.00735   0.00286  -0.0735  0.7717  0.6436  -0.5485   0.0000   0.0000   0.0000   0.8618
  -1.300   0.1329   0.00735   0.00284  -0.0736  0.7713  0.6456  -0.5533   0.0000   0.0000   0.0000   0.8092
  -1.200   0.1440   0.00730   0.00283  -0.0737  0.7709  0.6524  -0.5579   0.0000   0.0000   0.0000   0.7658
  -1.100   0.1550   0.00727   0.00282  -0.0737  0.7704  0.6591  -0.5624   0.0000   0.0000   0.0000   0.7288
  -1.000   0.1661   0.00724   0.00283  -0.0737  0.7698  0.6647  -0.5669   0.0000   0.0000   0.0000   0.6966
  -0.900   0.1772   0.00722   0.00283  -0.0737  0.7691  0.6693  -0.5714   0.0000   0.0000   0.0000   0.6684
  -0.800   0.1883   0.00720   0.00283  -0.0737  0.7684  0.6732  -0.5760   0.0000   0.0000   0.0000   0.6433
  -0.700   0.1995   0.00719   0.00283  -0.0738  0.7676  0.6769  -0.5806   0.0000   0.0000   0.0000   0.6211
  -0.600   0.2108   0.00718   0.00283  -0.0738  0.7667  0.6804  -0.5852   0.0000   0.0000   0.0000   0.6012
  -0.500   0.2221   0.00718   0.00283  -0.0739  0.7658  0.6840  -0.5898   0.0000   0.0000   0.0000   0.5833
  -0.400   0.2334   0.00718   0.00283  -0.0740  0.7647  0.6872  -0.5944   0.0000   0.0000   0.0000   0.5671
  -0.300   0.2447   0.00718   0.00283  -0.0740  0.7636  0.6900  -0.5990   0.0000   0.0000   0.0000   0.5524
  -0.200   0.2561   0.00718   0.00283  -0.0741  0.7624  0.6923  -0.6036   0.0000   0.0000   0.0000   0.5390
  -0.100   0.2675   0.00719   0.00283  -0.0742  0.7611  0.6940  -0.6082   0.0000   0.0000   0.0000   0.5268
   0.000   0.2790   0.00719   0.00283  -0.0743  0.7598  0.6953  -0.6129   0.0000   0.0000   0.0000   0.5155
   0.100   0.2903   0.00716   0.00282  -0.0744  0.7584  0.7001  -0.6175   0.0000   0.0000   0.0000   0.5051
   0.200   0.3016   0.00713   0.00281  -0.0745  0.7569  0.7047  -0.6221   0.0000   0.0000   0.0000   0.4955
   0.300   0.3129   0.00710   0.00280  -0.0745  0.7552  0.7092  -0.6268   0.0000   0.0000   0.0000   0.4866
   0.400   0.3242   0.00708   0.00279  -0.0745  0.7534  0.7134  -0.6315   0.0000   0.0000   0.0000   0.4782
   0.500   0.3354   0.00705   0.00278  -0.0746  0.7515  0.7174  -0.6363   0.0000   0.0000   0.0000   0.4703
   0.600   0.3467   0.00702   0.00277  -0.0746  0.7495  0.7211  -0.6411   0.0000   0.0000   0.0000   0.4630
   0.700   0.3581   0.00700   0.00274  -0.0746  0.7473  0.7246  -0.6460   0.0000   0.0000   0.0000   0.4560
   0.800   0.3696   0.00698   0.00272  -0.0747  0.7450  0.7277  -0.6511   0.0000   0.0000   0.0000   0.4496
   0.900   0.3811   0.00697   0.00270  -0.0747  0.7424  0.7304  -0.6566   0.0000   0.0000   0.0000   0.4435
   1.000   0.3926   0.00696   0.00268  -0.0748  0.7395  0.7328  -0.6631   0.0000   0.0000   0.0000   0.4378
   1.100   0.4042   0.00698   0.00268  -0.0749  0.7362  0.7349  -0.6706   0.0000   0.0000   0.0000   0.4325
   1.200   0.4160   0.00703   0.00270  -0.0751  0.7322  0.7370  -0.6790   0.0000   0.0000   0.0000   0.4275
   1.300   0.4277   0.00709   0.00275  -0.0753  0.7288  0.7390  -0.6884   0.0000   0.0000   0.0000   0.4229
   1.400   0.4387   0.00707   0.00275  -0.0753  0.7279  0.7408  -0.6977   0.0000   0.0000   0.0000   0.4183
   1.500   0.4498   0.00706   0.00274  -0.0753  0.7269  0.7422  -0.7070   0.0000   0.0000   0.0000   0.4140
   1.600   0.4608   0.00704   0.00274  -0.0753  0.7257  0.7451  -0.7174   0.0000   0.0000   0.0000   0.4098
   1.700   0.4716   0.00701   0.00275  -0.0752  0.7243  0.7497  -0.7279   0.0000   0.0000   0.0000   0.4059
   1.800   0.4825   0.00698   0.00276  -0.0752  0.7226  0.7537  -0.7394   0.0000   0.0000   0.0000   0.4021
   1.900   0.4934   0.00697   0.00277  -0.0751  0.7208  0.7570  -0.7514   0.0000   0.0000   0.0000   0.3985
   2.000   0.5043   0.00696   0.00278  -0.0751  0.7187  0.7601  -0.7634   0.0000   0.0000   0.0000   0.3950
   2.100   0.5152   0.00695   0.00279  -0.0750  0.7164  0.7632  -0.7755   0.0000   0.0000   0.0000   0.3916
   2.200   0.5261   0.00695   0.00280  -0.0750  0.7139  0.7663  -0.7891   0.0000   0.0000   0.0000   0.3884
   2.300   0.5371   0.00694   0.00281  -0.0750  0.7113  0.7693  -0.8032   0.0000   0.0000   0.0000   0.3853
   2.400   0.5481   0.00695   0.00281  -0.0749  0.7085  0.7722  -0.8174   0.0000   0.0000   0.0000   0.3824
   2.500   0.5592   0.00695   0.00282  -0.0749  0.7057  0.7748  -0.8328   0.0000   0.0000   0.0000   0.3795
   2.600   0.5703   0.00696   0.00282  -0.0749  0.7027  0.7773  -0.8495   0.0000   0.0000   0.0000   0.3768
   2.700   0.5813   0.00697   0.00282  -0.0749  0.6995  0.7795  -0.8662   0.0000   0.0000   0.0000   0.3742
   2.800   0.5922   0.00699   0.00282  -0.0749  0.6958  0.7814  -0.8829   0.0000   0.0000   0.0000   0.3717
   2.900   0.6032   0.00703   0.00283  -0.0748  0.6913  0.7832  -0.9002   0.0000   0.0000   0.0000   0.3692
   3.000   0.6147   0.00708   0.00286  -0.0750  0.6863  0.7849  -0.9208   0.0000   0.0000   0.0000   0.3670
   3.100   0.6257   0.00710   0.00289  -0.0750  0.6839  0.7864  -0.9409   0.0000   0.0000   0.0000   0.3648
   3.200   0.6363   0.00711   0.00292  -0.0749  0.6823  0.7877  -0.9615   0.0000   0.0000   0.0000   0.3625
   3.300   0.6469   0.00711   0.00293  -0.0748  0.6802  0.7903  -0.9858   0.0000   0.0000   0.0000   0.3604
   3.400   0.6574   0.00709   0.00295  -0.0747  0.6778  0.7946  -1.0101   0.0000   0.0000   0.0000   0.3583
   3.500   0.6679   0.00709   0.00297  -0.0746  0.6752  0.7981  -1.0346   0.0000   0.0000   0.0000   0.3562
   3.600   0.6784   0.00709   0.00301  -0.0745  0.6723  0.8010  -1.0592   0.0000   0.0000   0.0000   0.3542
   3.700   0.6888   0.00711   0.00303  -0.0743  0.6687  0.8036  -1.0839   0.0000   0.0000   0.0000   0.3523
   3.800   0.6990   0.00712   0.00305  -0.0741  0.6644  0.8062  -1.1085   0.0000   0.0000   0.0000   0.3503
   3.900   0.7090   0.00715   0.00307  -0.0739  0.6592  0.8089  -1.1330   0.0000   0.0000   0.0000   0.3483
   4.000   0.7184   0.00720   0.00314  -0.0735  0.6529  0.8115  -1.1569   0.0000   0.0000   0.0000   0.3464
   4.100   0.7276   0.00726   0.00317  -0.0731  0.6455  0.8141  -1.1808   0.0000   0.0000   0.0000   0.3444
   4.200   0.7378   0.00732   0.00321  -0.0729  0.6387  0.8166  -1.2072   0.0000   0.0000   0.0000   0.3427
   4.300   0.7480   0.00733   0.00326  -0.0727  0.6362  0.8190  -1.2387   0.0000   0.0000   0.0000   0.3410
   4.400   0.7582   0.00736   0.00330  -0.0726  0.6328  0.8212  -1.2704   0.0000   0.0000   0.0000   0.3394
   4.500   0.7685   0.00739   0.00334  -0.0724  0.6290  0.8233  -1.3025   0.0000   0.0000   0.0000   0.3378
   4.600   0.7788   0.00742   0.00339  -0.0723  0.6244  0.8251  -1.3346   0.0000   0.0000   0.0000   0.3363
   4.700   0.7887   0.00746   0.00343  -0.0721  0.6188  0.8268  -1.3731   0.0000   0.0000   0.0000   0.3347
   4.800   0.7982   0.00752   0.00347  -0.0717  0.6123  0.8283  -1.4144   0.0000   0.0000   0.0000   0.3331
   4.900   0.8067   0.00761   0.00351  -0.0712  0.6043  0.8297  -1.4542   0.0000   0.0000   0.0000   0.3314
   5.000   0.8143   0.00771   0.00357  -0.0705  0.5942  0.8309  -1.4923   0.0000   0.0000   0.0000   0.3297
   5.100   0.8240   0.00774   0.00360  -0.0703  0.5883  0.8334  -1.5350   0.0000   0.0000   0.0000   0.3282
   5.200   0.8332   0.00775   0.00363  -0.0699  0.5797  0.8376  -1.5769   0.0000   0.0000   0.0000   0.3268
   5.300   0.8403   0.00783   0.00367  -0.0691  0.5651  0.8411  -1.6152   0.0000   0.0000   0.0000   0.3250
   5.400   0.8440   0.00799   0.00374  -0.0676  0.5475  0.8443  -1.6465   0.0000   0.0000   0.0000   0.3227
   5.500   0.8511   0.00808   0.00381  -0.0669  0.5350  0.8470  -1.6852   0.0000   0.0000   0.0000   0.3211
   5.600   0.8561   0.00823   0.00390  -0.0657  0.5156  0.8498  -1.7196   0.0000   0.0000   0.0000   0.3191
   5.700   0.8574   0.00846   0.00401  -0.0637  0.4940  0.8529  -1.7465   0.0000   0.0000   0.0000   0.3166
   5.800   0.8616   0.00863   0.00413  -0.0624  0.4752  0.8557  -1.7798   0.0000   0.0000   0.0000   0.3146
   5.900   0.8617   0.00888   0.00427  -0.0603  0.4544  0.8589  -1.8043   0.0000   0.0000   0.0000   0.3120
   6.000   0.8649   0.00904   0.00438  -0.0588  0.4387  0.8617  -1.8354   0.0000   0.0000   0.0000   0.3099
   6.100   0.8672   0.00924   0.00451  -0.0571  0.4218  0.8643  -1.8648   0.0000   0.0000   0.0000   0.3076
   6.200   0.8672   0.00952   0.00468  -0.0551  0.4027  0.8669  -1.8894   0.0000   0.0000   0.0000   0.3052
   6.300   0.8722   0.00969   0.00481  -0.0540  0.3896  0.8687  -1.9248   0.0000   0.0000   0.0000   0.3034
   6.400   0.8752   0.00994   0.00499  -0.0526  0.3732  0.8703  -1.9559   0.0000   0.0000   0.0000   0.3015
   6.500   0.8762   0.01026   0.00520  -0.0508  0.3531  0.8718  -1.9828   0.0000   0.0000   0.0000   0.2993
   6.600   0.8809   0.01043   0.00532  -0.0498  0.3391  0.8761  -2.0180   0.0000   0.0000   0.0000   0.2976
   6.700   0.8817   0.01072   0.00553  -0.0480  0.3209  0.8803  -2.0474   0.0000   0.0000   0.0000   0.2954
   6.800   0.8835   0.01099   0.00573  -0.0464  0.3024  0.8838  -2.0876   0.0000   0.0000   0.0000   0.2934
   6.900   0.8863   0.01124   0.00591  -0.0450  0.2865  0.8869  -2.1309   0.0000   0.0000   0.0000   0.2916
   7.000   0.8866   0.01158   0.00616  -0.0433  0.2679  0.8903  -2.1664   0.0000   0.0000   0.0000   0.2894
   7.100   0.8908   0.01180   0.00634  -0.0421  0.2547  0.8931  -2.2144   0.0000   0.0000   0.0000   0.2878
   7.200   0.8939   0.01208   0.00654  -0.0409  0.2407  0.8960  -2.2594   0.0000   0.0000   0.0000   0.2861
   7.300   0.8958   0.01242   0.00679  -0.0395  0.2234  0.8990  -2.3007   0.0000   0.0000   0.0000   0.2843
   7.400   0.9010   0.01263   0.00697  -0.0386  0.2128  0.9015  -2.3526   0.0000   0.0000   0.0000   0.2829
   7.500   0.9046   0.01291   0.00718  -0.0375  0.2010  0.9040  -2.3999   0.0000   0.0000   0.0000   0.2814
   7.600   0.9072   0.01325   0.00743  -0.0363  0.1873  0.9063  -2.4441   0.0000   0.0000   0.0000   0.2798
   7.800   0.9184   0.01366   0.00779  -0.0347  0.1701  0.9121  -2.5527   0.0000   0.0000   0.0000   0.2774
   7.900   0.9224   0.01389   0.00799  -0.0337  0.1615  0.9164  -2.6023   0.0000   0.0000   0.0000   0.2760
   8.000   0.9256   0.01416   0.00821  -0.0325  0.1516  0.9204  -2.6496   0.0000   0.0000   0.0000   0.2744
   8.100   0.9304   0.01436   0.00841  -0.0316  0.1433  0.9241  -2.7025   0.0000   0.0000   0.0000   0.2731
   8.200   0.9355   0.01455   0.00860  -0.0307  0.1385  0.9278  -2.7570   0.0000   0.0000   0.0000   0.2719
   8.300   0.9399   0.01480   0.00889  -0.0298  0.1322  0.9317  -2.8093   0.0000   0.0000   0.0000   0.2706
   8.400   0.9439   0.01508   0.00912  -0.0288  0.1250  0.9354  -2.8638   0.0000   0.0000   0.0000   0.2693
   8.500   0.9483   0.01536   0.00936  -0.0279  0.1163  0.9387  -2.9294   0.0000   0.0000   0.0000   0.2681
   8.700   0.9597   0.01571   0.00973  -0.0264  0.1069  0.9496  -3.0744   0.0000   0.0000   0.0000   0.2659
   8.800   0.9652   0.01592   0.00994  -0.0257  0.1023  0.9563  -3.1469   0.0000   0.0000   0.0000   0.2649
   8.900   0.9711   0.01619   0.01018  -0.0252  0.0967  0.9638  -3.2215   0.0000   0.0000   0.0000   0.2640
   9.000   0.9797   0.01651   0.01045  -0.0253  0.0891  0.9733  -3.3078   0.0000   0.0000   0.0000   0.2637
   9.100   0.9900   0.01677   0.01071  -0.0257  0.0822  0.9842  -3.4021   0.0000   0.0000   0.0000   0.2637
   9.200   0.9983   0.01699   0.01093  -0.0256  0.0800  1.0000  -3.4893   0.0000   0.0000   0.0000   0.2633
   9.300   1.0055   0.01725   0.01119  -0.0253  0.0770  1.0000  -3.5726   0.0000   0.0000   0.0000   0.2628
   9.400   1.0121   0.01755   0.01146  -0.0250  0.0734  1.0000  -3.6536   0.0000   0.0000   0.0000   0.2621
   9.500   1.0181   0.01788   0.01175  -0.0246  0.0694  1.0000  -3.7322   0.0000   0.0000   0.0000   0.2615
   9.600   1.0242   0.01822   0.01204  -0.0242  0.0645  1.0000  -3.8112   0.0000   0.0000   0.0000   0.2608
   9.700   1.0307   0.01852   0.01233  -0.0238  0.0590  1.0000  -3.8922   0.0000   0.0000   0.0000   0.2601
   9.800   1.0383   0.01876   0.01258  -0.0236  0.0569  1.0000  -3.9803   0.0000   0.0000   0.0000   0.2596
   9.900   1.0461   0.01898   0.01281  -0.0234  0.0556  1.0000  -4.0706   0.0000   0.0000   0.0000   0.2591
  10.000   1.0532   0.01924   0.01307  -0.0231  0.0536  1.0000  -4.1583   0.0000   0.0000   0.0000   0.2585
  10.100   1.0596   0.01954   0.01335  -0.0227  0.0509  1.0000  -4.2429   0.0000   0.0000   0.0000   0.2579
  10.200   1.0652   0.01989   0.01367  -0.0222  0.0478  1.0000  -4.3236   0.0000   0.0000   0.0000   0.2572
  10.300   1.0700   0.02028   0.01401  -0.0216  0.0439  1.0000  -4.3998   0.0000   0.0000   0.0000   0.2564
  10.400   1.0734   0.02075   0.01446  -0.0209  0.0382  1.0000  -4.4648   0.0000   0.0000   0.0000   0.2554
  10.500   1.0788   0.02109   0.01482  -0.0204  0.0363  1.0000  -4.5436   0.0000   0.0000   0.0000   0.2547
  10.600   1.0857   0.02134   0.01508  -0.0201  0.0357  1.0000  -4.6346   0.0000   0.0000   0.0000   0.2542
  10.700   1.0924   0.02161   0.01537  -0.0197  0.0349  1.0000  -4.7239   0.0000   0.0000   0.0000   0.2536
  10.800   1.0985   0.02192   0.01568  -0.0193  0.0336  1.0000  -4.8104   0.0000   0.0000   0.0000   0.2530
  10.900   1.1042   0.02226   0.01602  -0.0189  0.0323  1.0000  -4.8947   0.0000   0.0000   0.0000   0.2523
  11.000   1.1097   0.02262   0.01638  -0.0184  0.0309  1.0000  -4.9777   0.0000   0.0000   0.0000   0.2517
  11.100   1.1149   0.02300   0.01674  -0.0179  0.0295  1.0000  -5.0594   0.0000   0.0000   0.0000   0.2510
  11.200   1.1198   0.02341   0.01713  -0.0174  0.0280  1.0000  -5.1393   0.0000   0.0000   0.0000   0.2503
  11.300   1.1244   0.02384   0.01755  -0.0168  0.0264  1.0000  -5.2157   0.0000   0.0000   0.0000   0.2496
  11.400   1.1283   0.02433   0.01805  -0.0162  0.0244  1.0000  -5.2850   0.0000   0.0000   0.0000   0.2488
  11.500   1.1295   0.02500   0.01879  -0.0152  0.0221  1.0000  -5.3304   0.0000   0.0000   0.0000   0.2477
  11.600   1.1287   0.02582   0.01969  -0.0141  0.0202  1.0000  -5.3613   0.0000   0.0000   0.0000   0.2465
  11.700   1.1363   0.02604   0.01990  -0.0139  0.0201  1.0000  -5.4654   0.0000   0.0000   0.0000   0.2462
  11.800   1.1436   0.02627   0.02012  -0.0137  0.0199  1.0000  -5.5682   0.0000   0.0000   0.0000   0.2458
  11.900   1.1507   0.02652   0.02038  -0.0135  0.0196  1.0000  -5.6694   0.0000   0.0000   0.0000   0.2454
  12.000   1.1574   0.02681   0.02067  -0.0133  0.0192  1.0000  -5.7680   0.0000   0.0000   0.0000   0.2449
  12.100   1.1635   0.02713   0.02100  -0.0130  0.0186  1.0000  -5.8621   0.0000   0.0000   0.0000   0.2444
  12.200   1.1691   0.02750   0.02139  -0.0126  0.0180  1.0000  -5.9521   0.0000   0.0000   0.0000   0.2439
  12.300   1.1745   0.02789   0.02179  -0.0122  0.0174  1.0000  -6.0433   0.0000   0.0000   0.0000   0.2434
  12.400   1.1796   0.02831   0.02228  -0.0118  0.0169  1.0000  -6.1373   0.0000   0.0000   0.0000   0.2428
  12.500   1.1845   0.02874   0.02273  -0.0114  0.0163  1.0000  -6.2305   0.0000   0.0000   0.0000   0.2422
  12.600   1.1891   0.02919   0.02321  -0.0110  0.0159  1.0000  -6.3217   0.0000   0.0000   0.0000   0.2417
  12.700   1.1935   0.02966   0.02370  -0.0105  0.0155  1.0000  -6.4118   0.0000   0.0000   0.0000   0.2411
  12.800   1.1978   0.03014   0.02421  -0.0101  0.0151  1.0000  -6.5017   0.0000   0.0000   0.0000   0.2405
  12.900   1.2020   0.03064   0.02472  -0.0096  0.0148  1.0000  -6.5910   0.0000   0.0000   0.0000   0.2399
  13.000   1.2060   0.03115   0.02526  -0.0091  0.0145  1.0000  -6.6794   0.0000   0.0000   0.0000   0.2393
  13.100   1.2096   0.03167   0.02581  -0.0087  0.0142  1.0000  -6.7652   0.0000   0.0000   0.0000   0.2387
  13.200   1.2121   0.03227   0.02644  -0.0081  0.0140  1.0000  -6.8436   0.0000   0.0000   0.0000   0.2381
  13.300   1.2141   0.03292   0.02713  -0.0076  0.0138  1.0000  -6.9185   0.0000   0.0000   0.0000   0.2374
  13.400   1.2166   0.03356   0.02780  -0.0070  0.0137  1.0000  -6.9964   0.0000   0.0000   0.0000   0.2368
  13.500   1.2193   0.03418   0.02846  -0.0066  0.0135  1.0000  -7.0770   0.0000   0.0000   0.0000   0.2362
  13.600   1.2223   0.03481   0.02911  -0.0061  0.0133  1.0000  -7.1591   0.0000   0.0000   0.0000   0.2356
  13.700   1.2254   0.03543   0.02977  -0.0057  0.0131  1.0000  -7.2418   0.0000   0.0000   0.0000   0.2351
  13.800   1.2284   0.03608   0.03045  -0.0052  0.0129  1.0000  -7.3246   0.0000   0.0000   0.0000   0.2345
  13.900   1.2314   0.03673   0.03114  -0.0048  0.0127  1.0000  -7.4074   0.0000   0.0000   0.0000   0.2340
  14.000   1.2342   0.03741   0.03186  -0.0044  0.0126  1.0000  -7.4893   0.0000   0.0000   0.0000   0.2335
  14.100   1.2369   0.03811   0.03260  -0.0040  0.0124  1.0000  -7.5699   0.0000   0.0000   0.0000   0.2330
  14.200   1.2393   0.03884   0.03337  -0.0036  0.0122  1.0000  -7.6489   0.0000   0.0000   0.0000   0.2324
  14.300   1.2410   0.03965   0.03421  -0.0032  0.0120  1.0000  -7.7222   0.0000   0.0000   0.0000   0.2319
  14.400   1.2415   0.04057   0.03518  -0.0028  0.0119  1.0000  -7.7871   0.0000   0.0000   0.0000   0.2314
  14.500   1.2423   0.04148   0.03613  -0.0024  0.0117  1.0000  -7.8540   0.0000   0.0000   0.0000   0.2308
  14.600   1.2435   0.04237   0.03706  -0.0021  0.0115  1.0000  -7.9232   0.0000   0.0000   0.0000   0.2303
  14.700   1.2448   0.04326   0.03800  -0.0017  0.0113  1.0000  -7.9923   0.0000   0.0000   0.0000   0.2299
  14.800   1.2459   0.04417   0.03896  -0.0014  0.0111  1.0000  -8.0597   0.0000   0.0000   0.0000   0.2294
  14.900   1.2468   0.04511   0.03995  -0.0010  0.0109  1.0000  -8.1242   0.0000   0.0000   0.0000   0.2289
  15.000   1.2472   0.04610   0.04100  -0.0007  0.0107  1.0000  -8.1848   0.0000   0.0000   0.0000   0.2284
  15.100   1.2472   0.04715   0.04210  -0.0003  0.0105  1.0000  -8.2403   0.0000   0.0000   0.0000   0.2279
  15.200   1.2462   0.04831   0.04331   0.0000  0.0103  1.0000  -8.2875   0.0000   0.0000   0.0000   0.2274
  15.300   1.2435   0.04966   0.04474   0.0003  0.0101  1.0000  -8.3205   0.0000   0.0000   0.0000   0.2270
  15.400   1.2408   0.05104   0.04619   0.0006  0.0099  1.0000  -8.3510   0.0000   0.0000   0.0000   0.2265
  15.500   1.2379   0.05244   0.04767   0.0009  0.0097  1.0000  -8.3764   0.0000   0.0000   0.0000   0.2260
  15.600   1.2343   0.05393   0.04925   0.0013  0.0094  1.0000  -8.3914   0.0000   0.0000   0.0000   0.2255
  15.700   1.2293   0.05558   0.05100   0.0016  0.0092  1.0000  -8.3911   0.0000   0.0000   0.0000   0.2250
  15.800   1.2226   0.05744   0.05297   0.0020  0.0090  1.0000  -8.3706   0.0000   0.0000   0.0000   0.2245
  15.900   1.2137   0.05950   0.05516   0.0023  0.0088  1.0000  -8.3270   0.0000   0.0000   0.0000   0.2240
  16.000   1.2028   0.06189   0.05768   0.0025  0.0086  1.0000  -8.2686   0.0000   0.0000   0.0000   0.2236
  16.100   1.2020   0.06319   0.05902   0.0023  0.0086  1.0000  -8.3206   0.0000   0.0000   0.0000   0.2235
  16.200   1.2051   0.06403   0.05988   0.0022  0.0086  1.0000  -8.4161   0.0000   0.0000   0.0000   0.2234
  16.300   1.2084   0.06486   0.06072   0.0020  0.0085  1.0000  -8.5138   0.0000   0.0000   0.0000   0.2234
  16.400   1.2117   0.06568   0.06157   0.0018  0.0085  1.0000  -8.6123   0.0000   0.0000   0.0000   0.2233
  16.500   1.2150   0.06652   0.06242   0.0016  0.0085  1.0000  -8.7106   0.0000   0.0000   0.0000   0.2233
  16.600   1.2182   0.06738   0.06330   0.0014  0.0085  1.0000  -8.8079   0.0000   0.0000   0.0000   0.2232
  16.700   1.2211   0.06827   0.06422   0.0011  0.0084  1.0000  -8.9034   0.0000   0.0000   0.0000   0.2232
  16.800   1.2235   0.06925   0.06522   0.0009  0.0084  1.0000  -8.9936   0.0000   0.0000   0.0000   0.2232
  16.900   1.2237   0.07055   0.06656   0.0005  0.0084  1.0000  -9.0627   0.0000   0.0000   0.0000   0.2232
  17.000   1.2244   0.07181   0.06784   0.0001  0.0084  1.0000  -9.1364   0.0000   0.0000   0.0000   0.2233
  17.100   1.2261   0.07293   0.06899  -0.0002  0.0083  1.0000  -9.2190   0.0000   0.0000   0.0000   0.2234
  17.200   1.2281   0.07401   0.07010  -0.0005  0.0083  1.0000  -9.3052   0.0000   0.0000   0.0000   0.2234
  17.300   1.2301   0.07509   0.07119  -0.0009  0.0083  1.0000  -9.3920   0.0000   0.0000   0.0000   0.2235
  17.400   1.2321   0.07618   0.07231  -0.0012  0.0082  1.0000  -9.4776   0.0000   0.0000   0.0000   0.2235
  17.500   1.2338   0.07731   0.07347  -0.0016  0.0082  1.0000  -9.5607   0.0000   0.0000   0.0000   0.2236
  17.600   1.2352   0.07849   0.07468  -0.0020  0.0082  1.0000  -9.6401   0.0000   0.0000   0.0000   0.2237
  17.700   1.2347   0.08001   0.07624  -0.0025  0.0081  1.0000  -9.6990   0.0000   0.0000   0.0000   0.2239
  17.800   1.2333   0.08169   0.07796  -0.0032  0.0081  1.0000  -9.7472   0.0000   0.0000   0.0000   0.2241
  17.900   1.2331   0.08316   0.07946  -0.0038  0.0081  1.0000  -9.8089   0.0000   0.0000   0.0000   0.2244
  18.000   1.2335   0.08455   0.08089  -0.0043  0.0080  1.0000  -9.8749   0.0000   0.0000   0.0000   0.2246
  18.100   1.2338   0.08594   0.08231  -0.0048  0.0080  1.0000  -9.9410   0.0000   0.0000   0.0000   0.2248
  18.200   1.2340   0.08736   0.08377  -0.0054  0.0079  1.0000  -10.0045   0.0000   0.0000   0.0000   0.2250
  18.300   1.2337   0.08886   0.08530  -0.0060  0.0079  1.0000  -10.0631   0.0000   0.0000   0.0000   0.2252
  18.400   1.2305   0.09092   0.08746  -0.0070  0.0078  1.0000  -10.0872   0.0000   0.0000   0.0000   0.2258
  18.500   1.2282   0.09282   0.08940  -0.0078  0.0078  1.0000  -10.1203   0.0000   0.0000   0.0000   0.2262
  18.600   1.2269   0.09452   0.09114  -0.0086  0.0078  1.0000  -10.1648   0.0000   0.0000   0.0000   0.2266
  18.700   1.2259   0.09619   0.09285  -0.0094  0.0077  1.0000  -10.2104   0.0000   0.0000   0.0000   0.2270
  18.800   1.2245   0.09790   0.09460  -0.0102  0.0077  1.0000  -10.2523   0.0000   0.0000   0.0000   0.2274
  18.900   1.2222   0.09980   0.09655  -0.0111  0.0076  1.0000  -10.2814   0.0000   0.0000   0.0000   0.2279
  19.000   1.2168   0.10231   0.09912  -0.0124  0.0076  1.0000  -10.2721   0.0000   0.0000   0.0000   0.2288
  19.100   1.2137   0.10438   0.10123  -0.0135  0.0075  1.0000  -10.2891   0.0000   0.0000   0.0000   0.2295
  19.200   1.2112   0.10633   0.10323  -0.0145  0.0075  1.0000  -10.3122   0.0000   0.0000   0.0000   0.2301
  19.300   1.2086   0.10830   0.10525  -0.0156  0.0074  1.0000  -10.3319   0.0000   0.0000   0.0000   0.2307
  19.400   1.2047   0.11051   0.10751  -0.0168  0.0074  1.0000  -10.3345   0.0000   0.0000   0.0000   0.2315
  19.500   1.1975   0.11342   0.11048  -0.0185  0.0074  1.0000  -10.2935   0.0000   0.0000   0.0000   0.2328
  19.600   1.1933   0.11574   0.11285  -0.0198  0.0073  1.0000  -10.2875   0.0000   0.0000   0.0000   0.2337
  19.700   1.1895   0.11797   0.11513  -0.0211  0.0073  1.0000  -10.2853   0.0000   0.0000   0.0000   0.2346
  19.800   1.1851   0.12028   0.11749  -0.0225  0.0073  1.0000  -10.2752   0.0000   0.0000   0.0000   0.2355
  19.900   1.1763   0.12356   0.12083  -0.0245  0.0073  1.0000  -10.2013   0.0000   0.0000   0.0000   0.2372
  20.000   1.1701   0.12633   0.12367  -0.0262  0.0072  1.0000  -10.1585   0.0000   0.0000   0.0000   0.2385
  20.100   1.1648   0.12887   0.12626  -0.0278  0.0072  1.0000  -10.1280   0.0000   0.0000   0.0000   0.2397
  20.200   1.1591   0.13144   0.12888  -0.0295  0.0072  1.0000  -10.0875   0.0000   0.0000   0.0000   0.2410
  20.300   1.1478   0.13506   0.13257  -0.0320  0.0072  1.0000  -9.9624   0.0000   0.0000   0.0000   0.2432
  20.400   1.1405   0.13788   0.13545  -0.0339  0.0072  1.0000  -9.8910   0.0000   0.0000   0.0000   0.2449
  20.500   1.1336   0.14066   0.13828  -0.0358  0.0071  1.0000  -9.8224   0.0000   0.0000   0.0000   0.2465
  20.600   1.1210   0.14483   0.14253  -0.0387  0.0072  1.0000  -9.6585   0.0000   0.0000   0.0000   0.2492
  20.700   1.1097   0.14881   0.14659  -0.0413  0.0072  1.0000  -9.5100   0.0000   0.0000   0.0000   0.2517
  20.800   1.0999   0.15256   0.15040  -0.0438  0.0072  1.0000  -9.3788   0.0000   0.0000   0.0000   0.2541
  20.900   1.0773   0.15958   0.15748  -0.0482  0.0073  1.0000  -9.0205   0.0000   0.0000   0.0000   0.2589
  21.000   1.0605   0.16544   0.16343  -0.0517  0.0073  1.0000  -8.7451   0.0000   0.0000   0.0000   0.2629
  21.900   0.8719   0.25626   0.25447  -0.0886  0.0064  1.0000  -3.6236   0.0000   0.0000   0.0000   0.3183
  22.000   0.8717   0.25957   0.25778  -0.0897  0.0064  1.0000  -3.5296   0.0000   0.0000   0.0000   0.3195
  22.100   0.8718   0.26277   0.26099  -0.0908  0.0063  1.0000  -3.4429   0.0000   0.0000   0.0000   0.3206
  22.200   0.8720   0.26590   0.26411  -0.0918  0.0063  1.0000  -3.3622   0.0000   0.0000   0.0000   0.3217
  22.300   0.8723   0.26896   0.26718  -0.0928  0.0062  1.0000  -3.2863   0.0000   0.0000   0.0000   0.3228
  22.400   0.8728   0.27197   0.27018  -0.0939  0.0062  1.0000  -3.2143   0.0000   0.0000   0.0000   0.3238
  22.500   0.8733   0.27494   0.27314  -0.0949  0.0062  1.0000  -3.1453   0.0000   0.0000   0.0000   0.3247
  22.600   0.8739   0.27787   0.27607  -0.0958  0.0061  1.0000  -3.0784   0.0000   0.0000   0.0000   0.3256
  22.700   0.8746   0.28078   0.27899  -0.0968  0.0061  1.0000  -3.0124   0.0000   0.0000   0.0000   0.3265
  22.800   0.8753   0.28367   0.28188  -0.0978  0.0061  1.0000  -2.9482   0.0000   0.0000   0.0000   0.3274
  22.900   0.8760   0.28653   0.28474  -0.0987  0.0061  1.0000  -2.8855   0.0000   0.0000   0.0000   0.3283
  23.000   0.8767   0.28938   0.28760  -0.0996  0.0061  1.0000  -2.8239   0.0000   0.0000   0.0000   0.3291
  23.100   0.8774   0.29224   0.29045  -0.1006  0.0061  1.0000  -2.7625   0.0000   0.0000   0.0000   0.3300
  23.200   0.8781   0.29506   0.29327  -0.1015  0.0061  1.0000  -2.7039   0.0000   0.0000   0.0000   0.3308
  23.300   0.8789   0.29785   0.29606  -0.1024  0.0062  1.0000  -2.6484   0.0000   0.0000   0.0000   0.3316
  23.400   0.8796   0.30060   0.29882  -0.1033  0.0062  1.0000  -2.5959   0.0000   0.0000   0.0000   0.3324
  23.500   0.8804   0.30333   0.30155  -0.1042  0.0063  1.0000  -2.5462   0.0000   0.0000   0.0000   0.3331
  23.600   0.8811   0.30603   0.30425  -0.1050  0.0064  1.0000  -2.4993   0.0000   0.0000   0.0000   0.3339
  23.700   0.8818   0.30871   0.30693  -0.1059  0.0065  1.0000  -2.4550   0.0000   0.0000   0.0000   0.3346
  23.800   0.8824   0.31137   0.30959  -0.1067  0.0066  1.0000  -2.4130   0.0000   0.0000   0.0000   0.3353
  23.900   0.8830   0.31402   0.31225  -0.1075  0.0067  1.0000  -2.3728   0.0000   0.0000   0.0000   0.3361
  24.000   0.8834   0.31667   0.31490  -0.1083  0.0069  1.0000  -2.3336   0.0000   0.0000   0.0000   0.3368
  24.100   0.8837   0.31936   0.31759  -0.1091  0.0071  1.0000  -2.2938   0.0000   0.0000   0.0000   0.3375
  24.200   0.8832   0.32237   0.32061  -0.1099  0.0074  1.0000  -2.2379   0.0000   0.0000   0.0000   0.3383
  24.300   0.8769   0.32841   0.32665  -0.1106  0.0083  1.0000  -2.0349   0.0000   0.0000   0.0000   0.3401
  24.400   0.8771   0.33098   0.32922  -0.1113  0.0083  1.0000  -2.0078   0.0000   0.0000   0.0000   0.3408
  24.500   0.8772   0.33347   0.33171  -0.1121  0.0083  1.0000  -1.9836   0.0000   0.0000   0.0000   0.3415
  24.600   0.8772   0.33591   0.33416  -0.1128  0.0083  1.0000  -1.9609   0.0000   0.0000   0.0000   0.3422
  24.700   0.8771   0.33830   0.33656  -0.1135  0.0083  1.0000  -1.9389   0.0000   0.0000   0.0000   0.3429
  24.800   0.8767   0.34065   0.33892  -0.1142  0.0083  1.0000  -1.9173   0.0000   0.0000   0.0000   0.3437
  24.900   0.8761   0.34296   0.34123  -0.1148  0.0083  1.0000  -1.8955   0.0000   0.0000   0.0000   0.3444
  25.000   0.8750   0.34519   0.34347  -0.1155  0.0083  1.0000  -1.8732   0.0000   0.0000   0.0000   0.3452
  25.100   0.8734   0.34733   0.34562  -0.1161  0.0083  1.0000  -1.8496   0.0000   0.0000   0.0000   0.3461
  25.200   0.8707   0.34931   0.34761  -0.1166  0.0083  1.0000  -1.8234   0.0000   0.0000   0.0000   0.3471
  25.600   0.7820   0.33147   0.32997  -0.1113  0.0083  1.0000  -1.4848   0.0000   0.0000   0.0000   0.3595
  25.700   0.7797   0.33176   0.33027  -0.1116  0.0083  1.0000  -1.4643   0.0000   0.0000   0.0000   0.3604
  25.800   0.7776   0.33209   0.33060  -0.1120  0.0083  1.0000  -1.4448   0.0000   0.0000   0.0000   0.3612
  25.900   0.7758   0.33244   0.33097  -0.1123  0.0083  1.0000  -1.4263   0.0000   0.0000   0.0000   0.3620
  26.000   0.7741   0.33282   0.33136  -0.1127  0.0083  1.0000  -1.4086   0.0000   0.0000   0.0000   0.3628
  26.100   0.7725   0.33323   0.33177  -0.1130  0.0083  1.0000  -1.3916   0.0000   0.0000   0.0000   0.3635
  26.200   0.7711   0.33365   0.33220  -0.1134  0.0083  1.0000  -1.3753   0.0000   0.0000   0.0000   0.3643
  26.300   0.7698   0.33408   0.33264  -0.1138  0.0083  1.0000  -1.3596   0.0000   0.0000   0.0000   0.3650
  26.400   0.7686   0.33454   0.33310  -0.1142  0.0083  1.0000  -1.3444   0.0000   0.0000   0.0000   0.3657
  26.500   0.7675   0.33500   0.33357  -0.1146  0.0083  1.0000  -1.3298   0.0000   0.0000   0.0000   0.3664
  26.600   0.7664   0.33547   0.33405  -0.1150  0.0083  1.0000  -1.3155   0.0000   0.0000   0.0000   0.3671
  26.700   0.7655   0.33596   0.33454  -0.1154  0.0083  1.0000  -1.3015   0.0000   0.0000   0.0000   0.3678
  26.800   0.7646   0.33645   0.33504  -0.1158  0.0083  1.0000  -1.2880   0.0000   0.0000   0.0000   0.3685
  26.900   0.7638   0.33696   0.33555  -0.1162  0.0083  1.0000  -1.2749   0.0000   0.0000   0.0000   0.3691
  27.000   0.7630   0.33747   0.33607  -0.1167  0.0083  1.0000  -1.2621   0.0000   0.0000   0.0000   0.3698
  27.100   0.7623   0.33799   0.33659  -0.1171  0.0083  1.0000  -1.2542   0.0000   0.0000   0.0000   0.3704
  27.200   0.7616   0.33851   0.33712  -0.1175  0.0083  1.0000  -1.2479   0.0000   0.0000   0.0000   0.3710
  27.300   0.7610   0.33904   0.33766  -0.1180  0.0083  1.0000  -1.2417   0.0000   0.0000   0.0000   0.3716
  27.400   0.7604   0.33958   0.33820  -0.1184  0.0083  1.0000  -1.2358   0.0000   0.0000   0.0000   0.3722
  27.500   0.7599   0.34012   0.33875  -0.1188  0.0083  1.0000  -1.2300   0.0000   0.0000   0.0000   0.3728
  27.600   0.7594   0.34066   0.33930  -0.1193  0.0083  1.0000  -1.2244   0.0000   0.0000   0.0000   0.3734
  27.700   0.7590   0.34121   0.33985  -0.1197  0.0083  1.0000  -1.2189   0.0000   0.0000   0.0000   0.3740
  27.800   0.7586   0.34177   0.34041  -0.1202  0.0083  1.0000  -1.2135   0.0000   0.0000   0.0000   0.3746
  27.900   0.7582   0.34232   0.34097  -0.1206  0.0082  1.0000  -1.2083   0.0000   0.0000   0.0000   0.3752
  28.000   0.7578   0.34288   0.34154  -0.1211  0.0082  1.0000  -1.2031   0.0000   0.0000   0.0000   0.3757
  28.100   0.7575   0.34345   0.34211  -0.1215  0.0082  1.0000  -1.1980   0.0000   0.0000   0.0000   0.3763
  28.200   0.7572   0.34402   0.34268  -0.1220  0.0082  1.0000  -1.1930   0.0000   0.0000   0.0000   0.3769
  28.300   0.7569   0.34459   0.34326  -0.1224  0.0082  1.0000  -1.1881   0.0000   0.0000   0.0000   0.3774
  28.400   0.7567   0.34516   0.34384  -0.1229  0.0082  1.0000  -1.1832   0.0000   0.0000   0.0000   0.3780
  28.500   0.7565   0.34574   0.34442  -0.1233  0.0082  1.0000  -1.1783   0.0000   0.0000   0.0000   0.3785
  28.600   0.7563   0.34632   0.34500  -0.1238  0.0082  1.0000  -1.1735   0.0000   0.0000   0.0000   0.3790
  28.700   0.7561   0.34690   0.34559  -0.1242  0.0082  1.0000  -1.1688   0.0000   0.0000   0.0000   0.3796
  28.800   0.7559   0.34748   0.34618  -0.1247  0.0082  1.0000  -1.1640   0.0000   0.0000   0.0000   0.3801
  28.900   0.7558   0.34807   0.34677  -0.1252  0.0082  1.0000  -1.1593   0.0000   0.0000   0.0000   0.3806
  29.000   0.7556   0.34866   0.34736  -0.1256  0.0082  1.0000  -1.1546   0.0000   0.0000   0.0000   0.3811
  29.100   0.7555   0.34925   0.34798  -0.1261  0.0082  1.0000  -1.1496   0.0000   0.0000   0.0000   0.3816
  29.200   0.7554   0.34984   0.34858  -0.1266  0.0082  1.0000  -1.1449   0.0000   0.0000   0.0000   0.3821
  29.300   0.7553   0.35043   0.34918  -0.1270  0.0082  1.0000  -1.1402   0.0000   0.0000   0.0000   0.3826
  29.400   0.7553   0.35103   0.34978  -0.1275  0.0082  1.0000  -1.1355   0.0000   0.0000   0.0000   0.3831
  29.500   0.7552   0.35163   0.35038  -0.1280  0.0082  1.0000  -1.1307   0.0000   0.0000   0.0000   0.3836
  29.600   0.7551   0.35224   0.35099  -0.1285  0.0082  1.0000  -1.1255   0.0000   0.0000   0.0000   0.3841
  29.700   0.7551   0.35284   0.35161  -0.1289  0.0082  1.0000  -1.1202   0.0000   0.0000   0.0000   0.3846
  29.800   0.7551   0.35346   0.35222  -0.1294  0.0081  1.0000  -1.1149   0.0000   0.0000   0.0000   0.3851
  29.900   0.7551   0.35407   0.35284  -0.1299  0.0081  1.0000  -1.1096   0.0000   0.0000   0.0000   0.3856
  30.000   0.7550   0.35468   0.35346  -0.1304  0.0081  1.0000  -1.1041   0.0000   0.0000   0.0000   0.3861


