xflr5 v6.61

 Calculated polar for: NREL's S822 Airfoil

 1 1 Reynolds number fixed          Mach number fixed         

 xtrf =   1.000 (top)        1.000 (bottom)
 Mach =   0.000     Re =     0.300 e 6     Ncrit =   9.000

  alpha     CL        CD       CDp       Cm    Top Xtr Bot Xtr   Cpmin    Chinge    XCp    
 ------- -------- --------- --------- -------- ------- ------- -------- --------- ---------
 -10.000  -0.6411   0.01980   0.01329  -0.0995  0.9464  0.0583  -4.4686   0.0000   0.0000   0.0000   0.0787
  -9.900  -0.6405   0.01956   0.01307  -0.0981  0.9431  0.0608  -4.4171   0.0000   0.0000   0.0000   0.0809
  -9.800  -0.6385   0.01934   0.01287  -0.0969  0.9397  0.0632  -4.3584   0.0000   0.0000   0.0000   0.0826
  -9.700  -0.6340   0.01912   0.01264  -0.0961  0.9368  0.0659  -4.2879   0.0000   0.0000   0.0000   0.0829
  -9.600  -0.6279   0.01892   0.01240  -0.0955  0.9343  0.0687  -4.2099   0.0000   0.0000   0.0000   0.0825
  -9.500  -0.6205   0.01874   0.01219  -0.0951  0.9321  0.0711  -4.1257   0.0000   0.0000   0.0000   0.0813
  -9.400  -0.6117   0.01862   0.01202  -0.0950  0.9303  0.0729  -4.0334   0.0000   0.0000   0.0000   0.0794
  -9.300  -0.6092   0.01820   0.01158  -0.0939  0.9280  0.0776  -3.9811   0.0000   0.0000   0.0000   0.0808
  -9.200  -0.6070   0.01781   0.01123  -0.0927  0.9258  0.0841  -3.9278   0.0000   0.0000   0.0000   0.0823
  -9.100  -0.6017   0.01756   0.01102  -0.0921  0.9240  0.0892  -3.8548   0.0000   0.0000   0.0000   0.0822
  -9.000  -0.5947   0.01737   0.01085  -0.0916  0.9224  0.0940  -3.7733   0.0000   0.0000   0.0000   0.0812
  -8.900  -0.5861   0.01725   0.01070  -0.0914  0.9209  0.0981  -3.6848   0.0000   0.0000   0.0000   0.0793
  -8.800  -0.5763   0.01720   0.01060  -0.0914  0.9194  0.1008  -3.5907   0.0000   0.0000   0.0000   0.0768
  -8.700  -0.5739   0.01702   0.01042  -0.0901  0.9175  0.1063  -3.5345   0.0000   0.0000   0.0000   0.0785
  -8.600  -0.5728   0.01683   0.01027  -0.0886  0.9154  0.1128  -3.4831   0.0000   0.0000   0.0000   0.0811
  -8.500  -0.5699   0.01668   0.01017  -0.0873  0.9132  0.1183  -3.4217   0.0000   0.0000   0.0000   0.0826
  -8.400  -0.5654   0.01657   0.01008  -0.0864  0.9112  0.1235  -3.3532   0.0000   0.0000   0.0000   0.0832
  -8.300  -0.5594   0.01647   0.00999  -0.0856  0.9092  0.1283  -3.2784   0.0000   0.0000   0.0000   0.0830
  -8.200  -0.5518   0.01641   0.00988  -0.0851  0.9074  0.1320  -3.1971   0.0000   0.0000   0.0000   0.0819
  -8.100  -0.5452   0.01627   0.00974  -0.0845  0.9054  0.1372  -3.1221   0.0000   0.0000   0.0000   0.0813
  -8.000  -0.5402   0.01604   0.00955  -0.0836  0.9033  0.1460  -3.0548   0.0000   0.0000   0.0000   0.0816
  -7.900  -0.5335   0.01585   0.00941  -0.0830  0.9014  0.1537  -2.9793   0.0000   0.0000   0.0000   0.0808
  -7.800  -0.5253   0.01569   0.00928  -0.0827  0.8997  0.1610  -2.8977   0.0000   0.0000   0.0000   0.0791
  -7.700  -0.5156   0.01559   0.00915  -0.0826  0.8982  0.1670  -2.8105   0.0000   0.0000   0.0000   0.0764
  -7.600  -0.5067   0.01543   0.00899  -0.0823  0.8967  0.1749  -2.7282   0.0000   0.0000   0.0000   0.0741
  -7.500  -0.4997   0.01519   0.00882  -0.0818  0.8950  0.1860  -2.6545   0.0000   0.0000   0.0000   0.0729
  -7.400  -0.4913   0.01501   0.00870  -0.0815  0.8936  0.1955  -2.5751   0.0000   0.0000   0.0000   0.0707
  -7.300  -0.4817   0.01491   0.00859  -0.0814  0.8922  0.2033  -2.4916   0.0000   0.0000   0.0000   0.0677
  -7.200  -0.4712   0.01487   0.00851  -0.0814  0.8910  0.2084  -2.4055   0.0000   0.0000   0.0000   0.0640
  -7.100  -0.4641   0.01472   0.00841  -0.0809  0.8894  0.2202  -2.3351   0.0000   0.0000   0.0000   0.0625
  -7.000  -0.4575   0.01467   0.00842  -0.0803  0.8873  0.2295  -2.2665   0.0000   0.0000   0.0000   0.0614
  -6.900  -0.4510   0.01459   0.00837  -0.0796  0.8861  0.2375  -2.1985   0.0000   0.0000   0.0000   0.0604
  -6.800  -0.4437   0.01452   0.00831  -0.0790  0.8850  0.2448  -2.1281   0.0000   0.0000   0.0000   0.0588
  -6.700  -0.4357   0.01450   0.00825  -0.0786  0.8837  0.2503  -2.0555   0.0000   0.0000   0.0000   0.0567
  -6.600  -0.4301   0.01437   0.00818  -0.0777  0.8822  0.2619  -1.9934   0.0000   0.0000   0.0000   0.0563
  -6.500  -0.4247   0.01425   0.00813  -0.0769  0.8804  0.2727  -1.9350   0.0000   0.0000   0.0000   0.0562
  -6.400  -0.4182   0.01416   0.00808  -0.0762  0.8787  0.2824  -1.8913   0.0000   0.0000   0.0000   0.0551
  -6.300  -0.4105   0.01411   0.00804  -0.0756  0.8771  0.2906  -1.8447   0.0000   0.0000   0.0000   0.0529
  -6.200  -0.4019   0.01409   0.00799  -0.0753  0.8755  0.2967  -1.7965   0.0000   0.0000   0.0000   0.0500
  -6.100  -0.3953   0.01396   0.00791  -0.0746  0.8737  0.3091  -1.7538   0.0000   0.0000   0.0000   0.0486
  -6.000  -0.3880   0.01384   0.00774  -0.0740  0.8720  0.3194  -1.7094   0.0000   0.0000   0.0000   0.0467
  -5.900  -0.3797   0.01375   0.00768  -0.0736  0.8705  0.3289  -1.6629   0.0000   0.0000   0.0000   0.0436
  -5.800  -0.3705   0.01369   0.00762  -0.0733  0.8690  0.3373  -1.6145   0.0000   0.0000   0.0000   0.0394
  -5.700  -0.3605   0.01365   0.00755  -0.0732  0.8677  0.3445  -1.5649   0.0000   0.0000   0.0000   0.0343
  -5.600  -0.3523   0.01349   0.00747  -0.0728  0.8663  0.3586  -1.5199   0.0000   0.0000   0.0000   0.0307
  -5.500  -0.3434   0.01336   0.00741  -0.0725  0.8650  0.3709  -1.4755   0.0000   0.0000   0.0000   0.0262
  -5.400  -0.3335   0.01328   0.00734  -0.0724  0.8637  0.3820  -1.4392   0.0000   0.0000   0.0000   0.0202
  -5.300  -0.3227   0.01322   0.00726  -0.0724  0.8626  0.3904  -1.4017   0.0000   0.0000   0.0000   0.0128
  -5.200  -0.3127   0.01311   0.00719  -0.0723  0.8615  0.4021  -1.3660   0.0000   0.0000   0.0000   0.0059
  -5.100  -0.3030   0.01299   0.00713  -0.0721  0.8603  0.4143  -1.3309   0.0000   0.0000   0.0000  -0.0010
  -5.000  -0.2926   0.01290   0.00707  -0.0720  0.8592  0.4251  -1.2949   0.0000   0.0000   0.0000  -0.0094
  -4.900  -0.2816   0.01284   0.00701  -0.0721  0.8582  0.4346  -1.2583   0.0000   0.0000   0.0000  -0.0192
  -4.800  -0.2703   0.01282   0.00696  -0.0722  0.8571  0.4420  -1.2213   0.0000   0.0000   0.0000  -0.0305
  -4.700  -0.2604   0.01273   0.00693  -0.0720  0.8559  0.4556  -1.1869   0.0000   0.0000   0.0000  -0.0403
  -4.600  -0.2507   0.01269   0.00696  -0.0718  0.8545  0.4685  -1.1530   0.0000   0.0000   0.0000  -0.0504
  -4.500  -0.2413   0.01275   0.00704  -0.0716  0.8527  0.4800  -1.1199   0.0000   0.0000   0.0000  -0.0607
  -4.400  -0.2329   0.01285   0.00714  -0.0712  0.8510  0.4891  -1.0947   0.0000   0.0000   0.0000  -0.0698
  -4.300  -0.2241   0.01280   0.00711  -0.0708  0.8500  0.4983  -1.0701   0.0000   0.0000   0.0000  -0.0804
  -4.200  -0.2162   0.01273   0.00711  -0.0703  0.8489  0.5104  -1.0467   0.0000   0.0000   0.0000  -0.0896
  -4.100  -0.2080   0.01269   0.00712  -0.0698  0.8475  0.5209  -1.0231   0.0000   0.0000   0.0000  -0.1002
  -4.000  -0.1995   0.01267   0.00713  -0.0694  0.8461  0.5305  -0.9993   0.0000   0.0000   0.0000  -0.1126
  -3.900  -0.1906   0.01267   0.00713  -0.0690  0.8445  0.5392  -0.9751   0.0000   0.0000   0.0000  -0.1271
  -3.800  -0.1817   0.01267   0.00713  -0.0687  0.8429  0.5475  -0.9509   0.0000   0.0000   0.0000  -0.1434
  -3.700  -0.1732   0.01263   0.00717  -0.0682  0.8411  0.5593  -0.9275   0.0000   0.0000   0.0000  -0.1593
  -3.600  -0.1644   0.01261   0.00720  -0.0678  0.8393  0.5702  -0.9075   0.0000   0.0000   0.0000  -0.1782
  -3.500  -0.1549   0.01260   0.00721  -0.0675  0.8374  0.5802  -0.8875   0.0000   0.0000   0.0000  -0.2020
  -3.400  -0.1448   0.01260   0.00720  -0.0673  0.8357  0.5885  -0.8672   0.0000   0.0000   0.0000  -0.2315
  -3.300  -0.1343   0.01259   0.00716  -0.0672  0.8340  0.5945  -0.8465   0.0000   0.0000   0.0000  -0.2679
  -3.200  -0.1239   0.01255   0.00714  -0.0670  0.8324  0.6028  -0.8261   0.0000   0.0000   0.0000  -0.3091
  -3.100  -0.1135   0.01251   0.00715  -0.0668  0.8310  0.6109  -0.8056   0.0000   0.0000   0.0000  -0.3586
  -3.000  -0.1027   0.01249   0.00716  -0.0667  0.8296  0.6187  -0.7849   0.0000   0.0000   0.0000  -0.4205
  -2.900  -0.0917   0.01249   0.00717  -0.0667  0.8283  0.6266  -0.7640   0.0000   0.0000   0.0000  -0.4996
  -2.800  -0.0804   0.01249   0.00717  -0.0667  0.8272  0.6341  -0.7430   0.0000   0.0000   0.0000  -0.6041
  -2.700  -0.0689   0.01249   0.00715  -0.0668  0.8260  0.6404  -0.7252   0.0000   0.0000   0.0000  -0.7472
  -2.600  -0.0571   0.01251   0.00713  -0.0669  0.8249  0.6450  -0.7077   0.0000   0.0000   0.0000  -0.9526
  -2.500  -0.0455   0.01246   0.00707  -0.0670  0.8239  0.6522  -0.6903   0.0000   0.0000   0.0000  -1.2594
  -2.400  -0.0339   0.01244   0.00708  -0.0670  0.8228  0.6588  -0.6730   0.0000   0.0000   0.0000  -1.7741
  -2.300  -0.0222   0.01243   0.00709  -0.0671  0.8218  0.6644  -0.6556   0.0000   0.0000   0.0000  -2.8476
  -2.200  -0.0103   0.01244   0.00711  -0.0672  0.8208  0.6701  -0.6382   0.0000   0.0000   0.0000  -6.4059
  -2.100   0.0016   0.01246   0.00713  -0.0673  0.8197  0.6760  -0.6209   0.0000   0.0000   0.0000  44.4945
  -2.000   0.0134   0.01249   0.00715  -0.0674  0.8186  0.6816  -0.6037   0.0000   0.0000   0.0000   5.3799
  -1.900   0.0251   0.01255   0.00719  -0.0675  0.8174  0.6867  -0.5894   0.0000   0.0000   0.0000   2.9875
  -1.800   0.0365   0.01264   0.00725  -0.0676  0.8160  0.6910  -0.5753   0.0000   0.0000   0.0000   2.1338
  -1.700   0.0468   0.01284   0.00743  -0.0675  0.8140  0.6943  -0.5621   0.0000   0.0000   0.0000   1.7170
  -1.600   0.0555   0.01296   0.00757  -0.0671  0.8122  0.6992  -0.5500   0.0000   0.0000   0.0000   1.4782
  -1.500   0.0650   0.01295   0.00758  -0.0668  0.8113  0.7044  -0.5374   0.0000   0.0000   0.0000   1.2934
  -1.400   0.0743   0.01296   0.00762  -0.0665  0.8102  0.7088  -0.5250   0.0000   0.0000   0.0000   1.1574
  -1.300   0.0834   0.01300   0.00768  -0.0661  0.8090  0.7131  -0.5127   0.0000   0.0000   0.0000   1.0527
  -1.200   0.0924   0.01305   0.00776  -0.0657  0.8076  0.7175  -0.5136   0.0000   0.0000   0.0000   0.9691
  -1.100   0.1014   0.01311   0.00783  -0.0653  0.8060  0.7219  -0.5166   0.0000   0.0000   0.0000   0.9005
  -1.000   0.1105   0.01317   0.00790  -0.0649  0.8044  0.7263  -0.5196   0.0000   0.0000   0.0000   0.8430
  -0.900   0.1196   0.01324   0.00797  -0.0645  0.8027  0.7305  -0.5226   0.0000   0.0000   0.0000   0.7943
  -0.800   0.1288   0.01330   0.00803  -0.0642  0.8009  0.7344  -0.5256   0.0000   0.0000   0.0000   0.7524
  -0.700   0.1383   0.01336   0.00808  -0.0640  0.7992  0.7378  -0.5288   0.0000   0.0000   0.0000   0.7155
  -0.600   0.1481   0.01341   0.00813  -0.0638  0.7976  0.7406  -0.5322   0.0000   0.0000   0.0000   0.6830
  -0.500   0.1582   0.01346   0.00816  -0.0636  0.7959  0.7428  -0.5364   0.0000   0.0000   0.0000   0.6541
  -0.400   0.1682   0.01344   0.00816  -0.0634  0.7944  0.7475  -0.5407   0.0000   0.0000   0.0000   0.6285
  -0.300   0.1782   0.01346   0.00821  -0.0632  0.7930  0.7516  -0.5451   0.0000   0.0000   0.0000   0.6054
  -0.200   0.1884   0.01349   0.00826  -0.0629  0.7916  0.7553  -0.5496   0.0000   0.0000   0.0000   0.5845
  -0.100   0.1990   0.01351   0.00830  -0.0627  0.7902  0.7589  -0.5544   0.0000   0.0000   0.0000   0.5653
   0.000   0.2100   0.01353   0.00833  -0.0626  0.7888  0.7623  -0.5594   0.0000   0.0000   0.0000   0.5478
   0.100   0.2216   0.01353   0.00834  -0.0626  0.7875  0.7656  -0.5648   0.0000   0.0000   0.0000   0.5319
   0.200   0.2335   0.01352   0.00833  -0.0627  0.7863  0.7689  -0.5706   0.0000   0.0000   0.0000   0.5175
   0.300   0.2457   0.01350   0.00831  -0.0628  0.7851  0.7719  -0.5769   0.0000   0.0000   0.0000   0.5045
   0.400   0.2579   0.01349   0.00829  -0.0630  0.7839  0.7749  -0.5832   0.0000   0.0000   0.0000   0.4928
   0.500   0.2702   0.01348   0.00829  -0.0632  0.7828  0.7781  -0.5895   0.0000   0.0000   0.0000   0.4821
   0.600   0.2824   0.01349   0.00829  -0.0634  0.7818  0.7811  -0.5957   0.0000   0.0000   0.0000   0.4725
   0.700   0.2949   0.01350   0.00829  -0.0636  0.7807  0.7839  -0.6026   0.0000   0.0000   0.0000   0.4636
   0.800   0.3076   0.01351   0.00829  -0.0639  0.7796  0.7863  -0.6098   0.0000   0.0000   0.0000   0.4554
   0.900   0.3204   0.01352   0.00829  -0.0642  0.7784  0.7882  -0.6179   0.0000   0.0000   0.0000   0.4479
   1.000   0.3325   0.01346   0.00824  -0.0644  0.7770  0.7919  -0.6257   0.0000   0.0000   0.0000   0.4409
   1.100   0.3442   0.01348   0.00827  -0.0644  0.7754  0.7948  -0.6333   0.0000   0.0000   0.0000   0.4343
   1.200   0.3542   0.01368   0.00848  -0.0642  0.7727  0.7974  -0.6406   0.0000   0.0000   0.0000   0.4283
   1.300   0.3624   0.01379   0.00861  -0.0636  0.7709  0.8000  -0.6471   0.0000   0.0000   0.0000   0.4224
   1.400   0.3712   0.01378   0.00864  -0.0631  0.7697  0.8028  -0.6550   0.0000   0.0000   0.0000   0.4168
   1.500   0.3798   0.01378   0.00866  -0.0626  0.7683  0.8057  -0.6628   0.0000   0.0000   0.0000   0.4113
   1.600   0.3883   0.01379   0.00869  -0.0620  0.7665  0.8087  -0.6706   0.0000   0.0000   0.0000   0.4061
   1.700   0.3965   0.01379   0.00872  -0.0614  0.7643  0.8118  -0.6785   0.0000   0.0000   0.0000   0.4012
   1.800   0.4049   0.01380   0.00874  -0.0609  0.7621  0.8149  -0.6874   0.0000   0.0000   0.0000   0.3964
   1.900   0.4139   0.01380   0.00876  -0.0604  0.7599  0.8179  -0.6966   0.0000   0.0000   0.0000   0.3920
   2.000   0.4236   0.01379   0.00877  -0.0601  0.7576  0.8207  -0.7067   0.0000   0.0000   0.0000   0.3879
   2.100   0.4340   0.01375   0.00875  -0.0600  0.7555  0.8233  -0.7183   0.0000   0.0000   0.0000   0.3840
   2.200   0.4451   0.01371   0.00871  -0.0599  0.7534  0.8257  -0.7304   0.0000   0.0000   0.0000   0.3803
   2.300   0.4567   0.01366   0.00866  -0.0600  0.7514  0.8280  -0.7429   0.0000   0.0000   0.0000   0.3769
   2.400   0.4690   0.01359   0.00859  -0.0601  0.7495  0.8300  -0.7563   0.0000   0.0000   0.0000   0.3737
   2.500   0.4816   0.01351   0.00851  -0.0603  0.7476  0.8320  -0.7715   0.0000   0.0000   0.0000   0.3707
   2.600   0.4932   0.01335   0.00836  -0.0603  0.7458  0.8355  -0.7861   0.0000   0.0000   0.0000   0.3676
   2.700   0.5053   0.01322   0.00825  -0.0603  0.7441  0.8381  -0.8011   0.0000   0.0000   0.0000   0.3646
   2.800   0.5177   0.01311   0.00815  -0.0604  0.7423  0.8405  -0.8181   0.0000   0.0000   0.0000   0.3618
   2.900   0.5302   0.01301   0.00805  -0.0605  0.7406  0.8426  -0.8360   0.0000   0.0000   0.0000   0.3591
   3.000   0.5428   0.01291   0.00797  -0.0606  0.7388  0.8447  -0.8542   0.0000   0.0000   0.0000   0.3566
   3.100   0.5554   0.01282   0.00787  -0.0608  0.7369  0.8470  -0.8724   0.0000   0.0000   0.0000   0.3542
   3.200   0.5681   0.01275   0.00781  -0.0609  0.7347  0.8494  -0.8927   0.0000   0.0000   0.0000   0.3519
   3.300   0.5810   0.01274   0.00779  -0.0611  0.7321  0.8520  -0.9146   0.0000   0.0000   0.0000   0.3498
   3.400   0.5928   0.01284   0.00790  -0.0612  0.7289  0.8546  -0.9356   0.0000   0.0000   0.0000   0.3478
   3.500   0.6005   0.01281   0.00790  -0.0605  0.7273  0.8578  -0.9535   0.0000   0.0000   0.0000   0.3452
   3.600   0.6082   0.01278   0.00790  -0.0598  0.7254  0.8610  -0.9744   0.0000   0.0000   0.0000   0.3427
   3.700   0.6163   0.01275   0.00790  -0.0592  0.7231  0.8639  -0.9959   0.0000   0.0000   0.0000   0.3403
   3.800   0.6249   0.01273   0.00789  -0.0587  0.7205  0.8665  -1.0181   0.0000   0.0000   0.0000   0.3381
   3.900   0.6343   0.01269   0.00787  -0.0584  0.7176  0.8687  -1.0413   0.0000   0.0000   0.0000   0.3361
   4.000   0.6445   0.01263   0.00783  -0.0582  0.7146  0.8706  -1.0655   0.0000   0.0000   0.0000   0.3342
   4.100   0.6548   0.01252   0.00773  -0.0580  0.7114  0.8730  -1.0901   0.0000   0.0000   0.0000   0.3323
   4.200   0.6644   0.01237   0.00760  -0.0575  0.7083  0.8762  -1.1142   0.0000   0.0000   0.0000   0.3303
   4.300   0.6743   0.01225   0.00758  -0.0571  0.7052  0.8789  -1.1387   0.0000   0.0000   0.0000   0.3283
   4.400   0.6844   0.01213   0.00747  -0.0567  0.7020  0.8816  -1.1637   0.0000   0.0000   0.0000   0.3263
   4.500   0.6951   0.01202   0.00737  -0.0564  0.6989  0.8843  -1.1896   0.0000   0.0000   0.0000   0.3245
   4.600   0.7071   0.01191   0.00726  -0.0563  0.6956  0.8868  -1.2235   0.0000   0.0000   0.0000   0.3230
   4.700   0.7197   0.01182   0.00716  -0.0565  0.6921  0.8892  -1.2589   0.0000   0.0000   0.0000   0.3217
   4.800   0.7335   0.01176   0.00708  -0.0569  0.6875  0.8914  -1.2963   0.0000   0.0000   0.0000   0.3207
   4.900   0.7433   0.01175   0.00708  -0.0565  0.6834  0.8942  -1.3277   0.0000   0.0000   0.0000   0.3191
   5.000   0.7486   0.01172   0.00709  -0.0554  0.6800  0.8976  -1.3591   0.0000   0.0000   0.0000   0.3169
   5.100   0.7546   0.01169   0.00709  -0.0543  0.6757  0.9011  -1.3933   0.0000   0.0000   0.0000   0.3148
   5.200   0.7614   0.01165   0.00709  -0.0534  0.6708  0.9044  -1.4296   0.0000   0.0000   0.0000   0.3129
   5.300   0.7693   0.01162   0.00706  -0.0527  0.6654  0.9071  -1.4683   0.0000   0.0000   0.0000   0.3112
   5.400   0.7782   0.01150   0.00695  -0.0522  0.6596  0.9102  -1.5093   0.0000   0.0000   0.0000   0.3095
   5.500   0.7875   0.01139   0.00682  -0.0516  0.6536  0.9133  -1.5516   0.0000   0.0000   0.0000   0.3079
   5.600   0.7976   0.01131   0.00672  -0.0512  0.6476  0.9160  -1.5960   0.0000   0.0000   0.0000   0.3065
   5.700   0.8089   0.01129   0.00666  -0.0511  0.6413  0.9184  -1.6428   0.0000   0.0000   0.0000   0.3054
   5.800   0.8158   0.01129   0.00669  -0.0502  0.6367  0.9216  -1.6808   0.0000   0.0000   0.0000   0.3037
   5.900   0.8202   0.01129   0.00674  -0.0489  0.6323  0.9255  -1.7138   0.0000   0.0000   0.0000   0.3016
   6.000   0.8253   0.01128   0.00677  -0.0477  0.6266  0.9295  -1.7483   0.0000   0.0000   0.0000   0.2997
   6.100   0.8311   0.01128   0.00678  -0.0466  0.6195  0.9332  -1.7847   0.0000   0.0000   0.0000   0.2979
   6.200   0.8379   0.01126   0.00675  -0.0458  0.6109  0.9366  -1.8237   0.0000   0.0000   0.0000   0.2962
   6.400   0.8535   0.01124   0.00662  -0.0443  0.5904  0.9428  -1.9066   0.0000   0.0000   0.0000   0.2933
   6.500   0.8575   0.01123   0.00666  -0.0429  0.5816  0.9471  -1.9397   0.0000   0.0000   0.0000   0.2913
   6.600   0.8613   0.01124   0.00666  -0.0414  0.5685  0.9517  -1.9730   0.0000   0.0000   0.0000   0.2892
   6.700   0.8656   0.01129   0.00662  -0.0400  0.5522  0.9564  -2.0077   0.0000   0.0000   0.0000   0.2873
   6.800   0.8696   0.01137   0.00664  -0.0387  0.5377  0.9614  -2.0416   0.0000   0.0000   0.0000   0.2854
   6.900   0.8739   0.01147   0.00670  -0.0375  0.5189  0.9662  -2.0786   0.0000   0.0000   0.0000   0.2837
   7.000   0.8801   0.01172   0.00679  -0.0368  0.4949  0.9703  -2.1320   0.0000   0.0000   0.0000   0.2824
   7.100   0.8878   0.01196   0.00696  -0.0364  0.4712  0.9744  -2.1903   0.0000   0.0000   0.0000   0.2816
   7.200   0.8919   0.01233   0.00717  -0.0356  0.4473  0.9798  -2.2379   0.0000   0.0000   0.0000   0.2803
   7.300   0.8989   0.01263   0.00739  -0.0352  0.4246  0.9846  -2.2945   0.0000   0.0000   0.0000   0.2795
   7.400   0.9055   0.01313   0.00772  -0.0352  0.3979  0.9889  -2.3499   0.0000   0.0000   0.0000   0.2789
   7.500   0.9134   0.01351   0.00800  -0.0352  0.3739  0.9943  -2.4095   0.0000   0.0000   0.0000   0.2785
   7.600   0.9120   0.01390   0.00827  -0.0336  0.3553  1.0000  -2.4401   0.0000   0.0000   0.0000   0.2767
   7.700   0.9119   0.01410   0.00842  -0.0320  0.3416  1.0000  -2.4749   0.0000   0.0000   0.0000   0.2748
   7.800   0.9118   0.01443   0.00867  -0.0305  0.3253  1.0000  -2.5099   0.0000   0.0000   0.0000   0.2730
   7.900   0.9107   0.01488   0.00900  -0.0290  0.3083  1.0000  -2.5418   0.0000   0.0000   0.0000   0.2712
   8.000   0.9154   0.01518   0.00924  -0.0284  0.2932  1.0000  -2.5925   0.0000   0.0000   0.0000   0.2702
   8.100   0.9178   0.01559   0.00956  -0.0274  0.2773  1.0000  -2.6360   0.0000   0.0000   0.0000   0.2690
   8.200   0.9191   0.01606   0.00993  -0.0263  0.2620  1.0000  -2.6758   0.0000   0.0000   0.0000   0.2676
   8.300   0.9250   0.01635   0.01019  -0.0259  0.2502  1.0000  -2.7314   0.0000   0.0000   0.0000   0.2668
   8.400   0.9285   0.01675   0.01063  -0.0251  0.2364  1.0000  -2.7792   0.0000   0.0000   0.0000   0.2657
   8.500   0.9303   0.01725   0.01102  -0.0242  0.2219  1.0000  -2.8281   0.0000   0.0000   0.0000   0.2645
   8.600   0.9364   0.01755   0.01130  -0.0237  0.2110  1.0000  -2.8994   0.0000   0.0000   0.0000   0.2637
   8.700   0.9406   0.01796   0.01163  -0.0231  0.1984  1.0000  -2.9633   0.0000   0.0000   0.0000   0.2628
   8.800   0.9425   0.01848   0.01205  -0.0222  0.1852  1.0000  -3.0171   0.0000   0.0000   0.0000   0.2616
   8.900   0.9477   0.01884   0.01238  -0.0217  0.1751  1.0000  -3.0858   0.0000   0.0000   0.0000   0.2608
   9.000   0.9523   0.01923   0.01272  -0.0211  0.1646  1.0000  -3.1530   0.0000   0.0000   0.0000   0.2599
   9.100   0.9552   0.01973   0.01311  -0.0203  0.1532  1.0000  -3.2126   0.0000   0.0000   0.0000   0.2589
   9.200   0.9595   0.02015   0.01350  -0.0197  0.1427  1.0000  -3.2780   0.0000   0.0000   0.0000   0.2581
   9.300   0.9653   0.02049   0.01381  -0.0193  0.1352  1.0000  -3.3518   0.0000   0.0000   0.0000   0.2573
   9.400   0.9696   0.02092   0.01417  -0.0187  0.1267  1.0000  -3.4192   0.0000   0.0000   0.0000   0.2565
   9.500   0.9729   0.02141   0.01458  -0.0180  0.1172  1.0000  -3.4814   0.0000   0.0000   0.0000   0.2556
   9.600   0.9778   0.02180   0.01495  -0.0175  0.1101  1.0000  -3.5513   0.0000   0.0000   0.0000   0.2548
   9.700   0.9840   0.02211   0.01527  -0.0171  0.1056  1.0000  -3.6286   0.0000   0.0000   0.0000   0.2541
   9.800   0.9887   0.02251   0.01565  -0.0165  0.1005  1.0000  -3.6991   0.0000   0.0000   0.0000   0.2533
   9.900   0.9925   0.02297   0.01605  -0.0159  0.0950  1.0000  -3.7656   0.0000   0.0000   0.0000   0.2525
  10.000   0.9955   0.02350   0.01652  -0.0152  0.0883  1.0000  -3.8271   0.0000   0.0000   0.0000   0.2516
  10.100   0.9982   0.02405   0.01705  -0.0144  0.0822  1.0000  -3.8849   0.0000   0.0000   0.0000   0.2506
  10.200   1.0056   0.02430   0.01734  -0.0142  0.0800  1.0000  -3.9705   0.0000   0.0000   0.0000   0.2501
  10.300   1.0119   0.02462   0.01769  -0.0138  0.0768  1.0000  -4.0506   0.0000   0.0000   0.0000   0.2495
  10.400   1.0170   0.02503   0.01808  -0.0133  0.0731  1.0000  -4.1249   0.0000   0.0000   0.0000   0.2488
  10.500   1.0210   0.02551   0.01852  -0.0128  0.0691  1.0000  -4.1938   0.0000   0.0000   0.0000   0.2481
  10.600   1.0237   0.02610   0.01905  -0.0121  0.0642  1.0000  -4.2537   0.0000   0.0000   0.0000   0.2472
  10.700   1.0216   0.02704   0.01999  -0.0108  0.0578  1.0000  -4.2787   0.0000   0.0000   0.0000   0.2458
  10.800   1.0282   0.02735   0.02032  -0.0105  0.0565  1.0000  -4.3620   0.0000   0.0000   0.0000   0.2453
  10.900   1.0347   0.02767   0.02067  -0.0102  0.0550  1.0000  -4.4451   0.0000   0.0000   0.0000   0.2448
  11.000   1.0401   0.02806   0.02110  -0.0098  0.0531  1.0000  -4.5215   0.0000   0.0000   0.0000   0.2442
  11.100   1.0448   0.02851   0.02156  -0.0094  0.0509  1.0000  -4.5946   0.0000   0.0000   0.0000   0.2436
  11.200   1.0491   0.02899   0.02206  -0.0089  0.0488  1.0000  -4.6654   0.0000   0.0000   0.0000   0.2429
  11.300   1.0531   0.02951   0.02256  -0.0084  0.0469  1.0000  -4.7344   0.0000   0.0000   0.0000   0.2423
  11.400   1.0566   0.03006   0.02310  -0.0078  0.0449  1.0000  -4.8006   0.0000   0.0000   0.0000   0.2415
  11.500   1.0593   0.03068   0.02372  -0.0072  0.0430  1.0000  -4.8600   0.0000   0.0000   0.0000   0.2408
  11.600   1.0606   0.03142   0.02447  -0.0064  0.0409  1.0000  -4.9080   0.0000   0.0000   0.0000   0.2399
  11.700   1.0604   0.03230   0.02540  -0.0055  0.0389  1.0000  -4.9424   0.0000   0.0000   0.0000   0.2388
  11.800   1.0586   0.03334   0.02652  -0.0043  0.0371  1.0000  -4.9603   0.0000   0.0000   0.0000   0.2376
  11.900   1.0626   0.03389   0.02710  -0.0038  0.0364  1.0000  -5.0260   0.0000   0.0000   0.0000   0.2369
  12.000   1.0689   0.03423   0.02747  -0.0036  0.0360  1.0000  -5.1123   0.0000   0.0000   0.0000   0.2365
  12.100   1.0749   0.03459   0.02786  -0.0034  0.0355  1.0000  -5.1969   0.0000   0.0000   0.0000   0.2361
  12.200   1.0804   0.03500   0.02830  -0.0031  0.0349  1.0000  -5.2772   0.0000   0.0000   0.0000   0.2357
  12.300   1.0852   0.03548   0.02881  -0.0028  0.0341  1.0000  -5.3523   0.0000   0.0000   0.0000   0.2352
  12.400   1.0895   0.03601   0.02938  -0.0024  0.0331  1.0000  -5.4225   0.0000   0.0000   0.0000   0.2347
  12.500   1.0934   0.03658   0.02998  -0.0020  0.0319  1.0000  -5.4888   0.0000   0.0000   0.0000   0.2341
  12.600   1.0970   0.03719   0.03062  -0.0016  0.0308  1.0000  -5.5523   0.0000   0.0000   0.0000   0.2336
  12.700   1.1005   0.03782   0.03128  -0.0012  0.0298  1.0000  -5.6137   0.0000   0.0000   0.0000   0.2330
  12.800   1.1038   0.03848   0.03197  -0.0008  0.0288  1.0000  -5.6740   0.0000   0.0000   0.0000   0.2325
  12.900   1.1069   0.03917   0.03269  -0.0003  0.0280  1.0000  -5.7334   0.0000   0.0000   0.0000   0.2319
  13.000   1.1100   0.03987   0.03342   0.0001  0.0273  1.0000  -5.7918   0.0000   0.0000   0.0000   0.2314
  13.100   1.1129   0.04060   0.03427   0.0005  0.0267  1.0000  -5.8497   0.0000   0.0000   0.0000   0.2308
  13.200   1.1156   0.04135   0.03505   0.0009  0.0261  1.0000  -5.9064   0.0000   0.0000   0.0000   0.2303
  13.300   1.1181   0.04213   0.03587   0.0013  0.0255  1.0000  -5.9617   0.0000   0.0000   0.0000   0.2297
  13.400   1.1204   0.04294   0.03672   0.0018  0.0250  1.0000  -6.0153   0.0000   0.0000   0.0000   0.2292
  13.500   1.1224   0.04379   0.03761   0.0022  0.0244  1.0000  -6.0660   0.0000   0.0000   0.0000   0.2286
  13.600   1.1239   0.04471   0.03857   0.0027  0.0238  1.0000  -6.1117   0.0000   0.0000   0.0000   0.2280
  13.700   1.1249   0.04570   0.03962   0.0032  0.0232  1.0000  -6.1512   0.0000   0.0000   0.0000   0.2274
  13.800   1.1256   0.04678   0.04077   0.0037  0.0226  1.0000  -6.1837   0.0000   0.0000   0.0000   0.2267
  13.900   1.1262   0.04795   0.04203   0.0043  0.0220  1.0000  -6.2103   0.0000   0.0000   0.0000   0.2261
  14.000   1.1266   0.04920   0.04338   0.0048  0.0216  1.0000  -6.2399   0.0000   0.0000   0.0000   0.2254
  14.100   1.1270   0.05050   0.04479   0.0054  0.0213  1.0000  -6.2672   0.0000   0.0000   0.0000   0.2248
  14.200   1.1264   0.05195   0.04636   0.0059  0.0210  1.0000  -6.2854   0.0000   0.0000   0.0000   0.2241
  14.300   1.1245   0.05357   0.04812   0.0065  0.0208  1.0000  -6.2924   0.0000   0.0000   0.0000   0.2235
  14.400   1.1211   0.05537   0.05006   0.0070  0.0206  1.0000  -6.2876   0.0000   0.0000   0.0000   0.2228
  14.500   1.1161   0.05729   0.05212   0.0074  0.0204  1.0000  -6.2721   0.0000   0.0000   0.0000   0.2222
  14.600   1.1146   0.05856   0.05345   0.0077  0.0203  1.0000  -6.3033   0.0000   0.0000   0.0000   0.2218
  14.700   1.1160   0.05938   0.05431   0.0077  0.0202  1.0000  -6.3686   0.0000   0.0000   0.0000   0.2215
  14.800   1.1175   0.06021   0.05518   0.0078  0.0201  1.0000  -6.4343   0.0000   0.0000   0.0000   0.2213
  14.900   1.1187   0.06108   0.05610   0.0078  0.0200  1.0000  -6.4988   0.0000   0.0000   0.0000   0.2211
  15.000   1.1190   0.06208   0.05715   0.0078  0.0199  1.0000  -6.5556   0.0000   0.0000   0.0000   0.2209
  15.100   1.1191   0.06312   0.05824   0.0078  0.0198  1.0000  -6.6110   0.0000   0.0000   0.0000   0.2207
  15.200   1.1196   0.06415   0.05931   0.0077  0.0197  1.0000  -6.6690   0.0000   0.0000   0.0000   0.2205
  15.300   1.1203   0.06518   0.06039   0.0076  0.0196  1.0000  -6.7284   0.0000   0.0000   0.0000   0.2204
  15.400   1.1210   0.06623   0.06149   0.0075  0.0195  1.0000  -6.7872   0.0000   0.0000   0.0000   0.2203
  15.500   1.1216   0.06733   0.06264   0.0074  0.0193  1.0000  -6.8439   0.0000   0.0000   0.0000   0.2202
  15.600   1.1218   0.06848   0.06384   0.0072  0.0192  1.0000  -6.8974   0.0000   0.0000   0.0000   0.2201
  15.700   1.1208   0.06980   0.06522   0.0070  0.0190  1.0000  -6.9403   0.0000   0.0000   0.0000   0.2201
  15.800   1.1191   0.07124   0.06672   0.0067  0.0189  1.0000  -6.9766   0.0000   0.0000   0.0000   0.2201
  15.900   1.1176   0.07269   0.06822   0.0064  0.0188  1.0000  -7.0138   0.0000   0.0000   0.0000   0.2202
  16.000   1.1163   0.07415   0.06974   0.0061  0.0186  1.0000  -7.0500   0.0000   0.0000   0.0000   0.2202
  16.100   1.1147   0.07566   0.07131   0.0057  0.0184  1.0000  -7.0830   0.0000   0.0000   0.0000   0.2203
  16.200   1.1126   0.07725   0.07297   0.0053  0.0183  1.0000  -7.1110   0.0000   0.0000   0.0000   0.2204
  16.300   1.1096   0.07901   0.07480   0.0048  0.0182  1.0000  -7.1292   0.0000   0.0000   0.0000   0.2206
  16.400   1.1052   0.08101   0.07686   0.0042  0.0181  1.0000  -7.1341   0.0000   0.0000   0.0000   0.2210
  16.500   1.1010   0.08299   0.07892   0.0035  0.0180  1.0000  -7.1390   0.0000   0.0000   0.0000   0.2213
  16.600   1.0968   0.08501   0.08102   0.0028  0.0179  1.0000  -7.1413   0.0000   0.0000   0.0000   0.2217
  16.700   1.0922   0.08712   0.08319   0.0020  0.0178  1.0000  -7.1381   0.0000   0.0000   0.0000   0.2222
  16.800   1.0864   0.08947   0.08563   0.0011  0.0177  1.0000  -7.1226   0.0000   0.0000   0.0000   0.2228
  16.900   1.0798   0.09198   0.08821  -0.0001  0.0177  1.0000  -7.0991   0.0000   0.0000   0.0000   0.2236
  17.000   1.0736   0.09445   0.09076  -0.0012  0.0176  1.0000  -7.0768   0.0000   0.0000   0.0000   0.2244
  17.100   1.0673   0.09699   0.09337  -0.0024  0.0175  1.0000  -7.0503   0.0000   0.0000   0.0000   0.2253
  17.200   1.0590   0.09993   0.09640  -0.0039  0.0175  1.0000  -7.0043   0.0000   0.0000   0.0000   0.2265
  17.300   1.0511   0.10288   0.09942  -0.0055  0.0175  1.0000  -6.9578   0.0000   0.0000   0.0000   0.2278
  17.400   1.0431   0.10585   0.10247  -0.0072  0.0175  1.0000  -6.9080   0.0000   0.0000   0.0000   0.2292
  17.500   1.0329   0.10935   0.10606  -0.0093  0.0175  1.0000  -6.8325   0.0000   0.0000   0.0000   0.2311
  17.600   1.0232   0.11285   0.10964  -0.0114  0.0176  1.0000  -6.7558   0.0000   0.0000   0.0000   0.2330
  17.700   1.0119   0.11672   0.11359  -0.0138  0.0176  1.0000  -6.6587   0.0000   0.0000   0.0000   0.2353
  17.800   0.9990   0.12107   0.11802  -0.0166  0.0177  1.0000  -6.5366   0.0000   0.0000   0.0000   0.2380
  17.900   0.9840   0.12595   0.12300  -0.0198  0.0179  1.0000  -6.3817   0.0000   0.0000   0.0000   0.2413
  18.000   0.9663   0.13143   0.12857  -0.0235  0.0181  1.0000  -6.1795   0.0000   0.0000   0.0000   0.2454
  18.200   0.8411   0.16900   0.16631  -0.0444  0.0207  1.0000  -4.2080   0.0000   0.0000   0.0000   0.2749
  18.300   0.8346   0.17362   0.17093  -0.0465  0.0208  1.0000  -4.0544   0.0000   0.0000   0.0000   0.2778
  18.400   0.8283   0.17824   0.17554  -0.0486  0.0208  1.0000  -3.8990   0.0000   0.0000   0.0000   0.2807
  18.500   0.8225   0.18277   0.18007  -0.0505  0.0207  1.0000  -3.7486   0.0000   0.0000   0.0000   0.2835
  18.600   0.8169   0.18730   0.18459  -0.0524  0.0206  1.0000  -3.5998   0.0000   0.0000   0.0000   0.2862
  18.700   0.8116   0.19184   0.18912  -0.0542  0.0205  1.0000  -3.4523   0.0000   0.0000   0.0000   0.2889
  18.800   0.8071   0.19625   0.19351  -0.0560  0.0204  1.0000  -3.3140   0.0000   0.0000   0.0000   0.2913
  18.900   0.8041   0.20015   0.19741  -0.0575  0.0204  1.0000  -3.2045   0.0000   0.0000   0.0000   0.2934
  19.000   0.8033   0.20325   0.20050  -0.0587  0.0203  1.0000  -3.1382   0.0000   0.0000   0.0000   0.2949
  19.100   0.8032   0.20611   0.20336  -0.0598  0.0203  1.0000  -3.0845   0.0000   0.0000   0.0000   0.2962
  19.200   0.8035   0.20884   0.20609  -0.0609  0.0204  1.0000  -3.0384   0.0000   0.0000   0.0000   0.2974
  19.300   0.8042   0.21144   0.20868  -0.0619  0.0204  1.0000  -2.9997   0.0000   0.0000   0.0000   0.2985
  19.400   0.8052   0.21390   0.21115  -0.0629  0.0204  1.0000  -2.9678   0.0000   0.0000   0.0000   0.2995
  19.500   0.8066   0.21626   0.21350  -0.0639  0.0204  1.0000  -2.9416   0.0000   0.0000   0.0000   0.3004
  19.600   0.8081   0.21852   0.21576  -0.0648  0.0204  1.0000  -2.9203   0.0000   0.0000   0.0000   0.3013
  19.700   0.8099   0.22070   0.21794  -0.0656  0.0205  1.0000  -2.9031   0.0000   0.0000   0.0000   0.3020
  19.800   0.8118   0.22282   0.22006  -0.0665  0.0205  1.0000  -2.8891   0.0000   0.0000   0.0000   0.3028
  19.900   0.8138   0.22490   0.22214  -0.0674  0.0206  1.0000  -2.8770   0.0000   0.0000   0.0000   0.3035
  20.000   0.8159   0.22696   0.22421  -0.0682  0.0206  1.0000  -2.8661   0.0000   0.0000   0.0000   0.3041
  20.100   0.8157   0.22955   0.22675  -0.0703  0.0193  1.0000  -2.8210   0.0000   0.0000   0.0000   0.3067
  20.800   0.8247   0.24772   0.24495  -0.0757  0.0205  1.0000  -2.6107   0.0000   0.0000   0.0000   0.3113
  20.900   0.8215   0.25289   0.25008  -0.0771  0.0203  1.0000  -2.4786   0.0000   0.0000   0.0000   0.3134
  21.000   0.8231   0.25527   0.25246  -0.0780  0.0203  1.0000  -2.4592   0.0000   0.0000   0.0000   0.3141
  21.100   0.8247   0.25764   0.25484  -0.0789  0.0203  1.0000  -2.4404   0.0000   0.0000   0.0000   0.3149
  21.200   0.8263   0.26001   0.25721  -0.0797  0.0203  1.0000  -2.4221   0.0000   0.0000   0.0000   0.3156
  21.300   0.8279   0.26238   0.25957  -0.0806  0.0203  1.0000  -2.4044   0.0000   0.0000   0.0000   0.3163
  21.400   0.8295   0.26473   0.26192  -0.0815  0.0203  1.0000  -2.3870   0.0000   0.0000   0.0000   0.3170
  21.500   0.8311   0.26707   0.26427  -0.0823  0.0203  1.0000  -2.3701   0.0000   0.0000   0.0000   0.3177
  21.600   0.8327   0.26941   0.26667  -0.0832  0.0202  1.0000  -2.3531   0.0000   0.0000   0.0000   0.3184
  21.700   0.8343   0.27174   0.26900  -0.0841  0.0202  1.0000  -2.3369   0.0000   0.0000   0.0000   0.3191
  21.800   0.8359   0.27406   0.27132  -0.0849  0.0202  1.0000  -2.3209   0.0000   0.0000   0.0000   0.3198
  21.900   0.8375   0.27637   0.27363  -0.0858  0.0202  1.0000  -2.3051   0.0000   0.0000   0.0000   0.3205
  22.000   0.8390   0.27867   0.27593  -0.0867  0.0202  1.0000  -2.2895   0.0000   0.0000   0.0000   0.3212
  22.100   0.8406   0.28096   0.27823  -0.0875  0.0202  1.0000  -2.2741   0.0000   0.0000   0.0000   0.3219
  22.200   0.8421   0.28326   0.28052  -0.0884  0.0202  1.0000  -2.2588   0.0000   0.0000   0.0000   0.3225
  22.300   0.8436   0.28555   0.28281  -0.0892  0.0201  1.0000  -2.2436   0.0000   0.0000   0.0000   0.3232
  22.400   0.8451   0.28783   0.28511  -0.0901  0.0201  1.0000  -2.2285   0.0000   0.0000   0.0000   0.3238
  22.500   0.8466   0.29013   0.28740  -0.0909  0.0201  1.0000  -2.2133   0.0000   0.0000   0.0000   0.3245
  22.600   0.8480   0.29242   0.28970  -0.0917  0.0201  1.0000  -2.1980   0.0000   0.0000   0.0000   0.3251
  22.700   0.8494   0.29473   0.29201  -0.0925  0.0201  1.0000  -2.1826   0.0000   0.0000   0.0000   0.3258
  22.800   0.8508   0.29705   0.29433  -0.0934  0.0201  1.0000  -2.1671   0.0000   0.0000   0.0000   0.3264
  22.900   0.8521   0.29936   0.29664  -0.0942  0.0201  1.0000  -2.1515   0.0000   0.0000   0.0000   0.3270
  23.000   0.8535   0.30167   0.29896  -0.0950  0.0201  1.0000  -2.1359   0.0000   0.0000   0.0000   0.3277
  23.100   0.8547   0.30398   0.30127  -0.0958  0.0200  1.0000  -2.1202   0.0000   0.0000   0.0000   0.3283
  23.200   0.8560   0.30629   0.30358  -0.0966  0.0200  1.0000  -2.1045   0.0000   0.0000   0.0000   0.3289
  23.300   0.8571   0.30859   0.30588  -0.0973  0.0200  1.0000  -2.0888   0.0000   0.0000   0.0000   0.3295
  23.400   0.8583   0.31088   0.30818  -0.0981  0.0200  1.0000  -2.0730   0.0000   0.0000   0.0000   0.3301
  23.500   0.8593   0.31317   0.31047  -0.0989  0.0200  1.0000  -2.0571   0.0000   0.0000   0.0000   0.3308
  23.600   0.8603   0.31544   0.31275  -0.0997  0.0200  1.0000  -2.0410   0.0000   0.0000   0.0000   0.3314
  23.700   0.8613   0.31771   0.31503  -0.1005  0.0200  1.0000  -2.0250   0.0000   0.0000   0.0000   0.3320
  23.800   0.8621   0.31997   0.31729  -0.1012  0.0199  1.0000  -2.0089   0.0000   0.0000   0.0000   0.3326
  23.900   0.8629   0.32222   0.31954  -0.1020  0.0199  1.0000  -1.9927   0.0000   0.0000   0.0000   0.3333
  24.000   0.8636   0.32445   0.32178  -0.1027  0.0199  1.0000  -1.9766   0.0000   0.0000   0.0000   0.3339
  24.100   0.8642   0.32666   0.32400  -0.1035  0.0199  1.0000  -1.9603   0.0000   0.0000   0.0000   0.3345
  24.200   0.8647   0.32886   0.32620  -0.1042  0.0198  1.0000  -1.9441   0.0000   0.0000   0.0000   0.3352
  24.300   0.8651   0.33103   0.32838  -0.1049  0.0198  1.0000  -1.9275   0.0000   0.0000   0.0000   0.3358
  24.400   0.8653   0.33317   0.33053  -0.1057  0.0198  1.0000  -1.9106   0.0000   0.0000   0.0000   0.3365
  24.500   0.8653   0.33529   0.33265  -0.1064  0.0198  1.0000  -1.8936   0.0000   0.0000   0.0000   0.3372
  24.600   0.8652   0.33736   0.33473  -0.1070  0.0197  1.0000  -1.8764   0.0000   0.0000   0.0000   0.3379
  24.700   0.8648   0.33938   0.33676  -0.1077  0.0197  1.0000  -1.8588   0.0000   0.0000   0.0000   0.3386
  24.800   0.8642   0.34134   0.33873  -0.1083  0.0197  1.0000  -1.8406   0.0000   0.0000   0.0000   0.3394
  24.900   0.8631   0.34322   0.34062  -0.1090  0.0196  1.0000  -1.8208   0.0000   0.0000   0.0000   0.3402
  25.000   0.8614   0.34499   0.34240  -0.1095  0.0196  1.0000  -1.7996   0.0000   0.0000   0.0000   0.3410
  25.100   0.8587   0.34658   0.34401  -0.1101  0.0195  1.0000  -1.7737   0.0000   0.0000   0.0000   0.3420
  25.600   0.7756   0.33109   0.32877  -0.1056  0.0192  1.0000  -1.4460   0.0000   0.0000   0.0000   0.3534
  25.700   0.7738   0.33146   0.32915  -0.1061  0.0190  1.0000  -1.4227   0.0000   0.0000   0.0000   0.3544
  25.800   0.7726   0.33195   0.32965  -0.1067  0.0187  1.0000  -1.3992   0.0000   0.0000   0.0000   0.3554
  25.900   0.7718   0.33259   0.33030  -0.1074  0.0183  1.0000  -1.3747   0.0000   0.0000   0.0000   0.3564
  26.000   0.7711   0.33328   0.33100  -0.1081  0.0177  1.0000  -1.3510   0.0000   0.0000   0.0000   0.3573
  26.100   0.7701   0.33389   0.33162  -0.1086  0.0172  1.0000  -1.3308   0.0000   0.0000   0.0000   0.3581
  26.200   0.7690   0.33441   0.33215  -0.1090  0.0167  1.0000  -1.3138   0.0000   0.0000   0.0000   0.3589
  26.300   0.7678   0.33488   0.33263  -0.1095  0.0162  1.0000  -1.2992   0.0000   0.0000   0.0000   0.3597
  26.400   0.7667   0.33534   0.33310  -0.1099  0.0158  1.0000  -1.2862   0.0000   0.0000   0.0000   0.3604
  26.500   0.7656   0.33579   0.33356  -0.1103  0.0154  1.0000  -1.2746   0.0000   0.0000   0.0000   0.3611
  26.600   0.7646   0.33623   0.33401  -0.1107  0.0150  1.0000  -1.2640   0.0000   0.0000   0.0000   0.3618
  26.700   0.7636   0.33668   0.33447  -0.1111  0.0147  1.0000  -1.2544   0.0000   0.0000   0.0000   0.3624
  26.800   0.7628   0.33712   0.33492  -0.1115  0.0144  1.0000  -1.2456   0.0000   0.0000   0.0000   0.3631
  26.900   0.7620   0.33757   0.33538  -0.1120  0.0141  1.0000  -1.2376   0.0000   0.0000   0.0000   0.3637
  27.000   0.7613   0.33802   0.33584  -0.1124  0.0138  1.0000  -1.2302   0.0000   0.0000   0.0000   0.3644
  27.100   0.7606   0.33847   0.33630  -0.1128  0.0135  1.0000  -1.2235   0.0000   0.0000   0.0000   0.3650
  27.200   0.7600   0.33892   0.33676  -0.1132  0.0133  1.0000  -1.2175   0.0000   0.0000   0.0000   0.3656
  27.300   0.7594   0.33937   0.33722  -0.1137  0.0130  1.0000  -1.2120   0.0000   0.0000   0.0000   0.3662
  27.400   0.7589   0.33983   0.33769  -0.1141  0.0128  1.0000  -1.2072   0.0000   0.0000   0.0000   0.3667
  27.500   0.7585   0.34028   0.33815  -0.1145  0.0126  1.0000  -1.2029   0.0000   0.0000   0.0000   0.3673
  27.600   0.7581   0.34074   0.33862  -0.1150  0.0124  1.0000  -1.1991   0.0000   0.0000   0.0000   0.3679
  27.700   0.7577   0.34119   0.33908  -0.1154  0.0122  1.0000  -1.1960   0.0000   0.0000   0.0000   0.3684
  27.800   0.7574   0.34165   0.33954  -0.1159  0.0120  1.0000  -1.1960   0.0000   0.0000   0.0000   0.3690
  27.900   0.7571   0.34210   0.34000  -0.1163  0.0118  1.0000  -1.1981   0.0000   0.0000   0.0000   0.3695
  28.000   0.7568   0.34255   0.34046  -0.1167  0.0117  1.0000  -1.2006   0.0000   0.0000   0.0000   0.3700
  28.100   0.7566   0.34300   0.34091  -0.1172  0.0115  1.0000  -1.2036   0.0000   0.0000   0.0000   0.3705
  28.200   0.7564   0.34344   0.34137  -0.1176  0.0113  1.0000  -1.2070   0.0000   0.0000   0.0000   0.3710
  28.300   0.7562   0.34388   0.34181  -0.1181  0.0112  1.0000  -1.2110   0.0000   0.0000   0.0000   0.3715
  28.400   0.7561   0.34432   0.34226  -0.1185  0.0110  1.0000  -1.2154   0.0000   0.0000   0.0000   0.3720
  28.500   0.7560   0.34475   0.34270  -0.1189  0.0109  1.0000  -1.2204   0.0000   0.0000   0.0000   0.3724
  28.600   0.7559   0.34517   0.34313  -0.1194  0.0108  1.0000  -1.2259   0.0000   0.0000   0.0000   0.3729
  28.700   0.7558   0.34559   0.34355  -0.1198  0.0106  1.0000  -1.2319   0.0000   0.0000   0.0000   0.3733
  28.800   0.7558   0.34600   0.34397  -0.1202  0.0105  1.0000  -1.2385   0.0000   0.0000   0.0000   0.3738
  28.900   0.7558   0.34640   0.34438  -0.1207  0.0104  1.0000  -1.2456   0.0000   0.0000   0.0000   0.3742
  29.000   0.7558   0.34680   0.34479  -0.1211  0.0103  1.0000  -1.2532   0.0000   0.0000   0.0000   0.3746
  29.100   0.7558   0.34719   0.34522  -0.1215  0.0102  1.0000  -1.2609   0.0000   0.0000   0.0000   0.3750
  29.200   0.7558   0.34756   0.34561  -0.1219  0.0101  1.0000  -1.2697   0.0000   0.0000   0.0000   0.3754
  29.300   0.7559   0.34793   0.34599  -0.1223  0.0100  1.0000  -1.2791   0.0000   0.0000   0.0000   0.3757
  29.400   0.7560   0.34829   0.34636  -0.1227  0.0099  1.0000  -1.2890   0.0000   0.0000   0.0000   0.3761
  29.500   0.7560   0.34865   0.34672  -0.1231  0.0098  1.0000  -1.2995   0.0000   0.0000   0.0000   0.3764
  29.600   0.7561   0.34899   0.34707  -0.1235  0.0097  1.0000  -1.3105   0.0000   0.0000   0.0000   0.3767
  29.700   0.7562   0.34933   0.34742  -0.1239  0.0096  1.0000  -1.3220   0.0000   0.0000   0.0000   0.3770
  29.800   0.7563   0.34967   0.34777  -0.1242  0.0095  1.0000  -1.3339   0.0000   0.0000   0.0000   0.3773
  29.900   0.7564   0.35002   0.34812  -0.1245  0.0094  1.0000  -1.3459   0.0000   0.0000   0.0000   0.3775
  30.000   0.7565   0.35038   0.34849  -0.1248  0.0093  1.0000  -1.3577   0.0000   0.0000   0.0000   0.3777


