xflr5 v6.61

 Calculated polar for: NREL's S822 Airfoil

 1 1 Reynolds number fixed          Mach number fixed         

 xtrf =   1.000 (top)        1.000 (bottom)
 Mach =   0.000     Re =     0.719 e 6     Ncrit =   9.000

  alpha     CL        CD       CDp       Cm    Top Xtr Bot Xtr   Cpmin    Chinge    XCp    
 ------- -------- --------- --------- -------- ------- ------- -------- --------- ---------
 -10.000  -0.6998   0.01487   0.00892  -0.0879  0.8749  0.0299  -4.8603   0.0000   0.0000   0.0000   0.1095
  -9.900  -0.6916   0.01481   0.00885  -0.0875  0.8736  0.0301  -4.7582   0.0000   0.0000   0.0000   0.1086
  -9.800  -0.6917   0.01443   0.00841  -0.0858  0.8716  0.0345  -4.7216   0.0000   0.0000   0.0000   0.1114
  -9.700  -0.6883   0.01418   0.00817  -0.0847  0.8699  0.0388  -4.6563   0.0000   0.0000   0.0000   0.1126
  -9.600  -0.6831   0.01395   0.00793  -0.0838  0.8684  0.0418  -4.5781   0.0000   0.0000   0.0000   0.1130
  -9.500  -0.6765   0.01377   0.00776  -0.0833  0.8670  0.0443  -4.4911   0.0000   0.0000   0.0000   0.1127
  -9.400  -0.6691   0.01362   0.00761  -0.0828  0.8655  0.0464  -4.4005   0.0000   0.0000   0.0000   0.1122
  -9.300  -0.6611   0.01349   0.00747  -0.0824  0.8641  0.0480  -4.3067   0.0000   0.0000   0.0000   0.1113
  -9.200  -0.6524   0.01340   0.00735  -0.0821  0.8626  0.0491  -4.2095   0.0000   0.0000   0.0000   0.1102
  -9.100  -0.6442   0.01329   0.00722  -0.0818  0.8610  0.0512  -4.1167   0.0000   0.0000   0.0000   0.1092
  -9.000  -0.6375   0.01308   0.00702  -0.0812  0.8590  0.0584  -4.0355   0.0000   0.0000   0.0000   0.1089
  -8.900  -0.6305   0.01288   0.00687  -0.0807  0.8569  0.0636  -3.9505   0.0000   0.0000   0.0000   0.1083
  -8.800  -0.6228   0.01273   0.00675  -0.0804  0.8546  0.0678  -3.8616   0.0000   0.0000   0.0000   0.1074
  -8.700  -0.6142   0.01263   0.00666  -0.0801  0.8523  0.0709  -3.7692   0.0000   0.0000   0.0000   0.1061
  -8.600  -0.6051   0.01255   0.00657  -0.0799  0.8512  0.0728  -3.6749   0.0000   0.0000   0.0000   0.1045
  -8.500  -0.5963   0.01243   0.00643  -0.0796  0.8507  0.0760  -3.5840   0.0000   0.0000   0.0000   0.1031
  -8.400  -0.5884   0.01225   0.00628  -0.0792  0.8501  0.0833  -3.4986   0.0000   0.0000   0.0000   0.1021
  -8.300  -0.5806   0.01207   0.00615  -0.0788  0.8495  0.0890  -3.4134   0.0000   0.0000   0.0000   0.1011
  -8.200  -0.5724   0.01191   0.00603  -0.0785  0.8488  0.0937  -3.3267   0.0000   0.0000   0.0000   0.0998
  -8.100  -0.5635   0.01179   0.00592  -0.0782  0.8482  0.0976  -3.2380   0.0000   0.0000   0.0000   0.0981
  -8.000  -0.5542   0.01169   0.00582  -0.0780  0.8475  0.1003  -3.1476   0.0000   0.0000   0.0000   0.0962
  -7.900  -0.5448   0.01160   0.00572  -0.0778  0.8468  0.1036  -3.0581   0.0000   0.0000   0.0000   0.0941
  -7.800  -0.5362   0.01145   0.00559  -0.0775  0.8459  0.1118  -2.9740   0.0000   0.0000   0.0000   0.0925
  -7.700  -0.5278   0.01129   0.00548  -0.0772  0.8451  0.1187  -2.8908   0.0000   0.0000   0.0000   0.0909
  -7.600  -0.5191   0.01115   0.00538  -0.0769  0.8442  0.1245  -2.8068   0.0000   0.0000   0.0000   0.0890
  -7.500  -0.5098   0.01104   0.00528  -0.0767  0.8432  0.1292  -2.7213   0.0000   0.0000   0.0000   0.0867
  -7.400  -0.5001   0.01096   0.00520  -0.0766  0.8423  0.1324  -2.6348   0.0000   0.0000   0.0000   0.0841
  -7.300  -0.4905   0.01086   0.00510  -0.0764  0.8413  0.1377  -2.5499   0.0000   0.0000   0.0000   0.0814
  -7.200  -0.4816   0.01072   0.00499  -0.0762  0.8403  0.1470  -2.4692   0.0000   0.0000   0.0000   0.0791
  -7.100  -0.4728   0.01057   0.00489  -0.0759  0.8392  0.1546  -2.3891   0.0000   0.0000   0.0000   0.0767
  -7.000  -0.4635   0.01046   0.00481  -0.0757  0.8381  0.1611  -2.3081   0.0000   0.0000   0.0000   0.0740
  -6.900  -0.4537   0.01037   0.00473  -0.0756  0.8371  0.1660  -2.2261   0.0000   0.0000   0.0000   0.0708
  -6.800  -0.4436   0.01030   0.00465  -0.0755  0.8360  0.1691  -2.1435   0.0000   0.0000   0.0000   0.0671
  -6.700  -0.4344   0.01017   0.00455  -0.0753  0.8349  0.1807  -2.0659   0.0000   0.0000   0.0000   0.0640
  -6.600  -0.4256   0.01001   0.00445  -0.0750  0.8338  0.1918  -1.9909   0.0000   0.0000   0.0000   0.0611
  -6.500  -0.4163   0.00988   0.00437  -0.0748  0.8327  0.2008  -1.9226   0.0000   0.0000   0.0000   0.0576
  -6.400  -0.4063   0.00980   0.00430  -0.0747  0.8316  0.2068  -1.8697   0.0000   0.0000   0.0000   0.0534
  -6.300  -0.3964   0.00972   0.00422  -0.0746  0.8305  0.2149  -1.8178   0.0000   0.0000   0.0000   0.0491
  -6.200  -0.3871   0.00958   0.00413  -0.0744  0.8294  0.2263  -1.7680   0.0000   0.0000   0.0000   0.0451
  -6.100  -0.3776   0.00946   0.00398  -0.0742  0.8283  0.2350  -1.7177   0.0000   0.0000   0.0000   0.0407
  -6.000  -0.3676   0.00938   0.00392  -0.0741  0.8271  0.2424  -1.6668   0.0000   0.0000   0.0000   0.0356
  -5.900  -0.3573   0.00931   0.00386  -0.0741  0.8259  0.2483  -1.6156   0.0000   0.0000   0.0000   0.0299
  -5.800  -0.3471   0.00924   0.00380  -0.0740  0.8246  0.2565  -1.5651   0.0000   0.0000   0.0000   0.0239
  -5.700  -0.3378   0.00911   0.00372  -0.0738  0.8232  0.2708  -1.5174   0.0000   0.0000   0.0000   0.0186
  -5.600  -0.3282   0.00901   0.00366  -0.0737  0.8218  0.2815  -1.4691   0.0000   0.0000   0.0000   0.0125
  -5.500  -0.3179   0.00895   0.00362  -0.0737  0.8202  0.2895  -1.4308   0.0000   0.0000   0.0000   0.0053
  -5.400  -0.3072   0.00893   0.00359  -0.0737  0.8185  0.2944  -1.3935   0.0000   0.0000   0.0000  -0.0030
  -5.300  -0.2967   0.00889   0.00357  -0.0737  0.8167  0.3027  -1.3571   0.0000   0.0000   0.0000  -0.0115
  -5.200  -0.2870   0.00884   0.00356  -0.0736  0.8146  0.3146  -1.3223   0.0000   0.0000   0.0000  -0.0197
  -5.100  -0.2773   0.00880   0.00357  -0.0735  0.8127  0.3242  -1.2876   0.0000   0.0000   0.0000  -0.0284
  -5.000  -0.2671   0.00871   0.00352  -0.0734  0.8124  0.3332  -1.2520   0.0000   0.0000   0.0000  -0.0385
  -4.900  -0.2565   0.00865   0.00347  -0.0734  0.8120  0.3405  -1.2162   0.0000   0.0000   0.0000  -0.0500
  -4.800  -0.2460   0.00858   0.00341  -0.0733  0.8116  0.3502  -1.1810   0.0000   0.0000   0.0000  -0.0621
  -4.700  -0.2364   0.00845   0.00335  -0.0732  0.8112  0.3647  -1.1474   0.0000   0.0000   0.0000  -0.0738
  -4.600  -0.2264   0.00835   0.00330  -0.0731  0.8106  0.3754  -1.1140   0.0000   0.0000   0.0000  -0.0873
  -4.500  -0.2158   0.00829   0.00326  -0.0731  0.8101  0.3834  -1.0870   0.0000   0.0000   0.0000  -0.1033
  -4.400  -0.2050   0.00824   0.00322  -0.0731  0.8095  0.3892  -1.0598   0.0000   0.0000   0.0000  -0.1216
  -4.300  -0.1942   0.00819   0.00318  -0.0731  0.8088  0.3956  -1.0328   0.0000   0.0000   0.0000  -0.1419
  -4.200  -0.1841   0.00810   0.00313  -0.0730  0.8081  0.4084  -1.0070   0.0000   0.0000   0.0000  -0.1623
  -4.100  -0.1739   0.00801   0.00309  -0.0729  0.8073  0.4190  -0.9811   0.0000   0.0000   0.0000  -0.1853
  -4.000  -0.1635   0.00793   0.00305  -0.0729  0.8064  0.4289  -0.9551   0.0000   0.0000   0.0000  -0.2123
  -3.900  -0.1528   0.00788   0.00301  -0.0728  0.8054  0.4375  -0.9288   0.0000   0.0000   0.0000  -0.2442
  -3.800  -0.1419   0.00784   0.00297  -0.0729  0.8043  0.4447  -0.9052   0.0000   0.0000   0.0000  -0.2818
  -3.700  -0.1318   0.00773   0.00293  -0.0728  0.8032  0.4601  -0.8849   0.0000   0.0000   0.0000  -0.3207
  -3.600  -0.1215   0.00764   0.00289  -0.0727  0.8020  0.4719  -0.8644   0.0000   0.0000   0.0000  -0.3676
  -3.500  -0.1108   0.00758   0.00285  -0.0727  0.8008  0.4812  -0.8436   0.0000   0.0000   0.0000  -0.4267
  -3.400  -0.0997   0.00754   0.00282  -0.0727  0.7996  0.4881  -0.8225   0.0000   0.0000   0.0000  -0.5013
  -3.300  -0.0885   0.00751   0.00279  -0.0728  0.7984  0.4930  -0.8013   0.0000   0.0000   0.0000  -0.5967
  -3.200  -0.0779   0.00744   0.00276  -0.0727  0.7972  0.5054  -0.7810   0.0000   0.0000   0.0000  -0.7106
  -3.100  -0.0675   0.00736   0.00273  -0.0727  0.7960  0.5184  -0.7609   0.0000   0.0000   0.0000  -0.8559
  -3.000  -0.0568   0.00730   0.00271  -0.0727  0.7949  0.5298  -0.7406   0.0000   0.0000   0.0000  -1.0632
  -2.900  -0.0457   0.00726   0.00269  -0.0727  0.7937  0.5389  -0.7224   0.0000   0.0000   0.0000  -1.3806
  -2.800  -0.0344   0.00724   0.00267  -0.0728  0.7926  0.5450  -0.7052   0.0000   0.0000   0.0000  -1.9159
  -2.700  -0.0238   0.00717   0.00262  -0.0727  0.7914  0.5578  -0.6888   0.0000   0.0000   0.0000  -2.8774
  -2.600  -0.0130   0.00712   0.00261  -0.0727  0.7902  0.5679  -0.6722   0.0000   0.0000   0.0000  -5.4501
  -2.500  -0.0020   0.00709   0.00260  -0.0727  0.7890  0.5765  -0.6555   0.0000   0.0000   0.0000  -36.6816
  -2.400   0.0092   0.00706   0.00258  -0.0728  0.7878  0.5837  -0.6387   0.0000   0.0000   0.0000   8.2785
  -2.300   0.0207   0.00705   0.00257  -0.0729  0.7865  0.5894  -0.6218   0.0000   0.0000   0.0000   3.8449
  -2.200   0.0322   0.00705   0.00255  -0.0730  0.7852  0.5938  -0.6050   0.0000   0.0000   0.0000   2.5599
  -2.100   0.0435   0.00703   0.00254  -0.0731  0.7837  0.6006  -0.5900   0.0000   0.0000   0.0000   1.9600
  -2.000   0.0544   0.00700   0.00254  -0.0731  0.7821  0.6106  -0.5763   0.0000   0.0000   0.0000   1.6155
  -1.900   0.0655   0.00699   0.00256  -0.0731  0.7802  0.6186  -0.5625   0.0000   0.0000   0.0000   1.3837
  -1.800   0.0768   0.00700   0.00258  -0.0732  0.7782  0.6252  -0.5486   0.0000   0.0000   0.0000   1.2170
  -1.700   0.0882   0.00704   0.00262  -0.0733  0.7758  0.6306  -0.5359   0.0000   0.0000   0.0000   1.0925
  -1.600   0.0995   0.00711   0.00269  -0.0734  0.7730  0.6350  -0.5403   0.0000   0.0000   0.0000   0.9973
  -1.500   0.1108   0.00715   0.00272  -0.0735  0.7715  0.6386  -0.5447   0.0000   0.0000   0.0000   0.9213
  -1.400   0.1222   0.00714   0.00271  -0.0736  0.7711  0.6418  -0.5495   0.0000   0.0000   0.0000   0.8587
  -1.300   0.1337   0.00714   0.00270  -0.0737  0.7707  0.6443  -0.5542   0.0000   0.0000   0.0000   0.8067
  -1.200   0.1451   0.00713   0.00269  -0.0738  0.7702  0.6469  -0.5589   0.0000   0.0000   0.0000   0.7630
  -1.100   0.1562   0.00709   0.00268  -0.0738  0.7696  0.6541  -0.5635   0.0000   0.0000   0.0000   0.7264
  -1.000   0.1672   0.00705   0.00268  -0.0739  0.7689  0.6605  -0.5680   0.0000   0.0000   0.0000   0.6946
  -0.900   0.1782   0.00703   0.00268  -0.0739  0.7682  0.6657  -0.5725   0.0000   0.0000   0.0000   0.6667
  -0.800   0.1894   0.00701   0.00268  -0.0739  0.7673  0.6699  -0.5771   0.0000   0.0000   0.0000   0.6420
  -0.700   0.2006   0.00700   0.00268  -0.0739  0.7665  0.6738  -0.5817   0.0000   0.0000   0.0000   0.6199
  -0.600   0.2118   0.00699   0.00268  -0.0740  0.7655  0.6775  -0.5863   0.0000   0.0000   0.0000   0.6002
  -0.500   0.2231   0.00698   0.00268  -0.0741  0.7644  0.6811  -0.5909   0.0000   0.0000   0.0000   0.5824
  -0.400   0.2345   0.00698   0.00269  -0.0741  0.7633  0.6846  -0.5955   0.0000   0.0000   0.0000   0.5664
  -0.300   0.2458   0.00698   0.00269  -0.0742  0.7621  0.6878  -0.6001   0.0000   0.0000   0.0000   0.5517
  -0.200   0.2573   0.00698   0.00269  -0.0743  0.7609  0.6904  -0.6048   0.0000   0.0000   0.0000   0.5384
  -0.100   0.2687   0.00699   0.00269  -0.0744  0.7596  0.6925  -0.6094   0.0000   0.0000   0.0000   0.5262
   0.000   0.2802   0.00699   0.00268  -0.0745  0.7582  0.6941  -0.6141   0.0000   0.0000   0.0000   0.5150
   0.100   0.2918   0.00699   0.00268  -0.0746  0.7567  0.6952  -0.6189   0.0000   0.0000   0.0000   0.5046
   0.200   0.3032   0.00696   0.00266  -0.0747  0.7552  0.6998  -0.6236   0.0000   0.0000   0.0000   0.4951
   0.300   0.3145   0.00692   0.00264  -0.0748  0.7535  0.7045  -0.6283   0.0000   0.0000   0.0000   0.4862
   0.400   0.3258   0.00689   0.00263  -0.0748  0.7516  0.7092  -0.6330   0.0000   0.0000   0.0000   0.4779
   0.500   0.3370   0.00686   0.00261  -0.0748  0.7497  0.7136  -0.6378   0.0000   0.0000   0.0000   0.4701
   0.600   0.3483   0.00683   0.00260  -0.0748  0.7474  0.7176  -0.6426   0.0000   0.0000   0.0000   0.4628
   0.700   0.3596   0.00681   0.00258  -0.0749  0.7451  0.7212  -0.6475   0.0000   0.0000   0.0000   0.4559
   0.800   0.3710   0.00679   0.00256  -0.0749  0.7424  0.7245  -0.6524   0.0000   0.0000   0.0000   0.4494
   0.900   0.3824   0.00679   0.00255  -0.0750  0.7394  0.7275  -0.6576   0.0000   0.0000   0.0000   0.4434
   1.000   0.3939   0.00681   0.00255  -0.0751  0.7360  0.7302  -0.6639   0.0000   0.0000   0.0000   0.4378
   1.100   0.4057   0.00685   0.00258  -0.0752  0.7319  0.7325  -0.6714   0.0000   0.0000   0.0000   0.4326
   1.200   0.4173   0.00690   0.00262  -0.0754  0.7287  0.7347  -0.6797   0.0000   0.0000   0.0000   0.4276
   1.300   0.4284   0.00688   0.00261  -0.0754  0.7279  0.7369  -0.6889   0.0000   0.0000   0.0000   0.4228
   1.400   0.4395   0.00687   0.00261  -0.0754  0.7268  0.7390  -0.6982   0.0000   0.0000   0.0000   0.4183
   1.500   0.4506   0.00686   0.00261  -0.0754  0.7256  0.7407  -0.7075   0.0000   0.0000   0.0000   0.4140
   1.600   0.4617   0.00686   0.00261  -0.0754  0.7242  0.7421  -0.7181   0.0000   0.0000   0.0000   0.4099
   1.700   0.4728   0.00685   0.00262  -0.0754  0.7225  0.7446  -0.7287   0.0000   0.0000   0.0000   0.4059
   1.800   0.4838   0.00682   0.00262  -0.0754  0.7207  0.7492  -0.7403   0.0000   0.0000   0.0000   0.4022
   1.900   0.4948   0.00680   0.00263  -0.0754  0.7187  0.7531  -0.7523   0.0000   0.0000   0.0000   0.3986
   2.000   0.5057   0.00678   0.00263  -0.0754  0.7164  0.7565  -0.7644   0.0000   0.0000   0.0000   0.3951
   2.100   0.5166   0.00677   0.00264  -0.0753  0.7139  0.7598  -0.7765   0.0000   0.0000   0.0000   0.3918
   2.200   0.5276   0.00677   0.00265  -0.0753  0.7112  0.7630  -0.7903   0.0000   0.0000   0.0000   0.3886
   2.300   0.5386   0.00677   0.00266  -0.0753  0.7085  0.7661  -0.8044   0.0000   0.0000   0.0000   0.3855
   2.400   0.5496   0.00677   0.00267  -0.0752  0.7056  0.7692  -0.8186   0.0000   0.0000   0.0000   0.3825
   2.500   0.5606   0.00678   0.00267  -0.0752  0.7026  0.7721  -0.8340   0.0000   0.0000   0.0000   0.3797
   2.600   0.5715   0.00679   0.00268  -0.0752  0.6995  0.7747  -0.8506   0.0000   0.0000   0.0000   0.3770
   2.700   0.5823   0.00682   0.00268  -0.0751  0.6957  0.7771  -0.8672   0.0000   0.0000   0.0000   0.3743
   2.800   0.5933   0.00685   0.00269  -0.0751  0.6913  0.7792  -0.8839   0.0000   0.0000   0.0000   0.3718
   2.900   0.6048   0.00690   0.00272  -0.0752  0.6863  0.7812  -0.9017   0.0000   0.0000   0.0000   0.3695
   3.000   0.6158   0.00692   0.00275  -0.0752  0.6839  0.7831  -0.9218   0.0000   0.0000   0.0000   0.3672
   3.100   0.6265   0.00693   0.00277  -0.0751  0.6824  0.7848  -0.9418   0.0000   0.0000   0.0000   0.3649
   3.200   0.6372   0.00694   0.00280  -0.0751  0.6804  0.7864  -0.9627   0.0000   0.0000   0.0000   0.3627
   3.300   0.6480   0.00695   0.00283  -0.0750  0.6780  0.7876  -0.9872   0.0000   0.0000   0.0000   0.3606
   3.400   0.6588   0.00696   0.00285  -0.0750  0.6752  0.7898  -1.0119   0.0000   0.0000   0.0000   0.3585
   3.500   0.6695   0.00695   0.00286  -0.0749  0.6724  0.7941  -1.0366   0.0000   0.0000   0.0000   0.3565
   3.600   0.6800   0.00695   0.00288  -0.0748  0.6691  0.7977  -1.0612   0.0000   0.0000   0.0000   0.3545
   3.700   0.6903   0.00696   0.00290  -0.0747  0.6651  0.8007  -1.0858   0.0000   0.0000   0.0000   0.3525
   3.800   0.7004   0.00698   0.00292  -0.0744  0.6603  0.8034  -1.1103   0.0000   0.0000   0.0000   0.3506
   3.900   0.7100   0.00702   0.00294  -0.0741  0.6544  0.8061  -1.1342   0.0000   0.0000   0.0000   0.3485
   4.000   0.7191   0.00707   0.00302  -0.0737  0.6471  0.8088  -1.1578   0.0000   0.0000   0.0000   0.3465
   4.100   0.7290   0.00714   0.00306  -0.0734  0.6395  0.8115  -1.1824   0.0000   0.0000   0.0000   0.3447
   4.200   0.7392   0.00716   0.00310  -0.0733  0.6369  0.8141  -1.2094   0.0000   0.0000   0.0000   0.3430
   4.300   0.7495   0.00718   0.00315  -0.0731  0.6337  0.8165  -1.2410   0.0000   0.0000   0.0000   0.3413
   4.400   0.7598   0.00721   0.00319  -0.0729  0.6298  0.8189  -1.2729   0.0000   0.0000   0.0000   0.3397
   4.500   0.7701   0.00724   0.00324  -0.0728  0.6255  0.8210  -1.3049   0.0000   0.0000   0.0000   0.3381
   4.600   0.7801   0.00728   0.00328  -0.0726  0.6202  0.8230  -1.3368   0.0000   0.0000   0.0000   0.3365
   4.700   0.7898   0.00733   0.00331  -0.0723  0.6140  0.8249  -1.3753   0.0000   0.0000   0.0000   0.3349
   4.800   0.7988   0.00740   0.00335  -0.0719  0.6068  0.8266  -1.4156   0.0000   0.0000   0.0000   0.3333
   4.900   0.8066   0.00750   0.00340  -0.0713  0.5976  0.8283  -1.4540   0.0000   0.0000   0.0000   0.3315
   5.000   0.8157   0.00757   0.00346  -0.0709  0.5902  0.8297  -1.4951   0.0000   0.0000   0.0000   0.3299
   5.100   0.8256   0.00762   0.00352  -0.0707  0.5835  0.8308  -1.5383   0.0000   0.0000   0.0000   0.3285
   5.200   0.8341   0.00768   0.00356  -0.0702  0.5711  0.8329  -1.5790   0.0000   0.0000   0.0000   0.3270
   5.300   0.8392   0.00780   0.00359  -0.0690  0.5536  0.8376  -1.6131   0.0000   0.0000   0.0000   0.3249
   5.400   0.8450   0.00791   0.00366  -0.0679  0.5393  0.8413  -1.6486   0.0000   0.0000   0.0000   0.3230
   5.500   0.8515   0.00801   0.00373  -0.0671  0.5229  0.8443  -1.6860   0.0000   0.0000   0.0000   0.3212
   5.600   0.8529   0.00824   0.00384  -0.0651  0.5001  0.8475  -1.7130   0.0000   0.0000   0.0000   0.3188
   5.700   0.8573   0.00841   0.00395  -0.0639  0.4818  0.8504  -1.7463   0.0000   0.0000   0.0000   0.3167
   5.800   0.8591   0.00864   0.00409  -0.0621  0.4611  0.8534  -1.7744   0.0000   0.0000   0.0000   0.3144
   5.900   0.8610   0.00884   0.00421  -0.0603  0.4432  0.8565  -1.8028   0.0000   0.0000   0.0000   0.3120
   6.000   0.8642   0.00901   0.00433  -0.0588  0.4272  0.8593  -1.8340   0.0000   0.0000   0.0000   0.3099
   6.100   0.8644   0.00926   0.00448  -0.0568  0.4091  0.8623  -1.8590   0.0000   0.0000   0.0000   0.3074
   6.200   0.8681   0.00945   0.00462  -0.0554  0.3939  0.8647  -1.8913   0.0000   0.0000   0.0000   0.3054
   6.300   0.8722   0.00966   0.00477  -0.0541  0.3792  0.8668  -1.9246   0.0000   0.0000   0.0000   0.3036
   6.400   0.8733   0.00996   0.00497  -0.0524  0.3609  0.8688  -1.9518   0.0000   0.0000   0.0000   0.3014
   6.500   0.8777   0.01018   0.00513  -0.0512  0.3452  0.8703  -1.9860   0.0000   0.0000   0.0000   0.2996
   6.600   0.8802   0.01046   0.00533  -0.0498  0.3277  0.8716  -2.0164   0.0000   0.0000   0.0000   0.2977
   6.700   0.8811   0.01077   0.00553  -0.0481  0.3063  0.8764  -2.0460   0.0000   0.0000   0.0000   0.2956
   6.800   0.8850   0.01097   0.00569  -0.0469  0.2915  0.8801  -2.0925   0.0000   0.0000   0.0000   0.2939
   6.900   0.8857   0.01130   0.00592  -0.0452  0.2733  0.8838  -2.1293   0.0000   0.0000   0.0000   0.2918
   7.000   0.8888   0.01154   0.00611  -0.0439  0.2575  0.8869  -2.1736   0.0000   0.0000   0.0000   0.2900
   7.100   0.8922   0.01178   0.00629  -0.0426  0.2443  0.8899  -2.2193   0.0000   0.0000   0.0000   0.2882
   7.200   0.8937   0.01212   0.00654  -0.0411  0.2282  0.8930  -2.2594   0.0000   0.0000   0.0000   0.2863
   7.300   0.8984   0.01235   0.00672  -0.0401  0.2154  0.8957  -2.3094   0.0000   0.0000   0.0000   0.2849
   7.400   0.9027   0.01259   0.00691  -0.0391  0.2041  0.8984  -2.3587   0.0000   0.0000   0.0000   0.2834
   7.500   0.9052   0.01291   0.00716  -0.0378  0.1914  0.9013  -2.4023   0.0000   0.0000   0.0000   0.2817
   7.600   0.9099   0.01316   0.00736  -0.0369  0.1794  0.9036  -2.4532   0.0000   0.0000   0.0000   0.2804
   7.700   0.9159   0.01336   0.00754  -0.0362  0.1727  0.9057  -2.5088   0.0000   0.0000   0.0000   0.2792
   7.800   0.9209   0.01361   0.00774  -0.0353  0.1642  0.9074  -2.5616   0.0000   0.0000   0.0000   0.2779
   7.900   0.9250   0.01389   0.00796  -0.0344  0.1544  0.9110  -2.6116   0.0000   0.0000   0.0000   0.2766
   8.000   0.9300   0.01410   0.00815  -0.0335  0.1442  0.9152  -2.6647   0.0000   0.0000   0.0000   0.2753
   8.100   0.9355   0.01426   0.00832  -0.0327  0.1397  0.9190  -2.7204   0.0000   0.0000   0.0000   0.2741
   8.200   0.9399   0.01448   0.00859  -0.0317  0.1338  0.9228  -2.7724   0.0000   0.0000   0.0000   0.2727
   8.300   0.9435   0.01474   0.00882  -0.0306  0.1270  0.9267  -2.8221   0.0000   0.0000   0.0000   0.2713
   8.400   0.9472   0.01502   0.00906  -0.0296  0.1190  0.9306  -2.8776   0.0000   0.0000   0.0000   0.2700
   8.500   0.9526   0.01524   0.00927  -0.0288  0.1113  0.9342  -2.9477   0.0000   0.0000   0.0000   0.2689
   8.600   0.9589   0.01543   0.00946  -0.0282  0.1080  0.9374  -3.0230   0.0000   0.0000   0.0000   0.2679
   8.800   0.9690   0.01586   0.00987  -0.0265  0.0986  0.9477  -3.1640   0.0000   0.0000   0.0000   0.2656
   8.900   0.9734   0.01612   0.01010  -0.0257  0.0930  0.9548  -3.2323   0.0000   0.0000   0.0000   0.2645
   9.000   0.9795   0.01637   0.01033  -0.0251  0.0858  0.9624  -3.3081   0.0000   0.0000   0.0000   0.2636
   9.100   0.9891   0.01659   0.01057  -0.0253  0.0815  0.9713  -3.4000   0.0000   0.0000   0.0000   0.2634
   9.200   1.0000   0.01682   0.01081  -0.0257  0.0786  0.9821  -3.4990   0.0000   0.0000   0.0000   0.2635
   9.300   1.0077   0.01708   0.01105  -0.0256  0.0751  1.0000  -3.5843   0.0000   0.0000   0.0000   0.2630
   9.400   1.0140   0.01740   0.01134  -0.0253  0.0713  1.0000  -3.6637   0.0000   0.0000   0.0000   0.2624
   9.500   1.0200   0.01774   0.01163  -0.0249  0.0670  1.0000  -3.7422   0.0000   0.0000   0.0000   0.2617
   9.600   1.0265   0.01805   0.01190  -0.0245  0.0616  1.0000  -3.8232   0.0000   0.0000   0.0000   0.2610
   9.700   1.0334   0.01833   0.01219  -0.0242  0.0573  1.0000  -3.9064   0.0000   0.0000   0.0000   0.2604
   9.800   1.0415   0.01853   0.01241  -0.0240  0.0564  1.0000  -3.9979   0.0000   0.0000   0.0000   0.2599
   9.900   1.0490   0.01877   0.01265  -0.0238  0.0547  1.0000  -4.0871   0.0000   0.0000   0.0000   0.2594
  10.000   1.0559   0.01904   0.01291  -0.0234  0.0523  1.0000  -4.1737   0.0000   0.0000   0.0000   0.2588
  10.100   1.0621   0.01936   0.01321  -0.0230  0.0494  1.0000  -4.2571   0.0000   0.0000   0.0000   0.2581
  10.200   1.0674   0.01973   0.01352  -0.0225  0.0461  1.0000  -4.3362   0.0000   0.0000   0.0000   0.2574
  10.300   1.0724   0.02011   0.01386  -0.0220  0.0414  1.0000  -4.4131   0.0000   0.0000   0.0000   0.2566
  10.400   1.0764   0.02055   0.01430  -0.0212  0.0365  1.0000  -4.4803   0.0000   0.0000   0.0000   0.2557
  10.500   1.0835   0.02078   0.01456  -0.0210  0.0361  1.0000  -4.5719   0.0000   0.0000   0.0000   0.2552
  10.600   1.0900   0.02105   0.01484  -0.0206  0.0353  1.0000  -4.6609   0.0000   0.0000   0.0000   0.2546
  10.700   1.0962   0.02135   0.01515  -0.0202  0.0342  1.0000  -4.7477   0.0000   0.0000   0.0000   0.2540
  10.800   1.1020   0.02168   0.01548  -0.0198  0.0329  1.0000  -4.8321   0.0000   0.0000   0.0000   0.2533
  10.900   1.1074   0.02203   0.01582  -0.0193  0.0314  1.0000  -4.9148   0.0000   0.0000   0.0000   0.2527
  11.000   1.1126   0.02241   0.01618  -0.0188  0.0299  1.0000  -4.9965   0.0000   0.0000   0.0000   0.2520
  11.100   1.1175   0.02280   0.01656  -0.0182  0.0284  1.0000  -5.0765   0.0000   0.0000   0.0000   0.2513
  11.200   1.1222   0.02322   0.01696  -0.0177  0.0267  1.0000  -5.1540   0.0000   0.0000   0.0000   0.2505
  11.300   1.1265   0.02368   0.01742  -0.0171  0.0248  1.0000  -5.2266   0.0000   0.0000   0.0000   0.2498
  11.400   1.1293   0.02424   0.01802  -0.0163  0.0227  1.0000  -5.2855   0.0000   0.0000   0.0000   0.2489
  11.500   1.1276   0.02512   0.01901  -0.0150  0.0203  1.0000  -5.3061   0.0000   0.0000   0.0000   0.2475
  11.600   1.1359   0.02529   0.01917  -0.0149  0.0202  1.0000  -5.4141   0.0000   0.0000   0.0000   0.2472
  11.700   1.1438   0.02549   0.01936  -0.0147  0.0200  1.0000  -5.5206   0.0000   0.0000   0.0000   0.2468
  11.800   1.1512   0.02572   0.01959  -0.0145  0.0197  1.0000  -5.6243   0.0000   0.0000   0.0000   0.2464
  11.900   1.1579   0.02599   0.01986  -0.0143  0.0193  1.0000  -5.7237   0.0000   0.0000   0.0000   0.2460
  12.000   1.1639   0.02632   0.02020  -0.0140  0.0188  1.0000  -5.8178   0.0000   0.0000   0.0000   0.2455
  12.100   1.1694   0.02668   0.02057  -0.0136  0.0182  1.0000  -5.9079   0.0000   0.0000   0.0000   0.2450
  12.200   1.1746   0.02707   0.02098  -0.0132  0.0175  1.0000  -5.9969   0.0000   0.0000   0.0000   0.2444
  12.300   1.1796   0.02749   0.02146  -0.0128  0.0168  1.0000  -6.0905   0.0000   0.0000   0.0000   0.2438
  12.400   1.1844   0.02792   0.02191  -0.0123  0.0163  1.0000  -6.1830   0.0000   0.0000   0.0000   0.2432
  12.500   1.1891   0.02837   0.02238  -0.0119  0.0157  1.0000  -6.2742   0.0000   0.0000   0.0000   0.2426
  12.600   1.1935   0.02883   0.02286  -0.0114  0.0153  1.0000  -6.3644   0.0000   0.0000   0.0000   0.2420
  12.700   1.1979   0.02930   0.02335  -0.0110  0.0149  1.0000  -6.4545   0.0000   0.0000   0.0000   0.2414
  12.800   1.2022   0.02979   0.02385  -0.0105  0.0145  1.0000  -6.5443   0.0000   0.0000   0.0000   0.2408
  12.900   1.2063   0.03029   0.02438  -0.0100  0.0142  1.0000  -6.6328   0.0000   0.0000   0.0000   0.2403
  13.000   1.2102   0.03080   0.02492  -0.0095  0.0140  1.0000  -6.7201   0.0000   0.0000   0.0000   0.2397
  13.100   1.2139   0.03133   0.02548  -0.0091  0.0137  1.0000  -6.8058   0.0000   0.0000   0.0000   0.2390
  13.200   1.2170   0.03189   0.02607  -0.0085  0.0135  1.0000  -6.8880   0.0000   0.0000   0.0000   0.2384
  13.300   1.2189   0.03253   0.02675  -0.0080  0.0133  1.0000  -6.9630   0.0000   0.0000   0.0000   0.2377
  13.400   1.2210   0.03319   0.02744  -0.0074  0.0131  1.0000  -7.0387   0.0000   0.0000   0.0000   0.2371
  13.500   1.2235   0.03382   0.02811  -0.0069  0.0130  1.0000  -7.1177   0.0000   0.0000   0.0000   0.2365
  13.600   1.2263   0.03445   0.02877  -0.0064  0.0128  1.0000  -7.1985   0.0000   0.0000   0.0000   0.2359
  13.700   1.2292   0.03509   0.02945  -0.0060  0.0126  1.0000  -7.2800   0.0000   0.0000   0.0000   0.2353
  13.800   1.2321   0.03574   0.03013  -0.0055  0.0124  1.0000  -7.3616   0.0000   0.0000   0.0000   0.2348
  13.900   1.2349   0.03640   0.03084  -0.0051  0.0122  1.0000  -7.4430   0.0000   0.0000   0.0000   0.2342
  14.000   1.2376   0.03709   0.03156  -0.0047  0.0120  1.0000  -7.5234   0.0000   0.0000   0.0000   0.2337
  14.100   1.2401   0.03781   0.03232  -0.0043  0.0118  1.0000  -7.6023   0.0000   0.0000   0.0000   0.2331
  14.200   1.2423   0.03856   0.03311  -0.0038  0.0117  1.0000  -7.6792   0.0000   0.0000   0.0000   0.2326
  14.300   1.2440   0.03935   0.03395  -0.0034  0.0115  1.0000  -7.7523   0.0000   0.0000   0.0000   0.2321
  14.400   1.2443   0.04030   0.03494  -0.0030  0.0113  1.0000  -7.8148   0.0000   0.0000   0.0000   0.2315
  14.500   1.2445   0.04125   0.03594  -0.0026  0.0111  1.0000  -7.8770   0.0000   0.0000   0.0000   0.2309
  14.600   1.2453   0.04218   0.03692  -0.0022  0.0110  1.0000  -7.9418   0.0000   0.0000   0.0000   0.2304
  14.700   1.2460   0.04312   0.03791  -0.0018  0.0108  1.0000  -8.0062   0.0000   0.0000   0.0000   0.2299
  14.800   1.2466   0.04408   0.03892  -0.0014  0.0106  1.0000  -8.0682   0.0000   0.0000   0.0000   0.2294
  14.900   1.2469   0.04508   0.03999  -0.0010  0.0104  1.0000  -8.1265   0.0000   0.0000   0.0000   0.2289
  15.000   1.2466   0.04615   0.04111  -0.0006  0.0102  1.0000  -8.1794   0.0000   0.0000   0.0000   0.2284
  15.100   1.2457   0.04729   0.04232  -0.0002  0.0100  1.0000  -8.2257   0.0000   0.0000   0.0000   0.2279
  15.200   1.2436   0.04855   0.04365   0.0001  0.0098  1.0000  -8.2618   0.0000   0.0000   0.0000   0.2273
  15.300   1.2399   0.05002   0.04520   0.0005  0.0096  1.0000  -8.2836   0.0000   0.0000   0.0000   0.2268
  15.400   1.2360   0.05153   0.04679   0.0008  0.0094  1.0000  -8.3003   0.0000   0.0000   0.0000   0.2263
  15.500   1.2314   0.05312   0.04848   0.0012  0.0092  1.0000  -8.3066   0.0000   0.0000   0.0000   0.2258
  15.600   1.2254   0.05487   0.05034   0.0016  0.0089  1.0000  -8.2954   0.0000   0.0000   0.0000   0.2252
  15.700   1.2173   0.05689   0.05250   0.0021  0.0087  1.0000  -8.2592   0.0000   0.0000   0.0000   0.2246
  15.800   1.2116   0.05861   0.05430   0.0024  0.0086  1.0000  -8.2520   0.0000   0.0000   0.0000   0.2242
  15.900   1.2152   0.05931   0.05502   0.0023  0.0086  1.0000  -8.3531   0.0000   0.0000   0.0000   0.2240
  16.000   1.2170   0.06024   0.05597   0.0021  0.0086  1.0000  -8.4379   0.0000   0.0000   0.0000   0.2239
  16.100   1.2186   0.06123   0.05699   0.0020  0.0085  1.0000  -8.5207   0.0000   0.0000   0.0000   0.2238
  16.200   1.2211   0.06212   0.05790   0.0018  0.0085  1.0000  -8.6122   0.0000   0.0000   0.0000   0.2238
  16.300   1.2241   0.06296   0.05876   0.0017  0.0085  1.0000  -8.7088   0.0000   0.0000   0.0000   0.2237
  16.400   1.2274   0.06377   0.05959   0.0015  0.0085  1.0000  -8.8079   0.0000   0.0000   0.0000   0.2236
  16.500   1.2307   0.06459   0.06043   0.0013  0.0084  1.0000  -8.9078   0.0000   0.0000   0.0000   0.2235
  16.600   1.2340   0.06541   0.06127   0.0012  0.0084  1.0000  -9.0075   0.0000   0.0000   0.0000   0.2234
  16.700   1.2371   0.06626   0.06214   0.0010  0.0084  1.0000  -9.1061   0.0000   0.0000   0.0000   0.2234
  16.800   1.2400   0.06714   0.06304   0.0008  0.0083  1.0000  -9.2029   0.0000   0.0000   0.0000   0.2233
  16.900   1.2427   0.06807   0.06399   0.0006  0.0083  1.0000  -9.2974   0.0000   0.0000   0.0000   0.2233
  17.000   1.2436   0.06927   0.06523   0.0002  0.0083  1.0000  -9.3737   0.0000   0.0000   0.0000   0.2233
  17.100   1.2437   0.07060   0.06659  -0.0001  0.0083  1.0000  -9.4420   0.0000   0.0000   0.0000   0.2234
  17.200   1.2449   0.07178   0.06779  -0.0005  0.0082  1.0000  -9.5216   0.0000   0.0000   0.0000   0.2234
  17.300   1.2466   0.07288   0.06892  -0.0008  0.0082  1.0000  -9.6062   0.0000   0.0000   0.0000   0.2234
  17.400   1.2485   0.07397   0.07004  -0.0011  0.0082  1.0000  -9.6918   0.0000   0.0000   0.0000   0.2234
  17.500   1.2503   0.07507   0.07117  -0.0014  0.0081  1.0000  -9.7768   0.0000   0.0000   0.0000   0.2235
  17.600   1.2520   0.07620   0.07232  -0.0018  0.0081  1.0000  -9.8603   0.0000   0.0000   0.0000   0.2235
  17.700   1.2534   0.07737   0.07352  -0.0021  0.0080  1.0000  -9.9414   0.0000   0.0000   0.0000   0.2236
  17.800   1.2541   0.07868   0.07486  -0.0026  0.0080  1.0000  -10.0143   0.0000   0.0000   0.0000   0.2237
  17.900   1.2521   0.08042   0.07665  -0.0032  0.0080  1.0000  -10.0583   0.0000   0.0000   0.0000   0.2240
  18.000   1.2515   0.08197   0.07823  -0.0038  0.0079  1.0000  -10.1158   0.0000   0.0000   0.0000   0.2242
  18.100   1.2516   0.08338   0.07967  -0.0044  0.0079  1.0000  -10.1814   0.0000   0.0000   0.0000   0.2243
  18.200   1.2520   0.08476   0.08114  -0.0049  0.0078  1.0000  -10.2493   0.0000   0.0000   0.0000   0.2245
  18.300   1.2522   0.08616   0.08258  -0.0054  0.0078  1.0000  -10.3147   0.0000   0.0000   0.0000   0.2247
  18.400   1.2521   0.08762   0.08407  -0.0060  0.0077  1.0000  -10.3767   0.0000   0.0000   0.0000   0.2249
  18.500   1.2504   0.08938   0.08588  -0.0067  0.0077  1.0000  -10.4196   0.0000   0.0000   0.0000   0.2253
  18.600   1.2469   0.09148   0.08802  -0.0077  0.0076  1.0000  -10.4406   0.0000   0.0000   0.0000   0.2258
  18.700   1.2453   0.09324   0.08982  -0.0085  0.0076  1.0000  -10.4819   0.0000   0.0000   0.0000   0.2262
  18.800   1.2441   0.09491   0.09154  -0.0092  0.0075  1.0000  -10.5279   0.0000   0.0000   0.0000   0.2266
  18.900   1.2428   0.09660   0.09326  -0.0100  0.0075  1.0000  -10.5720   0.0000   0.0000   0.0000   0.2269
  19.000   1.2412   0.09835   0.09505  -0.0108  0.0074  1.0000  -10.6107   0.0000   0.0000   0.0000   0.2274
  19.100   1.2366   0.10068   0.09745  -0.0120  0.0074  1.0000  -10.6130   0.0000   0.0000   0.0000   0.2281
  19.200   1.2324   0.10297   0.09978  -0.0132  0.0073  1.0000  -10.6173   0.0000   0.0000   0.0000   0.2288
  19.300   1.2296   0.10495   0.10181  -0.0142  0.0073  1.0000  -10.6388   0.0000   0.0000   0.0000   0.2294
  19.400   1.2270   0.10689   0.10380  -0.0152  0.0072  1.0000  -10.6608   0.0000   0.0000   0.0000   0.2300
  19.500   1.2240   0.10891   0.10586  -0.0163  0.0072  1.0000  -10.6766   0.0000   0.0000   0.0000   0.2307
  19.600   1.2177   0.11162   0.10863  -0.0178  0.0071  1.0000  -10.6477   0.0000   0.0000   0.0000   0.2317
  19.700   1.2121   0.11418   0.11125  -0.0193  0.0071  1.0000  -10.6270   0.0000   0.0000   0.0000   0.2328
  19.800   1.2082   0.11642   0.11353  -0.0206  0.0070  1.0000  -10.6249   0.0000   0.0000   0.0000   0.2336
  19.900   1.2042   0.11865   0.11581  -0.0218  0.0070  1.0000  -10.6208   0.0000   0.0000   0.0000   0.2345
  20.000   1.1990   0.12111   0.11832  -0.0233  0.0070  1.0000  -10.5996   0.0000   0.0000   0.0000   0.2355
  20.100   1.1899   0.12446   0.12175  -0.0254  0.0069  1.0000  -10.5198   0.0000   0.0000   0.0000   0.2372
  20.200   1.1844   0.12704   0.12438  -0.0270  0.0069  1.0000  -10.4875   0.0000   0.0000   0.0000   0.2384
  20.300   1.1791   0.12956   0.12695  -0.0285  0.0069  1.0000  -10.4569   0.0000   0.0000   0.0000   0.2395
  20.400   1.1729   0.13218   0.12963  -0.0303  0.0068  1.0000  -10.4091   0.0000   0.0000   0.0000   0.2409
  20.500   1.1616   0.13576   0.13329  -0.0328  0.0069  1.0000  -10.2837   0.0000   0.0000   0.0000   0.2431
  20.600   1.1549   0.13843   0.13600  -0.0346  0.0068  1.0000  -10.2214   0.0000   0.0000   0.0000   0.2446
  20.700   1.1481   0.14116   0.13879  -0.0365  0.0068  1.0000  -10.1545   0.0000   0.0000   0.0000   0.2462
  20.800   1.1351   0.14540   0.14311  -0.0394  0.0068  1.0000  -9.9843   0.0000   0.0000   0.0000   0.2489
  20.900   1.1250   0.14908   0.14685  -0.0418  0.0068  1.0000  -9.8559   0.0000   0.0000   0.0000   0.2511
  21.000   1.1160   0.15262   0.15046  -0.0441  0.0068  1.0000  -9.7383   0.0000   0.0000   0.0000   0.2533
  21.100   1.0957   0.15902   0.15696  -0.0482  0.0069  1.0000  -9.4209   0.0000   0.0000   0.0000   0.2576
  21.200   1.0822   0.16397   0.16197  -0.0512  0.0069  1.0000  -9.2080   0.0000   0.0000   0.0000   0.2608
  21.300   1.0400   0.17680   0.17493  -0.0585  0.0072  1.0000  -8.4387   0.0000   0.0000   0.0000   0.2700
  22.700   0.8754   0.28068   0.27893  -0.0969  0.0058  1.0000  -3.0275   0.0000   0.0000   0.0000   0.3266
  22.800   0.8760   0.28361   0.28186  -0.0979  0.0058  1.0000  -2.9592   0.0000   0.0000   0.0000   0.3275
  22.900   0.8766   0.28655   0.28480  -0.0989  0.0058  1.0000  -2.8910   0.0000   0.0000   0.0000   0.3284
  23.000   0.8773   0.28946   0.28771  -0.0998  0.0058  1.0000  -2.8241   0.0000   0.0000   0.0000   0.3293
  23.100   0.8780   0.29234   0.29059  -0.1008  0.0058  1.0000  -2.7601   0.0000   0.0000   0.0000   0.3301
  23.200   0.8787   0.29519   0.29344  -0.1017  0.0059  1.0000  -2.6993   0.0000   0.0000   0.0000   0.3310
  23.300   0.8794   0.29799   0.29625  -0.1026  0.0059  1.0000  -2.6418   0.0000   0.0000   0.0000   0.3318
  23.400   0.8801   0.30077   0.29903  -0.1035  0.0060  1.0000  -2.5873   0.0000   0.0000   0.0000   0.3326
  23.500   0.8809   0.30352   0.30178  -0.1044  0.0060  1.0000  -2.5360   0.0000   0.0000   0.0000   0.3333
  23.600   0.8816   0.30624   0.30449  -0.1052  0.0061  1.0000  -2.4877   0.0000   0.0000   0.0000   0.3341
  23.700   0.8823   0.30893   0.30719  -0.1061  0.0063  1.0000  -2.4424   0.0000   0.0000   0.0000   0.3348
  23.800   0.8830   0.31159   0.30985  -0.1069  0.0064  1.0000  -2.3997   0.0000   0.0000   0.0000   0.3355
  23.900   0.8836   0.31424   0.31250  -0.1077  0.0065  1.0000  -2.3593   0.0000   0.0000   0.0000   0.3362
  24.000   0.8841   0.31688   0.31515  -0.1086  0.0067  1.0000  -2.3205   0.0000   0.0000   0.0000   0.3370
  24.100   0.8844   0.31954   0.31781  -0.1094  0.0069  1.0000  -2.2822   0.0000   0.0000   0.0000   0.3377
  24.200   0.8844   0.32227   0.32054  -0.1101  0.0072  1.0000  -2.2412   0.0000   0.0000   0.0000   0.3384
  24.300   0.8775   0.32853   0.32681  -0.1108  0.0082  1.0000  -2.0265   0.0000   0.0000   0.0000   0.3403
  24.400   0.8776   0.33114   0.32942  -0.1116  0.0082  1.0000  -1.9974   0.0000   0.0000   0.0000   0.3410
  24.500   0.8777   0.33365   0.33194  -0.1123  0.0083  1.0000  -1.9725   0.0000   0.0000   0.0000   0.3417
  24.600   0.8777   0.33611   0.33440  -0.1130  0.0083  1.0000  -1.9495   0.0000   0.0000   0.0000   0.3424
  24.700   0.8776   0.33851   0.33681  -0.1137  0.0083  1.0000  -1.9274   0.0000   0.0000   0.0000   0.3431
  24.800   0.8772   0.34087   0.33918  -0.1144  0.0083  1.0000  -1.9058   0.0000   0.0000   0.0000   0.3439
  24.900   0.8766   0.34318   0.34149  -0.1151  0.0083  1.0000  -1.8841   0.0000   0.0000   0.0000   0.3446
  25.000   0.8755   0.34543   0.34374  -0.1157  0.0083  1.0000  -1.8619   0.0000   0.0000   0.0000   0.3455
  25.100   0.8739   0.34757   0.34590  -0.1163  0.0083  1.0000  -1.8385   0.0000   0.0000   0.0000   0.3463
  25.200   0.8713   0.34957   0.34790  -0.1168  0.0083  1.0000  -1.8125   0.0000   0.0000   0.0000   0.3473
  25.500   0.7847   0.33135   0.32988  -0.1113  0.0083  1.0000  -1.4955   0.0000   0.0000   0.0000   0.3590
  25.600   0.7822   0.33160   0.33014  -0.1116  0.0083  1.0000  -1.4740   0.0000   0.0000   0.0000   0.3599
  25.700   0.7799   0.33190   0.33044  -0.1119  0.0083  1.0000  -1.4538   0.0000   0.0000   0.0000   0.3607
  25.800   0.7779   0.33222   0.33078  -0.1123  0.0083  1.0000  -1.4345   0.0000   0.0000   0.0000   0.3616
  25.900   0.7760   0.33258   0.33114  -0.1126  0.0083  1.0000  -1.4162   0.0000   0.0000   0.0000   0.3624
  26.000   0.7743   0.33296   0.33153  -0.1130  0.0083  1.0000  -1.3987   0.0000   0.0000   0.0000   0.3631
  26.100   0.7728   0.33337   0.33194  -0.1133  0.0083  1.0000  -1.3820   0.0000   0.0000   0.0000   0.3639
  26.200   0.7714   0.33379   0.33237  -0.1137  0.0083  1.0000  -1.3659   0.0000   0.0000   0.0000   0.3646
  26.300   0.7701   0.33423   0.33282  -0.1141  0.0083  1.0000  -1.3504   0.0000   0.0000   0.0000   0.3654
  26.400   0.7689   0.33468   0.33327  -0.1145  0.0083  1.0000  -1.3352   0.0000   0.0000   0.0000   0.3661
  26.500   0.7678   0.33514   0.33375  -0.1149  0.0083  1.0000  -1.3206   0.0000   0.0000   0.0000   0.3668
  26.600   0.7667   0.33562   0.33423  -0.1153  0.0083  1.0000  -1.3064   0.0000   0.0000   0.0000   0.3675
  26.700   0.7658   0.33611   0.33472  -0.1157  0.0083  1.0000  -1.2926   0.0000   0.0000   0.0000   0.3681
  26.800   0.7649   0.33660   0.33522  -0.1161  0.0083  1.0000  -1.2793   0.0000   0.0000   0.0000   0.3688
  26.900   0.7641   0.33711   0.33573  -0.1165  0.0083  1.0000  -1.2664   0.0000   0.0000   0.0000   0.3695
  27.000   0.7633   0.33762   0.33625  -0.1170  0.0083  1.0000  -1.2553   0.0000   0.0000   0.0000   0.3701
  27.100   0.7626   0.33813   0.33677  -0.1174  0.0083  1.0000  -1.2489   0.0000   0.0000   0.0000   0.3707
  27.200   0.7620   0.33866   0.33730  -0.1178  0.0083  1.0000  -1.2427   0.0000   0.0000   0.0000   0.3714
  27.300   0.7614   0.33919   0.33784  -0.1183  0.0083  1.0000  -1.2367   0.0000   0.0000   0.0000   0.3720
  27.400   0.7608   0.33972   0.33838  -0.1187  0.0082  1.0000  -1.2309   0.0000   0.0000   0.0000   0.3726
  27.500   0.7603   0.34026   0.33892  -0.1191  0.0082  1.0000  -1.2253   0.0000   0.0000   0.0000   0.3732
  27.600   0.7598   0.34081   0.33948  -0.1196  0.0082  1.0000  -1.2198   0.0000   0.0000   0.0000   0.3738
  27.700   0.7594   0.34136   0.34003  -0.1200  0.0082  1.0000  -1.2144   0.0000   0.0000   0.0000   0.3744
  27.800   0.7590   0.34191   0.34059  -0.1205  0.0082  1.0000  -1.2091   0.0000   0.0000   0.0000   0.3749
  27.900   0.7586   0.34247   0.34115  -0.1209  0.0082  1.0000  -1.2039   0.0000   0.0000   0.0000   0.3755
  28.000   0.7582   0.34303   0.34172  -0.1214  0.0082  1.0000  -1.1989   0.0000   0.0000   0.0000   0.3761
  28.100   0.7579   0.34359   0.34229  -0.1218  0.0082  1.0000  -1.1939   0.0000   0.0000   0.0000   0.3766
  28.200   0.7576   0.34416   0.34286  -0.1223  0.0082  1.0000  -1.1890   0.0000   0.0000   0.0000   0.3772
  28.300   0.7574   0.34473   0.34343  -0.1227  0.0082  1.0000  -1.1841   0.0000   0.0000   0.0000   0.3777
  28.400   0.7571   0.34531   0.34401  -0.1232  0.0082  1.0000  -1.1794   0.0000   0.0000   0.0000   0.3783
  28.500   0.7569   0.34588   0.34459  -0.1236  0.0082  1.0000  -1.1746   0.0000   0.0000   0.0000   0.3788
  28.600   0.7567   0.34646   0.34518  -0.1241  0.0082  1.0000  -1.1699   0.0000   0.0000   0.0000   0.3793
  28.700   0.7565   0.34704   0.34576  -0.1246  0.0082  1.0000  -1.1652   0.0000   0.0000   0.0000   0.3799
  28.800   0.7564   0.34763   0.34635  -0.1250  0.0082  1.0000  -1.1606   0.0000   0.0000   0.0000   0.3804
  28.900   0.7562   0.34821   0.34694  -0.1255  0.0082  1.0000  -1.1559   0.0000   0.0000   0.0000   0.3809
  29.000   0.7561   0.34880   0.34754  -0.1259  0.0082  1.0000  -1.1513   0.0000   0.0000   0.0000   0.3814
  29.100   0.7560   0.34939   0.34816  -0.1264  0.0082  1.0000  -1.1464   0.0000   0.0000   0.0000   0.3819
  29.200   0.7559   0.34998   0.34875  -0.1269  0.0082  1.0000  -1.1418   0.0000   0.0000   0.0000   0.3824
  29.300   0.7558   0.35058   0.34936  -0.1273  0.0082  1.0000  -1.1368   0.0000   0.0000   0.0000   0.3829
  29.400   0.7557   0.35119   0.34996  -0.1278  0.0081  1.0000  -1.1317   0.0000   0.0000   0.0000   0.3835
  29.500   0.7557   0.35179   0.35057  -0.1283  0.0081  1.0000  -1.1266   0.0000   0.0000   0.0000   0.3840
  29.600   0.7556   0.35240   0.35118  -0.1288  0.0081  1.0000  -1.1215   0.0000   0.0000   0.0000   0.3845
  29.700   0.7556   0.35301   0.35180  -0.1293  0.0081  1.0000  -1.1163   0.0000   0.0000   0.0000   0.3850
  29.800   0.7556   0.35362   0.35241  -0.1297  0.0081  1.0000  -1.1111   0.0000   0.0000   0.0000   0.3854


