xflr5 v6.61

 Calculated polar for: RAF 6 AIRFOIL

 1 1 Reynolds number fixed          Mach number fixed         

 xtrf =   1.000 (top)        1.000 (bottom)
 Mach =   0.000     Re =     0.300 e 6     Ncrit =   9.000

  alpha     CL        CD       CDp       Cm    Top Xtr Bot Xtr   Cpmin    Chinge    XCp    
 ------- -------- --------- --------- -------- ------- ------- -------- --------- ---------
  -6.100  -0.0033   0.06296   0.05680  -0.0903  0.3990  0.0247  -1.2346   0.0000   0.0000   0.0000  -27.7438
  -6.000   0.0018   0.06180   0.05544  -0.0909  0.3463  0.0247  -1.2389   0.0000   0.0000   0.0000  52.2283
  -5.900   0.0073   0.06060   0.05405  -0.0915  0.3098  0.0248  -1.2421   0.0000   0.0000   0.0000  12.9405
  -5.800   0.0144   0.05911   0.05249  -0.0923  0.2990  0.0248  -1.2441   0.0000   0.0000   0.0000   6.7437
  -5.700   0.0220   0.05758   0.05091  -0.0931  0.2968  0.0249  -1.2455   0.0000   0.0000   0.0000   4.5536
  -5.600   0.0297   0.05606   0.04934  -0.0938  0.2947  0.0249  -1.2463   0.0000   0.0000   0.0000   3.4598
  -5.500   0.0375   0.05454   0.04778  -0.0944  0.2926  0.0250  -1.2468   0.0000   0.0000   0.0000   2.8019
  -5.400   0.0456   0.05304   0.04622  -0.0950  0.2905  0.0251  -1.2472   0.0000   0.0000   0.0000   2.3642
  -5.300   0.0534   0.05158   0.04470  -0.0954  0.2885  0.0251  -1.2468   0.0000   0.0000   0.0000   2.0604
  -5.200   0.0613   0.05014   0.04320  -0.0958  0.2866  0.0252  -1.2457   0.0000   0.0000   0.0000   1.8337
  -5.100   0.0692   0.04872   0.04172  -0.0961  0.2847  0.0252  -1.2439   0.0000   0.0000   0.0000   1.6561
  -5.000   0.0771   0.04733   0.04026  -0.0962  0.2829  0.0253  -1.2415   0.0000   0.0000   0.0000   1.5126
  -4.900   0.0852   0.04595   0.03881  -0.0963  0.2811  0.0254  -1.2385   0.0000   0.0000   0.0000   1.3940
  -4.800   0.0933   0.04460   0.03739  -0.0964  0.2794  0.0254  -1.2348   0.0000   0.0000   0.0000   1.2941
  -4.700   0.1015   0.04327   0.03599  -0.0963  0.2777  0.0255  -1.2302   0.0000   0.0000   0.0000   1.2094
  -4.600   0.1095   0.04198   0.03461  -0.0962  0.2761  0.0256  -1.2244   0.0000   0.0000   0.0000   1.1378
  -4.500   0.1175   0.04072   0.03326  -0.0960  0.2746  0.0256  -1.2178   0.0000   0.0000   0.0000   1.0754
  -4.400   0.1256   0.03948   0.03194  -0.0958  0.2732  0.0257  -1.2104   0.0000   0.0000   0.0000   1.0205
  -4.300   0.1336   0.03828   0.03064  -0.0955  0.2718  0.0258  -1.2022   0.0000   0.0000   0.0000   0.9717
  -4.200   0.1416   0.03710   0.02936  -0.0952  0.2705  0.0258  -1.1931   0.0000   0.0000   0.0000   0.9281
  -4.100   0.1497   0.03594   0.02811  -0.0948  0.2693  0.0259  -1.1832   0.0000   0.0000   0.0000   0.8887
  -4.000   0.1578   0.03482   0.02688  -0.0943  0.2681  0.0260  -1.1723   0.0000   0.0000   0.0000   0.8529
  -3.900   0.1660   0.03372   0.02568  -0.0938  0.2670  0.0261  -1.1605   0.0000   0.0000   0.0000   0.8202
  -3.800   0.1742   0.03265   0.02450  -0.0933  0.2659  0.0261  -1.1476   0.0000   0.0000   0.0000   0.7903
  -3.700   0.1824   0.03161   0.02336  -0.0928  0.2650  0.0262  -1.1333   0.0000   0.0000   0.0000   0.7628
  -3.600   0.1906   0.03061   0.02224  -0.0922  0.2641  0.0263  -1.1173   0.0000   0.0000   0.0000   0.7376
  -3.500   0.1914   0.02508   0.01633  -0.0904  0.2517  0.0296  -1.2838   0.0000   0.0000   0.0000   0.7262
  -3.400   0.1982   0.02405   0.01534  -0.0904  0.2537  0.0318  -1.2238   0.0000   0.0000   0.0000   0.7092
  -3.300   0.2059   0.02353   0.01490  -0.0905  0.2570  0.0341  -1.1434   0.0000   0.0000   0.0000   0.6923
  -3.200   0.2140   0.02317   0.01462  -0.0905  0.2602  0.0369  -1.0637   0.0000   0.0000   0.0000   0.6756
  -3.100   0.2227   0.02297   0.01446  -0.0905  0.2631  0.0407  -0.9894   0.0000   0.0000   0.0000   0.6586
  -3.000   0.2326   0.02319   0.01473  -0.0905  0.2662  0.0461  -0.9097   0.0000   0.0000   0.0000   0.6409
  -1.900   0.3413   0.01545   0.00601  -0.0855  0.2635  0.0547  -0.6071   0.0000   0.0000   0.0000   0.5010
  -1.800   0.3527   0.01435   0.00462  -0.0843  0.2596  0.0459  -0.6169   0.0000   0.0000   0.0000   0.4893
  -1.700   0.3631   0.01382   0.00382  -0.0834  0.2578  0.0424  -0.6284   0.0000   0.0000   0.0000   0.4799
  -1.600   0.3733   0.01353   0.00332  -0.0828  0.2574  0.0412  -0.6411   0.0000   0.0000   0.0000   0.4718
  -1.500   0.3836   0.01331   0.00297  -0.0823  0.2583  0.0442  -0.6544   0.0000   0.0000   0.0000   0.4647
  -1.400   0.3934   0.01295   0.00284  -0.0820  0.2596  0.1138  -0.6675   0.0000   0.0000   0.0000   0.4584
  -1.300   0.3982   0.01184   0.00290  -0.0819  0.2602  0.4521  -0.6785   0.0000   0.0000   0.0000   0.4554
  -1.200   0.4411   0.01064   0.00313  -0.0892  0.2639  0.9843  -0.7221   0.0000   0.0000   0.0000   0.4520
  -1.100   0.4733   0.01067   0.00312  -0.0946  0.2663  1.0000  -0.7565   0.0000   0.0000   0.0000   0.4497
  -1.000   0.4806   0.01069   0.00313  -0.0943  0.2668  1.0000  -0.7704   0.0000   0.0000   0.0000   0.4458
  -0.900   0.4879   0.01071   0.00314  -0.0939  0.2673  1.0000  -0.7843   0.0000   0.0000   0.0000   0.4421
  -0.800   0.4951   0.01074   0.00315  -0.0935  0.2677  1.0000  -0.7982   0.0000   0.0000   0.0000   0.4384
  -0.700   0.5023   0.01076   0.00316  -0.0931  0.2680  1.0000  -0.8121   0.0000   0.0000   0.0000   0.4348
  -0.600   0.5094   0.01079   0.00317  -0.0927  0.2683  1.0000  -0.8259   0.0000   0.0000   0.0000   0.4313
  -0.500   0.5165   0.01082   0.00318  -0.0923  0.2686  1.0000  -0.8398   0.0000   0.0000   0.0000   0.4279
  -0.400   0.5235   0.01085   0.00320  -0.0919  0.2687  1.0000  -0.8537   0.0000   0.0000   0.0000   0.4246
  -0.300   0.5305   0.01088   0.00322  -0.0915  0.2689  1.0000  -0.8676   0.0000   0.0000   0.0000   0.4214
  -0.200   0.5377   0.01091   0.00324  -0.0911  0.2689  1.0000  -0.8817   0.0000   0.0000   0.0000   0.4182
  -0.100   0.5448   0.01095   0.00326  -0.0907  0.2689  1.0000  -0.8958   0.0000   0.0000   0.0000   0.4152
   0.000   0.5521   0.01098   0.00328  -0.0903  0.2688  1.0000  -0.9101   0.0000   0.0000   0.0000   0.4122
   0.100   0.5595   0.01102   0.00331  -0.0900  0.2686  1.0000  -0.9245   0.0000   0.0000   0.0000   0.4093
   0.200   0.5670   0.01106   0.00333  -0.0896  0.2685  1.0000  -0.9390   0.0000   0.0000   0.0000   0.4066
   0.300   0.5747   0.01110   0.00336  -0.0893  0.2683  1.0000  -0.9537   0.0000   0.0000   0.0000   0.4039
   0.400   0.5824   0.01114   0.00339  -0.0891  0.2681  1.0000  -0.9685   0.0000   0.0000   0.0000   0.4013
   0.500   0.5902   0.01118   0.00342  -0.0888  0.2679  1.0000  -0.9835   0.0000   0.0000   0.0000   0.3987
   0.600   0.5981   0.01123   0.00345  -0.0886  0.2676  1.0000  -0.9985   0.0000   0.0000   0.0000   0.3963
   0.700   0.6061   0.01127   0.00348  -0.0884  0.2673  1.0000  -1.0136   0.0000   0.0000   0.0000   0.3939
   0.800   0.6141   0.01132   0.00351  -0.0882  0.2670  1.0000  -1.0289   0.0000   0.0000   0.0000   0.3916
   0.900   0.6222   0.01136   0.00355  -0.0880  0.2666  1.0000  -1.0442   0.0000   0.0000   0.0000   0.3893
   1.000   0.6303   0.01141   0.00358  -0.0878  0.2661  1.0000  -1.0596   0.0000   0.0000   0.0000   0.3871
   1.100   0.6385   0.01146   0.00362  -0.0877  0.2656  1.0000  -1.0751   0.0000   0.0000   0.0000   0.3850
   1.200   0.6467   0.01152   0.00366  -0.0875  0.2650  1.0000  -1.0906   0.0000   0.0000   0.0000   0.3829
   1.300   0.6549   0.01157   0.00370  -0.0874  0.2644  1.0000  -1.1062   0.0000   0.0000   0.0000   0.3809
   1.400   0.6631   0.01163   0.00373  -0.0872  0.2637  1.0000  -1.1219   0.0000   0.0000   0.0000   0.3789
   2.200   0.7114   0.01420   0.00387  -0.0818  0.2566  0.0719  -1.2326   0.0000   0.0000   0.0000   0.3616
   2.300   0.7201   0.01426   0.00394  -0.0817  0.2552  0.0714  -1.2491   0.0000   0.0000   0.0000   0.3601
   2.400   0.7289   0.01433   0.00400  -0.0817  0.2537  0.0709  -1.2655   0.0000   0.0000   0.0000   0.3586
   2.500   0.7377   0.01440   0.00407  -0.0817  0.2521  0.0706  -1.2820   0.0000   0.0000   0.0000   0.3572
   2.600   0.7465   0.01447   0.00414  -0.0817  0.2503  0.0704  -1.2985   0.0000   0.0000   0.0000   0.3558
   2.700   0.7554   0.01454   0.00420  -0.0817  0.2483  0.0702  -1.3151   0.0000   0.0000   0.0000   0.3544
   2.800   0.7642   0.01462   0.00427  -0.0817  0.2461  0.0702  -1.3316   0.0000   0.0000   0.0000   0.3530
   2.900   0.7731   0.01469   0.00434  -0.0817  0.2435  0.0702  -1.3482   0.0000   0.0000   0.0000   0.3517
   3.000   0.7826   0.01471   0.00424  -0.0818  0.2469  0.0704  -1.3655   0.0000   0.0000   0.0000   0.3505
   3.100   0.7917   0.01477   0.00431  -0.0818  0.2466  0.0705  -1.3823   0.0000   0.0000   0.0000   0.3492
   3.200   0.8009   0.01483   0.00438  -0.0818  0.2457  0.0706  -1.3991   0.0000   0.0000   0.0000   0.3480
   3.300   0.8100   0.01489   0.00445  -0.0819  0.2451  0.0708  -1.4156   0.0000   0.0000   0.0000   0.3468
   3.400   0.8191   0.01496   0.00452  -0.0819  0.2438  0.0710  -1.4318   0.0000   0.0000   0.0000   0.3455
   3.500   0.8279   0.01506   0.00460  -0.0818  0.2375  0.0712  -1.4463   0.0000   0.0000   0.0000   0.3443
   3.600   0.8353   0.01580   0.00537  -0.0812  0.1998  0.0713  -1.4275   0.0000   0.0000   0.0000   0.3426
   3.900   0.8894   0.01774   0.00804  -0.0871  0.2008  0.0724  -1.4542   0.0000   0.0000   0.0000   0.3430
   4.000   0.8986   0.01772   0.00801  -0.0870  0.2035  0.0727  -1.4785   0.0000   0.0000   0.0000   0.3418
   4.100   0.9082   0.01778   0.00809  -0.0871  0.2056  0.0731  -1.5029   0.0000   0.0000   0.0000   0.3408
   4.200   0.9185   0.01794   0.00829  -0.0873  0.2065  0.0734  -1.5274   0.0000   0.0000   0.0000   0.3399
   4.300   0.9288   0.01814   0.00853  -0.0876  0.2068  0.0738  -1.5519   0.0000   0.0000   0.0000   0.3391
   4.400   0.9391   0.01833   0.00877  -0.0879  0.2072  0.0743  -1.5764   0.0000   0.0000   0.0000   0.3382
   4.500   0.9494   0.01853   0.00901  -0.0882  0.2077  0.0747  -1.6010   0.0000   0.0000   0.0000   0.3374
   4.600   0.9595   0.01873   0.00925  -0.0884  0.2081  0.0751  -1.6256   0.0000   0.0000   0.0000   0.3366
   4.700   0.9696   0.01893   0.00949  -0.0886  0.2086  0.0756  -1.6502   0.0000   0.0000   0.0000   0.3357
   4.800   0.9797   0.01913   0.00973  -0.0889  0.2091  0.0761  -1.6748   0.0000   0.0000   0.0000   0.3349
   4.900   0.9897   0.01936   0.01000  -0.0891  0.2093  0.0766  -1.6993   0.0000   0.0000   0.0000   0.3341
   5.000   1.0003   0.01989   0.01061  -0.0895  0.2070  0.0772  -1.7225   0.0000   0.0000   0.0000   0.3335
   5.100   1.0103   0.02043   0.01123  -0.0899  0.2055  0.0777  -1.7452   0.0000   0.0000   0.0000   0.3328
   5.200   1.0200   0.02077   0.01162  -0.0900  0.2053  0.0783  -1.7687   0.0000   0.0000   0.0000   0.3320
   5.300   1.0295   0.02114   0.01203  -0.0902  0.2051  0.0789  -1.7920   0.0000   0.0000   0.0000   0.3313
   5.400   1.0389   0.02155   0.01257  -0.0903  0.2048  0.0978  -1.8149   0.0000   0.0000   0.0000   0.3305
   5.500   1.0481   0.02197   0.01309  -0.0904  0.2045  0.0989  -1.8375   0.0000   0.0000   0.0000   0.3297
   6.900   1.1656   0.02499   0.01822  -0.0895  0.1993  1.0000  -2.1718   0.0000   0.0000   0.0000   0.3185
   7.000   1.1749   0.02487   0.01806  -0.0895  0.1991  1.0000  -2.2021   0.0000   0.0000   0.0000   0.3177
   7.100   1.1842   0.02477   0.01794  -0.0894  0.1989  1.0000  -2.2321   0.0000   0.0000   0.0000   0.3169
   7.200   1.1933   0.02470   0.01783  -0.0894  0.1987  1.0000  -2.2619   0.0000   0.0000   0.0000   0.3162
   7.300   1.2024   0.02464   0.01774  -0.0893  0.1984  1.0000  -2.2917   0.0000   0.0000   0.0000   0.3154
   7.400   1.2145   0.02302   0.01590  -0.0895  0.1976  1.0000  -2.3444   0.0000   0.0000   0.0000   0.3146
   7.500   1.2218   0.02080   0.01330  -0.0885  0.1961  1.0000  -2.4020   0.0000   0.0000   0.0000   0.3132
   7.600   1.2227   0.01977   0.01202  -0.0866  0.1948  1.0000  -2.4374   0.0000   0.0000   0.0000   0.3113
   7.700   1.2227   0.01921   0.01131  -0.0845  0.1935  1.0000  -2.4656   0.0000   0.0000   0.0000   0.3095
   7.800   1.2269   0.01879   0.01075  -0.0834  0.1919  1.0000  -2.4983   0.0000   0.0000   0.0000   0.3082
   7.900   1.2340   0.01863   0.01053  -0.0830  0.1905  1.0000  -2.5303   0.0000   0.0000   0.0000   0.3073
   8.000   1.2422   0.01862   0.01048  -0.0827  0.1893  1.0000  -2.5609   0.0000   0.0000   0.0000   0.3065
   8.100   1.2505   0.01862   0.01045  -0.0825  0.1879  1.0000  -2.5915   0.0000   0.0000   0.0000   0.3057
   8.200   1.2589   0.01864   0.01044  -0.0824  0.1863  1.0000  -2.6221   0.0000   0.0000   0.0000   0.3050
   8.300   1.2674   0.01868   0.01045  -0.0822  0.1845  1.0000  -2.6526   0.0000   0.0000   0.0000   0.3043
   8.400   1.2759   0.01873   0.01047  -0.0821  0.1824  1.0000  -2.6831   0.0000   0.0000   0.0000   0.3036
   8.500   1.2843   0.01880   0.01050  -0.0819  0.1800  1.0000  -2.7132   0.0000   0.0000   0.0000   0.3028
   8.600   1.2926   0.01889   0.01054  -0.0817  0.1771  1.0000  -2.7431   0.0000   0.0000   0.0000   0.3021
   8.700   1.3007   0.01899   0.01060  -0.0815  0.1736  1.0000  -2.7728   0.0000   0.0000   0.0000   0.3014
   8.800   1.3087   0.01912   0.01066  -0.0813  0.1694  1.0000  -2.8021   0.0000   0.0000   0.0000   0.3007
   8.900   1.3164   0.01926   0.01072  -0.0810  0.1644  1.0000  -2.8310   0.0000   0.0000   0.0000   0.2999
   9.000   1.3238   0.01943   0.01080  -0.0807  0.1585  1.0000  -2.8594   0.0000   0.0000   0.0000   0.2992
   9.100   1.3307   0.01963   0.01090  -0.0803  0.1516  1.0000  -2.8871   0.0000   0.0000   0.0000   0.2984
   9.200   1.3373   0.01986   0.01101  -0.0798  0.1442  1.0000  -2.9139   0.0000   0.0000   0.0000   0.2976
   9.300   1.3435   0.02011   0.01113  -0.0793  0.1363  1.0000  -2.9400   0.0000   0.0000   0.0000   0.2968
   9.400   1.3495   0.02037   0.01130  -0.0788  0.1282  1.0000  -2.9654   0.0000   0.0000   0.0000   0.2959
   9.500   1.3557   0.02062   0.01147  -0.0782  0.1193  1.0000  -2.9908   0.0000   0.0000   0.0000   0.2951
   9.600   1.3626   0.02084   0.01164  -0.0778  0.1099  1.0000  -3.0169   0.0000   0.0000   0.0000   0.2943
   9.700   1.3701   0.02102   0.01180  -0.0775  0.1015  1.0000  -3.0435   0.0000   0.0000   0.0000   0.2936
   9.800   1.3775   0.02122   0.01196  -0.0772  0.0988  1.0000  -3.0714   0.0000   0.0000   0.0000   0.2929
   9.900   1.3846   0.02144   0.01212  -0.0768  0.0960  1.0000  -3.0989   0.0000   0.0000   0.0000   0.2921
  10.000   1.3911   0.02170   0.01229  -0.0763  0.0923  1.0000  -3.1257   0.0000   0.0000   0.0000   0.2914
  10.100   1.3966   0.02202   0.01250  -0.0757  0.0869  1.0000  -3.1508   0.0000   0.0000   0.0000   0.2905
  10.200   1.4000   0.02249   0.01278  -0.0748  0.0782  1.0000  -3.1727   0.0000   0.0000   0.0000   0.2896
  10.300   1.3903   0.02391   0.01364  -0.0721  0.0534  1.0000  -3.1767   0.0000   0.0000   0.0000   0.2879
  10.400   1.3912   0.02455   0.01403  -0.0709  0.0482  1.0000  -3.1797   0.0000   0.0000   0.0000   0.2868
  10.500   1.3987   0.02487   0.01422  -0.0705  0.0437  1.0000  -3.1814   0.0000   0.0000   0.0000   0.2861
  10.600   1.4048   0.02522   0.01443  -0.0699  0.0374  1.0000  -3.2377   0.0000   0.0000   0.0000   0.2853
  10.700   1.4124   0.02550   0.01462  -0.0695  0.0312  1.0000  -3.3239   0.0000   0.0000   0.0000   0.2845
  10.900   1.4269   0.02629   0.01546  -0.0682  0.0257  1.0000  -3.4573   0.0000   0.0000   0.0000   0.2826
  11.000   1.4314   0.02673   0.01596  -0.0673  0.0256  1.0000  -3.5245   0.0000   0.0000   0.0000   0.2816
  11.100   1.4353   0.02721   0.01651  -0.0663  0.0255  1.0000  -3.5878   0.0000   0.0000   0.0000   0.2806
  11.200   1.4387   0.02771   0.01709  -0.0652  0.0255  1.0000  -3.6478   0.0000   0.0000   0.0000   0.2795
  11.300   1.4416   0.02824   0.01773  -0.0640  0.0254  1.0000  -3.7048   0.0000   0.0000   0.0000   0.2784
  11.400   1.4439   0.02880   0.01842  -0.0628  0.0254  1.0000  -3.7583   0.0000   0.0000   0.0000   0.2773
  11.500   1.4457   0.02942   0.01917  -0.0615  0.0254  1.0000  -3.8078   0.0000   0.0000   0.0000   0.2761
  11.600   1.4460   0.03011   0.02002  -0.0601  0.0255  1.0000  -3.8499   0.0000   0.0000   0.0000   0.2749
  11.700   1.4439   0.03092   0.02098  -0.0585  0.0255  1.0000  -3.8807   0.0000   0.0000   0.0000   0.2736
  11.800   1.4420   0.03179   0.02201  -0.0569  0.0256  1.0000  -3.9233   0.0000   0.0000   0.0000   0.2724
  12.100   1.4373   0.03461   0.02537  -0.0524  0.0267  1.0000  -4.0756   0.0000   0.0000   0.0000   0.2686
  12.200   1.4388   0.03537   0.02620  -0.0513  0.0274  1.0000  -4.1277   0.0000   0.0000   0.0000   0.2676
  12.300   1.4405   0.03612   0.02702  -0.0503  0.0283  1.0000  -4.1815   0.0000   0.0000   0.0000   0.2667
  12.400   1.4423   0.03688   0.02783  -0.0493  0.0293  1.0000  -4.2359   0.0000   0.0000   0.0000   0.2657
  12.500   1.4441   0.03764   0.02866  -0.0483  0.0304  1.0000  -4.2897   0.0000   0.0000   0.0000   0.2648
  12.600   1.4456   0.03845   0.02953  -0.0474  0.0316  1.0000  -4.3414   0.0000   0.0000   0.0000   0.2639
  12.700   1.4458   0.03937   0.03053  -0.0464  0.0329  1.0000  -4.3859   0.0000   0.0000   0.0000   0.2629
  12.800   1.4441   0.04044   0.03171  -0.0453  0.0342  1.0000  -4.4196   0.0000   0.0000   0.0000   0.2620
  12.900   1.4430   0.04154   0.03295  -0.0442  0.0359  1.0000  -4.4518   0.0000   0.0000   0.0000   0.2610
  19.900   0.9871   0.26507   0.26078  -0.1132  0.0647  1.0000  -1.5577   0.0000   0.0000   0.0000   0.3370
  20.000   1.0113   0.25835   0.25399  -0.1078  0.0562  1.0000  -1.8951   0.0000   0.0000   0.0000   0.3278
  20.100   1.0037   0.26441   0.26006  -0.1076  0.0527  1.0000  -1.8619   0.0000   0.0000   0.0000   0.3282
  20.200   0.9819   0.27773   0.27343  -0.1102  0.0512  1.0000  -1.6269   0.0000   0.0000   0.0000   0.3338


