xflr5 v6.61

 Calculated polar for: RAF 6 AIRFOIL

 1 1 Reynolds number fixed          Mach number fixed         

 xtrf =   1.000 (top)        1.000 (bottom)
 Mach =   0.000     Re =     0.688 e 6     Ncrit =   9.000

  alpha     CL        CD       CDp       Cm    Top Xtr Bot Xtr   Cpmin    Chinge    XCp    
 ------- -------- --------- --------- -------- ------- ------- -------- --------- ---------
 -10.000  -0.1609   0.11633   0.11076  -0.0547  0.1948  0.0213  -1.0816   0.0000   0.0000   0.0000  -0.1162
  -9.900  -0.1582   0.11499   0.10942  -0.0551  0.1944  0.0213  -1.0836   0.0000   0.0000   0.0000  -0.1249
  -9.800  -0.1556   0.11366   0.10808  -0.0556  0.1941  0.0214  -1.0858   0.0000   0.0000   0.0000  -0.1339
  -9.700  -0.1529   0.11232   0.10675  -0.0561  0.1938  0.0214  -1.0880   0.0000   0.0000   0.0000  -0.1432
  -9.600  -0.1503   0.11099   0.10542  -0.0565  0.1934  0.0215  -1.0902   0.0000   0.0000   0.0000  -0.1527
  -9.500  -0.1477   0.10966   0.10410  -0.0570  0.1931  0.0215  -1.0926   0.0000   0.0000   0.0000  -0.1626
  -9.400  -0.1451   0.10834   0.10278  -0.0575  0.1928  0.0215  -1.0951   0.0000   0.0000   0.0000  -0.1726
  -9.300  -0.1426   0.10703   0.10147  -0.0579  0.1925  0.0216  -1.0977   0.0000   0.0000   0.0000  -0.1829
  -9.200  -0.1401   0.10572   0.10017  -0.0584  0.1921  0.0216  -1.1005   0.0000   0.0000   0.0000  -0.1933
  -9.100  -0.1377   0.10442   0.09887  -0.0588  0.1918  0.0217  -1.1033   0.0000   0.0000   0.0000  -0.2039
  -9.000  -0.1353   0.10314   0.09759  -0.0593  0.1915  0.0217  -1.1062   0.0000   0.0000   0.0000  -0.2145
  -8.900  -0.1331   0.10186   0.09632  -0.0597  0.1911  0.0217  -1.1093   0.0000   0.0000   0.0000  -0.2250
  -8.800  -0.1309   0.10061   0.09506  -0.0601  0.1908  0.0218  -1.1126   0.0000   0.0000   0.0000  -0.2353
  -8.700  -0.1288   0.09936   0.09382  -0.0605  0.1905  0.0218  -1.1160   0.0000   0.0000   0.0000  -0.2459
  -8.600  -0.1266   0.09809   0.09255  -0.0609  0.1901  0.0219  -1.1195   0.0000   0.0000   0.0000  -0.2580
  -8.500  -0.1238   0.09675   0.09122  -0.0615  0.1898  0.0219  -1.1226   0.0000   0.0000   0.0000  -0.2737
  -8.400  -0.1208   0.09539   0.08987  -0.0622  0.1894  0.0220  -1.1258   0.0000   0.0000   0.0000  -0.2914
  -8.300  -0.1177   0.09403   0.08851  -0.0629  0.1891  0.0220  -1.1291   0.0000   0.0000   0.0000  -0.3106
  -8.200  -0.1146   0.09265   0.08714  -0.0636  0.1887  0.0220  -1.1326   0.0000   0.0000   0.0000  -0.3315
  -8.100  -0.1114   0.09127   0.08576  -0.0643  0.1883  0.0221  -1.1361   0.0000   0.0000   0.0000  -0.3542
  -8.000  -0.1082   0.08988   0.08438  -0.0651  0.1879  0.0221  -1.1398   0.0000   0.0000   0.0000  -0.3791
  -7.900  -0.1049   0.08849   0.08299  -0.0659  0.1876  0.0222  -1.1436   0.0000   0.0000   0.0000  -0.4063
  -7.800  -0.1014   0.08708   0.08158  -0.0668  0.1872  0.0222  -1.1474   0.0000   0.0000   0.0000  -0.4363
  -7.700  -0.0980   0.08566   0.08017  -0.0677  0.1868  0.0223  -1.1513   0.0000   0.0000   0.0000  -0.4691
  -7.600  -0.0945   0.08425   0.07876  -0.0687  0.1863  0.0223  -1.1556   0.0000   0.0000   0.0000  -0.5045
  -7.500  -0.0912   0.08285   0.07737  -0.0696  0.1859  0.0224  -1.1603   0.0000   0.0000   0.0000  -0.5419
  -7.400  -0.0882   0.08148   0.07601  -0.0706  0.1855  0.0224  -1.1656   0.0000   0.0000   0.0000  -0.5789
  -7.300  -0.0860   0.08022   0.07475  -0.0715  0.1850  0.0224  -1.1722   0.0000   0.0000   0.0000  -0.6102
  -7.200  -0.0821   0.07877   0.07331  -0.0730  0.1845  0.0225  -1.1783   0.0000   0.0000   0.0000  -0.6676
  -7.100  -0.0771   0.07721   0.07175  -0.0747  0.1840  0.0225  -1.1841   0.0000   0.0000   0.0000  -0.7479
  -7.000  -0.0717   0.07562   0.07016  -0.0764  0.1834  0.0226  -1.1899   0.0000   0.0000   0.0000  -0.8460
  -6.900  -0.0660   0.07401   0.06855  -0.0782  0.1829  0.0226  -1.1957   0.0000   0.0000   0.0000  -0.9661
  -6.800  -0.0600   0.07239   0.06691  -0.0799  0.1823  0.0227  -1.2015   0.0000   0.0000   0.0000  -1.1163
  -6.700  -0.0536   0.07074   0.06525  -0.0817  0.1816  0.0227  -1.2071   0.0000   0.0000   0.0000  -1.3109
  -6.600  -0.0471   0.06909   0.06360  -0.0834  0.1813  0.0228  -1.2125   0.0000   0.0000   0.0000  -1.5606
  -6.500  -0.0401   0.06741   0.06190  -0.0852  0.1811  0.0229  -1.2179   0.0000   0.0000   0.0000  -1.9192
  -6.400  -0.0330   0.06575   0.06022  -0.0868  0.1809  0.0229  -1.2229   0.0000   0.0000   0.0000  -2.4306
  -6.300  -0.0258   0.06409   0.05855  -0.0883  0.1807  0.0230  -1.2275   0.0000   0.0000   0.0000  -3.2408
  -6.200  -0.0181   0.06241   0.05685  -0.0898  0.1805  0.0230  -1.2320   0.0000   0.0000   0.0000  -4.8077
  -6.100  -0.0103   0.06074   0.05516  -0.0913  0.1803  0.0231  -1.2359   0.0000   0.0000   0.0000  -8.8135
  -6.000  -0.0026   0.05911   0.05350  -0.0925  0.1802  0.0232  -1.2384   0.0000   0.0000   0.0000  -36.5646
  -5.900   0.0054   0.05749   0.05185  -0.0937  0.1800  0.0232  -1.2404   0.0000   0.0000   0.0000  17.8236
  -5.800   0.0137   0.05586   0.05019  -0.0948  0.1798  0.0233  -1.2420   0.0000   0.0000   0.0000   7.2666
  -5.700   0.0222   0.05424   0.04854  -0.0958  0.1796  0.0234  -1.2430   0.0000   0.0000   0.0000   4.6243
  -5.100   0.0693   0.04581   0.03963  -0.0986  0.1175  0.0238  -1.2364   0.0000   0.0000   0.0000   1.6887
  -5.000   0.0772   0.04450   0.03822  -0.0987  0.1061  0.0239  -1.2327   0.0000   0.0000   0.0000   1.5440
  -4.900   0.0855   0.04313   0.03677  -0.0988  0.1006  0.0240  -1.2280   0.0000   0.0000   0.0000   1.4192
  -4.800   0.0939   0.04177   0.03535  -0.0989  0.1003  0.0240  -1.2226   0.0000   0.0000   0.0000   1.3150
  -4.700   0.1023   0.04045   0.03396  -0.0989  0.1001  0.0241  -1.2165   0.0000   0.0000   0.0000   1.2268
  -4.600   0.1108   0.03915   0.03259  -0.0988  0.0998  0.0242  -1.2096   0.0000   0.0000   0.0000   1.1507
  -4.500   0.1194   0.03787   0.03125  -0.0986  0.0996  0.0243  -1.2012   0.0000   0.0000   0.0000   1.0845
  -4.400   0.1280   0.03662   0.02994  -0.0984  0.0994  0.0244  -1.1918   0.0000   0.0000   0.0000   1.0262
  -4.300   0.1365   0.03540   0.02865  -0.0981  0.0992  0.0245  -1.1812   0.0000   0.0000   0.0000   0.9751
  -4.200   0.1450   0.03422   0.02739  -0.0977  0.0990  0.0246  -1.1696   0.0000   0.0000   0.0000   0.9305
  -4.100   0.1533   0.03308   0.02617  -0.0974  0.0988  0.0247  -1.1572   0.0000   0.0000   0.0000   0.8906
  -4.000   0.1617   0.03196   0.02497  -0.0969  0.0987  0.0248  -1.1439   0.0000   0.0000   0.0000   0.8546
  -3.900   0.1701   0.03087   0.02380  -0.0964  0.0986  0.0248  -1.1297   0.0000   0.0000   0.0000   0.8219
  -3.800   0.1784   0.02980   0.02265  -0.0959  0.0985  0.0249  -1.1147   0.0000   0.0000   0.0000   0.7920
  -3.700   0.1868   0.02877   0.02154  -0.0954  0.0984  0.0250  -1.0988   0.0000   0.0000   0.0000   0.7647
  -3.600   0.1952   0.02777   0.02045  -0.0948  0.0983  0.0251  -1.0819   0.0000   0.0000   0.0000   0.7394
  -3.500   0.2036   0.02680   0.01939  -0.0942  0.0983  0.0252  -1.0641   0.0000   0.0000   0.0000   0.7160
  -3.400   0.2121   0.02585   0.01836  -0.0936  0.0982  0.0253  -1.0453   0.0000   0.0000   0.0000   0.6943
  -3.300   0.2207   0.02494   0.01735  -0.0929  0.0982  0.0254  -1.0254   0.0000   0.0000   0.0000   0.6741
  -3.200   0.2293   0.02405   0.01638  -0.0923  0.0982  0.0255  -1.0051   0.0000   0.0000   0.0000   0.6552
  -3.100   0.2380   0.02320   0.01544  -0.0917  0.0983  0.0256  -0.9845   0.0000   0.0000   0.0000   0.6377
  -3.000   0.2467   0.02238   0.01453  -0.0911  0.0983  0.0257  -0.9625   0.0000   0.0000   0.0000   0.6214
  -2.900   0.2554   0.02159   0.01365  -0.0904  0.0984  0.0258  -0.9392   0.0000   0.0000   0.0000   0.6061
  -2.800   0.2642   0.02084   0.01280  -0.0898  0.0985  0.0259  -0.9148   0.0000   0.0000   0.0000   0.5918
  -2.700   0.2732   0.02011   0.01198  -0.0893  0.0987  0.0260  -0.8891   0.0000   0.0000   0.0000   0.5784
  -2.600   0.2822   0.01941   0.01119  -0.0887  0.0988  0.0261  -0.8624   0.0000   0.0000   0.0000   0.5658
  -1.700   0.3665   0.01242   0.00334  -0.0839  0.0999  0.0344  -0.6359   0.0000   0.0000   0.0000   0.4792
  -1.600   0.3762   0.01229   0.00314  -0.0836  0.1005  0.0301  -0.6499   0.0000   0.0000   0.0000   0.4725
  -1.400   0.4013   0.01130   0.00227  -0.0837  0.1769  0.0464  -0.6799   0.0000   0.0000   0.0000   0.4586
  -1.300   0.4100   0.01121   0.00232  -0.0837  0.1772  0.0743  -0.6945   0.0000   0.0000   0.0000   0.4540
  -1.200   0.4180   0.01091   0.00235  -0.0837  0.1773  0.1675  -0.7085   0.0000   0.0000   0.0000   0.4500
  -1.100   0.4262   0.01066   0.00238  -0.0838  0.1774  0.2598  -0.7228   0.0000   0.0000   0.0000   0.4462
  -1.000   0.4338   0.01031   0.00242  -0.0838  0.1776  0.3863  -0.7368   0.0000   0.0000   0.0000   0.4426
  -0.900   0.4412   0.00998   0.00246  -0.0836  0.1778  0.5178  -0.7507   0.0000   0.0000   0.0000   0.4390
  -0.800   0.4470   0.00956   0.00252  -0.0830  0.1786  0.6557  -0.7634   0.0000   0.0000   0.0000   0.4351
  -0.700   0.4514   0.00927   0.00258  -0.0819  0.1794  0.7630  -0.7752   0.0000   0.0000   0.0000   0.4306
  -0.600   0.4579   0.00909   0.00267  -0.0811  0.1803  0.8579  -0.7887   0.0000   0.0000   0.0000   0.4262
  -0.500   0.4935   0.00901   0.00268  -0.0874  0.1824  0.9675  -0.8267   0.0000   0.0000   0.0000   0.4262
  -0.400   0.5178   0.00902   0.00268  -0.0911  0.1837  0.9897  -0.8553   0.0000   0.0000   0.0000   0.4249
  -0.300   0.5253   0.00905   0.00270  -0.0907  0.1843  0.9895  -0.8697   0.0000   0.0000   0.0000   0.4217
  -0.200   0.5312   0.00908   0.00272  -0.0900  0.1848  0.9875  -0.8828   0.0000   0.0000   0.0000   0.4184
  -0.100   0.5371   0.00912   0.00274  -0.0893  0.1852  0.9848  -0.8959   0.0000   0.0000   0.0000   0.4151
   0.000   0.5433   0.00915   0.00277  -0.0887  0.1857  0.9816  -0.9093   0.0000   0.0000   0.0000   0.4119
   0.100   0.5493   0.00919   0.00279  -0.0880  0.1861  0.9769  -0.9226   0.0000   0.0000   0.0000   0.4088
   0.200   0.5544   0.00923   0.00283  -0.0871  0.1865  0.9688  -0.9352   0.0000   0.0000   0.0000   0.4056
   0.300   0.5575   0.00928   0.00286  -0.0857  0.1868  0.9526  -0.9459   0.0000   0.0000   0.0000   0.4021
   0.400   0.5562   0.00937   0.00295  -0.0833  0.1870  0.9411  -0.9529   0.0000   0.0000   0.0000   0.3980
   0.500   0.5570   0.00945   0.00303  -0.0813  0.1873  0.9314  -0.9617   0.0000   0.0000   0.0000   0.3942
   0.600   0.5570   0.00954   0.00307  -0.0792  0.1875  0.8997  -0.9699   0.0000   0.0000   0.0000   0.3903
   0.700   0.5670   0.00980   0.00305  -0.0797  0.1879  0.7898  -0.9865   0.0000   0.0000   0.0000   0.3885
   0.800   0.5795   0.01119   0.00298  -0.0801  0.1885  0.2971  -1.0057   0.0000   0.0000   0.0000   0.3861
   0.900   0.5882   0.01145   0.00298  -0.0799  0.1889  0.2024  -1.0217   0.0000   0.0000   0.0000   0.3836
   1.000   0.5966   0.01172   0.00299  -0.0796  0.1893  0.1001  -1.0377   0.0000   0.0000   0.0000   0.3811
   1.100   0.6057   0.01182   0.00297  -0.0796  0.1897  0.0893  -1.0541   0.0000   0.0000   0.0000   0.3791
   1.300   0.6235   0.01194   0.00310  -0.0800  0.1907  0.0596  -1.0876   0.0000   0.0000   0.0000   0.3757
   1.400   0.6329   0.01197   0.00314  -0.0801  0.1911  0.0595  -1.1043   0.0000   0.0000   0.0000   0.3739
   1.500   0.6423   0.01199   0.00318  -0.0802  0.1914  0.0594  -1.1212   0.0000   0.0000   0.0000   0.3722
   1.600   0.6517   0.01202   0.00323  -0.0804  0.1917  0.0594  -1.1381   0.0000   0.0000   0.0000   0.3705
   1.700   0.6611   0.01205   0.00327  -0.0805  0.1920  0.0595  -1.1550   0.0000   0.0000   0.0000   0.3689
   1.800   0.6706   0.01208   0.00331  -0.0806  0.1923  0.0596  -1.1720   0.0000   0.0000   0.0000   0.3673
   1.900   0.6800   0.01211   0.00335  -0.0808  0.1926  0.0597  -1.1891   0.0000   0.0000   0.0000   0.3657
   2.000   0.6895   0.01214   0.00339  -0.0809  0.1928  0.0600  -1.2062   0.0000   0.0000   0.0000   0.3642
   2.100   0.6990   0.01217   0.00343  -0.0810  0.1931  0.0602  -1.2234   0.0000   0.0000   0.0000   0.3627
   2.200   0.7085   0.01221   0.00347  -0.0812  0.1933  0.0605  -1.2406   0.0000   0.0000   0.0000   0.3613
   2.300   0.7180   0.01224   0.00352  -0.0813  0.1936  0.0609  -1.2578   0.0000   0.0000   0.0000   0.3598
   2.400   0.7275   0.01227   0.00356  -0.0814  0.1938  0.0614  -1.2751   0.0000   0.0000   0.0000   0.3585
   2.500   0.7370   0.01231   0.00360  -0.0816  0.1940  0.0618  -1.2925   0.0000   0.0000   0.0000   0.3571
   2.600   0.7465   0.01234   0.00365  -0.0817  0.1942  0.0624  -1.3099   0.0000   0.0000   0.0000   0.3558
   2.700   0.7560   0.01238   0.00369  -0.0818  0.1943  0.0630  -1.3274   0.0000   0.0000   0.0000   0.3545
   2.800   0.7656   0.01241   0.00374  -0.0820  0.1945  0.0636  -1.3449   0.0000   0.0000   0.0000   0.3532
   2.900   0.7752   0.01244   0.00366  -0.0821  0.1952  0.0641  -1.3624   0.0000   0.0000   0.0000   0.3520
   3.000   0.7848   0.01247   0.00371  -0.0822  0.1960  0.0646  -1.3799   0.0000   0.0000   0.0000   0.3507
   3.100   0.7944   0.01250   0.00376  -0.0824  0.1965  0.0653  -1.3974   0.0000   0.0000   0.0000   0.3495
   3.200   0.8040   0.01254   0.00380  -0.0825  0.1970  0.0659  -1.4150   0.0000   0.0000   0.0000   0.3484
   3.300   0.8136   0.01258   0.00385  -0.0826  0.1974  0.0666  -1.4326   0.0000   0.0000   0.0000   0.3472
   3.400   0.8232   0.01261   0.00390  -0.0827  0.1976  0.0674  -1.4501   0.0000   0.0000   0.0000   0.3461
   3.500   0.8328   0.01266   0.00396  -0.0828  0.1978  0.0682  -1.4676   0.0000   0.0000   0.0000   0.3449
   3.600   0.8423   0.01270   0.00401  -0.0829  0.1980  0.0690  -1.4852   0.0000   0.0000   0.0000   0.3438
   3.700   0.8519   0.01275   0.00407  -0.0830  0.1981  0.0698  -1.5027   0.0000   0.0000   0.0000   0.3428
   3.800   0.8614   0.01280   0.00413  -0.0831  0.1981  0.0708  -1.5201   0.0000   0.0000   0.0000   0.3417
   3.900   0.8710   0.01285   0.00419  -0.0832  0.1982  0.0717  -1.5376   0.0000   0.0000   0.0000   0.3406
   4.400   0.9189   0.01309   0.00477  -0.0838  0.1980  0.1012  -1.6199   0.0000   0.0000   0.0000   0.3357
   4.500   0.9280   0.01327   0.00500  -0.0837  0.1980  0.1012  -1.6339   0.0000   0.0000   0.0000   0.3346
   5.100   0.9848   0.01385   0.00574  -0.0841  0.1975  0.1608  -1.7878   0.0000   0.0000   0.0000   0.3291
   5.200   0.9945   0.01387   0.00580  -0.0842  0.1974  0.1749  -1.8157   0.0000   0.0000   0.0000   0.3283
   5.300   1.0041   0.01392   0.00590  -0.0843  0.1973  0.1905  -1.8430   0.0000   0.0000   0.0000   0.3275
   5.400   1.0146   0.01381   0.00601  -0.0847  0.1972  0.3018  -1.8712   0.0000   0.0000   0.0000   0.3269
   5.500   1.0254   0.01258   0.00627  -0.0854  0.1970  1.0000  -1.9003   0.0000   0.0000   0.0000   0.3266
   5.600   1.0349   0.01265   0.00634  -0.0854  0.1969  1.0000  -1.9280   0.0000   0.0000   0.0000   0.3257
   5.700   1.0444   0.01272   0.00640  -0.0855  0.1967  1.0000  -1.9558   0.0000   0.0000   0.0000   0.3249
   5.800   1.0539   0.01279   0.00646  -0.0856  0.1966  1.0000  -1.9837   0.0000   0.0000   0.0000   0.3241
   5.900   1.0634   0.01286   0.00653  -0.0856  0.1964  1.0000  -2.0118   0.0000   0.0000   0.0000   0.3233
   6.000   1.0729   0.01293   0.00659  -0.0857  0.1962  1.0000  -2.0400   0.0000   0.0000   0.0000   0.3225
   6.100   1.0824   0.01299   0.00665  -0.0858  0.1960  1.0000  -2.0683   0.0000   0.0000   0.0000   0.3218
   6.200   1.0919   0.01306   0.00671  -0.0858  0.1958  1.0000  -2.0968   0.0000   0.0000   0.0000   0.3210
   6.300   1.1014   0.01313   0.00677  -0.0859  0.1956  1.0000  -2.1254   0.0000   0.0000   0.0000   0.3202
   6.400   1.1109   0.01320   0.00683  -0.0859  0.1954  1.0000  -2.1541   0.0000   0.0000   0.0000   0.3195
   6.500   1.1204   0.01327   0.00689  -0.0860  0.1951  1.0000  -2.1829   0.0000   0.0000   0.0000   0.3187
   6.600   1.1299   0.01334   0.00696  -0.0860  0.1949  1.0000  -2.2118   0.0000   0.0000   0.0000   0.3180
   6.700   1.1394   0.01341   0.00702  -0.0861  0.1946  1.0000  -2.2408   0.0000   0.0000   0.0000   0.3173
   6.800   1.1489   0.01348   0.00708  -0.0861  0.1943  1.0000  -2.2699   0.0000   0.0000   0.0000   0.3166
   6.900   1.1586   0.01344   0.00700  -0.0863  0.1934  1.0000  -2.3027   0.0000   0.0000   0.0000   0.3159
   7.000   1.1686   0.01337   0.00687  -0.0864  0.1912  1.0000  -2.3374   0.0000   0.0000   0.0000   0.3153
   7.100   1.1781   0.01340   0.00685  -0.0865  0.1884  1.0000  -2.3694   0.0000   0.0000   0.0000   0.3146
   7.200   1.1874   0.01348   0.00690  -0.0866  0.1863  1.0000  -2.3995   0.0000   0.0000   0.0000   0.3139
   7.300   1.1967   0.01357   0.00696  -0.0866  0.1843  1.0000  -2.4292   0.0000   0.0000   0.0000   0.3132
   7.400   1.2059   0.01367   0.00702  -0.0866  0.1817  1.0000  -2.4589   0.0000   0.0000   0.0000   0.3125
   7.500   1.2149   0.01379   0.00709  -0.0865  0.1783  1.0000  -2.4886   0.0000   0.0000   0.0000   0.3118
   7.600   1.2236   0.01393   0.00716  -0.0865  0.1736  1.0000  -2.5180   0.0000   0.0000   0.0000   0.3111
   7.700   1.2304   0.01547   0.00686  -0.0857  0.1671  0.0999  -2.5456   0.0000   0.0000   0.0000   0.3099
   8.000   1.2546   0.01606   0.00721  -0.0851  0.1435  0.0742  -2.6305   0.0000   0.0000   0.0000   0.3077
   8.100   1.2628   0.01625   0.00733  -0.0850  0.1355  0.0734  -2.6586   0.0000   0.0000   0.0000   0.3069
   8.200   1.2712   0.01642   0.00745  -0.0848  0.1271  0.0726  -2.6872   0.0000   0.0000   0.0000   0.3062
   8.300   1.2800   0.01656   0.00756  -0.0847  0.1186  0.0719  -2.7162   0.0000   0.0000   0.0000   0.3056
   8.400   1.2889   0.01668   0.00767  -0.0847  0.1098  0.0711  -2.7454   0.0000   0.0000   0.0000   0.3049
   8.500   1.2978   0.01679   0.00777  -0.0846  0.1023  0.0702  -2.7747   0.0000   0.0000   0.0000   0.3042
   8.600   1.3066   0.01691   0.00789  -0.0845  0.0997  0.0694  -2.8045   0.0000   0.0000   0.0000   0.3035
   8.700   1.3153   0.01705   0.00801  -0.0844  0.0983  0.0685  -2.8343   0.0000   0.0000   0.0000   0.3028
   8.800   1.3239   0.01719   0.00813  -0.0842  0.0967  0.0676  -2.8641   0.0000   0.0000   0.0000   0.3022
   8.900   1.3324   0.01734   0.00826  -0.0841  0.0948  0.0665  -2.8938   0.0000   0.0000   0.0000   0.3015
   9.000   1.3407   0.01751   0.00840  -0.0839  0.0925  0.0654  -2.9233   0.0000   0.0000   0.0000   0.3008
   9.100   1.3486   0.01771   0.00855  -0.0837  0.0892  0.0642  -2.9525   0.0000   0.0000   0.0000   0.3001
   9.200   1.3563   0.01793   0.00871  -0.0834  0.0854  0.0629  -2.9814   0.0000   0.0000   0.0000   0.2994
   9.300   1.3514   0.01939   0.00960  -0.0814  0.0506  0.0625  -2.9926   0.0000   0.0000   0.0000   0.2980
   9.400   1.3574   0.01974   0.00986  -0.0809  0.0479  0.0613  -3.0131   0.0000   0.0000   0.0000   0.2971
   9.500   1.3635   0.02006   0.01010  -0.0803  0.0452  0.0601  -3.0331   0.0000   0.0000   0.0000   0.2963
   9.600   1.3707   0.02032   0.01029  -0.0800  0.0426  0.0589  -3.0539   0.0000   0.0000   0.0000   0.2956
   9.700   1.3793   0.02046   0.01042  -0.0798  0.0395  0.0577  -3.0781   0.0000   0.0000   0.0000   0.2949
   9.800   1.3873   0.02065   0.01057  -0.0795  0.0360  0.0567  -3.1042   0.0000   0.0000   0.0000   0.2942
   9.900   1.3951   0.02084   0.01073  -0.0793  0.0327  0.0558  -3.1314   0.0000   0.0000   0.0000   0.2935
  10.000   1.4033   0.02102   0.01088  -0.0790  0.0298  0.0550  -3.1588   0.0000   0.0000   0.0000   0.2928
  10.100   1.4119   0.02117   0.01100  -0.0788  0.0270  0.0542  -3.1859   0.0000   0.0000   0.0000   0.2922
  10.200   1.4202   0.02132   0.01111  -0.0786  0.0257  0.0536  -3.2128   0.0000   0.0000   0.0000   0.2915
  10.300   1.4283   0.02148   0.01128  -0.0783  0.0253  0.0530  -3.2397   0.0000   0.0000   0.0000   0.2908
  10.400   1.4364   0.02165   0.01145  -0.0780  0.0250  0.0525  -3.3376   0.0000   0.0000   0.0000   0.2901
  10.500   1.4443   0.02183   0.01164  -0.0777  0.0247  0.0520  -3.4410   0.0000   0.0000   0.0000   0.2894
  10.600   1.4520   0.02201   0.01183  -0.0773  0.0243  0.0516  -3.5432   0.0000   0.0000   0.0000   0.2887
  10.700   1.4595   0.02221   0.01203  -0.0769  0.0241  0.0512  -3.6439   0.0000   0.0000   0.0000   0.2879
  10.800   1.4668   0.02242   0.01227  -0.0764  0.0238  0.0512  -3.7424   0.0000   0.0000   0.0000   0.2871
  10.900   1.4739   0.02266   0.01253  -0.0759  0.0236  0.0512  -3.8373   0.0000   0.0000   0.0000   0.2863
  11.000   1.4803   0.02297   0.01287  -0.0752  0.0234  0.0512  -3.9249   0.0000   0.0000   0.0000   0.2854
  11.100   1.4857   0.02334   0.01328  -0.0744  0.0232  0.0512  -4.0031   0.0000   0.0000   0.0000   0.2845
  11.200   1.4901   0.02378   0.01376  -0.0733  0.0232  0.0512  -4.0721   0.0000   0.0000   0.0000   0.2834
  11.300   1.4938   0.02425   0.01430  -0.0721  0.0231  0.0511  -4.1331   0.0000   0.0000   0.0000   0.2823
  11.400   1.4970   0.02476   0.01489  -0.0709  0.0232  0.0511  -4.1886   0.0000   0.0000   0.0000   0.2811
  11.500   1.4999   0.02529   0.01553  -0.0695  0.0232  0.0511  -4.2402   0.0000   0.0000   0.0000   0.2799
  11.600   1.5026   0.02584   0.01624  -0.0681  0.0233  0.0511  -4.2874   0.0000   0.0000   0.0000   0.2787
  11.700   1.5045   0.02646   0.01703  -0.0666  0.0235  0.0511  -4.3284   0.0000   0.0000   0.0000   0.2774
  11.800   1.5051   0.02718   0.01795  -0.0649  0.0236  0.0510  -4.3602   0.0000   0.0000   0.0000   0.2760
  11.900   1.5036   0.02803   0.01900  -0.0630  0.0238  0.0510  -4.3797   0.0000   0.0000   0.0000   0.2746
  12.000   1.4981   0.02907   0.02020  -0.0607  0.0240  0.0510  -4.3822   0.0000   0.0000   0.0000   0.2730
  12.100   1.4909   0.03030   0.02162  -0.0582  0.0243  0.0510  -4.3673   0.0000   0.0000   0.0000   0.2713
  26.400   0.8098   0.34133   0.33761  -0.1112  0.0219  0.1498  -0.9676   0.0000   0.0000   0.0000   0.3524
  26.500   0.8085   0.34196   0.33826  -0.1112  0.0218  0.1495  -0.9610   0.0000   0.0000   0.0000   0.3526
  26.600   0.8073   0.34261   0.33891  -0.1113  0.0217  0.1492  -0.9545   0.0000   0.0000   0.0000   0.3527
  26.700   0.8061   0.34325   0.33956  -0.1114  0.0217  0.1489  -0.9481   0.0000   0.0000   0.0000   0.3529
  26.800   0.8049   0.34390   0.34022  -0.1114  0.0216  0.1486  -0.9419   0.0000   0.0000   0.0000   0.3531
  26.900   0.8038   0.34456   0.34089  -0.1115  0.0215  0.1483  -0.9359   0.0000   0.0000   0.0000   0.3532
  27.000   0.8027   0.34521   0.34156  -0.1116  0.0215  0.1480  -0.9299   0.0000   0.0000   0.0000   0.3534
  27.100   0.8016   0.34588   0.34223  -0.1117  0.0214  0.1476  -0.9241   0.0000   0.0000   0.0000   0.3536
  27.200   0.8006   0.34654   0.34290  -0.1118  0.0213  0.1473  -0.9184   0.0000   0.0000   0.0000   0.3537
  27.300   0.7996   0.34721   0.34358  -0.1119  0.0213  0.1470  -0.9129   0.0000   0.0000   0.0000   0.3539
  27.400   0.7986   0.34788   0.34426  -0.1120  0.0212  0.1466  -0.9075   0.0000   0.0000   0.0000   0.3541
  27.500   0.7977   0.34856   0.34495  -0.1121  0.0211  0.1463  -0.9021   0.0000   0.0000   0.0000   0.3542
  27.600   0.7968   0.34924   0.34564  -0.1122  0.0211  0.1459  -0.8969   0.0000   0.0000   0.0000   0.3544
  27.700   0.7959   0.34992   0.34633  -0.1124  0.0210  0.1456  -0.8918   0.0000   0.0000   0.0000   0.3545
  27.800   0.7951   0.35060   0.34702  -0.1125  0.0209  0.1452  -0.8868   0.0000   0.0000   0.0000   0.3547
  27.900   0.7942   0.35129   0.34772  -0.1126  0.0209  0.1448  -0.8819   0.0000   0.0000   0.0000   0.3549
  28.000   0.7934   0.35198   0.34842  -0.1128  0.0208  0.1445  -0.8771   0.0000   0.0000   0.0000   0.3550
  28.100   0.7927   0.35268   0.34912  -0.1129  0.0207  0.1441  -0.8724   0.0000   0.0000   0.0000   0.3552
  28.200   0.7919   0.35337   0.34983  -0.1130  0.0207  0.1437  -0.8678   0.0000   0.0000   0.0000   0.3554
  28.300   0.7912   0.35407   0.35053  -0.1132  0.0206  0.1433  -0.8633   0.0000   0.0000   0.0000   0.3555
  28.400   0.7904   0.35477   0.35124  -0.1133  0.0205  0.1429  -0.8589   0.0000   0.0000   0.0000   0.3557
  28.500   0.7897   0.35547   0.35196  -0.1135  0.0205  0.1425  -0.8545   0.0000   0.0000   0.0000   0.3558
  28.600   0.7891   0.35618   0.35267  -0.1136  0.0204  0.1421  -0.8502   0.0000   0.0000   0.0000   0.3560
  28.700   0.7884   0.35688   0.35339  -0.1138  0.0203  0.1417  -0.8460   0.0000   0.0000   0.0000   0.3562
  28.800   0.7878   0.35759   0.35410  -0.1140  0.0202  0.1413  -0.8419   0.0000   0.0000   0.0000   0.3563
  28.900   0.7871   0.35830   0.35482  -0.1141  0.0202  0.1409  -0.8379   0.0000   0.0000   0.0000   0.3565
  29.000   0.7865   0.35902   0.35555  -0.1143  0.0201  0.1404  -0.8339   0.0000   0.0000   0.0000   0.3566
  29.100   0.7859   0.35973   0.35627  -0.1145  0.0200  0.1399  -0.8300   0.0000   0.0000   0.0000   0.3568
  29.200   0.7854   0.36045   0.35700  -0.1146  0.0200  0.1393  -0.8262   0.0000   0.0000   0.0000   0.3569
  29.300   0.7848   0.36117   0.35772  -0.1148  0.0199  0.1384  -0.8225   0.0000   0.0000   0.0000   0.3571
  29.400   0.7843   0.36188   0.35843  -0.1150  0.0199  0.1295  -0.8188   0.0000   0.0000   0.0000   0.3572


