xflr5 v6.61

 Calculated polar for: RAF 6 AIRFOIL

 1 1 Reynolds number fixed          Mach number fixed         

 xtrf =   1.000 (top)        1.000 (bottom)
 Mach =   0.000     Re =     1.000 e 6     Ncrit =   9.000

  alpha     CL        CD       CDp       Cm    Top Xtr Bot Xtr   Cpmin    Chinge    XCp    
 ------- -------- --------- --------- -------- ------- ------- -------- --------- ---------
  -9.200  -0.1414   0.10537   0.10005  -0.0587  0.1086  0.0209  -1.1135   0.0000   0.0000   0.0000  -0.1916
  -9.100  -0.1391   0.10409   0.09874  -0.0591  0.1013  0.0210  -1.1164   0.0000   0.0000   0.0000  -0.2016
  -9.000  -0.1369   0.10281   0.09746  -0.0596  0.1003  0.0210  -1.1195   0.0000   0.0000   0.0000  -0.2116
  -8.900  -0.1348   0.10155   0.09620  -0.0600  0.0999  0.0211  -1.1227   0.0000   0.0000   0.0000  -0.2213
  -8.800  -0.1328   0.10030   0.09495  -0.0603  0.0995  0.0211  -1.1261   0.0000   0.0000   0.0000  -0.2307
  -8.700  -0.1307   0.09906   0.09370  -0.0607  0.0991  0.0211  -1.1297   0.0000   0.0000   0.0000  -0.2406
  -8.600  -0.1284   0.09777   0.09241  -0.0612  0.0988  0.0212  -1.1330   0.0000   0.0000   0.0000  -0.2531
  -8.500  -0.1255   0.09642   0.09105  -0.0618  0.0984  0.0212  -1.1362   0.0000   0.0000   0.0000  -0.2691
  -8.400  -0.1225   0.09505   0.08969  -0.0625  0.0980  0.0213  -1.1395   0.0000   0.0000   0.0000  -0.2864
  -8.300  -0.1195   0.09368   0.08831  -0.0632  0.0976  0.0213  -1.1428   0.0000   0.0000   0.0000  -0.3052
  -8.200  -0.1164   0.09230   0.08693  -0.0639  0.0973  0.0214  -1.1463   0.0000   0.0000   0.0000  -0.3257
  -8.100  -0.1132   0.09091   0.08554  -0.0647  0.0969  0.0214  -1.1499   0.0000   0.0000   0.0000  -0.3480
  -8.000  -0.1100   0.08951   0.08414  -0.0655  0.0965  0.0215  -1.1536   0.0000   0.0000   0.0000  -0.3723
  -7.900  -0.1066   0.08811   0.08273  -0.0663  0.0961  0.0215  -1.1575   0.0000   0.0000   0.0000  -0.3988
  -7.800  -0.1033   0.08669   0.08132  -0.0672  0.0957  0.0216  -1.1615   0.0000   0.0000   0.0000  -0.4279
  -7.700  -0.0998   0.08526   0.07989  -0.0681  0.0954  0.0216  -1.1656   0.0000   0.0000   0.0000  -0.4597
  -7.600  -0.0964   0.08384   0.07847  -0.0691  0.0950  0.0217  -1.1700   0.0000   0.0000   0.0000  -0.4937
  -7.500  -0.0932   0.08242   0.07706  -0.0701  0.0946  0.0217  -1.1748   0.0000   0.0000   0.0000  -0.5290
  -7.400  -0.0906   0.08108   0.07572  -0.0710  0.0942  0.0217  -1.1806   0.0000   0.0000   0.0000  -0.5613
  -7.300  -0.0885   0.07982   0.07447  -0.0720  0.0938  0.0218  -1.1876   0.0000   0.0000   0.0000  -0.5904
  -7.200  -0.0839   0.07827   0.07292  -0.0736  0.0934  0.0218  -1.1936   0.0000   0.0000   0.0000  -0.6550
  -7.100  -0.0788   0.07668   0.07133  -0.0754  0.0930  0.0219  -1.1994   0.0000   0.0000   0.0000  -0.7345
  -7.000  -0.0733   0.07505   0.06969  -0.0772  0.0926  0.0219  -1.2053   0.0000   0.0000   0.0000  -0.8337
  -6.900  -0.0675   0.07341   0.06805  -0.0790  0.0922  0.0220  -1.2111   0.0000   0.0000   0.0000  -0.9516
  -6.800  -0.0612   0.07174   0.06637  -0.0808  0.0918  0.0220  -1.2169   0.0000   0.0000   0.0000  -1.1033
  -6.700  -0.0548   0.07007   0.06469  -0.0826  0.0914  0.0221  -1.2225   0.0000   0.0000   0.0000  -1.2929
  -6.600  -0.0481   0.06839   0.06300  -0.0843  0.0910  0.0222  -1.2278   0.0000   0.0000   0.0000  -1.5415
  -6.500  -0.0410   0.06668   0.06127  -0.0861  0.0906  0.0222  -1.2331   0.0000   0.0000   0.0000  -1.8974
  -6.400  -0.0339   0.06500   0.05958  -0.0877  0.0902  0.0223  -1.2378   0.0000   0.0000   0.0000  -2.3901
  -6.300  -0.0265   0.06332   0.05788  -0.0892  0.0898  0.0223  -1.2423   0.0000   0.0000   0.0000  -3.1780
  -6.200  -0.0187   0.06162   0.05616  -0.0908  0.0894  0.0224  -1.2465   0.0000   0.0000   0.0000  -4.6938
  -6.100  -0.0109   0.05995   0.05445  -0.0922  0.0891  0.0225  -1.2501   0.0000   0.0000   0.0000  -8.3929
  -6.000  -0.0031   0.05830   0.05278  -0.0934  0.0887  0.0225  -1.2531   0.0000   0.0000   0.0000  -30.3929
  -5.900   0.0050   0.05666   0.05111  -0.0946  0.0884  0.0226  -1.2556   0.0000   0.0000   0.0000  19.6712
  -5.800   0.0133   0.05502   0.04944  -0.0957  0.0880  0.0227  -1.2572   0.0000   0.0000   0.0000   7.5371
  -5.700   0.0219   0.05340   0.04778  -0.0967  0.0877  0.0228  -1.2577   0.0000   0.0000   0.0000   4.7324
  -5.600   0.0301   0.05183   0.04617  -0.0975  0.0874  0.0228  -1.2573   0.0000   0.0000   0.0000   3.5328
  -5.500   0.0385   0.05029   0.04459  -0.0982  0.0871  0.0229  -1.2563   0.0000   0.0000   0.0000   2.8399
  -5.400   0.0469   0.04876   0.04301  -0.0989  0.0868  0.0230  -1.2547   0.0000   0.0000   0.0000   2.3850
  -5.300   0.0556   0.04724   0.04146  -0.0994  0.0865  0.0231  -1.2524   0.0000   0.0000   0.0000   2.0615
  -5.200   0.0644   0.04575   0.03992  -0.0998  0.0862  0.0232  -1.2495   0.0000   0.0000   0.0000   1.8183
  -5.100   0.0734   0.04428   0.03840  -0.1002  0.0859  0.0232  -1.2456   0.0000   0.0000   0.0000   1.6318
  -5.000   0.0820   0.04286   0.03693  -0.1004  0.0857  0.0233  -1.2408   0.0000   0.0000   0.0000   1.4893
  -4.900   0.0906   0.04147   0.03548  -0.1006  0.0855  0.0234  -1.2352   0.0000   0.0000   0.0000   1.3730
  -4.800   0.0992   0.04011   0.03407  -0.1006  0.0853  0.0235  -1.2288   0.0000   0.0000   0.0000   1.2758
  -4.700   0.1078   0.03878   0.03268  -0.1006  0.0850  0.0236  -1.2217   0.0000   0.0000   0.0000   1.1932
  -4.600   0.1165   0.03747   0.03131  -0.1005  0.0848  0.0237  -1.2137   0.0000   0.0000   0.0000   1.1218
  -4.500   0.1252   0.03619   0.02997  -0.1004  0.0847  0.0238  -1.2050   0.0000   0.0000   0.0000   1.0593
  -4.400   0.1341   0.03493   0.02866  -0.1001  0.0845  0.0239  -1.1955   0.0000   0.0000   0.0000   1.0040
  -4.300   0.1430   0.03371   0.02737  -0.0998  0.0843  0.0240  -1.1849   0.0000   0.0000   0.0000   0.9549
  -4.200   0.1517   0.03252   0.02612  -0.0995  0.0842  0.0241  -1.1731   0.0000   0.0000   0.0000   0.9120
  -4.100   0.1603   0.03137   0.02490  -0.0991  0.0841  0.0242  -1.1600   0.0000   0.0000   0.0000   0.8739
  -4.000   0.1689   0.03025   0.02371  -0.0987  0.0840  0.0243  -1.1459   0.0000   0.0000   0.0000   0.8396
  -3.900   0.1774   0.02917   0.02255  -0.0982  0.0839  0.0244  -1.1309   0.0000   0.0000   0.0000   0.8083
  -3.800   0.1859   0.02811   0.02142  -0.0977  0.0838  0.0245  -1.1150   0.0000   0.0000   0.0000   0.7798
  -3.700   0.1945   0.02708   0.02032  -0.0972  0.0838  0.0246  -1.0983   0.0000   0.0000   0.0000   0.7536
  -3.600   0.2030   0.02609   0.01925  -0.0966  0.0837  0.0247  -1.0806   0.0000   0.0000   0.0000   0.7295
  -3.500   0.2116   0.02513   0.01821  -0.0960  0.0837  0.0248  -1.0619   0.0000   0.0000   0.0000   0.7071
  -3.400   0.2202   0.02420   0.01720  -0.0954  0.0837  0.0249  -1.0423   0.0000   0.0000   0.0000   0.6864
  -3.300   0.2288   0.02330   0.01622  -0.0948  0.0837  0.0250  -1.0217   0.0000   0.0000   0.0000   0.6671
  -3.200   0.2374   0.02243   0.01527  -0.0941  0.0837  0.0251  -1.0000   0.0000   0.0000   0.0000   0.6490
  -3.100   0.2462   0.02159   0.01435  -0.0935  0.0837  0.0252  -0.9771   0.0000   0.0000   0.0000   0.6322
  -3.000   0.2549   0.02079   0.01346  -0.0928  0.0838  0.0254  -0.9526   0.0000   0.0000   0.0000   0.6165
  -2.900   0.2636   0.02002   0.01261  -0.0922  0.0839  0.0255  -0.9265   0.0000   0.0000   0.0000   0.6018
  -2.800   0.2724   0.01929   0.01179  -0.0916  0.0840  0.0256  -0.8992   0.0000   0.0000   0.0000   0.5881
  -2.700   0.2813   0.01859   0.01100  -0.0910  0.0841  0.0257  -0.8720   0.0000   0.0000   0.0000   0.5751
  -2.600   0.2902   0.01792   0.01025  -0.0904  0.0842  0.0258  -0.8452   0.0000   0.0000   0.0000   0.5630
  -2.500   0.2993   0.01728   0.00952  -0.0898  0.0844  0.0259  -0.8174   0.0000   0.0000   0.0000   0.5516
  -2.400   0.3084   0.01667   0.00883  -0.0893  0.0846  0.0261  -0.7885   0.0000   0.0000   0.0000   0.5408
  -1.700   0.3723   0.01156   0.00302  -0.0852  0.0852  0.0350  -0.6379   0.0000   0.0000   0.0000   0.4792
  -1.400   0.4012   0.01116   0.00220  -0.0838  0.0871  0.0359  -0.6786   0.0000   0.0000   0.0000   0.4590
  -1.300   0.4098   0.01110   0.00225  -0.0838  0.0877  0.0469  -0.6933   0.0000   0.0000   0.0000   0.4544
  -1.200   0.4185   0.01107   0.00228  -0.0838  0.0883  0.0648  -0.7084   0.0000   0.0000   0.0000   0.4501
  -1.100   0.4269   0.01095   0.00233  -0.0838  0.0888  0.0958  -0.7232   0.0000   0.0000   0.0000   0.4460
  -1.000   0.4352   0.01072   0.00235  -0.0839  0.0894  0.1874  -0.7378   0.0000   0.0000   0.0000   0.4423
  -0.900   0.4437   0.01057   0.00239  -0.0839  0.0900  0.2584  -0.7528   0.0000   0.0000   0.0000   0.4386
  -0.800   0.4521   0.01040   0.00243  -0.0840  0.0906  0.3351  -0.7679   0.0000   0.0000   0.0000   0.4351
  -0.700   0.4605   0.01021   0.00246  -0.0840  0.0912  0.4046  -0.7829   0.0000   0.0000   0.0000   0.4317
  -0.500   0.4771   0.00988   0.00255  -0.0840  0.0924  0.5478  -0.8131   0.0000   0.0000   0.0000   0.4251
  -0.300   0.4943   0.00980   0.00261  -0.0840  0.0938  0.5965  -0.8441   0.0000   0.0000   0.0000   0.4187
  -0.200   0.4999   0.00954   0.00268  -0.0832  0.0944  0.6984  -0.8572   0.0000   0.0000   0.0000   0.4153
  -0.100   0.4941   0.00946   0.00285  -0.0797  0.0945  0.7704  -0.8604   0.0000   0.0000   0.0000   0.4098
   0.000   0.5007   0.00938   0.00291  -0.0790  0.0951  0.8271  -0.8743   0.0000   0.0000   0.0000   0.4064
   0.100   0.5133   0.00975   0.00290  -0.0800  0.0960  0.7053  -0.8933   0.0000   0.0000   0.0000   0.4044
   0.400   0.5371   0.01158   0.00284  -0.0786  0.0988  0.0589  -0.9401   0.0000   0.0000   0.0000   0.3945
   0.500   0.5465   0.01159   0.00284  -0.0786  0.0996  0.0606  -0.9565   0.0000   0.0000   0.0000   0.3920
   0.600   0.5559   0.01161   0.00287  -0.0787  0.1004  0.0619  -0.9729   0.0000   0.0000   0.0000   0.3897
   0.700   0.5654   0.01154   0.00291  -0.0788  0.1214  0.0634  -0.9892   0.0000   0.0000   0.0000   0.3873
   0.800   0.5769   0.01105   0.00270  -0.0791  0.1774  0.0658  -1.0070   0.0000   0.0000   0.0000   0.3850
   0.900   0.5865   0.01107   0.00273  -0.0793  0.1776  0.0701  -1.0236   0.0000   0.0000   0.0000   0.3829
   1.400   0.6331   0.01121   0.00302  -0.0802  0.1823  0.0567  -1.1079   0.0000   0.0000   0.0000   0.3740
   1.500   0.6427   0.01123   0.00305  -0.0804  0.1831  0.0570  -1.1249   0.0000   0.0000   0.0000   0.3723
   1.600   0.6522   0.01125   0.00309  -0.0805  0.1839  0.0573  -1.1420   0.0000   0.0000   0.0000   0.3706
   1.700   0.6618   0.01127   0.00312  -0.0807  0.1845  0.0577  -1.1591   0.0000   0.0000   0.0000   0.3690
   1.800   0.6714   0.01130   0.00315  -0.0808  0.1851  0.0581  -1.1763   0.0000   0.0000   0.0000   0.3674
   1.900   0.6810   0.01132   0.00319  -0.0810  0.1857  0.0587  -1.1935   0.0000   0.0000   0.0000   0.3659
   2.000   0.6906   0.01135   0.00322  -0.0811  0.1862  0.0593  -1.2108   0.0000   0.0000   0.0000   0.3644
   2.100   0.7002   0.01137   0.00325  -0.0813  0.1867  0.0599  -1.2281   0.0000   0.0000   0.0000   0.3629
   2.200   0.7098   0.01140   0.00329  -0.0815  0.1872  0.0607  -1.2455   0.0000   0.0000   0.0000   0.3614
   2.300   0.7194   0.01142   0.00332  -0.0816  0.1877  0.0615  -1.2630   0.0000   0.0000   0.0000   0.3600
   2.400   0.7290   0.01145   0.00336  -0.0818  0.1881  0.0624  -1.2805   0.0000   0.0000   0.0000   0.3587
   2.500   0.7386   0.01148   0.00339  -0.0819  0.1885  0.0634  -1.2980   0.0000   0.0000   0.0000   0.3573
   2.600   0.7483   0.01151   0.00343  -0.0821  0.1889  0.0645  -1.3156   0.0000   0.0000   0.0000   0.3560
   2.700   0.7579   0.01154   0.00346  -0.0822  0.1892  0.0657  -1.3332   0.0000   0.0000   0.0000   0.3547
   2.800   0.7675   0.01157   0.00350  -0.0824  0.1896  0.0669  -1.3509   0.0000   0.0000   0.0000   0.3535
   2.900   0.7773   0.01159   0.00344  -0.0825  0.1908  0.0678  -1.3687   0.0000   0.0000   0.0000   0.3522
   3.000   0.7870   0.01161   0.00348  -0.0827  0.1919  0.0690  -1.3865   0.0000   0.0000   0.0000   0.3510
   3.900   0.8751   0.01174   0.00396  -0.0842  0.1966  0.1054  -1.5488   0.0000   0.0000   0.0000   0.3413
   4.000   0.8849   0.01178   0.00401  -0.0844  0.1968  0.1092  -1.5669   0.0000   0.0000   0.0000   0.3403
   4.100   0.8946   0.01182   0.00406  -0.0845  0.1969  0.1135  -1.5850   0.0000   0.0000   0.0000   0.3393
   4.200   0.9043   0.01187   0.00412  -0.0846  0.1970  0.1183  -1.6031   0.0000   0.0000   0.0000   0.3383
   4.300   0.9139   0.01191   0.00418  -0.0847  0.1971  0.1237  -1.6213   0.0000   0.0000   0.0000   0.3374
   4.400   0.9236   0.01195   0.00424  -0.0848  0.1972  0.1301  -1.6394   0.0000   0.0000   0.0000   0.3364
   4.500   0.9333   0.01201   0.00430  -0.0849  0.1973  0.1371  -1.6570   0.0000   0.0000   0.0000   0.3355
   4.600   0.9428   0.01208   0.00440  -0.0850  0.1976  0.1391  -1.6761   0.0000   0.0000   0.0000   0.3345
   4.700   0.9522   0.01219   0.00453  -0.0850  0.1977  0.1398  -1.7006   0.0000   0.0000   0.0000   0.3335
   4.800   0.9617   0.01227   0.00463  -0.0851  0.1976  0.1397  -1.7267   0.0000   0.0000   0.0000   0.3325
   4.900   0.9713   0.01233   0.00471  -0.0851  0.1975  0.1387  -1.7534   0.0000   0.0000   0.0000   0.3316
   5.000   0.9811   0.01235   0.00473  -0.0853  0.1973  0.1365  -1.7823   0.0000   0.0000   0.0000   0.3308
   5.100   0.9908   0.01239   0.00478  -0.0854  0.1972  0.1331  -1.8102   0.0000   0.0000   0.0000   0.3300
   5.200   1.0005   0.01245   0.00485  -0.0855  0.1970  0.1285  -1.8377   0.0000   0.0000   0.0000   0.3291
   5.300   1.0101   0.01251   0.00492  -0.0856  0.1969  0.1223  -1.8654   0.0000   0.0000   0.0000   0.3283
   5.400   1.0198   0.01257   0.00498  -0.0857  0.1967  0.1147  -1.8931   0.0000   0.0000   0.0000   0.3275
   5.500   1.0294   0.01263   0.00505  -0.0858  0.1965  0.1061  -1.9210   0.0000   0.0000   0.0000   0.3266
   5.600   1.0391   0.01268   0.00511  -0.0859  0.1964  0.1012  -1.9491   0.0000   0.0000   0.0000   0.3258
   6.200   1.0967   0.01307   0.00537  -0.0864  0.1949  0.0680  -2.1197   0.0000   0.0000   0.0000   0.3211
   6.300   1.1064   0.01312   0.00544  -0.0865  0.1946  0.0669  -2.1486   0.0000   0.0000   0.0000   0.3204
   6.400   1.1160   0.01318   0.00550  -0.0865  0.1943  0.0657  -2.1776   0.0000   0.0000   0.0000   0.3197
   6.500   1.1257   0.01324   0.00556  -0.0866  0.1939  0.0646  -2.2068   0.0000   0.0000   0.0000   0.3189
   6.600   1.1353   0.01329   0.00563  -0.0867  0.1935  0.0635  -2.2360   0.0000   0.0000   0.0000   0.3182
   6.700   1.1451   0.01333   0.00566  -0.0868  0.1924  0.0622  -2.2667   0.0000   0.0000   0.0000   0.3175
   6.800   1.1547   0.01337   0.00566  -0.0870  0.1892  0.0610  -2.2982   0.0000   0.0000   0.0000   0.3169
   6.900   1.1639   0.01347   0.00572  -0.0870  0.1850  0.0597  -2.3284   0.0000   0.0000   0.0000   0.3162
   7.000   1.1732   0.01357   0.00579  -0.0870  0.1820  0.0583  -2.3579   0.0000   0.0000   0.0000   0.3155
   7.100   1.1823   0.01369   0.00587  -0.0870  0.1775  0.0569  -2.3873   0.0000   0.0000   0.0000   0.3148
   7.200   1.1910   0.01385   0.00596  -0.0870  0.1708  0.0556  -2.4163   0.0000   0.0000   0.0000   0.3140
   7.300   1.1995   0.01403   0.00606  -0.0869  0.1630  0.0544  -2.4449   0.0000   0.0000   0.0000   0.3133
   7.400   1.2079   0.01422   0.00617  -0.0868  0.1547  0.0533  -2.4733   0.0000   0.0000   0.0000   0.3125
   7.500   1.2164   0.01441   0.00628  -0.0866  0.1466  0.0525  -2.5015   0.0000   0.0000   0.0000   0.3118
   7.600   1.2249   0.01459   0.00638  -0.0866  0.1385  0.0518  -2.5300   0.0000   0.0000   0.0000   0.3111
   7.700   1.2338   0.01474   0.00646  -0.0865  0.1305  0.0512  -2.5590   0.0000   0.0000   0.0000   0.3104
   7.800   1.2429   0.01485   0.00654  -0.0865  0.1222  0.0512  -2.5884   0.0000   0.0000   0.0000   0.3097
   7.900   1.2521   0.01496   0.00663  -0.0865  0.1137  0.0512  -2.6180   0.0000   0.0000   0.0000   0.3090
   8.000   1.2613   0.01506   0.00671  -0.0864  0.1056  0.0512  -2.6477   0.0000   0.0000   0.0000   0.3083
   8.100   1.2706   0.01515   0.00679  -0.0864  0.1004  0.0512  -2.6776   0.0000   0.0000   0.0000   0.3077
   8.200   1.2797   0.01526   0.00689  -0.0864  0.0992  0.0512  -2.7077   0.0000   0.0000   0.0000   0.3070
   8.300   1.2887   0.01537   0.00698  -0.0863  0.0980  0.0512  -2.7379   0.0000   0.0000   0.0000   0.3063
   8.400   1.2976   0.01549   0.00708  -0.0863  0.0966  0.0511  -2.7681   0.0000   0.0000   0.0000   0.3056
   8.500   1.3065   0.01562   0.00718  -0.0862  0.0950  0.0511  -2.7983   0.0000   0.0000   0.0000   0.3050
   8.600   1.3152   0.01576   0.00729  -0.0861  0.0930  0.0511  -2.8283   0.0000   0.0000   0.0000   0.3043
   8.700   1.3235   0.01595   0.00743  -0.0859  0.0901  0.0511  -2.8579   0.0000   0.0000   0.0000   0.3036
   8.900   1.3287   0.01754   0.00842  -0.0840  0.0501  0.0511  -2.8998   0.0000   0.0000   0.0000   0.3016
   9.000   1.3357   0.01784   0.00862  -0.0836  0.0472  0.0510  -2.9233   0.0000   0.0000   0.0000   0.3008
   9.100   1.3427   0.01815   0.00883  -0.0832  0.0445  0.0510  -2.9456   0.0000   0.0000   0.0000   0.3000
   9.200   1.3500   0.01841   0.00902  -0.0829  0.0419  0.0510  -2.9683   0.0000   0.0000   0.0000   0.2993
   9.300   1.3582   0.01857   0.00916  -0.0826  0.0392  0.0510  -2.9937   0.0000   0.0000   0.0000   0.2986
   9.400   1.3670   0.01869   0.00927  -0.0825  0.0363  0.0510  -3.0215   0.0000   0.0000   0.0000   0.2979
   9.500   1.3756   0.01884   0.00940  -0.0824  0.0332  0.0509  -3.0500   0.0000   0.0000   0.0000   0.2973
   9.600   1.3844   0.01897   0.00952  -0.0822  0.0305  0.0509  -3.0792   0.0000   0.0000   0.0000   0.2966
   9.700   1.3933   0.01910   0.00964  -0.0821  0.0282  0.0509  -3.1086   0.0000   0.0000   0.0000   0.2960
   9.800   1.4022   0.01921   0.00975  -0.0820  0.0261  0.0509  -3.1378   0.0000   0.0000   0.0000   0.2953
   9.900   1.4108   0.01935   0.00988  -0.0818  0.0256  0.0508  -3.1667   0.0000   0.0000   0.0000   0.2947
  10.000   1.4193   0.01949   0.01002  -0.0816  0.0252  0.0508  -3.1954   0.0000   0.0000   0.0000   0.2940
  10.100   1.4277   0.01964   0.01017  -0.0814  0.0249  0.0508  -3.2240   0.0000   0.0000   0.0000   0.2934
  10.200   1.4361   0.01979   0.01033  -0.0812  0.0246  0.0508  -3.2524   0.0000   0.0000   0.0000   0.2927
  10.300   1.4444   0.01994   0.01049  -0.0810  0.0243  0.0507  -3.3401   0.0000   0.0000   0.0000   0.2920
  10.400   1.4527   0.02011   0.01066  -0.0807  0.0240  0.0507  -3.4482   0.0000   0.0000   0.0000   0.2913
  10.500   1.4609   0.02028   0.01084  -0.0805  0.0237  0.0507  -3.5565   0.0000   0.0000   0.0000   0.2907
  10.600   1.4689   0.02045   0.01102  -0.0802  0.0234  0.0506  -3.6647   0.0000   0.0000   0.0000   0.2900
  10.700   1.4769   0.02064   0.01123  -0.0799  0.0231  0.0506  -3.7726   0.0000   0.0000   0.0000   0.2893
  10.800   1.4846   0.02085   0.01144  -0.0795  0.0229  0.0506  -3.8793   0.0000   0.0000   0.0000   0.2886
  10.900   1.4920   0.02107   0.01168  -0.0791  0.0227  0.0506  -3.9836   0.0000   0.0000   0.0000   0.2878
  11.000   1.4989   0.02131   0.01194  -0.0785  0.0225  0.0505  -4.0844   0.0000   0.0000   0.0000   0.2870
  11.100   1.5053   0.02159   0.01223  -0.0779  0.0223  0.0505  -4.1802   0.0000   0.0000   0.0000   0.2862
  11.200   1.5109   0.02191   0.01258  -0.0771  0.0221  0.0505  -4.2687   0.0000   0.0000   0.0000   0.2853
  11.300   1.5158   0.02229   0.01297  -0.0761  0.0220  0.0504  -4.3480   0.0000   0.0000   0.0000   0.2843
  11.400   1.5197   0.02272   0.01344  -0.0750  0.0220  0.0504  -4.4157   0.0000   0.0000   0.0000   0.2832
  11.500   1.5230   0.02321   0.01399  -0.0737  0.0220  0.0504  -4.4724   0.0000   0.0000   0.0000   0.2820
  11.600   1.5260   0.02374   0.01461  -0.0722  0.0221  0.0504  -4.5202   0.0000   0.0000   0.0000   0.2807
  11.700   1.5288   0.02430   0.01532  -0.0707  0.0223  0.0503  -4.5609   0.0000   0.0000   0.0000   0.2794
  11.800   1.5309   0.02493   0.01613  -0.0691  0.0225  0.0503  -4.5942   0.0000   0.0000   0.0000   0.2781
  11.900   1.5315   0.02566   0.01709  -0.0673  0.0227  0.0503  -4.6170   0.0000   0.0000   0.0000   0.2766
  12.000   1.5297   0.02656   0.01822  -0.0651  0.0230  0.0503  -4.6249   0.0000   0.0000   0.0000   0.2750
  12.100   1.5247   0.02769   0.01958  -0.0626  0.0233  0.0502  -4.6106   0.0000   0.0000   0.0000   0.2733
  26.000   0.8098   0.33721   0.33410  -0.1098  0.0214  0.0539  -0.9986   0.0000   0.0000   0.0000   0.3512
  26.100   0.8081   0.33777   0.33466  -0.1098  0.0213  0.0539  -0.9911   0.0000   0.0000   0.0000   0.3514
  26.200   0.8064   0.33832   0.33524  -0.1098  0.0213  0.0539  -0.9838   0.0000   0.0000   0.0000   0.3515
  26.300   0.8047   0.33889   0.33582  -0.1098  0.0212  0.0539  -0.9766   0.0000   0.0000   0.0000   0.3517
  26.400   0.8032   0.33945   0.33640  -0.1098  0.0211  0.0539  -0.9696   0.0000   0.0000   0.0000   0.3519
  26.500   0.8016   0.34003   0.33699  -0.1098  0.0210  0.0538  -0.9628   0.0000   0.0000   0.0000   0.3520
  26.600   0.8001   0.34060   0.33758  -0.1098  0.0210  0.0538  -0.9561   0.0000   0.0000   0.0000   0.3522
  26.700   0.7987   0.34118   0.33817  -0.1098  0.0209  0.0537  -0.9496   0.0000   0.0000   0.0000   0.3523
  26.800   0.7973   0.34176   0.33877  -0.1099  0.0208  0.0537  -0.9432   0.0000   0.0000   0.0000   0.3525
  26.900   0.7959   0.34235   0.33937  -0.1099  0.0208  0.0537  -0.9369   0.0000   0.0000   0.0000   0.3527
  27.000   0.7945   0.34294   0.33997  -0.1100  0.0207  0.0536  -0.9308   0.0000   0.0000   0.0000   0.3528
  27.100   0.7932   0.34353   0.34058  -0.1100  0.0206  0.0536  -0.9248   0.0000   0.0000   0.0000   0.3530
  27.200   0.7920   0.34412   0.34119  -0.1101  0.0205  0.0535  -0.9189   0.0000   0.0000   0.0000   0.3532
  27.300   0.7907   0.34472   0.34180  -0.1101  0.0205  0.0535  -0.9132   0.0000   0.0000   0.0000   0.3533
  27.400   0.7895   0.34532   0.34241  -0.1102  0.0204  0.0534  -0.9075   0.0000   0.0000   0.0000   0.3535
  27.500   0.7883   0.34592   0.34302  -0.1103  0.0203  0.0533  -0.9020   0.0000   0.0000   0.0000   0.3537
  27.600   0.7872   0.34652   0.34364  -0.1104  0.0202  0.0533  -0.8966   0.0000   0.0000   0.0000   0.3538
  27.700   0.7861   0.34712   0.34426  -0.1105  0.0202  0.0532  -0.8913   0.0000   0.0000   0.0000   0.3540
  27.800   0.7850   0.34772   0.34487  -0.1105  0.0201  0.0531  -0.8861   0.0000   0.0000   0.0000   0.3541
  27.900   0.7839   0.34833   0.34549  -0.1106  0.0200  0.0531  -0.8809   0.0000   0.0000   0.0000   0.3543
  28.000   0.7828   0.34893   0.34611  -0.1107  0.0200  0.0530  -0.8759   0.0000   0.0000   0.0000   0.3545
  28.100   0.7818   0.34954   0.34673  -0.1108  0.0199  0.0529  -0.8710   0.0000   0.0000   0.0000   0.3546
  28.200   0.7808   0.35014   0.34735  -0.1109  0.0198  0.0528  -0.8661   0.0000   0.0000   0.0000   0.3548
  28.300   0.7798   0.35075   0.34796  -0.1110  0.0197  0.0528  -0.8613   0.0000   0.0000   0.0000   0.3550
  28.400   0.7788   0.35136   0.34858  -0.1112  0.0197  0.0527  -0.8566   0.0000   0.0000   0.0000   0.3551
  28.500   0.7778   0.35196   0.34920  -0.1113  0.0196  0.0526  -0.8520   0.0000   0.0000   0.0000   0.3553
  28.600   0.7769   0.35257   0.34982  -0.1114  0.0195  0.0525  -0.8475   0.0000   0.0000   0.0000   0.3555
  28.700   0.7760   0.35318   0.35044  -0.1115  0.0195  0.0524  -0.8430   0.0000   0.0000   0.0000   0.3556
  28.800   0.7751   0.35378   0.35106  -0.1116  0.0194  0.0523  -0.8387   0.0000   0.0000   0.0000   0.3558
  28.900   0.7742   0.35439   0.35167  -0.1118  0.0193  0.0522  -0.8344   0.0000   0.0000   0.0000   0.3560
  29.000   0.7733   0.35499   0.35229  -0.1119  0.0193  0.0522  -0.8301   0.0000   0.0000   0.0000   0.3561
  29.100   0.7724   0.35560   0.35291  -0.1120  0.0192  0.0521  -0.8259   0.0000   0.0000   0.0000   0.3563
  29.200   0.7715   0.35620   0.35352  -0.1122  0.0191  0.0520  -0.8218   0.0000   0.0000   0.0000   0.3565
  29.300   0.7707   0.35680   0.35414  -0.1123  0.0190  0.0519  -0.8178   0.0000   0.0000   0.0000   0.3566
  29.400   0.7699   0.35741   0.35475  -0.1124  0.0190  0.0518  -0.8138   0.0000   0.0000   0.0000   0.3568
  29.500   0.7690   0.35801   0.35537  -0.1126  0.0189  0.0517  -0.8099   0.0000   0.0000   0.0000   0.3570
  29.600   0.7682   0.35863   0.35599  -0.1127  0.0188  0.0516  -0.8060   0.0000   0.0000   0.0000   0.3571
  29.700   0.7674   0.35925   0.35662  -0.1129  0.0188  0.0515  -0.8023   0.0000   0.0000   0.0000   0.3573
  29.800   0.7667   0.35986   0.35725  -0.1130  0.0187  0.0514  -0.7985   0.0000   0.0000   0.0000   0.3575
  29.900   0.7659   0.36048   0.35788  -0.1132  0.0186  0.0513  -0.7949   0.0000   0.0000   0.0000   0.3576
  30.000   0.7651   0.36107   0.35847  -0.1133  0.0186  0.0512  -0.7912   0.0000   0.0000   0.0000   0.3578


