xflr5 v6.61

 Calculated polar for: RAF 6 AIRFOIL

 1 1 Reynolds number fixed          Mach number fixed         

 xtrf =   1.000 (top)        1.000 (bottom)
 Mach =   0.000     Re =     0.563 e 6     Ncrit =   9.000

  alpha     CL        CD       CDp       Cm    Top Xtr Bot Xtr   Cpmin    Chinge    XCp    
 ------- -------- --------- --------- -------- ------- ------- -------- --------- ---------
 -10.000  -0.1603   0.11677   0.11094  -0.0545  0.2172  0.0217  -1.0752   0.0000   0.0000   0.0000  -0.1161
  -9.900  -0.1576   0.11544   0.10960  -0.0549  0.2155  0.0217  -1.0773   0.0000   0.0000   0.0000  -0.1249
  -9.800  -0.1550   0.11410   0.10827  -0.0554  0.2138  0.0218  -1.0794   0.0000   0.0000   0.0000  -0.1339
  -9.700  -0.1523   0.11277   0.10695  -0.0558  0.2121  0.0218  -1.0816   0.0000   0.0000   0.0000  -0.1433
  -9.600  -0.1496   0.11145   0.10562  -0.0563  0.2104  0.0218  -1.0839   0.0000   0.0000   0.0000  -0.1529
  -9.500  -0.1470   0.11012   0.10430  -0.0568  0.2088  0.0219  -1.0862   0.0000   0.0000   0.0000  -0.1628
  -9.400  -0.1444   0.10881   0.10298  -0.0572  0.2073  0.0219  -1.0887   0.0000   0.0000   0.0000  -0.1730
  -9.300  -0.1419   0.10749   0.10168  -0.0577  0.2058  0.0220  -1.0913   0.0000   0.0000   0.0000  -0.1834
  -9.200  -0.1394   0.10619   0.10038  -0.0581  0.2044  0.0220  -1.0941   0.0000   0.0000   0.0000  -0.1940
  -9.100  -0.1369   0.10489   0.09908  -0.0586  0.2031  0.0220  -1.0968   0.0000   0.0000   0.0000  -0.2048
  -9.000  -0.1345   0.10360   0.09779  -0.0590  0.2019  0.0221  -1.0997   0.0000   0.0000   0.0000  -0.2157
  -8.900  -0.1322   0.10233   0.09653  -0.0595  0.2008  0.0221  -1.1028   0.0000   0.0000   0.0000  -0.2266
  -8.800  -0.1300   0.10107   0.09527  -0.0599  0.2001  0.0222  -1.1061   0.0000   0.0000   0.0000  -0.2373
  -8.700  -0.1279   0.09982   0.09403  -0.0603  0.1997  0.0222  -1.1095   0.0000   0.0000   0.0000  -0.2482
  -8.600  -0.1256   0.09856   0.09277  -0.0607  0.1993  0.0222  -1.1129   0.0000   0.0000   0.0000  -0.2603
  -8.500  -0.1229   0.09724   0.09145  -0.0613  0.1989  0.0223  -1.1162   0.0000   0.0000   0.0000  -0.2756
  -8.400  -0.1199   0.09589   0.09011  -0.0619  0.1985  0.0223  -1.1194   0.0000   0.0000   0.0000  -0.2934
  -8.300  -0.1169   0.09453   0.08875  -0.0626  0.1981  0.0224  -1.1227   0.0000   0.0000   0.0000  -0.3127
  -8.200  -0.1138   0.09317   0.08739  -0.0633  0.1977  0.0224  -1.1262   0.0000   0.0000   0.0000  -0.3336
  -8.100  -0.1106   0.09180   0.08603  -0.0641  0.1973  0.0225  -1.1297   0.0000   0.0000   0.0000  -0.3565
  -8.000  -0.1074   0.09042   0.08465  -0.0648  0.1969  0.0225  -1.1334   0.0000   0.0000   0.0000  -0.3814
  -7.900  -0.1040   0.08902   0.08326  -0.0657  0.1965  0.0225  -1.1371   0.0000   0.0000   0.0000  -0.4089
  -7.800  -0.1006   0.08762   0.08187  -0.0665  0.1961  0.0226  -1.1409   0.0000   0.0000   0.0000  -0.4391
  -7.700  -0.0971   0.08622   0.08047  -0.0674  0.1957  0.0226  -1.1449   0.0000   0.0000   0.0000  -0.4720
  -7.600  -0.0937   0.08481   0.07907  -0.0683  0.1953  0.0227  -1.1491   0.0000   0.0000   0.0000  -0.5076
  -7.500  -0.0903   0.08341   0.07768  -0.0693  0.1949  0.0227  -1.1538   0.0000   0.0000   0.0000  -0.5455
  -7.400  -0.0873   0.08204   0.07632  -0.0702  0.1945  0.0228  -1.1591   0.0000   0.0000   0.0000  -0.5836
  -7.300  -0.0849   0.08077   0.07505  -0.0712  0.1941  0.0228  -1.1655   0.0000   0.0000   0.0000  -0.6165
  -7.200  -0.0814   0.07938   0.07366  -0.0725  0.1936  0.0229  -1.1718   0.0000   0.0000   0.0000  -0.6689
  -7.100  -0.0765   0.07783   0.07212  -0.0741  0.1932  0.0229  -1.1777   0.0000   0.0000   0.0000  -0.7483
  -7.000  -0.0713   0.07626   0.07054  -0.0758  0.1928  0.0229  -1.1836   0.0000   0.0000   0.0000  -0.8444
  -6.900  -0.0657   0.07467   0.06894  -0.0776  0.1923  0.0230  -1.1895   0.0000   0.0000   0.0000  -0.9636
  -6.800  -0.0598   0.07306   0.06733  -0.0793  0.1919  0.0230  -1.1953   0.0000   0.0000   0.0000  -1.1109
  -6.700  -0.0535   0.07142   0.06568  -0.0811  0.1915  0.0231  -1.2011   0.0000   0.0000   0.0000  -1.3030
  -6.600  -0.0471   0.06979   0.06404  -0.0828  0.1910  0.0232  -1.2067   0.0000   0.0000   0.0000  -1.5479
  -6.500  -0.0402   0.06813   0.06236  -0.0845  0.1906  0.0232  -1.2123   0.0000   0.0000   0.0000  -1.8963
  -6.400  -0.0332   0.06648   0.06070  -0.0861  0.1901  0.0233  -1.2174   0.0000   0.0000   0.0000  -2.3935
  -6.300  -0.0261   0.06483   0.05904  -0.0876  0.1896  0.0233  -1.2223   0.0000   0.0000   0.0000  -3.1715
  -6.200  -0.0186   0.06318   0.05736  -0.0891  0.1892  0.0234  -1.2264   0.0000   0.0000   0.0000  -4.6384
  -6.100  -0.0109   0.06153   0.05568  -0.0904  0.1887  0.0234  -1.2298   0.0000   0.0000   0.0000  -8.2308
  -6.000  -0.0033   0.05991   0.05404  -0.0917  0.1883  0.0235  -1.2326   0.0000   0.0000   0.0000  -28.2607
  -5.900   0.0046   0.05830   0.05240  -0.0928  0.1879  0.0236  -1.2349   0.0000   0.0000   0.0000  20.8151
  -5.800   0.0128   0.05668   0.05075  -0.0939  0.1874  0.0236  -1.2369   0.0000   0.0000   0.0000   7.7244
  -5.700   0.0211   0.05508   0.04911  -0.0949  0.1870  0.0237  -1.2383   0.0000   0.0000   0.0000   4.8121
  -5.600   0.0292   0.05352   0.04752  -0.0957  0.1865  0.0238  -1.2389   0.0000   0.0000   0.0000   3.5732
  -5.500   0.0374   0.05198   0.04594  -0.0965  0.1861  0.0238  -1.2389   0.0000   0.0000   0.0000   2.8635
  -5.400   0.0458   0.05046   0.04437  -0.0971  0.1857  0.0239  -1.2383   0.0000   0.0000   0.0000   2.3993
  -5.300   0.0544   0.04895   0.04281  -0.0977  0.1853  0.0240  -1.2371   0.0000   0.0000   0.0000   2.0704
  -5.200   0.0631   0.04745   0.04127  -0.0981  0.1848  0.0241  -1.2352   0.0000   0.0000   0.0000   1.8252
  -5.100   0.0716   0.04600   0.03976  -0.0985  0.1844  0.0241  -1.2324   0.0000   0.0000   0.0000   1.6418
  -5.000   0.0801   0.04459   0.03829  -0.0988  0.1840  0.0242  -1.2288   0.0000   0.0000   0.0000   1.4981
  -4.900   0.0885   0.04320   0.03684  -0.0989  0.1836  0.0243  -1.2244   0.0000   0.0000   0.0000   1.3804
  -4.800   0.0970   0.04184   0.03542  -0.0990  0.1833  0.0244  -1.2188   0.0000   0.0000   0.0000   1.2822
  -4.700   0.1055   0.04051   0.03403  -0.0990  0.1829  0.0245  -1.2119   0.0000   0.0000   0.0000   1.1986
  -4.600   0.1141   0.03919   0.03265  -0.0989  0.1826  0.0245  -1.2042   0.0000   0.0000   0.0000   1.1263
  -4.500   0.1227   0.03791   0.03130  -0.0988  0.1822  0.0246  -1.1957   0.0000   0.0000   0.0000   1.0630
  -4.400   0.1314   0.03665   0.02998  -0.0985  0.1819  0.0247  -1.1861   0.0000   0.0000   0.0000   1.0075
  -4.300   0.1398   0.03543   0.02869  -0.0983  0.1817  0.0248  -1.1755   0.0000   0.0000   0.0000   0.9594
  -4.200   0.1483   0.03425   0.02743  -0.0980  0.1814  0.0249  -1.1640   0.0000   0.0000   0.0000   0.9167
  -4.100   0.1567   0.03309   0.02620  -0.0976  0.1811  0.0250  -1.1516   0.0000   0.0000   0.0000   0.8783
  -4.000   0.1651   0.03197   0.02499  -0.0972  0.1809  0.0251  -1.1383   0.0000   0.0000   0.0000   0.8437
  -3.900   0.1735   0.03087   0.02381  -0.0967  0.1807  0.0252  -1.1242   0.0000   0.0000   0.0000   0.8121
  -3.800   0.1819   0.02980   0.02266  -0.0962  0.1806  0.0252  -1.1092   0.0000   0.0000   0.0000   0.7832
  -3.700   0.1903   0.02877   0.02154  -0.0957  0.1804  0.0253  -1.0933   0.0000   0.0000   0.0000   0.7566
  -3.600   0.1988   0.02776   0.02044  -0.0951  0.1803  0.0254  -1.0770   0.0000   0.0000   0.0000   0.7321
  -3.500   0.2073   0.02678   0.01938  -0.0945  0.1802  0.0255  -1.0609   0.0000   0.0000   0.0000   0.7093
  -3.400   0.2158   0.02583   0.01834  -0.0939  0.1801  0.0256  -1.0439   0.0000   0.0000   0.0000   0.6882
  -2.700   0.2748   0.01694   0.00849  -0.0884  0.1781  0.0297  -1.0322   0.0000   0.0000   0.0000   0.5734
  -2.600   0.2824   0.01627   0.00791  -0.0884  0.1784  0.0336  -0.9630   0.0000   0.0000   0.0000   0.5646
  -2.500   0.2902   0.01614   0.00787  -0.0886  0.1801  0.0375  -0.8737   0.0000   0.0000   0.0000   0.5565
  -1.800   0.3567   0.01325   0.00472  -0.0865  0.1845  0.0584  -0.6282   0.0000   0.0000   0.0000   0.4929
  -1.700   0.3698   0.01225   0.00315  -0.0842  0.1821  0.0340  -0.6363   0.0000   0.0000   0.0000   0.4781
  -1.600   0.3793   0.01210   0.00290  -0.0839  0.1828  0.0313  -0.6500   0.0000   0.0000   0.0000   0.4714
  -1.500   0.3890   0.01194   0.00262  -0.0836  0.1836  0.0306  -0.6636   0.0000   0.0000   0.0000   0.4650
  -1.400   0.3989   0.01171   0.00240  -0.0832  0.1846  0.0499  -0.6768   0.0000   0.0000   0.0000   0.4585
  -1.300   0.4075   0.01153   0.00243  -0.0832  0.1852  0.0933  -0.6912   0.0000   0.0000   0.0000   0.4540
  -1.200   0.4154   0.01113   0.00246  -0.0833  0.1858  0.2395  -0.7050   0.0000   0.0000   0.0000   0.4502
  -1.000   0.4294   0.01022   0.00255  -0.0830  0.1868  0.5517  -0.7318   0.0000   0.0000   0.0000   0.4428
  -0.900   0.4343   0.00979   0.00262  -0.0821  0.1872  0.6991  -0.7438   0.0000   0.0000   0.0000   0.4385
  -0.800   0.4381   0.00948   0.00271  -0.0807  0.1875  0.8301  -0.7551   0.0000   0.0000   0.0000   0.4334
  -0.700   0.4790   0.00937   0.00276  -0.0881  0.1889  0.9746  -0.7973   0.0000   0.0000   0.0000   0.4332
  -0.600   0.5079   0.00940   0.00276  -0.0928  0.1899  0.9943  -0.8296   0.0000   0.0000   0.0000   0.4321
  -0.500   0.5253   0.00943   0.00277  -0.0949  0.1905  0.9976  -0.8524   0.0000   0.0000   0.0000   0.4298
  -0.400   0.5311   0.00946   0.00279  -0.0941  0.1909  0.9973  -0.8653   0.0000   0.0000   0.0000   0.4264
  -0.300   0.5366   0.00949   0.00281  -0.0933  0.1912  0.9968  -0.8780   0.0000   0.0000   0.0000   0.4230
  -0.200   0.5425   0.00952   0.00283  -0.0927  0.1915  0.9965  -0.8911   0.0000   0.0000   0.0000   0.4197
  -0.100   0.5488   0.00955   0.00286  -0.0920  0.1918  0.9962  -0.9046   0.0000   0.0000   0.0000   0.4165
   0.000   0.5552   0.00959   0.00288  -0.0915  0.1921  0.9959  -0.9181   0.0000   0.0000   0.0000   0.4134
   0.100   0.5616   0.00962   0.00290  -0.0909  0.1923  0.9955  -0.9318   0.0000   0.0000   0.0000   0.4104
   0.200   0.5680   0.00966   0.00293  -0.0903  0.1926  0.9948  -0.9455   0.0000   0.0000   0.0000   0.4075
   0.300   0.5746   0.00969   0.00296  -0.0897  0.1929  0.9939  -0.9593   0.0000   0.0000   0.0000   0.4046
   0.400   0.5811   0.00973   0.00299  -0.0892  0.1932  0.9924  -0.9732   0.0000   0.0000   0.0000   0.4018
   0.500   0.5874   0.00977   0.00302  -0.0886  0.1934  0.9896  -0.9868   0.0000   0.0000   0.0000   0.3990
   0.600   0.5930   0.00981   0.00305  -0.0878  0.1936  0.9837  -0.9999   0.0000   0.0000   0.0000   0.3962
   0.700   0.5968   0.00986   0.00309  -0.0866  0.1938  0.9689  -1.0114   0.0000   0.0000   0.0000   0.3931
   0.800   0.5966   0.00994   0.00316  -0.0844  0.1939  0.9494  -1.0194   0.0000   0.0000   0.0000   0.3894
   0.900   0.5904   0.01006   0.00325  -0.0808  0.1939  0.9158  -1.0221   0.0000   0.0000   0.0000   0.3847
   1.000   0.5988   0.01169   0.00312  -0.0805  0.1942  0.2979  -1.0373   0.0000   0.0000   0.0000   0.3821
   1.100   0.6072   0.01196   0.00313  -0.0802  0.1944  0.1988  -1.0532   0.0000   0.0000   0.0000   0.3797
   1.200   0.6155   0.01227   0.00311  -0.0799  0.1947  0.0935  -1.0692   0.0000   0.0000   0.0000   0.3773
   2.200   0.7079   0.01267   0.00356  -0.0810  0.1967  0.0617  -1.2376   0.0000   0.0000   0.0000   0.3612
   2.300   0.7173   0.01271   0.00361  -0.0812  0.1968  0.0620  -1.2547   0.0000   0.0000   0.0000   0.3597
   2.400   0.7267   0.01275   0.00366  -0.0813  0.1969  0.0622  -1.2719   0.0000   0.0000   0.0000   0.3583
   2.500   0.7362   0.01279   0.00371  -0.0814  0.1970  0.0625  -1.2891   0.0000   0.0000   0.0000   0.3570
   2.600   0.7456   0.01283   0.00376  -0.0815  0.1971  0.0629  -1.3063   0.0000   0.0000   0.0000   0.3556
   2.700   0.7551   0.01286   0.00381  -0.0816  0.1972  0.0633  -1.3237   0.0000   0.0000   0.0000   0.3543
   2.800   0.7645   0.01291   0.00386  -0.0817  0.1972  0.0637  -1.3410   0.0000   0.0000   0.0000   0.3531
   2.900   0.7740   0.01295   0.00391  -0.0819  0.1972  0.0641  -1.3584   0.0000   0.0000   0.0000   0.3518
   3.000   0.7836   0.01298   0.00383  -0.0820  0.1981  0.0645  -1.3756   0.0000   0.0000   0.0000   0.3506
   3.100   0.7931   0.01302   0.00389  -0.0821  0.1984  0.0649  -1.3929   0.0000   0.0000   0.0000   0.3494
   3.200   0.8026   0.01306   0.00394  -0.0822  0.1987  0.0654  -1.4101   0.0000   0.0000   0.0000   0.3482
   3.300   0.8121   0.01310   0.00400  -0.0823  0.1988  0.0659  -1.4273   0.0000   0.0000   0.0000   0.3470
   3.400   0.8215   0.01315   0.00406  -0.0824  0.1989  0.0665  -1.4445   0.0000   0.0000   0.0000   0.3458
   3.500   0.8310   0.01320   0.00412  -0.0825  0.1989  0.0670  -1.4616   0.0000   0.0000   0.0000   0.3447
   3.600   0.8405   0.01326   0.00419  -0.0825  0.1989  0.0676  -1.4787   0.0000   0.0000   0.0000   0.3436
   3.700   0.8499   0.01332   0.00426  -0.0826  0.1989  0.0683  -1.4957   0.0000   0.0000   0.0000   0.3425
   3.800   0.8593   0.01338   0.00433  -0.0827  0.1988  0.0689  -1.5126   0.0000   0.0000   0.0000   0.3414
   3.900   0.8688   0.01344   0.00441  -0.0828  0.1987  0.0696  -1.5294   0.0000   0.0000   0.0000   0.3403
   4.000   0.8782   0.01351   0.00450  -0.0828  0.1986  0.0703  -1.5460   0.0000   0.0000   0.0000   0.3393
   4.100   0.8876   0.01359   0.00459  -0.0829  0.1985  0.0711  -1.5624   0.0000   0.0000   0.0000   0.3383
   5.700   1.0439   0.01402   0.00753  -0.0853  0.1973  1.0000  -1.9375   0.0000   0.0000   0.0000   0.3248
   5.800   1.0532   0.01408   0.00758  -0.0854  0.1972  1.0000  -1.9651   0.0000   0.0000   0.0000   0.3240
   5.900   1.0624   0.01415   0.00763  -0.0854  0.1970  1.0000  -1.9930   0.0000   0.0000   0.0000   0.3232
   6.000   1.0717   0.01421   0.00768  -0.0854  0.1969  1.0000  -2.0209   0.0000   0.0000   0.0000   0.3224
   6.100   1.0809   0.01427   0.00773  -0.0854  0.1967  1.0000  -2.0491   0.0000   0.0000   0.0000   0.3216
   6.200   1.0902   0.01433   0.00778  -0.0854  0.1965  1.0000  -2.0773   0.0000   0.0000   0.0000   0.3208
   6.300   1.0994   0.01440   0.00783  -0.0854  0.1963  1.0000  -2.1057   0.0000   0.0000   0.0000   0.3200
   6.400   1.1087   0.01446   0.00788  -0.0854  0.1961  1.0000  -2.1341   0.0000   0.0000   0.0000   0.3192
   6.500   1.1180   0.01452   0.00793  -0.0855  0.1959  1.0000  -2.1627   0.0000   0.0000   0.0000   0.3185
   6.600   1.1273   0.01459   0.00798  -0.0855  0.1957  1.0000  -2.1915   0.0000   0.0000   0.0000   0.3177
   6.700   1.1366   0.01465   0.00803  -0.0855  0.1954  1.0000  -2.2203   0.0000   0.0000   0.0000   0.3170
   6.800   1.1458   0.01472   0.00808  -0.0855  0.1952  1.0000  -2.2492   0.0000   0.0000   0.0000   0.3162
   6.900   1.1551   0.01478   0.00814  -0.0855  0.1949  1.0000  -2.2783   0.0000   0.0000   0.0000   0.3155
   7.000   1.1641   0.01468   0.00798  -0.0854  0.1943  1.0000  -2.3108   0.0000   0.0000   0.0000   0.3147
   7.100   1.1733   0.01442   0.00761  -0.0855  0.1927  1.0000  -2.3486   0.0000   0.0000   0.0000   0.3140
   7.200   1.1830   0.01432   0.00745  -0.0856  0.1903  1.0000  -2.3837   0.0000   0.0000   0.0000   0.3134
   7.300   1.1923   0.01436   0.00745  -0.0857  0.1881  1.0000  -2.4153   0.0000   0.0000   0.0000   0.3127
   7.400   1.2016   0.01444   0.00750  -0.0857  0.1865  1.0000  -2.4451   0.0000   0.0000   0.0000   0.3120
   7.500   1.2108   0.01453   0.00756  -0.0857  0.1847  1.0000  -2.4750   0.0000   0.0000   0.0000   0.3113
   7.600   1.2199   0.01462   0.00762  -0.0857  0.1824  1.0000  -2.5048   0.0000   0.0000   0.0000   0.3106
   7.700   1.2289   0.01473   0.00768  -0.0856  0.1796  1.0000  -2.5346   0.0000   0.0000   0.0000   0.3099
   7.800   1.2377   0.01484   0.00775  -0.0855  0.1759  1.0000  -2.5643   0.0000   0.0000   0.0000   0.3092
   7.900   1.2463   0.01498   0.00782  -0.0854  0.1709  1.0000  -2.5938   0.0000   0.0000   0.0000   0.3085
   8.000   1.2545   0.01516   0.00791  -0.0853  0.1644  1.0000  -2.6226   0.0000   0.0000   0.0000   0.3078
   8.100   1.2624   0.01536   0.00802  -0.0850  0.1569  1.0000  -2.6510   0.0000   0.0000   0.0000   0.3070
   8.200   1.2700   0.01558   0.00815  -0.0848  0.1491  1.0000  -2.6789   0.0000   0.0000   0.0000   0.3063
   8.300   1.2777   0.01580   0.00828  -0.0845  0.1412  1.0000  -2.7066   0.0000   0.0000   0.0000   0.3055
   8.400   1.2854   0.01601   0.00841  -0.0843  0.1330  1.0000  -2.7343   0.0000   0.0000   0.0000   0.3048
   8.500   1.2935   0.01620   0.00853  -0.0841  0.1247  1.0000  -2.7624   0.0000   0.0000   0.0000   0.3040
   8.600   1.3020   0.01636   0.00864  -0.0839  0.1159  1.0000  -2.7910   0.0000   0.0000   0.0000   0.3033
   8.700   1.3106   0.01651   0.00875  -0.0838  0.1072  1.0000  -2.8198   0.0000   0.0000   0.0000   0.3026
   8.800   1.3192   0.01664   0.00886  -0.0836  0.1006  1.0000  -2.8488   0.0000   0.0000   0.0000   0.3019
   9.200   1.3504   0.01871   0.00894  -0.0822  0.0931  0.0764  -2.9652   0.0000   0.0000   0.0000   0.2988
   9.300   1.3583   0.01889   0.00911  -0.0820  0.0898  0.0758  -2.9942   0.0000   0.0000   0.0000   0.2981
   9.400   1.3655   0.01914   0.00930  -0.0817  0.0850  0.0752  -3.0224   0.0000   0.0000   0.0000   0.2974
   9.600   1.3655   0.02095   0.01043  -0.0790  0.0488  0.0745  -3.0537   0.0000   0.0000   0.0000   0.2951
   9.700   1.3715   0.02126   0.01068  -0.0785  0.0461  0.0739  -3.0718   0.0000   0.0000   0.0000   0.2943
   9.800   1.3789   0.02148   0.01087  -0.0782  0.0432  0.0733  -3.0910   0.0000   0.0000   0.0000   0.2936
   9.900   1.3872   0.02166   0.01103  -0.0779  0.0399  0.0726  -3.1132   0.0000   0.0000   0.0000   0.2929
  10.000   1.3948   0.02187   0.01122  -0.0776  0.0360  0.0719  -3.1383   0.0000   0.0000   0.0000   0.2922
  10.100   1.4022   0.02208   0.01141  -0.0773  0.0324  0.0711  -3.1646   0.0000   0.0000   0.0000   0.2915
  10.200   1.4099   0.02228   0.01159  -0.0770  0.0291  0.0703  -3.1901   0.0000   0.0000   0.0000   0.2908
  10.300   1.4183   0.02244   0.01170  -0.0767  0.0259  0.0692  -3.2143   0.0000   0.0000   0.0000   0.2901
  10.400   1.4259   0.02262   0.01190  -0.0764  0.0256  0.0680  -3.2710   0.0000   0.0000   0.0000   0.2893
  10.500   1.4334   0.02281   0.01212  -0.0760  0.0252  0.0667  -3.3693   0.0000   0.0000   0.0000   0.2886
  10.600   1.4407   0.02301   0.01235  -0.0755  0.0249  0.0652  -3.4664   0.0000   0.0000   0.0000   0.2878
  10.700   1.4479   0.02323   0.01259  -0.0750  0.0246  0.0638  -3.5620   0.0000   0.0000   0.0000   0.2870
  10.800   1.4550   0.02347   0.01287  -0.0745  0.0243  0.0624  -3.6547   0.0000   0.0000   0.0000   0.2862
  10.900   1.4618   0.02375   0.01319  -0.0739  0.0241  0.0611  -3.7429   0.0000   0.0000   0.0000   0.2854
  11.000   1.4680   0.02408   0.01356  -0.0731  0.0239  0.0599  -3.8241   0.0000   0.0000   0.0000   0.2844
  11.100   1.4734   0.02446   0.01399  -0.0723  0.0238  0.0589  -3.8976   0.0000   0.0000   0.0000   0.2835
  11.200   1.4779   0.02489   0.01448  -0.0712  0.0237  0.0581  -3.9637   0.0000   0.0000   0.0000   0.2824
  11.300   1.4818   0.02536   0.01503  -0.0701  0.0237  0.0573  -4.0240   0.0000   0.0000   0.0000   0.2813
  11.400   1.4849   0.02587   0.01565  -0.0688  0.0238  0.0567  -4.0789   0.0000   0.0000   0.0000   0.2801
  11.500   1.4876   0.02642   0.01633  -0.0675  0.0238  0.0561  -4.1300   0.0000   0.0000   0.0000   0.2789
  11.600   1.4898   0.02702   0.01708  -0.0661  0.0239  0.0556  -4.1762   0.0000   0.0000   0.0000   0.2777
  11.700   1.4909   0.02768   0.01793  -0.0645  0.0240  0.0551  -4.2153   0.0000   0.0000   0.0000   0.2764
  11.800   1.4905   0.02846   0.01889  -0.0628  0.0242  0.0548  -4.2450   0.0000   0.0000   0.0000   0.2750
  11.900   1.4866   0.02939   0.01999  -0.0608  0.0243  0.0546  -4.2592   0.0000   0.0000   0.0000   0.2736
  12.000   1.4811   0.03047   0.02122  -0.0586  0.0245  0.0544  -4.2631   0.0000   0.0000   0.0000   0.2720


