xflr5 v6.61

 Calculated polar for: RAF 6 AIRFOIL

 1 1 Reynolds number fixed          Mach number fixed         

 xtrf =   1.000 (top)        1.000 (bottom)
 Mach =   0.000     Re =     0.450 e 6     Ncrit =   9.000

  alpha     CL        CD       CDp       Cm    Top Xtr Bot Xtr   Cpmin    Chinge    XCp    
 ------- -------- --------- --------- -------- ------- ------- -------- --------- ---------
 -10.000  -0.1593   0.11716   0.11116  -0.0542  0.2719  0.0221  -1.0691   0.0000   0.0000   0.0000  -0.1170
  -9.900  -0.1566   0.11584   0.10984  -0.0547  0.2702  0.0222  -1.0712   0.0000   0.0000   0.0000  -0.1258
  -9.800  -0.1540   0.11453   0.10852  -0.0552  0.2684  0.0222  -1.0733   0.0000   0.0000   0.0000  -0.1350
  -9.700  -0.1513   0.11321   0.10720  -0.0556  0.2667  0.0223  -1.0755   0.0000   0.0000   0.0000  -0.1444
  -9.600  -0.1486   0.11190   0.10588  -0.0561  0.2650  0.0223  -1.0779   0.0000   0.0000   0.0000  -0.1542
  -9.500  -0.1460   0.11059   0.10457  -0.0565  0.2633  0.0223  -1.0803   0.0000   0.0000   0.0000  -0.1643
  -9.400  -0.1434   0.10929   0.10327  -0.0570  0.2616  0.0224  -1.0828   0.0000   0.0000   0.0000  -0.1746
  -9.300  -0.1408   0.10800   0.10197  -0.0575  0.2598  0.0224  -1.0854   0.0000   0.0000   0.0000  -0.1851
  -9.200  -0.1383   0.10671   0.10068  -0.0579  0.2581  0.0225  -1.0881   0.0000   0.0000   0.0000  -0.1960
  -9.100  -0.1358   0.10542   0.09939  -0.0584  0.2564  0.0225  -1.0909   0.0000   0.0000   0.0000  -0.2071
  -9.000  -0.1334   0.10415   0.09811  -0.0588  0.2547  0.0225  -1.0939   0.0000   0.0000   0.0000  -0.2183
  -8.900  -0.1310   0.10289   0.09685  -0.0593  0.2529  0.0226  -1.0970   0.0000   0.0000   0.0000  -0.2294
  -8.800  -0.1288   0.10164   0.09560  -0.0597  0.2512  0.0226  -1.1002   0.0000   0.0000   0.0000  -0.2406
  -8.700  -0.1266   0.10040   0.09436  -0.0601  0.2495  0.0227  -1.1037   0.0000   0.0000   0.0000  -0.2519
  -8.600  -0.1243   0.09915   0.09312  -0.0606  0.2477  0.0227  -1.1072   0.0000   0.0000   0.0000  -0.2642
  -8.500  -0.1217   0.09786   0.09182  -0.0611  0.2460  0.0227  -1.1105   0.0000   0.0000   0.0000  -0.2793
  -8.400  -0.1187   0.09653   0.09049  -0.0617  0.2442  0.0228  -1.1139   0.0000   0.0000   0.0000  -0.2971
  -8.300  -0.1157   0.09519   0.08915  -0.0624  0.2424  0.0228  -1.1173   0.0000   0.0000   0.0000  -0.3165
  -8.200  -0.1126   0.09384   0.08780  -0.0631  0.2406  0.0229  -1.1208   0.0000   0.0000   0.0000  -0.3376
  -8.100  -0.1095   0.09249   0.08645  -0.0638  0.2389  0.0229  -1.1245   0.0000   0.0000   0.0000  -0.3606
  -8.000  -0.1062   0.09111   0.08508  -0.0646  0.2371  0.0229  -1.1280   0.0000   0.0000   0.0000  -0.3860
  -7.900  -0.1028   0.08974   0.08370  -0.0654  0.2353  0.0230  -1.1317   0.0000   0.0000   0.0000  -0.4137
  -7.800  -0.0994   0.08835   0.08232  -0.0662  0.2335  0.0230  -1.1356   0.0000   0.0000   0.0000  -0.4441
  -7.700  -0.0960   0.08696   0.08093  -0.0671  0.2317  0.0231  -1.1397   0.0000   0.0000   0.0000  -0.4772
  -7.600  -0.0926   0.08557   0.07954  -0.0680  0.2298  0.0231  -1.1441   0.0000   0.0000   0.0000  -0.5130
  -7.500  -0.0893   0.08418   0.07816  -0.0690  0.2280  0.0232  -1.1489   0.0000   0.0000   0.0000  -0.5510
  -7.400  -0.0862   0.08282   0.07681  -0.0699  0.2261  0.0232  -1.1543   0.0000   0.0000   0.0000  -0.5897
  -7.300  -0.0838   0.08155   0.07554  -0.0708  0.2242  0.0232  -1.1607   0.0000   0.0000   0.0000  -0.6238
  -7.200  -0.0806   0.08019   0.07418  -0.0720  0.2214  0.0233  -1.1672   0.0000   0.0000   0.0000  -0.6732
  -7.100  -0.0758   0.07867   0.07266  -0.0737  0.2191  0.0233  -1.1733   0.0000   0.0000   0.0000  -0.7517
  -7.000  -0.0707   0.07712   0.07111  -0.0753  0.2169  0.0234  -1.1794   0.0000   0.0000   0.0000  -0.8465
  -6.900  -0.0652   0.07554   0.06952  -0.0770  0.2147  0.0234  -1.1855   0.0000   0.0000   0.0000  -0.9641
  -6.800  -0.0595   0.07395   0.06792  -0.0787  0.2126  0.0235  -1.1916   0.0000   0.0000   0.0000  -1.1092
  -6.700  -0.0533   0.07233   0.06629  -0.0805  0.2105  0.0235  -1.1977   0.0000   0.0000   0.0000  -1.2977
  -6.600  -0.0470   0.07071   0.06467  -0.0821  0.2084  0.0236  -1.2036   0.0000   0.0000   0.0000  -1.5383
  -6.500  -0.0403   0.06906   0.06300  -0.0838  0.2065  0.0236  -1.2093   0.0000   0.0000   0.0000  -1.8781
  -6.400  -0.0334   0.06743   0.06136  -0.0853  0.2048  0.0237  -1.2140   0.0000   0.0000   0.0000  -2.3572
  -6.300  -0.0264   0.06580   0.05971  -0.0868  0.2032  0.0237  -1.2184   0.0000   0.0000   0.0000  -3.1035
  -6.200  -0.0190   0.06415   0.05804  -0.0882  0.2017  0.0238  -1.2226   0.0000   0.0000   0.0000  -4.4878
  -6.100  -0.0114   0.06252   0.05638  -0.0895  0.2004  0.0239  -1.2263   0.0000   0.0000   0.0000  -7.7277
  -6.000  -0.0040   0.06091   0.05474  -0.0907  0.1999  0.0239  -1.2296   0.0000   0.0000   0.0000  -23.0875
  -5.900   0.0038   0.05930   0.05310  -0.0919  0.1994  0.0240  -1.2324   0.0000   0.0000   0.0000  24.8316
  -5.800   0.0119   0.05769   0.05146  -0.0930  0.1989  0.0240  -1.2349   0.0000   0.0000   0.0000   8.2118
  -5.700   0.0200   0.05610   0.04983  -0.0939  0.1984  0.0241  -1.2368   0.0000   0.0000   0.0000   5.0219
  -5.600   0.0280   0.05455   0.04824  -0.0948  0.1979  0.0242  -1.2379   0.0000   0.0000   0.0000   3.6905
  -5.500   0.0361   0.05302   0.04666  -0.0955  0.1975  0.0242  -1.2384   0.0000   0.0000   0.0000   2.9362
  -5.400   0.0443   0.05149   0.04509  -0.0961  0.1970  0.0243  -1.2385   0.0000   0.0000   0.0000   2.4477
  -5.300   0.0528   0.04998   0.04353  -0.0967  0.1966  0.0244  -1.2380   0.0000   0.0000   0.0000   2.1043
  -5.200   0.0613   0.04849   0.04199  -0.0971  0.1962  0.0244  -1.2366   0.0000   0.0000   0.0000   1.8535
  -5.100   0.0696   0.04706   0.04050  -0.0975  0.1958  0.0245  -1.2333   0.0000   0.0000   0.0000   1.6676
  -5.000   0.0779   0.04565   0.03903  -0.0977  0.1954  0.0246  -1.2291   0.0000   0.0000   0.0000   1.5198
  -4.900   0.0862   0.04426   0.03758  -0.0979  0.1951  0.0247  -1.2242   0.0000   0.0000   0.0000   1.3988
  -4.800   0.0945   0.04290   0.03616  -0.0979  0.1948  0.0247  -1.2185   0.0000   0.0000   0.0000   1.2976
  -4.700   0.1029   0.04155   0.03475  -0.0979  0.1945  0.0248  -1.2120   0.0000   0.0000   0.0000   1.2114
  -4.600   0.1114   0.04024   0.03337  -0.0978  0.1942  0.0249  -1.2048   0.0000   0.0000   0.0000   1.1370
  -4.500   0.1200   0.03894   0.03201  -0.0977  0.1939  0.0250  -1.1967   0.0000   0.0000   0.0000   1.0722
  -4.400   0.1284   0.03769   0.03068  -0.0975  0.1936  0.0251  -1.1874   0.0000   0.0000   0.0000   1.0164
  -4.300   0.1368   0.03647   0.02939  -0.0972  0.1934  0.0251  -1.1772   0.0000   0.0000   0.0000   0.9674
  -4.200   0.1451   0.03528   0.02812  -0.0969  0.1931  0.0252  -1.1661   0.0000   0.0000   0.0000   0.9238
  -4.100   0.1534   0.03412   0.02687  -0.0965  0.1929  0.0253  -1.1546   0.0000   0.0000   0.0000   0.8847
  -4.000   0.1617   0.03299   0.02566  -0.0961  0.1927  0.0254  -1.1432   0.0000   0.0000   0.0000   0.8493
  -3.900   0.1700   0.03188   0.02447  -0.0956  0.1926  0.0255  -1.1310   0.0000   0.0000   0.0000   0.8171
  -3.800   0.1784   0.03081   0.02330  -0.0951  0.1924  0.0256  -1.1179   0.0000   0.0000   0.0000   0.7875
  -3.700   0.1868   0.02977   0.02217  -0.0946  0.1922  0.0256  -1.1040   0.0000   0.0000   0.0000   0.7604
  -3.600   0.1952   0.02875   0.02106  -0.0940  0.1921  0.0257  -1.0892   0.0000   0.0000   0.0000   0.7354
  -3.500   0.2037   0.02777   0.01998  -0.0934  0.1920  0.0258  -1.0733   0.0000   0.0000   0.0000   0.7122
  -3.400   0.2122   0.02681   0.01893  -0.0928  0.1919  0.0259  -1.0562   0.0000   0.0000   0.0000   0.6907
  -2.900   0.2514   0.01872   0.01009  -0.0886  0.1893  0.0309  -1.1016   0.0000   0.0000   0.0000   0.6048
  -2.400   0.2905   0.01695   0.00859  -0.0889  0.1937  0.0650  -0.7259   0.0000   0.0000   0.0000   0.5568
  -2.300   0.2965   0.01716   0.00906  -0.0891  0.1950  0.0798  -0.6263   0.0000   0.0000   0.0000   0.5511
  -2.100   0.3096   0.01641   0.00851  -0.0891  0.1964  0.1435  -0.5900   0.0000   0.0000   0.0000   0.5378
  -2.000   0.3155   0.01626   0.00855  -0.0887  0.1971  0.1766  -0.6025   0.0000   0.0000   0.0000   0.5312
  -1.900   0.3255   0.01581   0.00807  -0.0882  0.1972  0.1871  -0.6151   0.0000   0.0000   0.0000   0.5210
  -1.800   0.3556   0.01338   0.00428  -0.0850  0.1932  0.0447  -0.6221   0.0000   0.0000   0.0000   0.4894
  -1.700   0.3668   0.01276   0.00326  -0.0836  0.1924  0.0364  -0.6327   0.0000   0.0000   0.0000   0.4783
  -1.600   0.3767   0.01258   0.00292  -0.0832  0.1927  0.0342  -0.6461   0.0000   0.0000   0.0000   0.4712
  -1.500   0.3865   0.01244   0.00265  -0.0829  0.1932  0.0348  -0.6597   0.0000   0.0000   0.0000   0.4646
  -1.400   0.3963   0.01222   0.00250  -0.0826  0.1940  0.0607  -0.6731   0.0000   0.0000   0.0000   0.4584
  -1.300   0.4041   0.01175   0.00254  -0.0827  0.1944  0.1898  -0.6866   0.0000   0.0000   0.0000   0.4543
  -1.200   0.4114   0.01122   0.00260  -0.0827  0.1947  0.3703  -0.7000   0.0000   0.0000   0.0000   0.4507
  -1.100   0.4169   0.01061   0.00266  -0.0822  0.1950  0.5750  -0.7122   0.0000   0.0000   0.0000   0.4468
  -1.000   0.4196   0.01011   0.00274  -0.0806  0.1952  0.7437  -0.7224   0.0000   0.0000   0.0000   0.4417
  -0.900   0.4632   0.00983   0.00285  -0.0884  0.1964  0.9791  -0.7667   0.0000   0.0000   0.0000   0.4404
  -0.800   0.4830   0.00987   0.00286  -0.0910  0.1970  0.9912  -0.7910   0.0000   0.0000   0.0000   0.4379
  -0.700   0.5146   0.00991   0.00286  -0.0964  0.1978  1.0000  -0.8256   0.0000   0.0000   0.0000   0.4368
  -0.600   0.5214   0.00994   0.00288  -0.0959  0.1980  1.0000  -0.8393   0.0000   0.0000   0.0000   0.4333
  -0.500   0.5280   0.00997   0.00289  -0.0954  0.1982  1.0000  -0.8529   0.0000   0.0000   0.0000   0.4299
  -0.400   0.5345   0.01000   0.00291  -0.0949  0.1984  1.0000  -0.8664   0.0000   0.0000   0.0000   0.4266
  -0.300   0.5409   0.01003   0.00293  -0.0943  0.1986  1.0000  -0.8799   0.0000   0.0000   0.0000   0.4233
  -0.200   0.5472   0.01006   0.00295  -0.0937  0.1988  1.0000  -0.8933   0.0000   0.0000   0.0000   0.4201
  -0.100   0.5534   0.01010   0.00298  -0.0930  0.1990  1.0000  -0.9066   0.0000   0.0000   0.0000   0.4169
   0.000   0.5595   0.01013   0.00300  -0.0924  0.1991  1.0000  -0.9199   0.0000   0.0000   0.0000   0.4138
   0.100   0.5656   0.01016   0.00302  -0.0917  0.1993  1.0000  -0.9333   0.0000   0.0000   0.0000   0.4108
   0.200   0.5720   0.01020   0.00305  -0.0912  0.1994  1.0000  -0.9469   0.0000   0.0000   0.0000   0.4079
   0.300   0.5786   0.01024   0.00308  -0.0906  0.1996  1.0000  -0.9607   0.0000   0.0000   0.0000   0.4050
   0.400   0.5854   0.01027   0.00310  -0.0901  0.1997  1.0000  -0.9748   0.0000   0.0000   0.0000   0.4023
   0.500   0.5925   0.01031   0.00313  -0.0897  0.1998  1.0000  -0.9892   0.0000   0.0000   0.0000   0.3996
   0.600   0.5998   0.01035   0.00316  -0.0893  0.1999  1.0000  -1.0037   0.0000   0.0000   0.0000   0.3971
   0.700   0.6072   0.01039   0.00319  -0.0890  0.2000  1.0000  -1.0184   0.0000   0.0000   0.0000   0.3946
   0.800   0.6148   0.01043   0.00322  -0.0887  0.2001  1.0000  -1.0333   0.0000   0.0000   0.0000   0.3922
   0.900   0.6209   0.01048   0.00326  -0.0880  0.2002  0.9965  -1.0469   0.0000   0.0000   0.0000   0.3896
   1.000   0.6282   0.01052   0.00329  -0.0876  0.2003  0.9942  -1.0616   0.0000   0.0000   0.0000   0.3873
   1.100   0.6354   0.01057   0.00332  -0.0872  0.2003  0.9907  -1.0763   0.0000   0.0000   0.0000   0.3850
   1.200   0.6350   0.01064   0.00338  -0.0851  0.2003  0.9555  -1.0841   0.0000   0.0000   0.0000   0.3815
   1.600   0.6523   0.01301   0.00334  -0.0805  0.2010  0.0657  -1.1334   0.0000   0.0000   0.0000   0.3705
   1.700   0.6614   0.01305   0.00339  -0.0805  0.2011  0.0651  -1.1500   0.0000   0.0000   0.0000   0.3689
   1.800   0.6706   0.01309   0.00345  -0.0806  0.2011  0.0647  -1.1667   0.0000   0.0000   0.0000   0.3672
   1.900   0.6798   0.01312   0.00350  -0.0807  0.2010  0.0644  -1.1834   0.0000   0.0000   0.0000   0.3656
   2.000   0.6890   0.01316   0.00355  -0.0808  0.2009  0.0642  -1.2002   0.0000   0.0000   0.0000   0.3641
   2.100   0.6982   0.01320   0.00360  -0.0809  0.2007  0.0641  -1.2170   0.0000   0.0000   0.0000   0.3626
   2.200   0.7075   0.01324   0.00366  -0.0810  0.2004  0.0641  -1.2339   0.0000   0.0000   0.0000   0.3611
   2.300   0.7168   0.01328   0.00371  -0.0810  0.2003  0.0641  -1.2508   0.0000   0.0000   0.0000   0.3596
   2.400   0.7261   0.01332   0.00376  -0.0811  0.2002  0.0642  -1.2677   0.0000   0.0000   0.0000   0.3582
   2.500   0.7354   0.01337   0.00382  -0.0812  0.2002  0.0643  -1.2847   0.0000   0.0000   0.0000   0.3569
   2.600   0.7447   0.01341   0.00387  -0.0813  0.2001  0.0644  -1.3018   0.0000   0.0000   0.0000   0.3555
   2.700   0.7541   0.01346   0.00393  -0.0814  0.2000  0.0647  -1.3188   0.0000   0.0000   0.0000   0.3542
   2.800   0.7634   0.01350   0.00399  -0.0815  0.1999  0.0649  -1.3359   0.0000   0.0000   0.0000   0.3529
   2.900   0.7727   0.01355   0.00405  -0.0816  0.1997  0.0652  -1.3530   0.0000   0.0000   0.0000   0.3516
   3.000   0.7822   0.01359   0.00396  -0.0817  0.2001  0.0655  -1.3697   0.0000   0.0000   0.0000   0.3504
   3.100   0.7915   0.01364   0.00402  -0.0817  0.2001  0.0658  -1.3865   0.0000   0.0000   0.0000   0.3491
   3.200   0.8009   0.01370   0.00409  -0.0818  0.2001  0.0661  -1.4033   0.0000   0.0000   0.0000   0.3479
   3.300   0.8102   0.01376   0.00416  -0.0819  0.1999  0.0665  -1.4199   0.0000   0.0000   0.0000   0.3467
   3.400   0.8195   0.01382   0.00423  -0.0819  0.1998  0.0669  -1.4364   0.0000   0.0000   0.0000   0.3456
   3.500   0.8288   0.01388   0.00431  -0.0820  0.1997  0.0673  -1.4528   0.0000   0.0000   0.0000   0.3444
   3.600   0.8382   0.01395   0.00440  -0.0820  0.1995  0.0677  -1.4690   0.0000   0.0000   0.0000   0.3433
   3.700   0.8475   0.01403   0.00450  -0.0821  0.1993  0.0682  -1.4851   0.0000   0.0000   0.0000   0.3421
   3.800   0.8568   0.01411   0.00460  -0.0821  0.1991  0.0687  -1.5009   0.0000   0.0000   0.0000   0.3410
   3.900   0.8660   0.01421   0.00472  -0.0822  0.1990  0.0692  -1.5161   0.0000   0.0000   0.0000   0.3399
   4.000   0.8753   0.01434   0.00488  -0.0822  0.1988  0.0697  -1.5290   0.0000   0.0000   0.0000   0.3388
   4.100   0.8845   0.01453   0.00514  -0.0821  0.1987  0.0702  -1.5387   0.0000   0.0000   0.0000   0.3377
   4.200   0.8940   0.01484   0.00555  -0.0821  0.1987  0.0707  -1.5437   0.0000   0.0000   0.0000   0.3366
   4.300   0.9057   0.01532   0.00622  -0.0826  0.1988  0.0713  -1.5559   0.0000   0.0000   0.0000   0.3358
   4.400   0.9427   0.01667   0.00803  -0.0888  0.1995  0.0726  -1.5914   0.0000   0.0000   0.0000   0.3388
   4.500   0.9568   0.01727   0.00877  -0.0900  0.1996  0.0734  -1.6157   0.0000   0.0000   0.0000   0.3386
   5.200   1.0190   0.01740   0.00913  -0.0897  0.1988  0.1012  -1.8005   0.0000   0.0000   0.0000   0.3318
   5.300   1.0283   0.01749   0.00923  -0.0898  0.1987  0.1012  -1.8271   0.0000   0.0000   0.0000   0.3309
   6.400   1.1247   0.01657   0.00989  -0.0891  0.1972  1.0000  -2.1263   0.0000   0.0000   0.0000   0.3214
   6.500   1.1323   0.01663   0.00993  -0.0887  0.1970  1.0000  -2.1527   0.0000   0.0000   0.0000   0.3204
   6.600   1.1399   0.01669   0.00998  -0.0884  0.1968  1.0000  -2.1791   0.0000   0.0000   0.0000   0.3195
   6.700   1.1476   0.01675   0.01002  -0.0880  0.1966  1.0000  -2.2057   0.0000   0.0000   0.0000   0.3185
   6.800   1.1554   0.01681   0.01006  -0.0877  0.1964  1.0000  -2.2327   0.0000   0.0000   0.0000   0.3176
   6.900   1.1634   0.01687   0.01010  -0.0874  0.1962  1.0000  -2.2601   0.0000   0.0000   0.0000   0.3167
   7.000   1.1715   0.01693   0.01014  -0.0872  0.1960  1.0000  -2.2877   0.0000   0.0000   0.0000   0.3158
   7.100   1.1769   0.01676   0.00989  -0.0863  0.1956  1.0000  -2.3159   0.0000   0.0000   0.0000   0.3146
   7.200   1.1807   0.01625   0.00920  -0.0851  0.1945  1.0000  -2.3495   0.0000   0.0000   0.0000   0.3131
   7.300   1.1875   0.01578   0.00858  -0.0846  0.1928  1.0000  -2.3878   0.0000   0.0000   0.0000   0.3122
   7.400   1.1964   0.01559   0.00831  -0.0846  0.1907  1.0000  -2.4238   0.0000   0.0000   0.0000   0.3114
   7.500   1.2056   0.01558   0.00826  -0.0846  0.1888  1.0000  -2.4559   0.0000   0.0000   0.0000   0.3108
   7.600   1.2147   0.01565   0.00831  -0.0846  0.1874  1.0000  -2.4861   0.0000   0.0000   0.0000   0.3101
   7.700   1.2239   0.01572   0.00835  -0.0846  0.1858  1.0000  -2.5163   0.0000   0.0000   0.0000   0.3094
   7.800   1.2329   0.01581   0.00841  -0.0845  0.1839  1.0000  -2.5463   0.0000   0.0000   0.0000   0.3087
   7.900   1.2418   0.01590   0.00846  -0.0845  0.1815  1.0000  -2.5763   0.0000   0.0000   0.0000   0.3080
   8.000   1.2506   0.01600   0.00852  -0.0844  0.1787  1.0000  -2.6061   0.0000   0.0000   0.0000   0.3073
   8.100   1.2593   0.01612   0.00859  -0.0843  0.1751  1.0000  -2.6358   0.0000   0.0000   0.0000   0.3066
   8.200   1.2677   0.01625   0.00865  -0.0841  0.1705  1.0000  -2.6653   0.0000   0.0000   0.0000   0.3059
   8.300   1.2759   0.01641   0.00873  -0.0840  0.1647  1.0000  -2.6944   0.0000   0.0000   0.0000   0.3052
   8.400   1.2836   0.01660   0.00883  -0.0837  0.1578  1.0000  -2.7229   0.0000   0.0000   0.0000   0.3044
   8.500   1.2910   0.01682   0.00895  -0.0834  0.1502  1.0000  -2.7506   0.0000   0.0000   0.0000   0.3036
   8.600   1.2982   0.01706   0.00908  -0.0831  0.1424  1.0000  -2.7779   0.0000   0.0000   0.0000   0.3029
   8.700   1.3054   0.01729   0.00923  -0.0827  0.1344  1.0000  -2.8050   0.0000   0.0000   0.0000   0.3021
   8.800   1.3129   0.01750   0.00938  -0.0824  0.1261  1.0000  -2.8325   0.0000   0.0000   0.0000   0.3013
   8.900   1.3208   0.01768   0.00951  -0.0822  0.1173  1.0000  -2.8603   0.0000   0.0000   0.0000   0.3006
   9.000   1.3289   0.01785   0.00963  -0.0819  0.1084  1.0000  -2.8884   0.0000   0.0000   0.0000   0.2999
   9.100   1.3373   0.01800   0.00975  -0.0817  0.1010  1.0000  -2.9168   0.0000   0.0000   0.0000   0.2992
   9.200   1.3455   0.01816   0.00988  -0.0815  0.0992  1.0000  -2.9459   0.0000   0.0000   0.0000   0.2985
   9.300   1.3535   0.01834   0.01002  -0.0813  0.0973  1.0000  -2.9748   0.0000   0.0000   0.0000   0.2978
   9.400   1.3613   0.01854   0.01016  -0.0810  0.0950  1.0000  -3.0036   0.0000   0.0000   0.0000   0.2971
   9.500   1.3688   0.01875   0.01031  -0.0807  0.0922  1.0000  -3.0320   0.0000   0.0000   0.0000   0.2964
   9.600   1.3758   0.01901   0.01047  -0.0804  0.0882  1.0000  -3.0597   0.0000   0.0000   0.0000   0.2956
   9.700   1.3824   0.01930   0.01066  -0.0799  0.0833  1.0000  -3.0867   0.0000   0.0000   0.0000   0.2948
   9.800   1.3753   0.02076   0.01150  -0.0776  0.0528  1.0000  -3.0956   0.0000   0.0000   0.0000   0.2933
   9.900   1.3788   0.02125   0.01183  -0.0767  0.0483  1.0000  -3.1094   0.0000   0.0000   0.0000   0.2923
  10.000   1.3848   0.02153   0.01202  -0.0761  0.0454  1.0000  -3.1239   0.0000   0.0000   0.0000   0.2915
  10.100   1.3928   0.02174   0.01217  -0.0758  0.0419  1.0000  -3.1410   0.0000   0.0000   0.0000   0.2908
  10.200   1.3995   0.02201   0.01236  -0.0753  0.0375  1.0000  -3.1623   0.0000   0.0000   0.0000   0.2900
  10.300   1.4062   0.02225   0.01255  -0.0749  0.0333  1.0000  -3.1866   0.0000   0.0000   0.0000   0.2892
  10.400   1.4155   0.02364   0.01259  -0.0747  0.0285  0.2000  -3.2120   0.0000   0.0000   0.0000   0.2886
  10.500   1.4231   0.02387   0.01276  -0.0742  0.0258  0.1941  -3.2917   0.0000   0.0000   0.0000   0.2878
  11.100   1.4515   0.02665   0.01503  -0.0683  0.0244  0.0768  -3.7693   0.0000   0.0000   0.0000   0.2814
  11.200   1.4589   0.02666   0.01549  -0.0681  0.0244  0.0763  -3.8397   0.0000   0.0000   0.0000   0.2809
  11.300   1.4635   0.02703   0.01602  -0.0672  0.0244  0.0758  -3.9008   0.0000   0.0000   0.0000   0.2799
  11.400   1.4673   0.02747   0.01662  -0.0661  0.0244  0.0754  -3.9574   0.0000   0.0000   0.0000   0.2788
  11.500   1.4703   0.02799   0.01730  -0.0650  0.0244  0.0749  -4.0092   0.0000   0.0000   0.0000   0.2777
  11.600   1.4723   0.02858   0.01807  -0.0636  0.0245  0.0744  -4.0550   0.0000   0.0000   0.0000   0.2765
  11.700   1.4730   0.02927   0.01894  -0.0621  0.0246  0.0740  -4.0929   0.0000   0.0000   0.0000   0.2753
  11.800   1.4700   0.03013   0.01997  -0.0603  0.0247  0.0737  -4.1151   0.0000   0.0000   0.0000   0.2739
  11.900   1.4663   0.03109   0.02109  -0.0584  0.0248  0.0734  -4.1311   0.0000   0.0000   0.0000   0.2725
  12.000   1.4627   0.03217   0.02237  -0.0565  0.0250  0.0731  -4.1374   0.0000   0.0000   0.0000   0.2710
  29.000   0.7842   0.35898   0.35502  -0.1142  0.0211  0.2312  -0.8227   0.0000   0.0000   0.0000   0.3570
  29.100   0.7836   0.35970   0.35576  -0.1144  0.0210  0.2316  -0.8188   0.0000   0.0000   0.0000   0.3572
  29.200   0.7830   0.36043   0.35650  -0.1146  0.0210  0.2321  -0.8150   0.0000   0.0000   0.0000   0.3573
  29.300   0.7825   0.36116   0.35723  -0.1148  0.0209  0.2326  -0.8112   0.0000   0.0000   0.0000   0.3575
  29.400   0.7819   0.36189   0.35798  -0.1150  0.0208  0.2331  -0.8075   0.0000   0.0000   0.0000   0.3577
  29.500   0.7814   0.36262   0.35872  -0.1152  0.0208  0.2337  -0.8038   0.0000   0.0000   0.0000   0.3578
  29.600   0.7809   0.36335   0.35946  -0.1154  0.0207  0.2343  -0.8003   0.0000   0.0000   0.0000   0.3580
  29.700   0.7804   0.36408   0.36021  -0.1156  0.0207  0.2350  -0.7968   0.0000   0.0000   0.0000   0.3582
  29.800   0.7799   0.36482   0.36095  -0.1158  0.0206  0.2357  -0.7933   0.0000   0.0000   0.0000   0.3583
  29.900   0.7794   0.36556   0.36170  -0.1160  0.0205  0.2365  -0.7899   0.0000   0.0000   0.0000   0.3585
  30.000   0.7789   0.36629   0.36245  -0.1162  0.0205  0.2373  -0.7866   0.0000   0.0000   0.0000   0.3587


