xflr5 v6.61

 Calculated polar for: RAF 6 AIRFOIL

 1 1 Reynolds number fixed          Mach number fixed         

 xtrf =   1.000 (top)        1.000 (bottom)
 Mach =   0.000     Re =     0.400 e 6     Ncrit =   9.000

  alpha     CL        CD       CDp       Cm    Top Xtr Bot Xtr   Cpmin    Chinge    XCp    
 ------- -------- --------- --------- -------- ------- ------- -------- --------- ---------
 -10.000  -0.1584   0.11717   0.11125  -0.0542  0.3451  0.0224  -1.0666   0.0000   0.0000   0.0000  -0.1187
  -9.900  -0.1559   0.11603   0.11000  -0.0546  0.3145  0.0224  -1.0686   0.0000   0.0000   0.0000  -0.1270
  -9.800  -0.1533   0.11476   0.10868  -0.0551  0.2998  0.0225  -1.0708   0.0000   0.0000   0.0000  -0.1360
  -9.700  -0.1506   0.11345   0.10737  -0.0555  0.2980  0.0225  -1.0731   0.0000   0.0000   0.0000  -0.1456
  -9.600  -0.1479   0.11214   0.10605  -0.0560  0.2962  0.0225  -1.0754   0.0000   0.0000   0.0000  -0.1554
  -9.500  -0.1453   0.11083   0.10474  -0.0565  0.2944  0.0226  -1.0779   0.0000   0.0000   0.0000  -0.1656
  -9.400  -0.1427   0.10953   0.10344  -0.0569  0.2926  0.0226  -1.0804   0.0000   0.0000   0.0000  -0.1761
  -9.300  -0.1401   0.10823   0.10214  -0.0574  0.2908  0.0227  -1.0831   0.0000   0.0000   0.0000  -0.1868
  -9.200  -0.1375   0.10694   0.10085  -0.0579  0.2890  0.0227  -1.0858   0.0000   0.0000   0.0000  -0.1979
  -9.100  -0.1350   0.10565   0.09956  -0.0583  0.2872  0.0227  -1.0887   0.0000   0.0000   0.0000  -0.2092
  -9.000  -0.1325   0.10438   0.09828  -0.0588  0.2853  0.0228  -1.0917   0.0000   0.0000   0.0000  -0.2206
  -8.900  -0.1302   0.10311   0.09702  -0.0592  0.2835  0.0228  -1.0948   0.0000   0.0000   0.0000  -0.2321
  -8.800  -0.1279   0.10187   0.09577  -0.0596  0.2817  0.0229  -1.0982   0.0000   0.0000   0.0000  -0.2435
  -8.700  -0.1257   0.10063   0.09453  -0.0601  0.2798  0.0229  -1.1016   0.0000   0.0000   0.0000  -0.2552
  -8.600  -0.1234   0.09938   0.09328  -0.0605  0.2780  0.0229  -1.1052   0.0000   0.0000   0.0000  -0.2678
  -8.500  -0.1207   0.09809   0.09199  -0.0611  0.2762  0.0230  -1.1087   0.0000   0.0000   0.0000  -0.2831
  -8.400  -0.1178   0.09676   0.09066  -0.0617  0.2743  0.0230  -1.1121   0.0000   0.0000   0.0000  -0.3013
  -8.300  -0.1148   0.09543   0.08933  -0.0624  0.2725  0.0231  -1.1156   0.0000   0.0000   0.0000  -0.3210
  -8.200  -0.1117   0.09408   0.08798  -0.0631  0.2706  0.0231  -1.1192   0.0000   0.0000   0.0000  -0.3424
  -8.100  -0.1084   0.09273   0.08663  -0.0638  0.2687  0.0231  -1.1227   0.0000   0.0000   0.0000  -0.3661
  -8.000  -0.1052   0.09136   0.08526  -0.0646  0.2669  0.0232  -1.1264   0.0000   0.0000   0.0000  -0.3919
  -7.900  -0.1018   0.08999   0.08389  -0.0654  0.2650  0.0232  -1.1302   0.0000   0.0000   0.0000  -0.4202
  -7.800  -0.0984   0.08862   0.08251  -0.0662  0.2631  0.0233  -1.1342   0.0000   0.0000   0.0000  -0.4510
  -7.700  -0.0950   0.08724   0.08113  -0.0671  0.2612  0.0233  -1.1384   0.0000   0.0000   0.0000  -0.4845
  -7.600  -0.0916   0.08586   0.07975  -0.0680  0.2593  0.0234  -1.1429   0.0000   0.0000   0.0000  -0.5208
  -7.500  -0.0884   0.08449   0.07838  -0.0689  0.2573  0.0234  -1.1479   0.0000   0.0000   0.0000  -0.5593
  -7.400  -0.0853   0.08315   0.07704  -0.0699  0.2554  0.0234  -1.1534   0.0000   0.0000   0.0000  -0.5983
  -7.300  -0.0829   0.08188   0.07578  -0.0708  0.2534  0.0235  -1.1599   0.0000   0.0000   0.0000  -0.6331
  -7.200  -0.0796   0.08053   0.07442  -0.0720  0.2513  0.0235  -1.1665   0.0000   0.0000   0.0000  -0.6843
  -7.100  -0.0749   0.07903   0.07291  -0.0736  0.2493  0.0236  -1.1727   0.0000   0.0000   0.0000  -0.7635
  -7.000  -0.0699   0.07750   0.07137  -0.0753  0.2472  0.0236  -1.1790   0.0000   0.0000   0.0000  -0.8592
  -6.900  -0.0645   0.07594   0.06980  -0.0770  0.2450  0.0237  -1.1853   0.0000   0.0000   0.0000  -0.9773
  -6.800  -0.0588   0.07436   0.06821  -0.0786  0.2429  0.0237  -1.1916   0.0000   0.0000   0.0000  -1.1237
  -6.700  -0.0527   0.07276   0.06660  -0.0803  0.2407  0.0237  -1.1979   0.0000   0.0000   0.0000  -1.3120
  -6.600  -0.0465   0.07117   0.06499  -0.0819  0.2386  0.0238  -1.2033   0.0000   0.0000   0.0000  -1.5530
  -6.500  -0.0399   0.06954   0.06334  -0.0835  0.2365  0.0239  -1.2085   0.0000   0.0000   0.0000  -1.8915
  -6.400  -0.0332   0.06793   0.06171  -0.0850  0.2345  0.0239  -1.2134   0.0000   0.0000   0.0000  -2.3670
  -6.300  -0.0262   0.06632   0.06007  -0.0864  0.2324  0.0240  -1.2181   0.0000   0.0000   0.0000  -3.1101
  -6.200  -0.0189   0.06468   0.05842  -0.0878  0.2303  0.0240  -1.2226   0.0000   0.0000   0.0000  -4.4790
  -6.100  -0.0116   0.06307   0.05677  -0.0891  0.2282  0.0241  -1.2265   0.0000   0.0000   0.0000  -7.5946
  -6.000  -0.0042   0.06147   0.05514  -0.0903  0.2262  0.0241  -1.2301   0.0000   0.0000   0.0000  -21.7477
  -5.900   0.0035   0.05987   0.05351  -0.0914  0.2238  0.0242  -1.2333   0.0000   0.0000   0.0000  26.8146
  -5.800   0.0115   0.05827   0.05187  -0.0925  0.2211  0.0243  -1.2361   0.0000   0.0000   0.0000   8.4488
  -5.700   0.0194   0.05670   0.05026  -0.0934  0.2189  0.0243  -1.2382   0.0000   0.0000   0.0000   5.1449
  -5.600   0.0273   0.05515   0.04867  -0.0942  0.2168  0.0244  -1.2396   0.0000   0.0000   0.0000   3.7586
  -5.500   0.0353   0.05361   0.04709  -0.0950  0.2148  0.0244  -1.2406   0.0000   0.0000   0.0000   2.9781
  -5.400   0.0436   0.05209   0.04551  -0.0956  0.2129  0.0245  -1.2410   0.0000   0.0000   0.0000   2.4751
  -5.300   0.0519   0.05058   0.04396  -0.0961  0.2111  0.0246  -1.2397   0.0000   0.0000   0.0000   2.1258
  -5.200   0.0602   0.04911   0.04244  -0.0965  0.2094  0.0246  -1.2373   0.0000   0.0000   0.0000   1.8743
  -5.100   0.0683   0.04768   0.04094  -0.0968  0.2079  0.0247  -1.2340   0.0000   0.0000   0.0000   1.6846
  -5.000   0.0765   0.04627   0.03947  -0.0971  0.2065  0.0248  -1.2301   0.0000   0.0000   0.0000   1.5336
  -4.900   0.0848   0.04488   0.03802  -0.0972  0.2052  0.0249  -1.2254   0.0000   0.0000   0.0000   1.4101
  -4.800   0.0931   0.04351   0.03659  -0.0973  0.2040  0.0249  -1.2199   0.0000   0.0000   0.0000   1.3068
  -4.700   0.1015   0.04216   0.03518  -0.0973  0.2029  0.0250  -1.2138   0.0000   0.0000   0.0000   1.2189
  -4.600   0.1100   0.04084   0.03380  -0.0972  0.2019  0.0251  -1.2068   0.0000   0.0000   0.0000   1.1431
  -4.500   0.1184   0.03955   0.03243  -0.0970  0.2010  0.0252  -1.1988   0.0000   0.0000   0.0000   1.0778
  -4.400   0.1267   0.03830   0.03111  -0.0968  0.2003  0.0252  -1.1903   0.0000   0.0000   0.0000   1.0217
  -4.300   0.1350   0.03708   0.02981  -0.0966  0.2000  0.0253  -1.1816   0.0000   0.0000   0.0000   0.9723
  -4.200   0.1432   0.03589   0.02853  -0.0962  0.1997  0.0254  -1.1721   0.0000   0.0000   0.0000   0.9282
  -4.100   0.1515   0.03472   0.02729  -0.0959  0.1995  0.0255  -1.1617   0.0000   0.0000   0.0000   0.8886
  -4.000   0.1597   0.03359   0.02606  -0.0954  0.1993  0.0256  -1.1506   0.0000   0.0000   0.0000   0.8528
  -3.900   0.1680   0.03249   0.02487  -0.0950  0.1990  0.0256  -1.1386   0.0000   0.0000   0.0000   0.8201
  -3.800   0.1763   0.03141   0.02370  -0.0945  0.1988  0.0257  -1.1258   0.0000   0.0000   0.0000   0.7903
  -3.700   0.1846   0.03037   0.02256  -0.0939  0.1986  0.0258  -1.1120   0.0000   0.0000   0.0000   0.7628
  -3.600   0.1930   0.02935   0.02144  -0.0934  0.1985  0.0259  -1.0973   0.0000   0.0000   0.0000   0.7374
  -3.500   0.2015   0.02836   0.02036  -0.0928  0.1983  0.0260  -1.0813   0.0000   0.0000   0.0000   0.7140
  -3.400   0.2099   0.02741   0.01931  -0.0922  0.1982  0.0260  -1.0637   0.0000   0.0000   0.0000   0.6924
  -3.300   0.2183   0.02650   0.01829  -0.0916  0.1981  0.0261  -1.0446   0.0000   0.0000   0.0000   0.6724
  -3.200   0.2268   0.02561   0.01730  -0.0910  0.1981  0.0262  -1.0243   0.0000   0.0000   0.0000   0.6537
  -3.100   0.2323   0.02159   0.01292  -0.0892  0.1956  0.0282  -1.1470   0.0000   0.0000   0.0000   0.6366
  -1.800   0.3537   0.01371   0.00439  -0.0846  0.1988  0.0448  -0.6197   0.0000   0.0000   0.0000   0.4895
  -1.700   0.3648   0.01311   0.00342  -0.0834  0.1981  0.0382  -0.6306   0.0000   0.0000   0.0000   0.4789
  -1.600   0.3749   0.01290   0.00303  -0.0829  0.1982  0.0361  -0.6437   0.0000   0.0000   0.0000   0.4712
  -1.500   0.3849   0.01274   0.00273  -0.0825  0.1986  0.0375  -0.6573   0.0000   0.0000   0.0000   0.4645
  -1.400   0.3946   0.01251   0.00259  -0.0822  0.1993  0.0694  -0.6707   0.0000   0.0000   0.0000   0.4584
  -1.300   0.4023   0.01196   0.00266  -0.0823  0.1996  0.2354  -0.6840   0.0000   0.0000   0.0000   0.4545
  -1.200   0.4086   0.01127   0.00271  -0.0822  0.1999  0.4557  -0.6966   0.0000   0.0000   0.0000   0.4509
  -1.100   0.4119   0.01059   0.00279  -0.0810  0.2001  0.6761  -0.7072   0.0000   0.0000   0.0000   0.4463
  -1.000   0.4531   0.01012   0.00294  -0.0881  0.2027  0.9785  -0.7495   0.0000   0.0000   0.0000   0.4440
  -0.800   0.5016   0.01020   0.00295  -0.0954  0.2067  1.0000  -0.8058   0.0000   0.0000   0.0000   0.4396
  -0.700   0.5085   0.01023   0.00296  -0.0949  0.2075  1.0000  -0.8195   0.0000   0.0000   0.0000   0.4361
  -0.600   0.5153   0.01026   0.00298  -0.0944  0.2082  1.0000  -0.8332   0.0000   0.0000   0.0000   0.4326
  -0.500   0.5220   0.01029   0.00299  -0.0939  0.2089  1.0000  -0.8468   0.0000   0.0000   0.0000   0.4291
  -0.400   0.5286   0.01033   0.00301  -0.0934  0.2096  1.0000  -0.8604   0.0000   0.0000   0.0000   0.4258
  -0.300   0.5351   0.01036   0.00303  -0.0929  0.2102  1.0000  -0.8739   0.0000   0.0000   0.0000   0.4225
  -0.200   0.5415   0.01039   0.00305  -0.0923  0.2108  1.0000  -0.8874   0.0000   0.0000   0.0000   0.4193
  -0.100   0.5479   0.01042   0.00307  -0.0917  0.2114  1.0000  -0.9010   0.0000   0.0000   0.0000   0.4162
   0.000   0.5545   0.01046   0.00309  -0.0912  0.2119  1.0000  -0.9146   0.0000   0.0000   0.0000   0.4131
   0.100   0.5612   0.01049   0.00312  -0.0907  0.2124  1.0000  -0.9285   0.0000   0.0000   0.0000   0.4101
   0.200   0.5681   0.01053   0.00314  -0.0902  0.2129  1.0000  -0.9426   0.0000   0.0000   0.0000   0.4073
   0.300   0.5752   0.01056   0.00317  -0.0898  0.2133  1.0000  -0.9569   0.0000   0.0000   0.0000   0.4045
   0.400   0.5825   0.01060   0.00319  -0.0894  0.2137  1.0000  -0.9713   0.0000   0.0000   0.0000   0.4018
   0.500   0.5900   0.01064   0.00322  -0.0891  0.2141  1.0000  -0.9860   0.0000   0.0000   0.0000   0.3992
   0.600   0.5976   0.01068   0.00325  -0.0888  0.2145  1.0000  -1.0008   0.0000   0.0000   0.0000   0.3967
   0.700   0.6053   0.01072   0.00328  -0.0885  0.2148  1.0000  -1.0158   0.0000   0.0000   0.0000   0.3943
   0.800   0.6131   0.01076   0.00331  -0.0883  0.2150  1.0000  -1.0309   0.0000   0.0000   0.0000   0.3919
   0.900   0.6210   0.01080   0.00334  -0.0880  0.2152  1.0000  -1.0461   0.0000   0.0000   0.0000   0.3896
   1.000   0.6290   0.01085   0.00337  -0.0878  0.2154  1.0000  -1.0614   0.0000   0.0000   0.0000   0.3874
   1.100   0.6371   0.01089   0.00341  -0.0876  0.2155  1.0000  -1.0768   0.0000   0.0000   0.0000   0.3852
   1.200   0.6451   0.01094   0.00344  -0.0874  0.2155  1.0000  -1.0923   0.0000   0.0000   0.0000   0.3831
   1.500   0.6443   0.01326   0.00330  -0.0806  0.2153  0.0704  -1.1167   0.0000   0.0000   0.0000   0.3724
   1.600   0.6532   0.01331   0.00337  -0.0807  0.2153  0.0688  -1.1331   0.0000   0.0000   0.0000   0.3707
   1.700   0.6622   0.01335   0.00343  -0.0807  0.2151  0.0678  -1.1496   0.0000   0.0000   0.0000   0.3690
   1.800   0.6712   0.01339   0.00348  -0.0808  0.2149  0.0671  -1.1661   0.0000   0.0000   0.0000   0.3673
   1.900   0.6802   0.01344   0.00354  -0.0808  0.2145  0.0666  -1.1827   0.0000   0.0000   0.0000   0.3657
   2.000   0.6893   0.01348   0.00359  -0.0809  0.2141  0.0663  -1.1994   0.0000   0.0000   0.0000   0.3642
   2.100   0.6985   0.01352   0.00365  -0.0809  0.2135  0.0660  -1.2161   0.0000   0.0000   0.0000   0.3626
   2.200   0.7076   0.01356   0.00370  -0.0810  0.2129  0.0658  -1.2328   0.0000   0.0000   0.0000   0.3611
   2.300   0.7168   0.01361   0.00376  -0.0811  0.2121  0.0657  -1.2496   0.0000   0.0000   0.0000   0.3597
   2.400   0.7260   0.01365   0.00382  -0.0811  0.2113  0.0656  -1.2665   0.0000   0.0000   0.0000   0.3583
   2.500   0.7353   0.01370   0.00388  -0.0812  0.2103  0.0656  -1.2833   0.0000   0.0000   0.0000   0.3569
   2.600   0.7445   0.01374   0.00393  -0.0813  0.2091  0.0657  -1.3002   0.0000   0.0000   0.0000   0.3555
   2.700   0.7538   0.01379   0.00399  -0.0814  0.2079  0.0658  -1.3170   0.0000   0.0000   0.0000   0.3542
   2.800   0.7630   0.01384   0.00405  -0.0814  0.2065  0.0660  -1.3339   0.0000   0.0000   0.0000   0.3529
   2.900   0.7723   0.01389   0.00412  -0.0815  0.2048  0.0662  -1.3506   0.0000   0.0000   0.0000   0.3516
   3.000   0.7817   0.01393   0.00403  -0.0816  0.2074  0.0665  -1.3677   0.0000   0.0000   0.0000   0.3503
   3.100   0.7910   0.01399   0.00410  -0.0816  0.2069  0.0667  -1.3844   0.0000   0.0000   0.0000   0.3491
   3.200   0.8002   0.01405   0.00417  -0.0817  0.2049  0.0670  -1.4005   0.0000   0.0000   0.0000   0.3478
   3.400   0.8185   0.01421   0.00434  -0.0817  0.2001  0.0676  -1.4310   0.0000   0.0000   0.0000   0.3454
   3.500   0.8277   0.01429   0.00444  -0.0817  0.1999  0.0680  -1.4468   0.0000   0.0000   0.0000   0.3442
   3.600   0.8369   0.01437   0.00454  -0.0818  0.1996  0.0683  -1.4623   0.0000   0.0000   0.0000   0.3431
   3.700   0.8462   0.01446   0.00466  -0.0818  0.1994  0.0687  -1.4776   0.0000   0.0000   0.0000   0.3419
   3.800   0.8553   0.01458   0.00481  -0.0818  0.1993  0.0691  -1.4915   0.0000   0.0000   0.0000   0.3408
   3.900   0.8645   0.01474   0.00502  -0.0818  0.1991  0.0695  -1.5030   0.0000   0.0000   0.0000   0.3396
   4.000   0.8739   0.01497   0.00533  -0.0818  0.1990  0.0700  -1.5111   0.0000   0.0000   0.0000   0.3385
   5.400   1.0431   0.01966   0.01143  -0.0913  0.1994  0.1012  -1.8377   0.0000   0.0000   0.0000   0.3310
   5.500   1.0521   0.01967   0.01143  -0.0912  0.1993  0.1012  -1.8649   0.0000   0.0000   0.0000   0.3301
   6.800   1.1668   0.01840   0.01162  -0.0904  0.1971  1.0000  -2.2281   0.0000   0.0000   0.0000   0.3192
   6.900   1.1754   0.01843   0.01163  -0.0903  0.1969  1.0000  -2.2564   0.0000   0.0000   0.0000   0.3183
   7.000   1.1839   0.01847   0.01164  -0.0901  0.1967  1.0000  -2.2847   0.0000   0.0000   0.0000   0.3175
   7.100   1.1911   0.01829   0.01139  -0.0896  0.1964  1.0000  -2.3148   0.0000   0.0000   0.0000   0.3165
   7.200   1.1906   0.01781   0.01078  -0.0874  0.1957  1.0000  -2.3397   0.0000   0.0000   0.0000   0.3145
   7.300   1.1909   0.01725   0.01003  -0.0854  0.1947  1.0000  -2.3686   0.0000   0.0000   0.0000   0.3126
   7.400   1.1954   0.01669   0.00930  -0.0844  0.1932  1.0000  -2.4047   0.0000   0.0000   0.0000   0.3114
   7.500   1.2031   0.01639   0.00890  -0.0841  0.1912  1.0000  -2.4411   0.0000   0.0000   0.0000   0.3105
   7.600   1.2120   0.01633   0.00879  -0.0840  0.1894  1.0000  -2.4739   0.0000   0.0000   0.0000   0.3098
   7.700   1.2210   0.01638   0.00882  -0.0840  0.1881  1.0000  -2.5044   0.0000   0.0000   0.0000   0.3091
   7.800   1.2301   0.01644   0.00885  -0.0840  0.1866  1.0000  -2.5348   0.0000   0.0000   0.0000   0.3084
   7.900   1.2390   0.01651   0.00889  -0.0839  0.1848  1.0000  -2.5650   0.0000   0.0000   0.0000   0.3077
   8.000   1.2479   0.01659   0.00894  -0.0838  0.1827  1.0000  -2.5951   0.0000   0.0000   0.0000   0.3070
   8.100   1.2567   0.01669   0.00900  -0.0837  0.1802  1.0000  -2.6251   0.0000   0.0000   0.0000   0.3063
   8.200   1.2653   0.01679   0.00905  -0.0836  0.1771  1.0000  -2.6550   0.0000   0.0000   0.0000   0.3056
   8.300   1.2738   0.01691   0.00912  -0.0835  0.1733  1.0000  -2.6846   0.0000   0.0000   0.0000   0.3049
   8.400   1.2820   0.01705   0.00919  -0.0833  0.1685  1.0000  -2.7139   0.0000   0.0000   0.0000   0.3042
   8.500   1.2900   0.01722   0.00927  -0.0831  0.1627  1.0000  -2.7428   0.0000   0.0000   0.0000   0.3035
   8.600   1.2975   0.01740   0.00936  -0.0828  0.1557  1.0000  -2.7712   0.0000   0.0000   0.0000   0.3027
   8.700   1.3047   0.01763   0.00948  -0.0825  0.1482  1.0000  -2.7987   0.0000   0.0000   0.0000   0.3019
   8.800   1.3116   0.01787   0.00962  -0.0821  0.1404  1.0000  -2.8256   0.0000   0.0000   0.0000   0.3011
   8.900   1.3185   0.01811   0.00977  -0.0817  0.1324  1.0000  -2.8523   0.0000   0.0000   0.0000   0.3003
   9.000   1.3257   0.01833   0.00992  -0.0813  0.1240  1.0000  -2.8793   0.0000   0.0000   0.0000   0.2996
   9.100   1.3334   0.01852   0.01007  -0.0810  0.1150  1.0000  -2.9068   0.0000   0.0000   0.0000   0.2988
   9.200   1.3414   0.01869   0.01020  -0.0808  0.1062  1.0000  -2.9346   0.0000   0.0000   0.0000   0.2981
   9.300   1.3495   0.01885   0.01033  -0.0805  0.1003  1.0000  -2.9628   0.0000   0.0000   0.0000   0.2974
   9.400   1.3574   0.01903   0.01047  -0.0803  0.0985  1.0000  -2.9916   0.0000   0.0000   0.0000   0.2967
   9.500   1.3652   0.01923   0.01062  -0.0800  0.0964  1.0000  -3.0202   0.0000   0.0000   0.0000   0.2960
   9.600   1.3726   0.01944   0.01077  -0.0797  0.0936  1.0000  -3.0484   0.0000   0.0000   0.0000   0.2953
   9.700   1.3797   0.01969   0.01093  -0.0793  0.0900  1.0000  -3.0761   0.0000   0.0000   0.0000   0.2945
   9.800   1.3856   0.02003   0.01114  -0.0788  0.0840  1.0000  -3.1023   0.0000   0.0000   0.0000   0.2937
  10.000   1.3819   0.02191   0.01225  -0.0756  0.0495  1.0000  -3.1283   0.0000   0.0000   0.0000   0.2912
  10.100   1.3858   0.02232   0.01253  -0.0747  0.0468  1.0000  -3.1387   0.0000   0.0000   0.0000   0.2902
  10.200   1.3943   0.02249   0.01264  -0.0744  0.0430  1.0000  -3.1531   0.0000   0.0000   0.0000   0.2896
  10.300   1.4007   0.02280   0.01285  -0.0739  0.0384  1.0000  -3.1715   0.0000   0.0000   0.0000   0.2888
  10.400   1.4073   0.02307   0.01305  -0.0734  0.0336  1.0000  -3.1949   0.0000   0.0000   0.0000   0.2880
  10.500   1.4149   0.02330   0.01321  -0.0730  0.0289  1.0000  -3.2436   0.0000   0.0000   0.0000   0.2872
  10.600   1.4226   0.02356   0.01343  -0.0726  0.0258  1.0000  -3.3296   0.0000   0.0000   0.0000   0.2864
  10.700   1.4294   0.02384   0.01374  -0.0720  0.0255  1.0000  -3.4170   0.0000   0.0000   0.0000   0.2856
  10.800   1.4358   0.02417   0.01409  -0.0714  0.0252  1.0000  -3.4995   0.0000   0.0000   0.0000   0.2847
  10.900   1.4414   0.02453   0.01450  -0.0706  0.0250  1.0000  -3.5760   0.0000   0.0000   0.0000   0.2838
  11.000   1.4475   0.02607   0.01493  -0.0699  0.0249  0.2897  -3.6538   0.0000   0.0000   0.0000   0.2829
  11.100   1.4512   0.02654   0.01541  -0.0687  0.0248  0.2272  -3.7174   0.0000   0.0000   0.0000   0.2818
  11.200   1.4552   0.02701   0.01594  -0.0677  0.0247  0.1997  -3.7803   0.0000   0.0000   0.0000   0.2807
  11.300   1.4587   0.02750   0.01652  -0.0665  0.0247  0.1969  -3.8396   0.0000   0.0000   0.0000   0.2796
  11.400   1.4617   0.02803   0.01715  -0.0653  0.0247  0.1935  -3.8952   0.0000   0.0000   0.0000   0.2785
  22.000   0.9810   0.31183   0.30798  -0.1237  0.0254  1.0000  -1.6127   0.0000   0.0000   0.0000   0.3441
  22.100   0.9803   0.31432   0.31047  -0.1241  0.0253  1.0000  -1.6001   0.0000   0.0000   0.0000   0.3444
  22.200   0.9796   0.31677   0.31294  -0.1244  0.0253  1.0000  -1.5876   0.0000   0.0000   0.0000   0.3448
  22.300   0.9787   0.31920   0.31537  -0.1248  0.0252  1.0000  -1.5752   0.0000   0.0000   0.0000   0.3451
  22.400   0.9778   0.32160   0.31777  -0.1251  0.0252  1.0000  -1.5630   0.0000   0.0000   0.0000   0.3454
  22.500   0.9767   0.32396   0.32014  -0.1254  0.0251  1.0000  -1.5508   0.0000   0.0000   0.0000   0.3457
  22.600   0.9755   0.32628   0.32246  -0.1257  0.0251  1.0000  -1.5386   0.0000   0.0000   0.0000   0.3460
  22.700   0.9741   0.32855   0.32474  -0.1259  0.0250  1.0000  -1.5264   0.0000   0.0000   0.0000   0.3463
  22.800   0.9726   0.33078   0.32697  -0.1261  0.0250  1.0000  -1.5141   0.0000   0.0000   0.0000   0.3465
  22.900   0.9708   0.33294   0.32915  -0.1262  0.0249  1.0000  -1.5011   0.0000   0.0000   0.0000   0.3468
  23.000   0.9687   0.33503   0.33125  -0.1264  0.0249  1.0000  -1.4879   0.0000   0.0000   0.0000   0.3470
  23.100   0.9663   0.33704   0.33326  -0.1264  0.0248  1.0000  -1.4744   0.0000   0.0000   0.0000   0.3473
  23.200   0.9598   0.33933   0.33456  -0.1259  0.0248  0.3963  -1.4516   0.0000   0.0000   0.0000   0.3476
  23.300   0.9554   0.34086   0.33600  -0.1255  0.0247  0.3011  -1.4349   0.0000   0.0000   0.0000   0.3477
  23.400   0.9007   0.32964   0.32487  -0.1167  0.0248  0.2953  -1.3237   0.0000   0.0000   0.0000   0.3469
  23.500   0.8898   0.32845   0.32370  -0.1152  0.0247  0.2927  -1.2949   0.0000   0.0000   0.0000   0.3470
  23.600   0.8818   0.32794   0.32320  -0.1143  0.0247  0.2904  -1.2719   0.0000   0.0000   0.0000   0.3471
  23.700   0.8752   0.32774   0.32302  -0.1135  0.0246  0.2882  -1.2516   0.0000   0.0000   0.0000   0.3472
  23.800   0.8695   0.32772   0.32301  -0.1130  0.0246  0.2861  -1.2332   0.0000   0.0000   0.0000   0.3474
  23.900   0.8645   0.32783   0.32312  -0.1125  0.0245  0.2841  -1.2162   0.0000   0.0000   0.0000   0.3476
  24.000   0.8599   0.32802   0.32332  -0.1121  0.0245  0.2822  -1.2003   0.0000   0.0000   0.0000   0.3477
  24.100   0.8557   0.32827   0.32358  -0.1117  0.0244  0.2804  -1.1852   0.0000   0.0000   0.0000   0.3479
  24.200   0.8518   0.32856   0.32389  -0.1114  0.0244  0.2787  -1.1708   0.0000   0.0000   0.0000   0.3481
  24.300   0.8483   0.32891   0.32424  -0.1111  0.0243  0.2770  -1.1571   0.0000   0.0000   0.0000   0.3483
  24.400   0.8449   0.32929   0.32463  -0.1109  0.0243  0.2754  -1.1440   0.0000   0.0000   0.0000   0.3485
  24.500   0.8418   0.32970   0.32505  -0.1107  0.0242  0.2738  -1.1319   0.0000   0.0000   0.0000   0.3486
  24.600   0.8388   0.33014   0.32550  -0.1106  0.0241  0.2723  -1.1196   0.0000   0.0000   0.0000   0.3489
  24.700   0.8359   0.33061   0.32597  -0.1104  0.0241  0.2708  -1.1078   0.0000   0.0000   0.0000   0.3491
  24.800   0.8333   0.33109   0.32647  -0.1103  0.0240  0.2693  -1.0965   0.0000   0.0000   0.0000   0.3493
  24.900   0.8307   0.33160   0.32699  -0.1102  0.0240  0.2680  -1.0856   0.0000   0.0000   0.0000   0.3495
  25.000   0.8283   0.33213   0.32752  -0.1102  0.0239  0.2667  -1.0750   0.0000   0.0000   0.0000   0.3497
  25.100   0.8261   0.33267   0.32807  -0.1101  0.0239  0.2654  -1.0648   0.0000   0.0000   0.0000   0.3499
  25.200   0.8239   0.33322   0.32864  -0.1101  0.0238  0.2642  -1.0550   0.0000   0.0000   0.0000   0.3501
  25.300   0.8219   0.33379   0.32922  -0.1101  0.0237  0.2627  -1.0454   0.0000   0.0000   0.0000   0.3503
  25.400   0.8200   0.33437   0.32982  -0.1101  0.0237  0.2600  -1.0362   0.0000   0.0000   0.0000   0.3505
  25.500   0.8181   0.33497   0.33042  -0.1101  0.0236  0.2582  -1.0272   0.0000   0.0000   0.0000   0.3507
  25.600   0.8164   0.33557   0.33104  -0.1101  0.0236  0.2561  -1.0186   0.0000   0.0000   0.0000   0.3509
  25.700   0.8147   0.33618   0.33167  -0.1101  0.0235  0.2539  -1.0101   0.0000   0.0000   0.0000   0.3511
  25.800   0.8131   0.33681   0.33231  -0.1101  0.0234  0.2518  -1.0019   0.0000   0.0000   0.0000   0.3513
  25.900   0.8116   0.33743   0.33296  -0.1102  0.0234  0.2499  -0.9939   0.0000   0.0000   0.0000   0.3515
  26.000   0.8102   0.33807   0.33361  -0.1102  0.0233  0.2481  -0.9861   0.0000   0.0000   0.0000   0.3517
  26.100   0.8088   0.33871   0.33427  -0.1103  0.0232  0.2466  -0.9786   0.0000   0.0000   0.0000   0.3519
  26.200   0.8074   0.33936   0.33493  -0.1104  0.0232  0.2453  -0.9712   0.0000   0.0000   0.0000   0.3521
  26.300   0.8061   0.34001   0.33560  -0.1104  0.0231  0.2443  -0.9640   0.0000   0.0000   0.0000   0.3523
  26.400   0.8049   0.34066   0.33626  -0.1105  0.0231  0.2433  -0.9569   0.0000   0.0000   0.0000   0.3525
  26.500   0.8037   0.34132   0.33694  -0.1106  0.0230  0.2425  -0.9501   0.0000   0.0000   0.0000   0.3527
  26.600   0.8025   0.34199   0.33761  -0.1107  0.0229  0.2418  -0.9434   0.0000   0.0000   0.0000   0.3529
  26.700   0.8014   0.34266   0.33829  -0.1108  0.0229  0.2412  -0.9368   0.0000   0.0000   0.0000   0.3530
  26.800   0.8003   0.34333   0.33898  -0.1109  0.0228  0.2406  -0.9305   0.0000   0.0000   0.0000   0.3532
  26.900   0.7993   0.34401   0.33967  -0.1110  0.0227  0.2402  -0.9242   0.0000   0.0000   0.0000   0.3534
  27.000   0.7983   0.34469   0.34036  -0.1111  0.0227  0.2398  -0.9181   0.0000   0.0000   0.0000   0.3536
  27.100   0.7973   0.34538   0.34106  -0.1112  0.0226  0.2395  -0.9122   0.0000   0.0000   0.0000   0.3538
  27.200   0.7964   0.34607   0.34176  -0.1113  0.0226  0.2393  -0.9064   0.0000   0.0000   0.0000   0.3539
  27.300   0.7955   0.34676   0.34246  -0.1115  0.0225  0.2392  -0.9007   0.0000   0.0000   0.0000   0.3541
  27.400   0.7946   0.34745   0.34316  -0.1116  0.0224  0.2391  -0.8951   0.0000   0.0000   0.0000   0.3543
  27.500   0.7938   0.34815   0.34387  -0.1117  0.0224  0.2392  -0.8897   0.0000   0.0000   0.0000   0.3545
  27.600   0.7929   0.34885   0.34458  -0.1119  0.0223  0.2393  -0.8843   0.0000   0.0000   0.0000   0.3546
  27.700   0.7921   0.34955   0.34529  -0.1120  0.0222  0.2395  -0.8791   0.0000   0.0000   0.0000   0.3548
  27.800   0.7914   0.35026   0.34601  -0.1121  0.0222  0.2397  -0.8740   0.0000   0.0000   0.0000   0.3550
  27.900   0.7906   0.35097   0.34673  -0.1123  0.0221  0.2401  -0.8690   0.0000   0.0000   0.0000   0.3551
  28.000   0.7899   0.35168   0.34745  -0.1124  0.0220  0.2405  -0.8641   0.0000   0.0000   0.0000   0.3553
  28.100   0.7892   0.35239   0.34817  -0.1126  0.0220  0.2411  -0.8593   0.0000   0.0000   0.0000   0.3555
  28.200   0.7885   0.35310   0.34889  -0.1128  0.0219  0.2417  -0.8546   0.0000   0.0000   0.0000   0.3556
  28.300   0.7878   0.35382   0.34961  -0.1129  0.0218  0.2424  -0.8500   0.0000   0.0000   0.0000   0.3558
  28.400   0.7872   0.35453   0.35034  -0.1131  0.0218  0.2433  -0.8455   0.0000   0.0000   0.0000   0.3560
  28.500   0.7865   0.35525   0.35107  -0.1132  0.0217  0.2442  -0.8411   0.0000   0.0000   0.0000   0.3562
  28.600   0.7859   0.35597   0.35180  -0.1134  0.0217  0.2453  -0.8368   0.0000   0.0000   0.0000   0.3563
  28.700   0.7853   0.35670   0.35252  -0.1136  0.0216  0.2465  -0.8325   0.0000   0.0000   0.0000   0.3565
  28.800   0.7847   0.35742   0.35325  -0.1138  0.0215  0.2479  -0.8283   0.0000   0.0000   0.0000   0.3566
  28.900   0.7841   0.35814   0.35397  -0.1139  0.0215  0.2495  -0.8242   0.0000   0.0000   0.0000   0.3568
  29.000   0.7835   0.35886   0.35468  -0.1141  0.0214  0.2513  -0.8202   0.0000   0.0000   0.0000   0.3570
  29.100   0.7828   0.35955   0.35530  -0.1142  0.0213  0.2871  -0.8162   0.0000   0.0000   0.0000   0.3571


