xflr5 v6.61

 Calculated polar for: RG-15 8.9%

 1 1 Reynolds number fixed          Mach number fixed         

 xtrf =   1.000 (top)        1.000 (bottom)
 Mach =   0.000     Re =     0.130 e 6     Ncrit =   9.000

  alpha     CL        CD       CDp       Cm    Top Xtr Bot Xtr   Cpmin    Chinge    XCp    
 ------- -------- --------- --------- -------- ------- ------- -------- --------- ---------
 -10.000  -0.4816   0.10975   0.10519  -0.0225  1.0000  0.0485  -1.7540   0.0000   0.0000   0.0000   0.1974
  -9.900  -0.4791   0.10822   0.10367  -0.0224  1.0000  0.0489  -1.7345   0.0000   0.0000   0.0000   0.1974
  -9.800  -0.4782   0.10661   0.10191  -0.0229  1.0000  0.0490  -1.7405   0.0000   0.0000   0.0000   0.1963
  -9.700  -0.4758   0.10520   0.10051  -0.0229  1.0000  0.0495  -1.7208   0.0000   0.0000   0.0000   0.1963
  -9.600  -0.4737   0.10382   0.09914  -0.0229  1.0000  0.0499  -1.7037   0.0000   0.0000   0.0000   0.1961
  -9.500  -0.4714   0.10248   0.09781  -0.0229  1.0000  0.0504  -1.6869   0.0000   0.0000   0.0000   0.1958
  -9.400  -0.4695   0.10115   0.09649  -0.0230  1.0000  0.0508  -1.6733   0.0000   0.0000   0.0000   0.1955
  -9.300  -0.4678   0.09982   0.09517  -0.0232  1.0000  0.0513  -1.6626   0.0000   0.0000   0.0000   0.1950
  -9.200  -0.4664   0.09849   0.09385  -0.0234  1.0000  0.0517  -1.6542   0.0000   0.0000   0.0000   0.1944
  -9.100  -0.4653   0.09716   0.09254  -0.0237  1.0000  0.0522  -1.6480   0.0000   0.0000   0.0000   0.1938
  -9.000  -0.4643   0.09583   0.09122  -0.0240  1.0000  0.0527  -1.6438   0.0000   0.0000   0.0000   0.1930
  -8.900  -0.4635   0.09448   0.08988  -0.0244  1.0000  0.0531  -1.6413   0.0000   0.0000   0.0000   0.1923
  -8.800  -0.4629   0.09312   0.08854  -0.0248  1.0000  0.0536  -1.6404   0.0000   0.0000   0.0000   0.1914
  -8.700  -0.4625   0.09174   0.08718  -0.0252  1.0000  0.0540  -1.6412   0.0000   0.0000   0.0000   0.1905
  -8.600  -0.4623   0.09035   0.08581  -0.0257  1.0000  0.0545  -1.6437   0.0000   0.0000   0.0000   0.1896
  -8.500  -0.4623   0.08896   0.08443  -0.0262  1.0000  0.0549  -1.6478   0.0000   0.0000   0.0000   0.1886
  -8.400  -0.4626   0.08755   0.08305  -0.0267  1.0000  0.0554  -1.6536   0.0000   0.0000   0.0000   0.1876
  -8.300  -0.4632   0.08614   0.08165  -0.0272  1.0000  0.0558  -1.6610   0.0000   0.0000   0.0000   0.1867
  -8.200  -0.4642   0.08471   0.08025  -0.0278  1.0000  0.0562  -1.6703   0.0000   0.0000   0.0000   0.1857
  -8.100  -0.4655   0.08327   0.07884  -0.0283  1.0000  0.0565  -1.6813   0.0000   0.0000   0.0000   0.1847
  -8.000  -0.4673   0.08182   0.07741  -0.0289  1.0000  0.0568  -1.6944   0.0000   0.0000   0.0000   0.1838
  -7.900  -0.4696   0.08037   0.07599  -0.0295  1.0000  0.0571  -1.7096   0.0000   0.0000   0.0000   0.1830
  -7.800  -0.4727   0.07892   0.07457  -0.0301  1.0000  0.0573  -1.7273   0.0000   0.0000   0.0000   0.1824
  -7.700  -0.4766   0.07746   0.07315  -0.0307  1.0000  0.0575  -1.7478   0.0000   0.0000   0.0000   0.1817
  -7.600  -0.4805   0.07588   0.07159  -0.0316  1.0000  0.0576  -1.7713   0.0000   0.0000   0.0000   0.1805
  -7.500  -0.4831   0.07398   0.06972  -0.0332  1.0000  0.0577  -1.7977   0.0000   0.0000   0.0000   0.1775
  -7.400  -0.4853   0.07213   0.06787  -0.0346  1.0000  0.0578  -1.8227   0.0000   0.0000   0.0000   0.1751
  -7.300  -0.4873   0.07034   0.06608  -0.0357  1.0000  0.0580  -1.8458   0.0000   0.0000   0.0000   0.1733
  -7.200  -0.4890   0.06856   0.06429  -0.0366  1.0000  0.0580  -1.8696   0.0000   0.0000   0.0000   0.1718
  -7.100  -0.4904   0.06676   0.06248  -0.0374  1.0000  0.0580  -1.8938   0.0000   0.0000   0.0000   0.1704
  -7.000  -0.4917   0.06496   0.06066  -0.0381  1.0000  0.0579  -1.9185   0.0000   0.0000   0.0000   0.1692
  -6.900  -0.4957   0.05944   0.05488  -0.0414  1.0000  0.0422  -2.2293   0.0000   0.0000   0.0000   0.1630
  -6.800  -0.4977   0.05737   0.05278  -0.0413  1.0000  0.0406  -2.2541   0.0000   0.0000   0.0000   0.1635
  -6.700  -0.4986   0.05535   0.05071  -0.0414  1.0000  0.0390  -2.2850   0.0000   0.0000   0.0000   0.1637
  -6.600  -0.4990   0.05322   0.04852  -0.0414  1.0000  0.0374  -2.3268   0.0000   0.0000   0.0000   0.1637
  -6.500  -0.4993   0.05085   0.04605  -0.0415  1.0000  0.0356  -2.3889   0.0000   0.0000   0.0000   0.1636
  -6.400  -0.5049   0.04479   0.03948  -0.0421  1.0000  0.0300  -2.7566   0.0000   0.0000   0.0000   0.1631
  -6.300  -0.4988   0.04333   0.03777  -0.0415  1.0000  0.0282  -2.8312   0.0000   0.0000   0.0000   0.1632
  -6.200  -0.4925   0.04260   0.03693  -0.0409  1.0000  0.0278  -2.8128   0.0000   0.0000   0.0000   0.1633
  -6.100  -0.4864   0.04185   0.03610  -0.0404  1.0000  0.0275  -2.7868   0.0000   0.0000   0.0000   0.1634
  -5.500  -0.4527   0.03516   0.02874  -0.0376  1.0000  0.0264  -2.6991   0.0000   0.0000   0.0000   0.1636
  -5.400  -0.4468   0.03376   0.02719  -0.0372  1.0000  0.0263  -2.6982   0.0000   0.0000   0.0000   0.1634
  -5.300  -0.4404   0.03256   0.02584  -0.0368  1.0000  0.0264  -2.6880   0.0000   0.0000   0.0000   0.1631
  -5.200  -0.4334   0.03152   0.02466  -0.0363  1.0000  0.0264  -2.6701   0.0000   0.0000   0.0000   0.1627
  -5.100  -0.4260   0.03067   0.02366  -0.0359  1.0000  0.0266  -2.6430   0.0000   0.0000   0.0000   0.1623
  -5.000  -0.4185   0.02978   0.02268  -0.0355  1.0000  0.0267  -2.6178   0.0000   0.0000   0.0000   0.1618
  -4.900  -0.4111   0.02837   0.02108  -0.0352  1.0000  0.0269  -2.6175   0.0000   0.0000   0.0000   0.1610
  -4.800  -0.4032   0.02696   0.01947  -0.0349  1.0000  0.0270  -2.6175   0.0000   0.0000   0.0000   0.1601
  -4.700  -0.3950   0.02558   0.01791  -0.0346  1.0000  0.0273  -2.6157   0.0000   0.0000   0.0000   0.1589
  -4.600  -0.3864   0.02429   0.01645  -0.0344  1.0000  0.0277  -2.6101   0.0000   0.0000   0.0000   0.1577
  -4.500  -0.3774   0.02313   0.01513  -0.0341  1.0000  0.0282  -2.5981   0.0000   0.0000   0.0000   0.1563
  -4.400  -0.3683   0.02213   0.01401  -0.0338  1.0000  0.0288  -2.5774   0.0000   0.0000   0.0000   0.1548
  -4.300  -0.3592   0.02129   0.01310  -0.0336  1.0000  0.0295  -2.5474   0.0000   0.0000   0.0000   0.1532
  -4.200  -0.3500   0.02062   0.01237  -0.0333  1.0000  0.0303  -2.5089   0.0000   0.0000   0.0000   0.1516
  -4.100  -0.3409   0.02007   0.01179  -0.0330  1.0000  0.0312  -2.4646   0.0000   0.0000   0.0000   0.1499
  -4.000  -0.3317   0.01961   0.01129  -0.0327  1.0000  0.0322  -2.4181   0.0000   0.0000   0.0000   0.1481
  -3.900  -0.3225   0.01918   0.01085  -0.0324  1.0000  0.0332  -2.3724   0.0000   0.0000   0.0000   0.1463
  -3.800  -0.3135   0.01890   0.01056  -0.0321  1.0000  0.0349  -2.3143   0.0000   0.0000   0.0000   0.1443
  -3.700  -0.3047   0.01882   0.01049  -0.0319  1.0000  0.0380  -2.2401   0.0000   0.0000   0.0000   0.1421
  -3.600  -0.2960   0.01883   0.01050  -0.0316  1.0000  0.0416  -2.1649   0.0000   0.0000   0.0000   0.1399
  -3.500  -0.2875   0.01907   0.01073  -0.0313  1.0000  0.0449  -2.0853   0.0000   0.0000   0.0000   0.1380
  -3.400  -0.2776   0.01826   0.00989  -0.0312  1.0000  0.0485  -2.0602   0.0000   0.0000   0.0000   0.1344
  -3.300  -0.2680   0.01756   0.00924  -0.0312  1.0000  0.0534  -2.0246   0.0000   0.0000   0.0000   0.1306
  -3.200  -0.2587   0.01730   0.00901  -0.0310  1.0000  0.0576  -1.9814   0.0000   0.0000   0.0000   0.1272
  -3.100  -0.2491   0.01696   0.00866  -0.0307  1.0000  0.0616  -1.9609   0.0000   0.0000   0.0000   0.1237
  -3.000  -0.2391   0.01654   0.00822  -0.0304  1.0000  0.0663  -1.9644   0.0000   0.0000   0.0000   0.1199
  -2.900  -0.2260   0.01481   0.00678  -0.0305  1.0000  0.1208  -2.1624   0.0000   0.0000   0.0000   0.1119
  -2.800  -0.2153   0.01394   0.00636  -0.0308  1.0000  0.1995  -2.1543   0.0000   0.0000   0.0000   0.1039
  -2.700  -0.2054   0.01308   0.00618  -0.0311  1.0000  0.3240  -2.1038   0.0000   0.0000   0.0000   0.0953
  -2.600  -0.1972   0.01234   0.00615  -0.0309  1.0000  0.4729  -2.0461   0.0000   0.0000   0.0000   0.0902
  -2.500  -0.1920   0.01198   0.00637  -0.0294  1.0000  0.6090  -1.9921   0.0000   0.0000   0.0000   0.0936
  -2.400  -0.1870   0.01191   0.00652  -0.0278  1.0000  0.6777  -1.9380   0.0000   0.0000   0.0000   0.0981
  -2.300  -0.1813   0.01192   0.00661  -0.0265  1.0000  0.7197  -1.8819   0.0000   0.0000   0.0000   0.1010
  -2.200  -0.1761   0.01194   0.00668  -0.0250  1.0000  0.7502  -1.8268   0.0000   0.0000   0.0000   0.1048
  -2.100  -0.1705   0.01197   0.00672  -0.0238  1.0000  0.7724  -1.7707   0.0000   0.0000   0.0000   0.1077
  -2.000  -0.1646   0.01200   0.00655  -0.0225  1.0000  0.7909  -1.6699   0.0000   0.0000   0.0000   0.1104
  -1.900  -0.1593   0.01204   0.00660  -0.0212  1.0000  0.8116  -1.6175   0.0000   0.0000   0.0000   0.1137
  -1.800  -0.1557   0.01207   0.00666  -0.0195  1.0000  0.8325  -1.5706   0.0000   0.0000   0.0000   0.1220
  -1.700  -0.1512   0.01210   0.00670  -0.0181  1.0000  0.8531  -1.5211   0.0000   0.0000   0.0000   0.1277
  -1.600  -0.1477   0.01212   0.00674  -0.0163  1.0000  0.8739  -1.4750   0.0000   0.0000   0.0000   0.1366
  -1.500  -0.1366   0.01219   0.00681  -0.0161  0.9975  0.8973  -1.4048   0.0000   0.0000   0.0000   0.1296
  -1.400  -0.1213   0.01225   0.00686  -0.0166  0.9940  0.9239  -1.3215   0.0000   0.0000   0.0000   0.1104
  -1.300  -0.0991   0.01231   0.00688  -0.0186  0.9914  0.9523  -1.2181   0.0000   0.0000   0.0000   0.0594
  -1.200  -0.0695   0.01235   0.00686  -0.0222  0.9895  0.9822  -1.0948   0.0000   0.0000   0.0000  -0.0738
  -1.100  -0.0441   0.01245   0.00687  -0.0253  0.9873  1.0000  -0.9882   0.0000   0.0000   0.0000  -0.3299
  -1.000  -0.0267   0.01247   0.00682  -0.0270  0.9827  1.0000  -0.9076   0.0000   0.0000   0.0000  -0.7690
  -0.900  -0.0079   0.01253   0.00681  -0.0289  0.9787  1.0000  -0.8248   0.0000   0.0000   0.0000  -3.4325
  -0.800   0.0118   0.01261   0.00683  -0.0309  0.9755  1.0000  -0.7414   0.0000   0.0000   0.0000   2.8884
  -0.700   0.0323   0.01271   0.00687  -0.0331  0.9730  1.0000  -0.6576   0.0000   0.0000   0.0000   1.2775
  -0.600   0.0472   0.01271   0.00683  -0.0341  0.9680  1.0000  -0.5909   0.0000   0.0000   0.0000   0.9748
  -0.500   0.0639   0.01272   0.00680  -0.0355  0.9631  1.0000  -0.5209   0.0000   0.0000   0.0000   0.8060
  -0.400   0.0831   0.01275   0.00679  -0.0373  0.9592  1.0000  -0.4467   0.0000   0.0000   0.0000   0.6990
  -0.300   0.1038   0.01279   0.00679  -0.0394  0.9559  1.0000  -0.3711   0.0000   0.0000   0.0000   0.6290
  -0.200   0.1256   0.01283   0.00680  -0.0416  0.9534  1.0000  -0.3851   0.0000   0.0000   0.0000   0.5808
  -0.100   0.1386   0.01281   0.00677  -0.0422  0.9477  1.0000  -0.3955   0.0000   0.0000   0.0000   0.5537
   0.000   0.1532   0.01280   0.00674  -0.0430  0.9421  1.0000  -0.4068   0.0000   0.0000   0.0000   0.5302
   0.100   0.1709   0.01280   0.00672  -0.0445  0.9378  1.0000  -0.4200   0.0000   0.0000   0.0000   0.5092
   0.200   0.1907   0.01278   0.00670  -0.0462  0.9343  1.0000  -0.4345   0.0000   0.0000   0.0000   0.4914
   0.300   0.2121   0.01275   0.00666  -0.0483  0.9315  1.0000  -0.4504   0.0000   0.0000   0.0000   0.4765
   0.400   0.2349   0.01270   0.00658  -0.0505  0.9291  1.0000  -0.4689   0.0000   0.0000   0.0000   0.4639
   0.500   0.2494   0.01267   0.00643  -0.0512  0.9239  1.0000  -0.4822   0.0000   0.0000   0.0000   0.4541
   0.600   0.2606   0.01264   0.00639  -0.0513  0.9167  1.0000  -0.4935   0.0000   0.0000   0.0000   0.4454
   0.700   0.2779   0.01258   0.00632  -0.0525  0.9120  1.0000  -0.5087   0.0000   0.0000   0.0000   0.4374
   0.800   0.2973   0.01250   0.00623  -0.0540  0.9083  1.0000  -0.5255   0.0000   0.0000   0.0000   0.4303
   0.900   0.3175   0.01240   0.00612  -0.0557  0.9050  1.0000  -0.5449   0.0000   0.0000   0.0000   0.4239
   1.000   0.3377   0.01229   0.00606  -0.0573  0.9020  1.0000  -0.5649   0.0000   0.0000   0.0000   0.4182
   1.100   0.3589   0.01216   0.00594  -0.0591  0.8992  1.0000  -0.5858   0.0000   0.0000   0.0000   0.4131
   1.200   0.3668   0.01216   0.00592  -0.0585  0.8910  1.0000  -0.5970   0.0000   0.0000   0.0000   0.4078
   1.300   0.3784   0.01211   0.00586  -0.0585  0.8835  1.0000  -0.6112   0.0000   0.0000   0.0000   0.4028
   1.400   0.3942   0.01202   0.00576  -0.0592  0.8777  1.0000  -0.6315   0.0000   0.0000   0.0000   0.3985
   1.500   0.4116   0.01191   0.00564  -0.0602  0.8727  1.0000  -0.6531   0.0000   0.0000   0.0000   0.3945
   1.600   0.4297   0.01178   0.00550  -0.0613  0.8681  1.0000  -0.6756   0.0000   0.0000   0.0000   0.3908
   1.700   0.4461   0.01170   0.00541  -0.0621  0.8625  1.0000  -0.6975   0.0000   0.0000   0.0000   0.3873
   1.800   0.4525   0.01173   0.00544  -0.0611  0.8524  1.0000  -0.7125   0.0000   0.0000   0.0000   0.3831
   1.900   0.4645   0.01167   0.00538  -0.0611  0.8440  1.0000  -0.7333   0.0000   0.0000   0.0000   0.3795
   2.000   0.4785   0.01159   0.00528  -0.0614  0.8369  1.0000  -0.7562   0.0000   0.0000   0.0000   0.3762
   2.100   0.4944   0.01150   0.00517  -0.0620  0.8305  1.0000  -0.7813   0.0000   0.0000   0.0000   0.3733
   2.200   0.5067   0.01149   0.00515  -0.0621  0.8228  1.0000  -0.8028   0.0000   0.0000   0.0000   0.3703
   2.300   0.5147   0.01153   0.00519  -0.0614  0.8126  1.0000  -0.8198   0.0000   0.0000   0.0000   0.3670
   2.400   0.5254   0.01150   0.00516  -0.0611  0.8029  1.0000  -0.8400   0.0000   0.0000   0.0000   0.3639
   2.500   0.5383   0.01145   0.00508  -0.0611  0.7942  1.0000  -0.8666   0.0000   0.0000   0.0000   0.3611
   2.600   0.5528   0.01143   0.00500  -0.0614  0.7860  1.0000  -0.8970   0.0000   0.0000   0.0000   0.3586
   2.700   0.5604   0.01149   0.00508  -0.0607  0.7755  1.0000  -0.9196   0.0000   0.0000   0.0000   0.3558
   2.800   0.5698   0.01151   0.00510  -0.0602  0.7647  1.0000  -0.9495   0.0000   0.0000   0.0000   0.3531
   2.900   0.5810   0.01151   0.00507  -0.0600  0.7546  1.0000  -0.9827   0.0000   0.0000   0.0000   0.3506
   3.000   0.5935   0.01153   0.00502  -0.0599  0.7448  1.0000  -1.0185   0.0000   0.0000   0.0000   0.3482
   3.100   0.6030   0.01159   0.00508  -0.0595  0.7342  1.0000  -1.0493   0.0000   0.0000   0.0000   0.3459
   3.200   0.6119   0.01163   0.00513  -0.0589  0.7225  1.0000  -1.0794   0.0000   0.0000   0.0000   0.3435
   3.300   0.6223   0.01166   0.00513  -0.0586  0.7108  1.0000  -1.1124   0.0000   0.0000   0.0000   0.3412
   3.400   0.6336   0.01172   0.00511  -0.0583  0.6997  1.0000  -1.1473   0.0000   0.0000   0.0000   0.3391
   3.500   0.6433   0.01180   0.00518  -0.0579  0.6886  1.0000  -1.1793   0.0000   0.0000   0.0000   0.3370
   3.600   0.6523   0.01185   0.00525  -0.0574  0.6761  1.0000  -1.2105   0.0000   0.0000   0.0000   0.3349
   3.700   0.6622   0.01191   0.00527  -0.0570  0.6634  1.0000  -1.2436   0.0000   0.0000   0.0000   0.3329
   3.800   0.6729   0.01201   0.00527  -0.0567  0.6512  1.0000  -1.2783   0.0000   0.0000   0.0000   0.3309
   3.900   0.6823   0.01210   0.00536  -0.0563  0.6392  1.0000  -1.3107   0.0000   0.0000   0.0000   0.3291
   4.000   0.6915   0.01217   0.00545  -0.0558  0.6260  1.0000  -1.3559   0.0000   0.0000   0.0000   0.3273
   4.100   0.7011   0.01226   0.00548  -0.0553  0.6127  1.0000  -1.4215   0.0000   0.0000   0.0000   0.3254
   4.200   0.7114   0.01240   0.00582  -0.0549  0.5998  1.0000  -1.5083   0.0000   0.0000   0.0000   0.3236
   4.300   0.7205   0.01248   0.00595  -0.0545  0.5868  1.0000  -1.5728   0.0000   0.0000   0.0000   0.3219
   4.400   0.7297   0.01257   0.00603  -0.0540  0.5723  1.0000  -1.6393   0.0000   0.0000   0.0000   0.3203
   4.500   0.7390   0.01271   0.00608  -0.0535  0.5577  1.0000  -1.7079   0.0000   0.0000   0.0000   0.3186
   4.600   0.7484   0.01287   0.00618  -0.0531  0.5438  1.0000  -1.7773   0.0000   0.0000   0.0000   0.3170
   4.700   0.7575   0.01296   0.00631  -0.0526  0.5296  1.0000  -1.8463   0.0000   0.0000   0.0000   0.3155
   4.800   0.7664   0.01309   0.00638  -0.0521  0.5139  1.0000  -1.9162   0.0000   0.0000   0.0000   0.3139
   4.900   0.7752   0.01332   0.00647  -0.0516  0.4978  1.0000  -1.9867   0.0000   0.0000   0.0000   0.3123
   5.000   0.7844   0.01340   0.00661  -0.0512  0.4835  1.0000  -2.0584   0.0000   0.0000   0.0000   0.3110
   5.100   0.7932   0.01354   0.00672  -0.0507  0.4674  1.0000  -2.1302   0.0000   0.0000   0.0000   0.3096
   5.200   0.8017   0.01377   0.00682  -0.0501  0.4514  1.0000  -2.2016   0.0000   0.0000   0.0000   0.3081
   5.300   0.8108   0.01392   0.00699  -0.0498  0.4369  1.0000  -2.2755   0.0000   0.0000   0.0000   0.3068
   5.400   0.8196   0.01408   0.00712  -0.0493  0.4200  1.0000  -2.3490   0.0000   0.0000   0.0000   0.3055
   5.500   0.8274   0.01434   0.00724  -0.0487  0.4020  1.0000  -2.4204   0.0000   0.0000   0.0000   0.3041
   5.600   0.8363   0.01450   0.00742  -0.0483  0.3853  1.0000  -2.4957   0.0000   0.0000   0.0000   0.3029
   5.700   0.8445   0.01470   0.00756  -0.0477  0.3664  1.0000  -2.5696   0.0000   0.0000   0.0000   0.3016
   5.800   0.8519   0.01502   0.00773  -0.0471  0.3473  1.0000  -2.6409   0.0000   0.0000   0.0000   0.3002
   5.900   0.8609   0.01518   0.00792  -0.0467  0.3300  1.0000  -2.7182   0.0000   0.0000   0.0000   0.2991
   6.000   0.8683   0.01550   0.00811  -0.0461  0.3109  1.0000  -2.7947   0.0000   0.0000   0.0000   0.2979
   6.100   0.8766   0.01577   0.00835  -0.0457  0.2926  1.0000  -2.9073   0.0000   0.0000   0.0000   0.2967
   6.200   0.8843   0.01606   0.00855  -0.0451  0.2725  1.0000  -3.0187   0.0000   0.0000   0.0000   0.2956
   6.300   0.8915   0.01645   0.00883  -0.0445  0.2524  1.0000  -3.1267   0.0000   0.0000   0.0000   0.2944
   6.400   0.8993   0.01675   0.00907  -0.0441  0.2324  1.0000  -3.2402   0.0000   0.0000   0.0000   0.2933
   6.500   0.9058   0.01723   0.00939  -0.0434  0.2125  1.0000  -3.3445   0.0000   0.0000   0.0000   0.2921
   6.600   0.9139   0.01754   0.00967  -0.0430  0.1946  1.0000  -3.4602   0.0000   0.0000   0.0000   0.2911
   6.700   0.9196   0.01818   0.01010  -0.0422  0.1763  1.0000  -3.5566   0.0000   0.0000   0.0000   0.2899
   6.800   0.9285   0.01847   0.01046  -0.0418  0.1633  1.0000  -3.6738   0.0000   0.0000   0.0000   0.2890
   6.900   0.9350   0.01901   0.01086  -0.0412  0.1498  1.0000  -3.7764   0.0000   0.0000   0.0000   0.2879
   7.000   0.9418   0.01968   0.01148  -0.0405  0.1377  1.0000  -3.8710   0.0000   0.0000   0.0000   0.2867
   7.100   0.9502   0.02004   0.01190  -0.0400  0.1281  1.0000  -3.9820   0.0000   0.0000   0.0000   0.2857
   7.200   0.9571   0.02058   0.01236  -0.0394  0.1185  1.0000  -4.0840   0.0000   0.0000   0.0000   0.2847
   7.300   0.9629   0.02162   0.01331  -0.0386  0.1080  1.0000  -4.1604   0.0000   0.0000   0.0000   0.2835
   7.400   0.9718   0.02175   0.01353  -0.0383  0.1004  1.0000  -4.2805   0.0000   0.0000   0.0000   0.2827
   7.500   0.9792   0.02193   0.01366  -0.0380  0.0906  1.0000  -4.4075   0.0000   0.0000   0.0000   0.2819
   7.600   0.9841   0.02278   0.01438  -0.0373  0.0798  1.0000  -4.4960   0.0000   0.0000   0.0000   0.2810
   7.700   0.9939   0.02260   0.01425  -0.0373  0.0710  1.0000  -4.6473   0.0000   0.0000   0.0000   0.2804
   7.800   1.0007   0.02293   0.01447  -0.0370  0.0618  1.0000  -4.7708   0.0000   0.0000   0.0000   0.2798
   7.900   1.0072   0.02347   0.01526  -0.0364  0.0457  1.0000  -4.8274   0.0000   0.0000   0.0000   0.2789
   8.000   1.0084   0.02480   0.01651  -0.0351  0.0379  1.0000  -4.8145   0.0000   0.0000   0.0000   0.2774
   8.100   1.0139   0.02574   0.01751  -0.0341  0.0345  1.0000  -4.8303   0.0000   0.0000   0.0000   0.2761
   8.200   1.0210   0.02639   0.01825  -0.0334  0.0317  1.0000  -4.8753   0.0000   0.0000   0.0000   0.2751
   8.300   1.0278   0.02709   0.01902  -0.0328  0.0295  1.0000  -4.9231   0.0000   0.0000   0.0000   0.2741
   8.400   1.0344   0.02779   0.01976  -0.0321  0.0276  1.0000  -4.9776   0.0000   0.0000   0.0000   0.2732
   8.500   1.0408   0.02850   0.02051  -0.0315  0.0261  1.0000  -5.0359   0.0000   0.0000   0.0000   0.2723
   8.600   1.0469   0.02930   0.02136  -0.0308  0.0249  1.0000  -5.0918   0.0000   0.0000   0.0000   0.2714
   8.700   1.0526   0.03028   0.02240  -0.0302  0.0239  1.0000  -5.1361   0.0000   0.0000   0.0000   0.2705
   8.800   1.0581   0.03153   0.02373  -0.0294  0.0230  1.0000  -5.1638   0.0000   0.0000   0.0000   0.2695
   8.900   1.0635   0.03304   0.02536  -0.0287  0.0223  1.0000  -5.1753   0.0000   0.0000   0.0000   0.2686
   9.000   1.0685   0.03477   0.02723  -0.0280  0.0218  1.0000  -5.1751   0.0000   0.0000   0.0000   0.2677
   9.100   1.0728   0.03661   0.02925  -0.0273  0.0215  1.0000  -5.1683   0.0000   0.0000   0.0000   0.2668
   9.200   1.0762   0.03846   0.03129  -0.0265  0.0213  1.0000  -5.1588   0.0000   0.0000   0.0000   0.2659
   9.300   1.0788   0.04030   0.03332  -0.0256  0.0211  1.0000  -5.1491   0.0000   0.0000   0.0000   0.2650
   9.400   1.0806   0.04208   0.03529  -0.0247  0.0210  1.0000  -5.1403   0.0000   0.0000   0.0000   0.2640
   9.500   1.0817   0.04379   0.03717  -0.0238  0.0209  1.0000  -5.1333   0.0000   0.0000   0.0000   0.2631
   9.600   1.0821   0.04543   0.03899  -0.0229  0.0209  1.0000  -5.1279   0.0000   0.0000   0.0000   0.2621
   9.700   1.0821   0.04702   0.04073  -0.0219  0.0209  1.0000  -5.1240   0.0000   0.0000   0.0000   0.2611
   9.800   1.0815   0.04854   0.04241  -0.0209  0.0209  1.0000  -5.1215   0.0000   0.0000   0.0000   0.2601
   9.900   1.0805   0.05002   0.04402  -0.0200  0.0209  1.0000  -5.1200   0.0000   0.0000   0.0000   0.2591
  10.000   1.0790   0.05144   0.04558  -0.0190  0.0209  1.0000  -5.1192   0.0000   0.0000   0.0000   0.2582
  10.100   1.0771   0.05281   0.04707  -0.0180  0.0210  1.0000  -5.1211   0.0000   0.0000   0.0000   0.2572
  10.200   1.0741   0.05407   0.04844  -0.0169  0.0210  1.0000  -5.1275   0.0000   0.0000   0.0000   0.2561
  10.300   1.0707   0.05529   0.04977  -0.0158  0.0211  1.0000  -5.1330   0.0000   0.0000   0.0000   0.2550
  10.400   1.0668   0.05650   0.05107  -0.0147  0.0211  1.0000  -5.1374   0.0000   0.0000   0.0000   0.2539
  10.500   1.0626   0.05771   0.05238  -0.0137  0.0211  1.0000  -5.1406   0.0000   0.0000   0.0000   0.2530
  10.600   1.0582   0.05894   0.05369  -0.0129  0.0212  1.0000  -5.1423   0.0000   0.0000   0.0000   0.2521
  10.700   1.0535   0.06019   0.05504  -0.0122  0.0212  1.0000  -5.1427   0.0000   0.0000   0.0000   0.2513
  10.800   1.0487   0.06149   0.05642  -0.0116  0.0213  1.0000  -5.1415   0.0000   0.0000   0.0000   0.2507
  10.900   1.0435   0.06282   0.05783  -0.0112  0.0213  1.0000  -5.1382   0.0000   0.0000   0.0000   0.2502
  11.000   1.0382   0.06420   0.05930  -0.0109  0.0214  1.0000  -5.1330   0.0000   0.0000   0.0000   0.2499
  11.100   1.0327   0.06566   0.06083  -0.0108  0.0214  1.0000  -5.1256   0.0000   0.0000   0.0000   0.2497
  11.200   1.0271   0.06719   0.06244  -0.0109  0.0215  1.0000  -5.1159   0.0000   0.0000   0.0000   0.2498
  11.300   1.0214   0.06881   0.06414  -0.0112  0.0216  1.0000  -5.1038   0.0000   0.0000   0.0000   0.2500
  11.400   1.0155   0.07053   0.06593  -0.0117  0.0216  1.0000  -5.0885   0.0000   0.0000   0.0000   0.2504
  11.500   1.0095   0.07234   0.06782  -0.0124  0.0217  1.0000  -5.0702   0.0000   0.0000   0.0000   0.2510
  11.600   1.0033   0.07426   0.06981  -0.0133  0.0218  1.0000  -5.0483   0.0000   0.0000   0.0000   0.2518
  11.700   0.9967   0.07626   0.07189  -0.0143  0.0218  1.0000  -5.0219   0.0000   0.0000   0.0000   0.2528
  11.800   0.9900   0.07839   0.07408  -0.0156  0.0219  1.0000  -4.9915   0.0000   0.0000   0.0000   0.2540
  11.900   0.9832   0.08069   0.07645  -0.0170  0.0220  1.0000  -4.9558   0.0000   0.0000   0.0000   0.2555
  12.000   0.9762   0.08317   0.07899  -0.0187  0.0221  1.0000  -4.9144   0.0000   0.0000   0.0000   0.2572
  12.100   0.9691   0.08584   0.08173  -0.0207  0.0222  1.0000  -4.8663   0.0000   0.0000   0.0000   0.2592
  12.200   0.9616   0.08876   0.08471  -0.0229  0.0223  1.0000  -4.8089   0.0000   0.0000   0.0000   0.2615
  12.300   0.9539   0.09196   0.08797  -0.0253  0.0224  1.0000  -4.7402   0.0000   0.0000   0.0000   0.2642
  12.400   0.9456   0.09551   0.09158  -0.0281  0.0226  1.0000  -4.6554   0.0000   0.0000   0.0000   0.2673
  12.500   0.9363   0.09960   0.09573  -0.0313  0.0228  1.0000  -4.5440   0.0000   0.0000   0.0000   0.2709
  12.600   0.9246   0.10476   0.10094  -0.0353  0.0231  1.0000  -4.3773   0.0000   0.0000   0.0000   0.2756
  12.700   0.9054   0.11323   0.10946  -0.0412  0.0240  1.0000  -4.0269   0.0000   0.0000   0.0000   0.2831
  12.800   0.8805   0.12489   0.12107  -0.0477  0.0259  1.0000  -3.5001   0.0000   0.0000   0.0000   0.2922
  12.900   0.8713   0.13010   0.12625  -0.0505  0.0267  1.0000  -3.3079   0.0000   0.0000   0.0000   0.2961
  13.000   0.8655   0.13406   0.13018  -0.0526  0.0274  1.0000  -3.1807   0.0000   0.0000   0.0000   0.2989
  13.100   0.8613   0.13752   0.13361  -0.0543  0.0279  1.0000  -3.0796   0.0000   0.0000   0.0000   0.3013
  13.200   0.8580   0.14066   0.13674  -0.0559  0.0284  1.0000  -2.9941   0.0000   0.0000   0.0000   0.3033
  13.300   0.8554   0.14359   0.13965  -0.0574  0.0289  1.0000  -2.9194   0.0000   0.0000   0.0000   0.3052
  13.400   0.8534   0.14636   0.14240  -0.0587  0.0294  1.0000  -2.8530   0.0000   0.0000   0.0000   0.3069
  13.500   0.8519   0.14896   0.14499  -0.0600  0.0299  1.0000  -2.7936   0.0000   0.0000   0.0000   0.3085
  13.600   0.8507   0.15138   0.14740  -0.0612  0.0305  1.0000  -2.7402   0.0000   0.0000   0.0000   0.3099
  13.700   0.8499   0.15369   0.14969  -0.0623  0.0310  1.0000  -2.6920   0.0000   0.0000   0.0000   0.3112
  13.800   0.8494   0.15593   0.15192  -0.0633  0.0316  1.0000  -2.6487   0.0000   0.0000   0.0000   0.3124
  13.900   0.8492   0.15812   0.15410  -0.0643  0.0322  1.0000  -2.6100   0.0000   0.0000   0.0000   0.3135
  14.000   0.8491   0.16028   0.15625  -0.0652  0.0329  1.0000  -2.5758   0.0000   0.0000   0.0000   0.3145
  14.100   0.8492   0.16243   0.15840  -0.0660  0.0336  1.0000  -2.5460   0.0000   0.0000   0.0000   0.3153
  14.200   0.8491   0.16467   0.16064  -0.0667  0.0346  1.0000  -2.5202   0.0000   0.0000   0.0000   0.3160
  14.600   0.8520   0.18328   0.17926  -0.0691  0.0565  1.0000  -2.1652   0.0000   0.0000   0.0000   0.3186
  14.700   0.8534   0.18537   0.18135  -0.0700  0.0565  1.0000  -2.1547   0.0000   0.0000   0.0000   0.3195
  14.800   0.8548   0.18744   0.18342  -0.0710  0.0564  1.0000  -2.1445   0.0000   0.0000   0.0000   0.3204
  14.900   0.8562   0.18947   0.18545  -0.0719  0.0564  1.0000  -2.1345   0.0000   0.0000   0.0000   0.3212
  15.000   0.8577   0.19148   0.18745  -0.0729  0.0564  1.0000  -2.1247   0.0000   0.0000   0.0000   0.3221
  15.100   0.8591   0.19344   0.18942  -0.0738  0.0563  1.0000  -2.1149   0.0000   0.0000   0.0000   0.3230
  15.200   0.8606   0.19537   0.19134  -0.0748  0.0563  1.0000  -2.1053   0.0000   0.0000   0.0000   0.3239
  15.300   0.8621   0.19723   0.19321  -0.0758  0.0562  1.0000  -2.0956   0.0000   0.0000   0.0000   0.3248
  15.400   0.8636   0.19903   0.19500  -0.0768  0.0561  1.0000  -2.0857   0.0000   0.0000   0.0000   0.3257
  15.500   0.8651   0.20072   0.19669  -0.0779  0.0559  1.0000  -2.0755   0.0000   0.0000   0.0000   0.3267
  15.600   0.8666   0.20225   0.19821  -0.0790  0.0557  1.0000  -2.0643   0.0000   0.0000   0.0000   0.3277
  15.700   0.8674   0.20348   0.19944  -0.0804  0.0553  1.0000  -2.0455   0.0000   0.0000   0.0000   0.3291
  15.800   0.8668   0.20429   0.20023  -0.0823  0.0545  1.0000  -2.0066   0.0000   0.0000   0.0000   0.3313
  15.900   0.8652   0.20519   0.20111  -0.0843  0.0534  1.0000  -1.9612   0.0000   0.0000   0.0000   0.3337
  16.000   0.8652   0.20665   0.20257  -0.0859  0.0523  1.0000  -1.9324   0.0000   0.0000   0.0000   0.3354
  16.100   0.8661   0.20838   0.20430  -0.0871  0.0513  1.0000  -1.9153   0.0000   0.0000   0.0000   0.3366
  16.200   0.8674   0.21021   0.20612  -0.0881  0.0504  1.0000  -1.9044   0.0000   0.0000   0.0000   0.3375
  16.300   0.8689   0.21207   0.20798  -0.0891  0.0496  1.0000  -1.8972   0.0000   0.0000   0.0000   0.3383
  16.400   0.8705   0.21395   0.20987  -0.0900  0.0488  1.0000  -1.8924   0.0000   0.0000   0.0000   0.3391
  16.500   0.8723   0.21585   0.21176  -0.0909  0.0481  1.0000  -1.8895   0.0000   0.0000   0.0000   0.3397
  16.600   0.8740   0.21774   0.21366  -0.0917  0.0474  1.0000  -1.8880   0.0000   0.0000   0.0000   0.3403
  16.700   0.8759   0.21964   0.21556  -0.0925  0.0467  1.0000  -1.8878   0.0000   0.0000   0.0000   0.3409
  16.800   0.8777   0.22154   0.21747  -0.0933  0.0461  1.0000  -1.8888   0.0000   0.0000   0.0000   0.3414
  16.900   0.8797   0.22345   0.21937  -0.0940  0.0455  1.0000  -1.8907   0.0000   0.0000   0.0000   0.3419
  17.000   0.8816   0.22535   0.22128  -0.0947  0.0449  1.0000  -1.8937   0.0000   0.0000   0.0000   0.3424
  17.100   0.8836   0.22725   0.22318  -0.0954  0.0443  1.0000  -1.8977   0.0000   0.0000   0.0000   0.3428
  17.200   0.8856   0.22915   0.22509  -0.0961  0.0438  1.0000  -1.9027   0.0000   0.0000   0.0000   0.3432
  17.300   0.8876   0.23105   0.22699  -0.0968  0.0433  1.0000  -1.9089   0.0000   0.0000   0.0000   0.3436
  17.400   0.8897   0.23295   0.22890  -0.0974  0.0428  1.0000  -1.9163   0.0000   0.0000   0.0000   0.3439
  17.500   0.8918   0.23485   0.23080  -0.0980  0.0423  1.0000  -1.9250   0.0000   0.0000   0.0000   0.3442
  17.600   0.8940   0.23676   0.23271  -0.0986  0.0418  1.0000  -1.9352   0.0000   0.0000   0.0000   0.3445
  17.700   0.8962   0.23866   0.23463  -0.0992  0.0414  1.0000  -1.9470   0.0000   0.0000   0.0000   0.3447
  17.800   0.8985   0.24058   0.23655  -0.0997  0.0409  1.0000  -1.9609   0.0000   0.0000   0.0000   0.3448
  17.900   0.9009   0.24251   0.23848  -0.1001  0.0405  1.0000  -1.9770   0.0000   0.0000   0.0000   0.3449
  18.000   0.9034   0.24446   0.24045  -0.1005  0.0401  1.0000  -1.9958   0.0000   0.0000   0.0000   0.3449
  18.100   0.9061   0.24646   0.24245  -0.1008  0.0397  1.0000  -2.0180   0.0000   0.0000   0.0000   0.3447
  18.200   0.9091   0.24853   0.24454  -0.1011  0.0392  1.0000  -2.0445   0.0000   0.0000   0.0000   0.3445
  18.300   0.9125   0.25074   0.24676  -0.1011  0.0388  1.0000  -2.0773   0.0000   0.0000   0.0000   0.3440
  18.400   0.9166   0.25325   0.24928  -0.1010  0.0384  1.0000  -2.1189   0.0000   0.0000   0.0000   0.3432
  18.500   0.9218   0.25648   0.25254  -0.1005  0.0379  1.0000  -2.1713   0.0000   0.0000   0.0000   0.3419
  18.600   0.9234   0.26197   0.25805  -0.1003  0.0371  1.0000  -2.1760   0.0000   0.0000   0.0000   0.3415
  18.700   0.9207   0.26839   0.26440  -0.1013  0.0366  1.0000  -2.0972   0.0000   0.0000   0.0000   0.3428
  18.800   0.9220   0.27054   0.26656  -0.1021  0.0365  1.0000  -2.0882   0.0000   0.0000   0.0000   0.3434
  18.900   0.9232   0.27268   0.26870  -0.1029  0.0365  1.0000  -2.0792   0.0000   0.0000   0.0000   0.3440
  19.000   0.9244   0.27480   0.27083  -0.1037  0.0365  1.0000  -2.0699   0.0000   0.0000   0.0000   0.3446
  19.100   0.9255   0.27691   0.27294  -0.1044  0.0365  1.0000  -2.0605   0.0000   0.0000   0.0000   0.3452
  19.200   0.9266   0.27900   0.27504  -0.1052  0.0365  1.0000  -2.0510   0.0000   0.0000   0.0000   0.3458
  19.300   0.9276   0.28108   0.27712  -0.1060  0.0364  1.0000  -2.0412   0.0000   0.0000   0.0000   0.3463
  19.400   0.9285   0.28313   0.27917  -0.1068  0.0364  1.0000  -2.0312   0.0000   0.0000   0.0000   0.3469
  19.500   0.9294   0.28516   0.28121  -0.1075  0.0364  1.0000  -2.0211   0.0000   0.0000   0.0000   0.3475
  19.600   0.9302   0.28717   0.28322  -0.1083  0.0363  1.0000  -2.0107   0.0000   0.0000   0.0000   0.3481
  19.700   0.9309   0.28914   0.28520  -0.1090  0.0363  1.0000  -1.9999   0.0000   0.0000   0.0000   0.3487
  19.800   0.9316   0.29108   0.28715  -0.1098  0.0362  1.0000  -1.9889   0.0000   0.0000   0.0000   0.3493
  19.900   0.9321   0.29299   0.28906  -0.1105  0.0362  1.0000  -1.9776   0.0000   0.0000   0.0000   0.3499
  20.000   0.9325   0.29485   0.29093  -0.1113  0.0361  1.0000  -1.9657   0.0000   0.0000   0.0000   0.3505
  20.100   0.9328   0.29667   0.29275  -0.1120  0.0361  1.0000  -1.9535   0.0000   0.0000   0.0000   0.3512
  20.200   0.9325   0.29837   0.29446  -0.1128  0.0360  1.0000  -1.9371   0.0000   0.0000   0.0000   0.3519
  20.300   0.9319   0.29999   0.29608  -0.1137  0.0359  1.0000  -1.9182   0.0000   0.0000   0.0000   0.3528
  20.400   0.9308   0.30150   0.29760  -0.1145  0.0359  1.0000  -1.8965   0.0000   0.0000   0.0000   0.3537
  20.500   0.9295   0.30295   0.29906  -0.1154  0.0357  1.0000  -1.8739   0.0000   0.0000   0.0000   0.3547
  20.600   0.9281   0.30435   0.30046  -0.1163  0.0356  1.0000  -1.8504   0.0000   0.0000   0.0000   0.3557
  20.700   0.9266   0.30568   0.30180  -0.1171  0.0355  1.0000  -1.8256   0.0000   0.0000   0.0000   0.3567
  20.800   0.9250   0.30697   0.30309  -0.1180  0.0353  1.0000  -1.7996   0.0000   0.0000   0.0000   0.3578
  20.900   0.9233   0.30823   0.30436  -0.1189  0.0350  1.0000  -1.7724   0.0000   0.0000   0.0000   0.3588
  21.000   0.9217   0.30950   0.30564  -0.1197  0.0347  1.0000  -1.7447   0.0000   0.0000   0.0000   0.3599
  21.100   0.9201   0.31084   0.30699  -0.1205  0.0343  1.0000  -1.7179   0.0000   0.0000   0.0000   0.3608
  21.200   0.9183   0.31223   0.30839  -0.1211  0.0338  1.0000  -1.6928   0.0000   0.0000   0.0000   0.3617
  21.300   0.9161   0.31360   0.30978  -0.1216  0.0334  1.0000  -1.6696   0.0000   0.0000   0.0000   0.3625
  21.400   0.9131   0.31482   0.31101  -0.1220  0.0329  1.0000  -1.6469   0.0000   0.0000   0.0000   0.3632
  21.500   0.8818   0.30925   0.30555  -0.1186  0.0331  1.0000  -1.5635   0.0000   0.0000   0.0000   0.3645
  21.600   0.8726   0.30822   0.30455  -0.1181  0.0328  1.0000  -1.5286   0.0000   0.0000   0.0000   0.3654
  21.700   0.8664   0.30784   0.30420  -0.1179  0.0325  1.0000  -1.5013   0.0000   0.0000   0.0000   0.3661
  21.800   0.8615   0.30774   0.30412  -0.1178  0.0321  1.0000  -1.4779   0.0000   0.0000   0.0000   0.3668
  21.900   0.8573   0.30779   0.30419  -0.1178  0.0317  1.0000  -1.4572   0.0000   0.0000   0.0000   0.3674
  22.000   0.8537   0.30793   0.30436  -0.1179  0.0313  1.0000  -1.4384   0.0000   0.0000   0.0000   0.3680
  22.100   0.8505   0.30815   0.30459  -0.1180  0.0310  1.0000  -1.4212   0.0000   0.0000   0.0000   0.3686
  22.200   0.8476   0.30841   0.30488  -0.1181  0.0306  1.0000  -1.4052   0.0000   0.0000   0.0000   0.3692
  22.300   0.8450   0.30871   0.30519  -0.1182  0.0302  1.0000  -1.3903   0.0000   0.0000   0.0000   0.3697
  22.400   0.8426   0.30904   0.30554  -0.1184  0.0298  1.0000  -1.3764   0.0000   0.0000   0.0000   0.3702
  22.500   0.8404   0.30940   0.30592  -0.1186  0.0295  1.0000  -1.3634   0.0000   0.0000   0.0000   0.3707
  22.600   0.8383   0.30978   0.30631  -0.1188  0.0291  1.0000  -1.3511   0.0000   0.0000   0.0000   0.3712
  22.700   0.8365   0.31018   0.30673  -0.1190  0.0288  1.0000  -1.3395   0.0000   0.0000   0.0000   0.3717
  22.800   0.8347   0.31060   0.30716  -0.1192  0.0284  1.0000  -1.3286   0.0000   0.0000   0.0000   0.3722
  22.900   0.8331   0.31103   0.30761  -0.1194  0.0281  1.0000  -1.3182   0.0000   0.0000   0.0000   0.3726
  23.000   0.8316   0.31147   0.30807  -0.1197  0.0278  1.0000  -1.3085   0.0000   0.0000   0.0000   0.3731
  23.100   0.8302   0.31192   0.30854  -0.1199  0.0275  1.0000  -1.2993   0.0000   0.0000   0.0000   0.3735
  23.200   0.8289   0.31239   0.30902  -0.1202  0.0271  1.0000  -1.2907   0.0000   0.0000   0.0000   0.3739
  23.300   0.8277   0.31286   0.30950  -0.1204  0.0268  1.0000  -1.2826   0.0000   0.0000   0.0000   0.3743
  23.400   0.8266   0.31333   0.30999  -0.1207  0.0265  1.0000  -1.2750   0.0000   0.0000   0.0000   0.3747
  23.500   0.8255   0.31382   0.31049  -0.1209  0.0262  1.0000  -1.2680   0.0000   0.0000   0.0000   0.3751
  23.600   0.8245   0.31430   0.31099  -0.1212  0.0259  1.0000  -1.2615   0.0000   0.0000   0.0000   0.3755
  23.700   0.8236   0.31479   0.31149  -0.1215  0.0257  1.0000  -1.2556   0.0000   0.0000   0.0000   0.3759
  23.800   0.8228   0.31529   0.31200  -0.1218  0.0254  1.0000  -1.2502   0.0000   0.0000   0.0000   0.3763
  23.900   0.8220   0.31578   0.31251  -0.1220  0.0251  1.0000  -1.2454   0.0000   0.0000   0.0000   0.3766
  24.000   0.8212   0.31627   0.31309  -0.1223  0.0249  1.0000  -1.2439   0.0000   0.0000   0.0000   0.3770
  24.100   0.8205   0.31677   0.31360  -0.1226  0.0246  1.0000  -1.2408   0.0000   0.0000   0.0000   0.3773
  24.200   0.8199   0.31727   0.31411  -0.1229  0.0244  1.0000  -1.2382   0.0000   0.0000   0.0000   0.3777
  24.300   0.8193   0.31777   0.31462  -0.1232  0.0241  1.0000  -1.2362   0.0000   0.0000   0.0000   0.3780
  24.400   0.8187   0.31827   0.31514  -0.1234  0.0239  1.0000  -1.2348   0.0000   0.0000   0.0000   0.3783
  24.500   0.8182   0.31877   0.31565  -0.1237  0.0237  1.0000  -1.2342   0.0000   0.0000   0.0000   0.3785
  24.600   0.8177   0.31927   0.31617  -0.1239  0.0234  1.0000  -1.2344   0.0000   0.0000   0.0000   0.3788
  24.700   0.8172   0.31978   0.31669  -0.1242  0.0232  1.0000  -1.2355   0.0000   0.0000   0.0000   0.3790
  24.800   0.8168   0.32029   0.31721  -0.1244  0.0230  1.0000  -1.2377   0.0000   0.0000   0.0000   0.3792
  24.900   0.8165   0.32082   0.31775  -0.1246  0.0228  1.0000  -1.2410   0.0000   0.0000   0.0000   0.3794
  25.000   0.8162   0.32136   0.31831  -0.1248  0.0226  1.0000  -1.2455   0.0000   0.0000   0.0000   0.3796
  25.100   0.8160   0.32195   0.31891  -0.1249  0.0224  1.0000  -1.2515   0.0000   0.0000   0.0000   0.3796
  25.200   0.8158   0.32259   0.31957  -0.1251  0.0222  1.0000  -1.2592   0.0000   0.0000   0.0000   0.3797
  25.300   0.8159   0.32335   0.32035  -0.1251  0.0219  1.0000  -1.2691   0.0000   0.0000   0.0000   0.3796
  25.400   0.8162   0.32433   0.32134  -0.1251  0.0217  1.0000  -1.2816   0.0000   0.0000   0.0000   0.3794
  25.500   0.8170   0.32579   0.32282  -0.1250  0.0215  1.0000  -1.2976   0.0000   0.0000   0.0000   0.3790
  25.600   0.8196   0.32910   0.32615  -0.1246  0.0212  1.0000  -1.3205   0.0000   0.0000   0.0000   0.3779
  27.100   0.8129   0.34105   0.33820  -0.1307  0.0206  1.0000  -1.1263   0.0000   0.0000   0.0000   0.3845
  27.200   0.8122   0.34129   0.33845  -0.1312  0.0206  1.0000  -1.1136   0.0000   0.0000   0.0000   0.3851
  27.300   0.8114   0.34153   0.33870  -0.1317  0.0205  1.0000  -1.1010   0.0000   0.0000   0.0000   0.3857
  27.400   0.8107   0.34178   0.33895  -0.1322  0.0205  1.0000  -1.0884   0.0000   0.0000   0.0000   0.3862
  27.500   0.8101   0.34202   0.33921  -0.1327  0.0205  1.0000  -1.0760   0.0000   0.0000   0.0000   0.3868
  27.600   0.8094   0.34227   0.33947  -0.1332  0.0205  1.0000  -1.0636   0.0000   0.0000   0.0000   0.3874
  27.700   0.8088   0.34253   0.33974  -0.1338  0.0204  1.0000  -1.0514   0.0000   0.0000   0.0000   0.3880
  27.800   0.8083   0.34280   0.34001  -0.1343  0.0204  1.0000  -1.0394   0.0000   0.0000   0.0000   0.3886
  27.900   0.8078   0.34308   0.34031  -0.1348  0.0203  1.0000  -1.0274   0.0000   0.0000   0.0000   0.3892
  28.000   0.8073   0.34338   0.34062  -0.1354  0.0203  1.0000  -1.0156   0.0000   0.0000   0.0000   0.3898
  28.100   0.8069   0.34370   0.34094  -0.1359  0.0203  1.0000  -1.0039   0.0000   0.0000   0.0000   0.3903
  28.200   0.8066   0.34404   0.34129  -0.1365  0.0202  1.0000  -0.9923   0.0000   0.0000   0.0000   0.3909
  28.300   0.8063   0.34441   0.34167  -0.1371  0.0201  1.0000  -0.9808   0.0000   0.0000   0.0000   0.3915
  28.400   0.8061   0.34481   0.34208  -0.1376  0.0201  1.0000  -0.9694   0.0000   0.0000   0.0000   0.3920
  28.500   0.8059   0.34524   0.34252  -0.1382  0.0200  1.0000  -0.9582   0.0000   0.0000   0.0000   0.3926
  28.600   0.8059   0.34571   0.34299  -0.1388  0.0199  1.0000  -0.9471   0.0000   0.0000   0.0000   0.3931
  28.700   0.8059   0.34621   0.34351  -0.1394  0.0198  1.0000  -0.9361   0.0000   0.0000   0.0000   0.3937
  28.800   0.8059   0.34676   0.34407  -0.1400  0.0197  1.0000  -0.9253   0.0000   0.0000   0.0000   0.3942
  28.900   0.8061   0.34736   0.34467  -0.1406  0.0196  1.0000  -0.9148   0.0000   0.0000   0.0000   0.3947
  29.000   0.8063   0.34799   0.34531  -0.1412  0.0195  1.0000  -0.9047   0.0000   0.0000   0.0000   0.3951
  29.100   0.8065   0.34865   0.34598  -0.1417  0.0194  1.0000  -0.8950   0.0000   0.0000   0.0000   0.3956
  29.200   0.8067   0.34933   0.34667  -0.1423  0.0192  1.0000  -0.8857   0.0000   0.0000   0.0000   0.3960
  29.300   0.8070   0.35004   0.34739  -0.1428  0.0191  1.0000  -0.8768   0.0000   0.0000   0.0000   0.3964
  29.400   0.8073   0.35076   0.34811  -0.1434  0.0189  1.0000  -0.8684   0.0000   0.0000   0.0000   0.3968
  29.500   0.8075   0.35148   0.34885  -0.1439  0.0187  1.0000  -0.8604   0.0000   0.0000   0.0000   0.3972
  29.600   0.8077   0.35220   0.34958  -0.1444  0.0185  1.0000  -0.8529   0.0000   0.0000   0.0000   0.3976
  29.700   0.8079   0.35293   0.35032  -0.1449  0.0183  1.0000  -0.8459   0.0000   0.0000   0.0000   0.3979
  29.800   0.8081   0.35365   0.35105  -0.1454  0.0182  1.0000  -0.8394   0.0000   0.0000   0.0000   0.3983
  29.900   0.8083   0.35438   0.35185  -0.1458  0.0179  1.0000  -0.8322   0.0000   0.0000   0.0000   0.3986
  30.000   0.8084   0.35510   0.35258  -0.1463  0.0177  1.0000  -0.8260   0.0000   0.0000   0.0000   0.3989


