xflr5 v6.61

 Calculated polar for: RG-15 8.9%

 1 1 Reynolds number fixed          Mach number fixed         

 xtrf =   1.000 (top)        1.000 (bottom)
 Mach =   0.000     Re =     0.719 e 6     Ncrit =   9.000

  alpha     CL        CD       CDp       Cm    Top Xtr Bot Xtr   Cpmin    Chinge    XCp    
 ------- -------- --------- --------- -------- ------- ------- -------- --------- ---------
 -10.000  -0.4559   0.10487   0.10276  -0.0191  1.0000  0.0122  -1.8775   0.0000   0.0000   0.0000   0.2015
  -9.900  -0.4554   0.10327   0.10117  -0.0197  1.0000  0.0122  -1.8958   0.0000   0.0000   0.0000   0.2004
  -9.800  -0.4550   0.10166   0.09955  -0.0202  1.0000  0.0121  -1.9153   0.0000   0.0000   0.0000   0.1992
  -9.700  -0.4547   0.10002   0.09793  -0.0208  1.0000  0.0121  -1.9365   0.0000   0.0000   0.0000   0.1980
  -9.600  -0.4547   0.09837   0.09628  -0.0214  1.0000  0.0121  -1.9596   0.0000   0.0000   0.0000   0.1969
  -9.500  -0.4549   0.09668   0.09460  -0.0219  1.0000  0.0121  -1.9857   0.0000   0.0000   0.0000   0.1957
  -9.400  -0.4555   0.09494   0.09286  -0.0225  1.0000  0.0120  -2.0163   0.0000   0.0000   0.0000   0.1945
  -9.300  -0.4568   0.09310   0.09104  -0.0231  1.0000  0.0120  -2.0556   0.0000   0.0000   0.0000   0.1934
  -9.200  -0.4599   0.09098   0.08892  -0.0239  1.0000  0.0118  -2.1195   0.0000   0.0000   0.0000   0.1922
  -9.100  -0.4659   0.08836   0.08631  -0.0248  1.0000  0.0115  -2.2272   0.0000   0.0000   0.0000   0.1910
  -9.000  -0.4695   0.08619   0.08422  -0.0257  1.0000  0.0112  -2.2969   0.0000   0.0000   0.0000   0.1896
  -8.900  -0.4729   0.08406   0.08210  -0.0266  1.0000  0.0110  -2.3637   0.0000   0.0000   0.0000   0.1881
  -8.800  -0.4761   0.08201   0.08006  -0.0275  1.0000  0.0108  -2.4231   0.0000   0.0000   0.0000   0.1867
  -8.700  -0.4793   0.08001   0.07808  -0.0284  1.0000  0.0107  -2.4787   0.0000   0.0000   0.0000   0.1853
  -8.600  -0.4826   0.07805   0.07613  -0.0293  1.0000  0.0106  -2.5321   0.0000   0.0000   0.0000   0.1839
  -8.500  -0.4861   0.07612   0.07421  -0.0302  1.0000  0.0105  -2.5845   0.0000   0.0000   0.0000   0.1826
  -8.400  -0.4900   0.07418   0.07229  -0.0312  1.0000  0.0104  -2.6365   0.0000   0.0000   0.0000   0.1813
  -8.300  -0.4944   0.07228   0.07040  -0.0321  1.0000  0.0103  -2.6874   0.0000   0.0000   0.0000   0.1802
  -8.200  -0.4997   0.07044   0.06859  -0.0330  1.0000  0.0103  -2.7366   0.0000   0.0000   0.0000   0.1792
  -8.100  -0.5062   0.06870   0.06687  -0.0338  1.0000  0.0103  -2.7824   0.0000   0.0000   0.0000   0.1785
  -8.000  -0.5131   0.06673   0.06492  -0.0356  1.0000  0.0104  -2.8297   0.0000   0.0000   0.0000   0.1762
  -7.900  -0.5173   0.06420   0.06236  -0.0379  1.0000  0.0104  -2.8936   0.0000   0.0000   0.0000   0.1724
  -7.800  -0.5218   0.06192   0.06006  -0.0391  1.0000  0.0104  -2.9576   0.0000   0.0000   0.0000   0.1709
  -7.700  -0.5262   0.05967   0.05779  -0.0399  1.0000  0.0103  -3.0232   0.0000   0.0000   0.0000   0.1700
  -7.600  -0.5305   0.05745   0.05553  -0.0404  1.0000  0.0102  -3.0904   0.0000   0.0000   0.0000   0.1696
  -7.500  -0.5346   0.05527   0.05331  -0.0407  1.0000  0.0101  -3.1585   0.0000   0.0000   0.0000   0.1698
  -7.400  -0.5386   0.05311   0.05110  -0.0408  1.0000  0.0100  -3.2275   0.0000   0.0000   0.0000   0.1703
  -7.300  -0.5422   0.05094   0.04887  -0.0406  1.0000  0.0099  -3.2991   0.0000   0.0000   0.0000   0.1711
  -7.200  -0.5456   0.04880   0.04667  -0.0403  1.0000  0.0097  -3.3710   0.0000   0.0000   0.0000   0.1721
  -7.100  -0.5485   0.04662   0.04441  -0.0399  1.0000  0.0096  -3.4472   0.0000   0.0000   0.0000   0.1733
  -7.000  -0.5510   0.04445   0.04216  -0.0394  1.0000  0.0094  -3.5245   0.0000   0.0000   0.0000   0.1746
  -6.900  -0.5529   0.04222   0.03984  -0.0388  1.0000  0.0092  -3.6077   0.0000   0.0000   0.0000   0.1759
  -6.800  -0.5472   0.03858   0.03600  -0.0404  0.9991  0.0088  -3.7478   0.0000   0.0000   0.0000   0.1722
  -6.700  -0.5386   0.03456   0.03172  -0.0423  0.9978  0.0084  -3.9183   0.0000   0.0000   0.0000   0.1674
  -6.600  -0.5294   0.03066   0.02753  -0.0438  0.9967  0.0079  -4.1033   0.0000   0.0000   0.0000   0.1631
  -6.500  -0.5206   0.02721   0.02377  -0.0447  0.9954  0.0075  -4.2774   0.0000   0.0000   0.0000   0.1599
  -6.400  -0.5109   0.02408   0.02032  -0.0453  0.9941  0.0071  -4.4438   0.0000   0.0000   0.0000   0.1570
  -6.300  -0.5003   0.02141   0.01734  -0.0458  0.9929  0.0068  -4.5789   0.0000   0.0000   0.0000   0.1541
  -6.200  -0.4890   0.01926   0.01491  -0.0462  0.9920  0.0065  -4.6695   0.0000   0.0000   0.0000   0.1510
  -6.100  -0.4770   0.01753   0.01295  -0.0466  0.9911  0.0063  -4.7200   0.0000   0.0000   0.0000   0.1479
  -6.000  -0.4647   0.01612   0.01133  -0.0470  0.9904  0.0061  -4.7384   0.0000   0.0000   0.0000   0.1444
  -5.900  -0.4520   0.01499   0.01003  -0.0474  0.9897  0.0060  -4.7253   0.0000   0.0000   0.0000   0.1407
  -5.800  -0.4391   0.01408   0.00899  -0.0478  0.9891  0.0059  -4.6850   0.0000   0.0000   0.0000   0.1367
  -5.700  -0.4261   0.01335   0.00806  -0.0482  0.9886  0.0058  -4.6308   0.0000   0.0000   0.0000   0.1323
  -5.600  -0.4128   0.01279   0.00740  -0.0487  0.9881  0.0058  -4.5498   0.0000   0.0000   0.0000   0.1274
  -5.500  -0.3991   0.01231   0.00685  -0.0493  0.9876  0.0058  -4.4559   0.0000   0.0000   0.0000   0.1219
  -5.400  -0.3861   0.01191   0.00638  -0.0497  0.9868  0.0058  -4.3562   0.0000   0.0000   0.0000   0.1167
  -5.300  -0.3748   0.01156   0.00598  -0.0498  0.9851  0.0058  -4.2575   0.0000   0.0000   0.0000   0.1127
  -5.200  -0.3624   0.01125   0.00562  -0.0500  0.9836  0.0058  -4.1502   0.0000   0.0000   0.0000   0.1075
  -5.100  -0.3495   0.01097   0.00529  -0.0504  0.9822  0.0059  -4.0372   0.0000   0.0000   0.0000   0.1012
  -5.000  -0.3361   0.01072   0.00500  -0.0509  0.9809  0.0059  -3.9202   0.0000   0.0000   0.0000   0.0940
  -4.900  -0.3225   0.01049   0.00473  -0.0515  0.9797  0.0060  -3.8006   0.0000   0.0000   0.0000   0.0859
  -4.800  -0.3087   0.01028   0.00449  -0.0520  0.9786  0.0062  -3.6793   0.0000   0.0000   0.0000   0.0770
  -4.700  -0.2948   0.01010   0.00427  -0.0526  0.9776  0.0063  -3.5569   0.0000   0.0000   0.0000   0.0669
  -4.600  -0.2807   0.00993   0.00407  -0.0533  0.9767  0.0065  -3.4333   0.0000   0.0000   0.0000   0.0556
  -4.500  -0.2663   0.00977   0.00389  -0.0540  0.9759  0.0067  -3.3088   0.0000   0.0000   0.0000   0.0426
  -4.400  -0.2516   0.00962   0.00372  -0.0548  0.9751  0.0069  -3.1837   0.0000   0.0000   0.0000   0.0277
  -4.300  -0.2367   0.00948   0.00357  -0.0556  0.9743  0.0071  -3.0589   0.0000   0.0000   0.0000   0.0105
  -4.200  -0.2217   0.00935   0.00343  -0.0564  0.9737  0.0074  -2.9354   0.0000   0.0000   0.0000  -0.0091
  -4.100  -0.2068   0.00923   0.00330  -0.0572  0.9731  0.0078  -2.8141   0.0000   0.0000   0.0000  -0.0317
  -4.000  -0.1919   0.00912   0.00319  -0.0580  0.9725  0.0082  -2.6958   0.0000   0.0000   0.0000  -0.0576
  -3.900  -0.1834   0.00903   0.00309  -0.0574  0.9693  0.0085  -2.6087   0.0000   0.0000   0.0000  -0.0681
  -3.800  -0.1720   0.00893   0.00299  -0.0575  0.9669  0.0088  -2.5103   0.0000   0.0000   0.0000  -0.0893
  -3.700  -0.1592   0.00883   0.00289  -0.0578  0.9650  0.0093  -2.4087   0.0000   0.0000   0.0000  -0.1184
  -3.600  -0.1457   0.00873   0.00279  -0.0583  0.9632  0.0097  -2.3068   0.0000   0.0000   0.0000  -0.1555
  -3.500  -0.1318   0.00864   0.00270  -0.0589  0.9616  0.0102  -2.2057   0.0000   0.0000   0.0000  -0.2026
  -3.400  -0.1175   0.00854   0.00260  -0.0595  0.9601  0.0107  -2.1063   0.0000   0.0000   0.0000  -0.2625
  -3.300  -0.1033   0.00845   0.00251  -0.0601  0.9587  0.0113  -2.0095   0.0000   0.0000   0.0000  -0.3389
  -3.200  -0.0893   0.00837   0.00242  -0.0607  0.9572  0.0119  -1.9161   0.0000   0.0000   0.0000  -0.4378
  -3.000  -0.0611   0.00819   0.00225  -0.0620  0.9545  0.0164  -1.7357   0.0000   0.0000   0.0000  -0.7738
  -2.900  -0.0473   0.00782   0.00204  -0.0628  0.9530  0.0566  -1.6269   0.0000   0.0000   0.0000  -1.0896
  -2.800  -0.0367   0.00771   0.00197  -0.0626  0.9495  0.0642  -1.5543   0.0000   0.0000   0.0000  -1.4691
  -2.700  -0.0264   0.00761   0.00190  -0.0624  0.9453  0.0739  -1.4832   0.0000   0.0000   0.0000  -2.1334
  -2.600  -0.0147   0.00747   0.00182  -0.0625  0.9415  0.0874  -1.4088   0.0000   0.0000   0.0000  -4.0306
  -2.500  -0.0016   0.00738   0.00175  -0.0629  0.9382  0.0951  -1.3306   0.0000   0.0000   0.0000  -39.2905
  -2.400   0.0119   0.00730   0.00169  -0.0634  0.9352  0.1035  -1.2523   0.0000   0.0000   0.0000   5.5985
  -2.300   0.0255   0.00716   0.00161  -0.0640  0.9324  0.1189  -1.1755   0.0000   0.0000   0.0000   2.7786
  -2.200   0.0392   0.00706   0.00154  -0.0646  0.9295  0.1320  -1.0991   0.0000   0.0000   0.0000   1.9046
  -2.100   0.0510   0.00693   0.00149  -0.0647  0.9254  0.1535  -1.0303   0.0000   0.0000   0.0000   1.5263
  -2.000   0.0615   0.00685   0.00144  -0.0646  0.9201  0.1671  -0.9662   0.0000   0.0000   0.0000   1.3059
  -1.900   0.0729   0.00675   0.00140  -0.0647  0.9145  0.1855  -0.9005   0.0000   0.0000   0.0000   1.1412
  -1.800   0.0849   0.00664   0.00134  -0.0648  0.9089  0.2039  -0.8343   0.0000   0.0000   0.0000   1.0172
  -1.700   0.0970   0.00649   0.00128  -0.0651  0.9035  0.2351  -0.7691   0.0000   0.0000   0.0000   0.9237
  -1.600   0.1089   0.00632   0.00123  -0.0654  0.8981  0.2776  -0.7058   0.0000   0.0000   0.0000   0.8520
  -1.500   0.1191   0.00618   0.00120  -0.0652  0.8933  0.3128  -0.6483   0.0000   0.0000   0.0000   0.7992
  -1.400   0.1296   0.00605   0.00117  -0.0652  0.8876  0.3429  -0.5909   0.0000   0.0000   0.0000   0.7538
  -1.300   0.1406   0.00597   0.00114  -0.0651  0.8812  0.3650  -0.5334   0.0000   0.0000   0.0000   0.7141
  -1.200   0.1517   0.00589   0.00111  -0.0651  0.8744  0.3879  -0.4767   0.0000   0.0000   0.0000   0.6799
  -1.000   0.1740   0.00582   0.00106  -0.0651  0.8607  0.4141  -0.3910   0.0000   0.0000   0.0000   0.6242
  -0.900   0.1850   0.00587   0.00105  -0.0649  0.8541  0.4039  -0.3995   0.0000   0.0000   0.0000   0.6011
  -0.800   0.1962   0.00593   0.00104  -0.0649  0.8467  0.3870  -0.4085   0.0000   0.0000   0.0000   0.5805
  -0.700   0.2076   0.00604   0.00102  -0.0648  0.8393  0.3636  -0.4185   0.0000   0.0000   0.0000   0.5618
  -0.600   0.2187   0.00610   0.00101  -0.0647  0.8317  0.3553  -0.4283   0.0000   0.0000   0.0000   0.5454
  -0.500   0.2293   0.00603   0.00100  -0.0646  0.8247  0.3809  -0.4379   0.0000   0.0000   0.0000   0.5313
  -0.400   0.2399   0.00594   0.00099  -0.0645  0.8184  0.4109  -0.4475   0.0000   0.0000   0.0000   0.5185
  -0.300   0.2499   0.00573   0.00098  -0.0644  0.8105  0.4735  -0.4568   0.0000   0.0000   0.0000   0.5072
  -0.200   0.2590   0.00545   0.00101  -0.0641  0.8017  0.5743  -0.4658   0.0000   0.0000   0.0000   0.4969
  -0.100   0.2665   0.00517   0.00113  -0.0633  0.7921  0.7062  -0.4740   0.0000   0.0000   0.0000   0.4867
   0.000   0.2733   0.00505   0.00126  -0.0620  0.7840  0.7845  -0.4824   0.0000   0.0000   0.0000   0.4762
   0.100   0.2841   0.00505   0.00123  -0.0619  0.7783  0.7899  -0.4937   0.0000   0.0000   0.0000   0.4670
   0.200   0.2948   0.00507   0.00124  -0.0618  0.7715  0.7952  -0.5051   0.0000   0.0000   0.0000   0.4585
   0.300   0.3055   0.00509   0.00124  -0.0616  0.7636  0.7996  -0.5164   0.0000   0.0000   0.0000   0.4506
   0.400   0.3161   0.00514   0.00124  -0.0614  0.7543  0.8031  -0.5277   0.0000   0.0000   0.0000   0.4432
   0.600   0.3370   0.00519   0.00124  -0.0611  0.7366  0.8134  -0.5506   0.0000   0.0000   0.0000   0.4299
   0.700   0.3474   0.00519   0.00124  -0.0609  0.7286  0.8197  -0.5637   0.0000   0.0000   0.0000   0.4238
   0.800   0.3577   0.00520   0.00127  -0.0606  0.7201  0.8258  -0.5769   0.0000   0.0000   0.0000   0.4181
   0.900   0.3678   0.00524   0.00128  -0.0603  0.7105  0.8314  -0.5899   0.0000   0.0000   0.0000   0.4126
   1.000   0.3776   0.00531   0.00128  -0.0600  0.6978  0.8368  -0.6027   0.0000   0.0000   0.0000   0.4074
   1.100   0.3884   0.00532   0.00129  -0.0599  0.6928  0.8419  -0.6163   0.0000   0.0000   0.0000   0.4026
   1.200   0.3993   0.00535   0.00130  -0.0598  0.6859  0.8462  -0.6311   0.0000   0.0000   0.0000   0.3982
   1.300   0.4096   0.00537   0.00131  -0.0596  0.6765  0.8521  -0.6470   0.0000   0.0000   0.0000   0.3938
   1.400   0.4193   0.00540   0.00133  -0.0592  0.6653  0.8594  -0.6623   0.0000   0.0000   0.0000   0.3895
   1.500   0.4285   0.00546   0.00134  -0.0588  0.6524  0.8662  -0.6774   0.0000   0.0000   0.0000   0.3853
   1.600   0.4386   0.00549   0.00136  -0.0585  0.6440  0.8729  -0.6932   0.0000   0.0000   0.0000   0.3815
   1.700   0.4491   0.00551   0.00138  -0.0583  0.6371  0.8792  -0.7124   0.0000   0.0000   0.0000   0.3779
   1.800   0.4594   0.00555   0.00139  -0.0581  0.6276  0.8850  -0.7316   0.0000   0.0000   0.0000   0.3745
   1.900   0.4686   0.00559   0.00141  -0.0577  0.6160  0.8933  -0.7499   0.0000   0.0000   0.0000   0.3709
   2.000   0.4772   0.00565   0.00143  -0.0570  0.6017  0.9021  -0.7676   0.0000   0.0000   0.0000   0.3674
   2.100   0.4869   0.00567   0.00145  -0.0567  0.5932  0.9107  -0.7865   0.0000   0.0000   0.0000   0.3642
   2.200   0.4969   0.00570   0.00147  -0.0564  0.5848  0.9185  -0.8057   0.0000   0.0000   0.0000   0.3612
   2.300   0.5061   0.00572   0.00149  -0.0559  0.5756  0.9275  -0.8244   0.0000   0.0000   0.0000   0.3581
   2.400   0.5153   0.00577   0.00151  -0.0554  0.5654  0.9372  -0.8434   0.0000   0.0000   0.0000   0.3551
   2.500   0.5246   0.00584   0.00154  -0.0550  0.5520  0.9469  -0.8669   0.0000   0.0000   0.0000   0.3524
   2.600   0.5362   0.00587   0.00155  -0.0551  0.5430  0.9559  -0.8931   0.0000   0.0000   0.0000   0.3502
   2.700   0.5485   0.00591   0.00158  -0.0553  0.5323  0.9657  -0.9206   0.0000   0.0000   0.0000   0.3483
   2.800   0.5619   0.00600   0.00160  -0.0559  0.5166  0.9749  -0.9509   0.0000   0.0000   0.0000   0.3468
   2.900   0.5758   0.00612   0.00163  -0.0566  0.4972  0.9853  -0.9882   0.0000   0.0000   0.0000   0.3455
   3.000   0.5912   0.00617   0.00166  -0.0576  0.4873  0.9954  -1.0281   0.0000   0.0000   0.0000   0.3446
   3.100   0.6027   0.00626   0.00169  -0.0577  0.4726  1.0000  -1.0624   0.0000   0.0000   0.0000   0.3429
   3.200   0.6122   0.00641   0.00174  -0.0575  0.4542  1.0000  -1.0938   0.0000   0.0000   0.0000   0.3410
   3.300   0.6226   0.00649   0.00178  -0.0574  0.4421  1.0000  -1.1269   0.0000   0.0000   0.0000   0.3392
   3.400   0.6330   0.00657   0.00182  -0.0574  0.4310  1.0000  -1.1603   0.0000   0.0000   0.0000   0.3375
   3.500   0.6429   0.00670   0.00187  -0.0572  0.4157  1.0000  -1.1931   0.0000   0.0000   0.0000   0.3358
   3.600   0.6526   0.00685   0.00193  -0.0570  0.3963  1.0000  -1.2257   0.0000   0.0000   0.0000   0.3341
   3.700   0.6630   0.00694   0.00198  -0.0569  0.3833  1.0000  -1.2598   0.0000   0.0000   0.0000   0.3325
   3.800   0.6723   0.00713   0.00205  -0.0566  0.3607  1.0000  -1.2963   0.0000   0.0000   0.0000   0.3308
   3.900   0.6821   0.00728   0.00211  -0.0565  0.3409  1.0000  -1.3413   0.0000   0.0000   0.0000   0.3293
   4.000   0.6914   0.00748   0.00219  -0.0562  0.3175  1.0000  -1.3855   0.0000   0.0000   0.0000   0.3278
   4.100   0.6985   0.00793   0.00245  -0.0557  0.2576  1.0000  -1.4351   0.0000   0.0000   0.0000   0.3261
   4.200   0.7093   0.00799   0.00252  -0.0556  0.2547  1.0000  -1.5033   0.0000   0.0000   0.0000   0.3247
   4.300   0.7192   0.00815   0.00260  -0.0555  0.2384  1.0000  -1.5706   0.0000   0.0000   0.0000   0.3234
   4.400   0.7283   0.00839   0.00271  -0.0553  0.2133  1.0000  -1.6367   0.0000   0.0000   0.0000   0.3220
   4.500   0.7377   0.00861   0.00281  -0.0550  0.1927  1.0000  -1.7047   0.0000   0.0000   0.0000   0.3207
   4.600   0.7472   0.00882   0.00293  -0.0548  0.1726  1.0000  -1.7742   0.0000   0.0000   0.0000   0.3194
   4.700   0.7567   0.00901   0.00303  -0.0547  0.1571  1.0000  -1.8450   0.0000   0.0000   0.0000   0.3181
   4.800   0.7664   0.00920   0.00314  -0.0545  0.1416  1.0000  -1.9171   0.0000   0.0000   0.0000   0.3169
   4.900   0.7768   0.00931   0.00323  -0.0544  0.1350  1.0000  -1.9927   0.0000   0.0000   0.0000   0.3158
   5.000   0.7867   0.00947   0.00333  -0.0543  0.1253  1.0000  -2.0678   0.0000   0.0000   0.0000   0.3146
   5.100   0.7964   0.00966   0.00344  -0.0541  0.1131  1.0000  -2.1428   0.0000   0.0000   0.0000   0.3135
   5.200   0.8066   0.00978   0.00354  -0.0540  0.1059  1.0000  -2.2214   0.0000   0.0000   0.0000   0.3124
   5.300   0.8167   0.00992   0.00365  -0.0539  0.0988  1.0000  -2.3002   0.0000   0.0000   0.0000   0.3113
   5.400   0.8263   0.01011   0.00378  -0.0537  0.0895  1.0000  -2.3984   0.0000   0.0000   0.0000   0.3103
   5.500   0.8363   0.01026   0.00388  -0.0536  0.0805  1.0000  -2.5228   0.0000   0.0000   0.0000   0.3092
   5.600   0.8466   0.01038   0.00398  -0.0535  0.0758  1.0000  -2.6512   0.0000   0.0000   0.0000   0.3082
   5.700   0.8565   0.01054   0.00411  -0.0533  0.0696  1.0000  -2.7794   0.0000   0.0000   0.0000   0.3072
   5.800   0.8661   0.01073   0.00425  -0.0531  0.0622  1.0000  -2.9073   0.0000   0.0000   0.0000   0.3062
   5.900   0.8761   0.01087   0.00436  -0.0530  0.0560  1.0000  -3.0402   0.0000   0.0000   0.0000   0.3053
   6.000   0.8863   0.01099   0.00447  -0.0529  0.0527  1.0000  -3.1760   0.0000   0.0000   0.0000   0.3044
   6.100   0.8962   0.01114   0.00460  -0.0528  0.0480  1.0000  -3.3121   0.0000   0.0000   0.0000   0.3035
   6.200   0.9058   0.01134   0.00475  -0.0526  0.0424  1.0000  -3.4469   0.0000   0.0000   0.0000   0.3025
   6.300   0.9156   0.01150   0.00488  -0.0524  0.0366  1.0000  -3.5849   0.0000   0.0000   0.0000   0.3016
   6.400   0.9257   0.01164   0.00501  -0.0523  0.0340  1.0000  -3.7262   0.0000   0.0000   0.0000   0.3008
   6.500   0.9353   0.01182   0.00516  -0.0521  0.0294  1.0000  -3.8657   0.0000   0.0000   0.0000   0.2999
   6.600   0.9446   0.01205   0.00533  -0.0519  0.0241  1.0000  -4.0033   0.0000   0.0000   0.0000   0.2990
   6.700   0.9543   0.01222   0.00548  -0.0517  0.0196  1.0000  -4.1435   0.0000   0.0000   0.0000   0.2981
   6.800   0.9636   0.01245   0.00568  -0.0515  0.0148  1.0000  -4.2795   0.0000   0.0000   0.0000   0.2973
   6.900   0.9725   0.01272   0.00590  -0.0512  0.0093  1.0000  -4.4094   0.0000   0.0000   0.0000   0.2964
   7.000   0.9824   0.01288   0.00606  -0.0510  0.0083  1.0000  -4.5415   0.0000   0.0000   0.0000   0.2955
   7.100   0.9921   0.01306   0.00624  -0.0508  0.0075  1.0000  -4.6661   0.0000   0.0000   0.0000   0.2947
   7.200   1.0017   0.01325   0.00644  -0.0506  0.0068  1.0000  -4.7840   0.0000   0.0000   0.0000   0.2939
   7.300   1.0113   0.01345   0.00666  -0.0503  0.0063  1.0000  -4.8978   0.0000   0.0000   0.0000   0.2930
   7.400   1.0208   0.01365   0.00690  -0.0500  0.0059  1.0000  -5.0114   0.0000   0.0000   0.0000   0.2922
   7.500   1.0296   0.01400   0.00745  -0.0495  0.0054  1.0000  -5.0454   0.0000   0.0000   0.0000   0.2912
   7.600   1.0389   0.01423   0.00774  -0.0492  0.0053  1.0000  -5.1571   0.0000   0.0000   0.0000   0.2903
   7.700   1.0480   0.01448   0.00805  -0.0489  0.0052  1.0000  -5.2712   0.0000   0.0000   0.0000   0.2895
   7.800   1.0571   0.01474   0.00837  -0.0486  0.0052  1.0000  -5.3851   0.0000   0.0000   0.0000   0.2886
   7.900   1.0660   0.01502   0.00871  -0.0482  0.0052  1.0000  -5.4976   0.0000   0.0000   0.0000   0.2878
   8.000   1.0746   0.01533   0.00908  -0.0478  0.0052  1.0000  -5.6076   0.0000   0.0000   0.0000   0.2869
   8.100   1.0830   0.01567   0.00949  -0.0473  0.0052  1.0000  -5.7138   0.0000   0.0000   0.0000   0.2860
   8.200   1.0911   0.01604   0.00993  -0.0468  0.0052  1.0000  -5.8156   0.0000   0.0000   0.0000   0.2851
   8.300   1.0988   0.01645   0.01042  -0.0462  0.0052  1.0000  -5.9118   0.0000   0.0000   0.0000   0.2842
   8.400   1.1062   0.01690   0.01095  -0.0456  0.0052  1.0000  -6.0018   0.0000   0.0000   0.0000   0.2832
   8.500   1.1132   0.01740   0.01153  -0.0449  0.0053  1.0000  -6.0858   0.0000   0.0000   0.0000   0.2822
   8.600   1.1199   0.01794   0.01216  -0.0442  0.0053  1.0000  -6.1638   0.0000   0.0000   0.0000   0.2812
   8.700   1.1262   0.01854   0.01285  -0.0434  0.0054  1.0000  -6.2360   0.0000   0.0000   0.0000   0.2801
   8.800   1.1322   0.01919   0.01359  -0.0425  0.0054  1.0000  -6.3025   0.0000   0.0000   0.0000   0.2791
   8.900   1.1379   0.01989   0.01439  -0.0417  0.0055  1.0000  -6.3805   0.0000   0.0000   0.0000   0.2780
   9.000   1.1434   0.02066   0.01526  -0.0408  0.0056  1.0000  -6.4615   0.0000   0.0000   0.0000   0.2769
   9.100   1.1486   0.02149   0.01620  -0.0398  0.0056  1.0000  -6.5366   0.0000   0.0000   0.0000   0.2758
   9.200   1.1536   0.02240   0.01721  -0.0389  0.0057  1.0000  -6.6060   0.0000   0.0000   0.0000   0.2748
   9.300   1.1584   0.02338   0.01830  -0.0379  0.0058  1.0000  -6.6696   0.0000   0.0000   0.0000   0.2737
   9.400   1.1630   0.02443   0.01947  -0.0370  0.0059  1.0000  -6.7272   0.0000   0.0000   0.0000   0.2726
   9.500   1.1672   0.02557   0.02073  -0.0360  0.0060  1.0000  -6.7783   0.0000   0.0000   0.0000   0.2715
   9.600   1.1709   0.02679   0.02208  -0.0350  0.0062  1.0000  -6.8198   0.0000   0.0000   0.0000   0.2705
   9.700   1.1741   0.02809   0.02352  -0.0339  0.0063  1.0000  -6.8540   0.0000   0.0000   0.0000   0.2694
   9.800   1.1767   0.02945   0.02501  -0.0328  0.0064  1.0000  -6.8812   0.0000   0.0000   0.0000   0.2683
   9.900   1.1785   0.03086   0.02656  -0.0317  0.0065  1.0000  -6.9018   0.0000   0.0000   0.0000   0.2671
  10.000   1.1796   0.03232   0.02816  -0.0305  0.0066  1.0000  -6.9157   0.0000   0.0000   0.0000   0.2660
  10.100   1.1798   0.03380   0.02978  -0.0292  0.0067  1.0000  -6.9231   0.0000   0.0000   0.0000   0.2648
  10.200   1.1790   0.03531   0.03143  -0.0279  0.0069  1.0000  -6.9245   0.0000   0.0000   0.0000   0.2636
  10.300   1.1772   0.03682   0.03307  -0.0265  0.0070  1.0000  -6.9203   0.0000   0.0000   0.0000   0.2624
  10.400   1.1744   0.03832   0.03469  -0.0251  0.0071  1.0000  -6.9114   0.0000   0.0000   0.0000   0.2611
  10.500   1.1701   0.03968   0.03617  -0.0235  0.0071  1.0000  -6.8988   0.0000   0.0000   0.0000   0.2597
  10.600   1.1647   0.04098   0.03757  -0.0217  0.0072  1.0000  -6.8835   0.0000   0.0000   0.0000   0.2582
  10.700   1.1587   0.04227   0.03896  -0.0200  0.0073  1.0000  -6.8660   0.0000   0.0000   0.0000   0.2567
  10.800   1.1522   0.04358   0.04036  -0.0184  0.0073  1.0000  -6.8465   0.0000   0.0000   0.0000   0.2553
  10.900   1.1453   0.04491   0.04178  -0.0170  0.0074  1.0000  -6.8253   0.0000   0.0000   0.0000   0.2541
  11.000   1.1382   0.04630   0.04326  -0.0158  0.0074  1.0000  -6.8025   0.0000   0.0000   0.0000   0.2530
  11.100   1.1309   0.04775   0.04480  -0.0148  0.0075  1.0000  -6.7780   0.0000   0.0000   0.0000   0.2521
  11.200   1.1233   0.04924   0.04637  -0.0140  0.0075  1.0000  -6.7524   0.0000   0.0000   0.0000   0.2513
  11.300   1.1156   0.05079   0.04800  -0.0135  0.0075  1.0000  -6.7254   0.0000   0.0000   0.0000   0.2507
  11.400   1.1078   0.05245   0.04974  -0.0131  0.0076  1.0000  -6.6969   0.0000   0.0000   0.0000   0.2504
  11.500   1.1000   0.05421   0.05157  -0.0131  0.0076  1.0000  -6.6670   0.0000   0.0000   0.0000   0.2503
  11.600   1.0922   0.05608   0.05352  -0.0133  0.0076  1.0000  -6.6353   0.0000   0.0000   0.0000   0.2504
  11.700   1.0844   0.05806   0.05557  -0.0137  0.0076  1.0000  -6.6021   0.0000   0.0000   0.0000   0.2507
  11.800   1.0765   0.06015   0.05772  -0.0145  0.0076  1.0000  -6.5674   0.0000   0.0000   0.0000   0.2513
  11.900   1.0688   0.06235   0.05999  -0.0154  0.0076  1.0000  -6.5308   0.0000   0.0000   0.0000   0.2521
  12.000   1.0611   0.06466   0.06237  -0.0165  0.0077  1.0000  -6.4925   0.0000   0.0000   0.0000   0.2532
  12.100   1.0532   0.06704   0.06480  -0.0179  0.0077  1.0000  -6.4529   0.0000   0.0000   0.0000   0.2544
  12.200   1.0455   0.06951   0.06733  -0.0193  0.0077  1.0000  -6.4109   0.0000   0.0000   0.0000   0.2558
  12.300   1.0379   0.07217   0.07005  -0.0211  0.0076  1.0000  -6.3663   0.0000   0.0000   0.0000   0.2574
  12.400   1.0304   0.07499   0.07293  -0.0230  0.0076  1.0000  -6.3183   0.0000   0.0000   0.0000   0.2593
  12.500   1.0231   0.07798   0.07597  -0.0252  0.0076  1.0000  -6.2667   0.0000   0.0000   0.0000   0.2614
  12.600   1.0158   0.08116   0.07919  -0.0275  0.0076  1.0000  -6.2111   0.0000   0.0000   0.0000   0.2637
  12.700   1.0087   0.08445   0.08254  -0.0299  0.0076  1.0000  -6.1508   0.0000   0.0000   0.0000   0.2661
  12.800   1.0015   0.08794   0.08607  -0.0324  0.0076  1.0000  -6.0850   0.0000   0.0000   0.0000   0.2688
  12.900   0.9944   0.09159   0.08977  -0.0351  0.0076  1.0000  -6.0125   0.0000   0.0000   0.0000   0.2716
  13.000   0.9873   0.09535   0.09357  -0.0377  0.0075  1.0000  -5.9330   0.0000   0.0000   0.0000   0.2745
  13.100   0.9800   0.09935   0.09761  -0.0406  0.0075  1.0000  -5.8432   0.0000   0.0000   0.0000   0.2775
  13.200   0.9726   0.10353   0.10183  -0.0434  0.0075  1.0000  -5.7411   0.0000   0.0000   0.0000   0.2807
  13.300   0.9650   0.10787   0.10619  -0.0462  0.0074  1.0000  -5.6252   0.0000   0.0000   0.0000   0.2839
  13.400   0.9570   0.11245   0.11080  -0.0490  0.0074  1.0000  -5.4896   0.0000   0.0000   0.0000   0.2873
  13.500   0.9483   0.11739   0.11576  -0.0519  0.0074  1.0000  -5.3246   0.0000   0.0000   0.0000   0.2908
  13.600   0.9389   0.12264   0.12104  -0.0548  0.0073  1.0000  -5.1241   0.0000   0.0000   0.0000   0.2945
  13.700   0.9287   0.12814   0.12654  -0.0575  0.0073  1.0000  -4.8835   0.0000   0.0000   0.0000   0.2981
  13.800   0.9183   0.13375   0.13215  -0.0601  0.0074  1.0000  -4.6098   0.0000   0.0000   0.0000   0.3018
  13.900   0.9103   0.13848   0.13686  -0.0623  0.0074  1.0000  -4.3940   0.0000   0.0000   0.0000   0.3049
  14.000   0.9040   0.14266   0.14104  -0.0644  0.0075  1.0000  -4.2148   0.0000   0.0000   0.0000   0.3077
  14.100   0.8987   0.14645   0.14482  -0.0663  0.0076  1.0000  -4.0577   0.0000   0.0000   0.0000   0.3102
  14.200   0.8943   0.14976   0.14811  -0.0680  0.0077  1.0000  -3.9180   0.0000   0.0000   0.0000   0.3125
  14.300   0.8905   0.15287   0.15121  -0.0697  0.0078  1.0000  -3.7898   0.0000   0.0000   0.0000   0.3147
  14.400   0.8873   0.15592   0.15426  -0.0713  0.0079  1.0000  -3.6700   0.0000   0.0000   0.0000   0.3168
  14.500   0.8845   0.15895   0.15728  -0.0729  0.0080  1.0000  -3.5560   0.0000   0.0000   0.0000   0.3188
  14.600   0.8820   0.16198   0.16031  -0.0744  0.0081  1.0000  -3.4449   0.0000   0.0000   0.0000   0.3207
  14.700   0.8796   0.16507   0.16338  -0.0759  0.0083  1.0000  -3.3317   0.0000   0.0000   0.0000   0.3226
  14.800   0.8767   0.16836   0.16666  -0.0775  0.0085  1.0000  -3.2024   0.0000   0.0000   0.0000   0.3247
  15.500   0.8698   0.18857   0.18685  -0.0858  0.0093  1.0000  -2.6278   0.0000   0.0000   0.0000   0.3345
  15.600   0.8712   0.19076   0.18904  -0.0867  0.0093  1.0000  -2.6104   0.0000   0.0000   0.0000   0.3353
  15.700   0.8727   0.19295   0.19123  -0.0877  0.0093  1.0000  -2.5938   0.0000   0.0000   0.0000   0.3361
  15.800   0.8743   0.19514   0.19342  -0.0886  0.0093  1.0000  -2.5779   0.0000   0.0000   0.0000   0.3369
  15.900   0.8759   0.19733   0.19561  -0.0895  0.0093  1.0000  -2.5626   0.0000   0.0000   0.0000   0.3377
  16.000   0.8775   0.19953   0.19780  -0.0904  0.0093  1.0000  -2.5479   0.0000   0.0000   0.0000   0.3384
  16.100   0.8791   0.20172   0.19999  -0.0913  0.0093  1.0000  -2.5337   0.0000   0.0000   0.0000   0.3392
  16.200   0.8808   0.20391   0.20219  -0.0922  0.0093  1.0000  -2.5199   0.0000   0.0000   0.0000   0.3399
  16.300   0.8825   0.20611   0.20438  -0.0931  0.0093  1.0000  -2.5064   0.0000   0.0000   0.0000   0.3406
  16.400   0.8842   0.20831   0.20658  -0.0940  0.0093  1.0000  -2.4933   0.0000   0.0000   0.0000   0.3413
  16.500   0.8860   0.21051   0.20879  -0.0949  0.0093  1.0000  -2.4803   0.0000   0.0000   0.0000   0.3420
  16.600   0.8877   0.21272   0.21100  -0.0958  0.0093  1.0000  -2.4676   0.0000   0.0000   0.0000   0.3426
  16.700   0.8895   0.21493   0.21321  -0.0967  0.0093  1.0000  -2.4550   0.0000   0.0000   0.0000   0.3433
  16.800   0.8913   0.21715   0.21543  -0.0975  0.0093  1.0000  -2.4424   0.0000   0.0000   0.0000   0.3439
  16.900   0.8931   0.21937   0.21765  -0.0984  0.0093  1.0000  -2.4299   0.0000   0.0000   0.0000   0.3446
  17.000   0.8949   0.22160   0.21988  -0.0993  0.0093  1.0000  -2.4174   0.0000   0.0000   0.0000   0.3452
  17.100   0.8967   0.22382   0.22210  -0.1001  0.0093  1.0000  -2.4049   0.0000   0.0000   0.0000   0.3458
  17.200   0.8985   0.22605   0.22433  -0.1010  0.0093  1.0000  -2.3925   0.0000   0.0000   0.0000   0.3465
  17.300   0.9003   0.22826   0.22655  -0.1019  0.0093  1.0000  -2.3803   0.0000   0.0000   0.0000   0.3471
  17.400   0.9022   0.23047   0.22875  -0.1028  0.0092  1.0000  -2.3686   0.0000   0.0000   0.0000   0.3477
  17.500   0.9041   0.23266   0.23094  -0.1036  0.0092  1.0000  -2.3575   0.0000   0.0000   0.0000   0.3484
  17.600   0.9059   0.23483   0.23311  -0.1045  0.0092  1.0000  -2.3472   0.0000   0.0000   0.0000   0.3490
  17.700   0.9078   0.23699   0.23528  -0.1054  0.0092  1.0000  -2.3372   0.0000   0.0000   0.0000   0.3496
  17.800   0.9097   0.23917   0.23745  -0.1063  0.0092  1.0000  -2.3272   0.0000   0.0000   0.0000   0.3502
  17.900   0.9116   0.24137   0.23966  -0.1071  0.0092  1.0000  -2.3155   0.0000   0.0000   0.0000   0.3507
  18.000   0.9133   0.24364   0.24193  -0.1079  0.0091  1.0000  -2.3012   0.0000   0.0000   0.0000   0.3513
  18.100   0.9151   0.24592   0.24421  -0.1088  0.0091  1.0000  -2.2862   0.0000   0.0000   0.0000   0.3518
  18.200   0.9168   0.24820   0.24649  -0.1096  0.0091  1.0000  -2.2708   0.0000   0.0000   0.0000   0.3524
  18.300   0.9185   0.25050   0.24879  -0.1104  0.0091  1.0000  -2.2550   0.0000   0.0000   0.0000   0.3530
  18.400   0.9201   0.25280   0.25109  -0.1112  0.0091  1.0000  -2.2387   0.0000   0.0000   0.0000   0.3535
  18.500   0.9218   0.25511   0.25341  -0.1120  0.0091  1.0000  -2.2220   0.0000   0.0000   0.0000   0.3540
  18.600   0.9234   0.25743   0.25573  -0.1129  0.0091  1.0000  -2.2050   0.0000   0.0000   0.0000   0.3546
  18.700   0.9250   0.25975   0.25805  -0.1137  0.0091  1.0000  -2.1877   0.0000   0.0000   0.0000   0.3551
  18.800   0.9265   0.26208   0.26039  -0.1145  0.0091  1.0000  -2.1703   0.0000   0.0000   0.0000   0.3557
  18.900   0.9280   0.26442   0.26272  -0.1152  0.0091  1.0000  -2.1528   0.0000   0.0000   0.0000   0.3562
  19.000   0.9295   0.26676   0.26507  -0.1160  0.0091  1.0000  -2.1352   0.0000   0.0000   0.0000   0.3567
  19.100   0.9309   0.26911   0.26741  -0.1168  0.0091  1.0000  -2.1178   0.0000   0.0000   0.0000   0.3572
  19.200   0.9323   0.27146   0.26976  -0.1176  0.0090  1.0000  -2.1004   0.0000   0.0000   0.0000   0.3577
  19.300   0.9337   0.27380   0.27211  -0.1183  0.0090  1.0000  -2.0832   0.0000   0.0000   0.0000   0.3583
  19.400   0.9350   0.27616   0.27447  -0.1191  0.0090  1.0000  -2.0662   0.0000   0.0000   0.0000   0.3588
  19.500   0.9362   0.27851   0.27682  -0.1199  0.0090  1.0000  -2.0493   0.0000   0.0000   0.0000   0.3593
  19.600   0.9374   0.28085   0.27917  -0.1206  0.0090  1.0000  -2.0326   0.0000   0.0000   0.0000   0.3598
  19.700   0.9385   0.28320   0.28152  -0.1214  0.0090  1.0000  -2.0162   0.0000   0.0000   0.0000   0.3603
  19.800   0.9396   0.28554   0.28386  -0.1221  0.0090  1.0000  -2.0000   0.0000   0.0000   0.0000   0.3608
  19.900   0.9405   0.28788   0.28620  -0.1228  0.0090  1.0000  -1.9840   0.0000   0.0000   0.0000   0.3613
  20.000   0.9415   0.29021   0.28854  -0.1235  0.0090  1.0000  -1.9683   0.0000   0.0000   0.0000   0.3618
  20.100   0.9423   0.29253   0.29086  -0.1242  0.0090  1.0000  -1.9527   0.0000   0.0000   0.0000   0.3623
  20.200   0.9430   0.29485   0.29318  -0.1249  0.0090  1.0000  -1.9374   0.0000   0.0000   0.0000   0.3628
  20.300   0.9437   0.29714   0.29548  -0.1256  0.0090  1.0000  -1.9222   0.0000   0.0000   0.0000   0.3633
  20.400   0.9442   0.29943   0.29777  -0.1263  0.0089  1.0000  -1.9072   0.0000   0.0000   0.0000   0.3639
  20.500   0.9447   0.30170   0.30004  -0.1270  0.0089  1.0000  -1.8923   0.0000   0.0000   0.0000   0.3644
  20.600   0.9449   0.30394   0.30229  -0.1276  0.0089  1.0000  -1.8774   0.0000   0.0000   0.0000   0.3649
  20.700   0.9451   0.30616   0.30451  -0.1282  0.0089  1.0000  -1.8621   0.0000   0.0000   0.0000   0.3654
  20.800   0.9450   0.30835   0.30671  -0.1288  0.0089  1.0000  -1.8467   0.0000   0.0000   0.0000   0.3660
  20.900   0.9448   0.31050   0.30886  -0.1294  0.0089  1.0000  -1.8312   0.0000   0.0000   0.0000   0.3665
  21.000   0.9443   0.31260   0.31096  -0.1300  0.0089  1.0000  -1.8154   0.0000   0.0000   0.0000   0.3671
  21.100   0.9435   0.31463   0.31301  -0.1305  0.0089  1.0000  -1.7993   0.0000   0.0000   0.0000   0.3676
  21.200   0.9424   0.31659   0.31497  -0.1310  0.0088  1.0000  -1.7827   0.0000   0.0000   0.0000   0.3682
  21.300   0.9408   0.31844   0.31683  -0.1315  0.0088  1.0000  -1.7652   0.0000   0.0000   0.0000   0.3688
  21.400   0.9386   0.32015   0.31854  -0.1318  0.0088  1.0000  -1.7465   0.0000   0.0000   0.0000   0.3694
  21.500   0.8862   0.30969   0.30818  -0.1269  0.0088  1.0000  -1.5961   0.0000   0.0000   0.0000   0.3729
  21.600   0.8800   0.30932   0.30782  -0.1267  0.0088  1.0000  -1.5678   0.0000   0.0000   0.0000   0.3737
  21.700   0.8751   0.30925   0.30776  -0.1267  0.0088  1.0000  -1.5437   0.0000   0.0000   0.0000   0.3745
  21.800   0.8711   0.30935   0.30787  -0.1268  0.0088  1.0000  -1.5212   0.0000   0.0000   0.0000   0.3752
  21.900   0.8677   0.30955   0.30808  -0.1269  0.0088  1.0000  -1.5003   0.0000   0.0000   0.0000   0.3758
  22.000   0.8646   0.30982   0.30836  -0.1271  0.0087  1.0000  -1.4808   0.0000   0.0000   0.0000   0.3765
  22.100   0.8620   0.31014   0.30869  -0.1273  0.0087  1.0000  -1.4625   0.0000   0.0000   0.0000   0.3771
  22.200   0.8596   0.31051   0.30906  -0.1275  0.0087  1.0000  -1.4453   0.0000   0.0000   0.0000   0.3777
  22.300   0.8576   0.31092   0.30948  -0.1278  0.0086  1.0000  -1.4292   0.0000   0.0000   0.0000   0.3783
  22.400   0.8557   0.31136   0.30993  -0.1280  0.0086  1.0000  -1.4140   0.0000   0.0000   0.0000   0.3788
  22.500   0.8541   0.31184   0.31041  -0.1283  0.0085  1.0000  -1.3997   0.0000   0.0000   0.0000   0.3793
  22.600   0.8528   0.31235   0.31093  -0.1287  0.0085  1.0000  -1.3862   0.0000   0.0000   0.0000   0.3799
  22.700   0.8517   0.31289   0.31147  -0.1290  0.0084  1.0000  -1.3734   0.0000   0.0000   0.0000   0.3804
  22.800   0.8509   0.31347   0.31206  -0.1294  0.0083  1.0000  -1.3611   0.0000   0.0000   0.0000   0.3809
  22.900   0.8503   0.31409   0.31269  -0.1298  0.0081  1.0000  -1.3490   0.0000   0.0000   0.0000   0.3813
  23.000   0.8499   0.31475   0.31335  -0.1301  0.0078  1.0000  -1.3367   0.0000   0.0000   0.0000   0.3817
  23.100   0.8493   0.31540   0.31400  -0.1305  0.0075  1.0000  -1.3244   0.0000   0.0000   0.0000   0.3822
  23.200   0.8486   0.31601   0.31462  -0.1308  0.0072  1.0000  -1.3131   0.0000   0.0000   0.0000   0.3826
  23.300   0.8477   0.31660   0.31522  -0.1312  0.0070  1.0000  -1.3029   0.0000   0.0000   0.0000   0.3830
  23.400   0.8468   0.31718   0.31581  -0.1315  0.0067  1.0000  -1.2938   0.0000   0.0000   0.0000   0.3835
  23.500   0.8459   0.31775   0.31638  -0.1318  0.0065  1.0000  -1.2855   0.0000   0.0000   0.0000   0.3839
  23.600   0.8449   0.31831   0.31698  -0.1321  0.0064  1.0000  -1.2777   0.0000   0.0000   0.0000   0.3843
  23.700   0.8441   0.31888   0.31756  -0.1325  0.0062  1.0000  -1.2707   0.0000   0.0000   0.0000   0.3848
  23.800   0.8432   0.31946   0.31814  -0.1328  0.0061  1.0000  -1.2641   0.0000   0.0000   0.0000   0.3852
  23.900   0.8425   0.32003   0.31872  -0.1331  0.0059  1.0000  -1.2580   0.0000   0.0000   0.0000   0.3856
  24.000   0.8417   0.32061   0.31930  -0.1335  0.0057  1.0000  -1.2524   0.0000   0.0000   0.0000   0.3860
  24.100   0.8410   0.32119   0.31989  -0.1338  0.0056  1.0000  -1.2473   0.0000   0.0000   0.0000   0.3864
  24.200   0.8404   0.32177   0.32047  -0.1341  0.0054  1.0000  -1.2427   0.0000   0.0000   0.0000   0.3868
  24.300   0.8397   0.32235   0.32106  -0.1345  0.0053  1.0000  -1.2385   0.0000   0.0000   0.0000   0.3872
  24.400   0.8391   0.32294   0.32165  -0.1348  0.0052  1.0000  -1.2347   0.0000   0.0000   0.0000   0.3876
  24.500   0.8386   0.32352   0.32224  -0.1352  0.0050  1.0000  -1.2315   0.0000   0.0000   0.0000   0.3880
  24.600   0.8381   0.32411   0.32284  -0.1355  0.0049  1.0000  -1.2286   0.0000   0.0000   0.0000   0.3884
  24.700   0.8376   0.32470   0.32343  -0.1359  0.0048  1.0000  -1.2262   0.0000   0.0000   0.0000   0.3888
  24.800   0.8371   0.32529   0.32402  -0.1363  0.0047  1.0000  -1.2242   0.0000   0.0000   0.0000   0.3891
  24.900   0.8367   0.32588   0.32462  -0.1366  0.0046  1.0000  -1.2226   0.0000   0.0000   0.0000   0.3895
  25.000   0.8363   0.32647   0.32521  -0.1370  0.0045  1.0000  -1.2215   0.0000   0.0000   0.0000   0.3899
  25.100   0.8359   0.32706   0.32581  -0.1374  0.0044  1.0000  -1.2209   0.0000   0.0000   0.0000   0.3902
  25.200   0.8355   0.32765   0.32640  -0.1377  0.0043  1.0000  -1.2207   0.0000   0.0000   0.0000   0.3906
  25.300   0.8352   0.32824   0.32700  -0.1381  0.0042  1.0000  -1.2209   0.0000   0.0000   0.0000   0.3910
  25.400   0.8349   0.32883   0.32759  -0.1385  0.0041  1.0000  -1.2216   0.0000   0.0000   0.0000   0.3913
  25.500   0.8346   0.32942   0.32818  -0.1388  0.0040  1.0000  -1.2227   0.0000   0.0000   0.0000   0.3917
  25.600   0.8343   0.33000   0.32878  -0.1392  0.0040  1.0000  -1.2243   0.0000   0.0000   0.0000   0.3920
  25.700   0.8340   0.33059   0.32937  -0.1396  0.0039  1.0000  -1.2264   0.0000   0.0000   0.0000   0.3923
  25.800   0.8338   0.33117   0.32996  -0.1400  0.0038  1.0000  -1.2289   0.0000   0.0000   0.0000   0.3927


