xflr5 v6.61

 Calculated polar for: RG-15 8.9%

 1 1 Reynolds number fixed          Mach number fixed         

 xtrf =   1.000 (top)        1.000 (bottom)
 Mach =   0.000     Re =     0.450 e 6     Ncrit =   9.000

  alpha     CL        CD       CDp       Cm    Top Xtr Bot Xtr   Cpmin    Chinge    XCp    
 ------- -------- --------- --------- -------- ------- ------- -------- --------- ---------
  -9.800  -0.4557   0.10162   0.09897  -0.0211  1.0000  0.0123  -1.9788   0.0000   0.0000   0.0000   0.1973
  -9.700  -0.4554   0.09999   0.09734  -0.0216  1.0000  0.0123  -1.9989   0.0000   0.0000   0.0000   0.1962
  -9.600  -0.4552   0.09833   0.09569  -0.0222  1.0000  0.0123  -2.0210   0.0000   0.0000   0.0000   0.1950
  -9.500  -0.4554   0.09663   0.09400  -0.0227  1.0000  0.0123  -2.0461   0.0000   0.0000   0.0000   0.1939
  -9.400  -0.4561   0.09486   0.09224  -0.0233  1.0000  0.0122  -2.0774   0.0000   0.0000   0.0000   0.1929
  -9.300  -0.4584   0.09282   0.09020  -0.0239  1.0000  0.0121  -2.1313   0.0000   0.0000   0.0000   0.1919
  -9.100  -0.4660   0.08836   0.08586  -0.0253  1.0000  0.0116  -2.2794   0.0000   0.0000   0.0000   0.1898
  -9.000  -0.4691   0.08627   0.08378  -0.0262  1.0000  0.0115  -2.3424   0.0000   0.0000   0.0000   0.1885
  -8.900  -0.4718   0.08426   0.08178  -0.0270  1.0000  0.0113  -2.3982   0.0000   0.0000   0.0000   0.1871
  -8.800  -0.4744   0.08229   0.07983  -0.0279  1.0000  0.0112  -2.4505   0.0000   0.0000   0.0000   0.1858
  -8.700  -0.4772   0.08034   0.07789  -0.0287  1.0000  0.0111  -2.5014   0.0000   0.0000   0.0000   0.1844
  -8.600  -0.4802   0.07841   0.07598  -0.0296  1.0000  0.0110  -2.5517   0.0000   0.0000   0.0000   0.1830
  -8.500  -0.4834   0.07648   0.07406  -0.0305  1.0000  0.0109  -2.6022   0.0000   0.0000   0.0000   0.1816
  -8.400  -0.4871   0.07453   0.07213  -0.0315  1.0000  0.0108  -2.6536   0.0000   0.0000   0.0000   0.1802
  -8.300  -0.4912   0.07257   0.07020  -0.0325  1.0000  0.0108  -2.7058   0.0000   0.0000   0.0000   0.1789
  -8.200  -0.4962   0.07064   0.06828  -0.0335  1.0000  0.0107  -2.7586   0.0000   0.0000   0.0000   0.1776
  -8.100  -0.5025   0.06873   0.06640  -0.0346  1.0000  0.0107  -2.8122   0.0000   0.0000   0.0000   0.1764
  -8.000  -0.5096   0.06659   0.06429  -0.0365  1.0000  0.0107  -2.8713   0.0000   0.0000   0.0000   0.1739
  -7.900  -0.5141   0.06401   0.06168  -0.0387  1.0000  0.0107  -2.9419   0.0000   0.0000   0.0000   0.1702
  -7.800  -0.5185   0.06168   0.05933  -0.0400  1.0000  0.0106  -3.0094   0.0000   0.0000   0.0000   0.1686
  -7.700  -0.5227   0.05941   0.05703  -0.0408  1.0000  0.0106  -3.0762   0.0000   0.0000   0.0000   0.1676
  -7.600  -0.5266   0.05720   0.05478  -0.0414  1.0000  0.0105  -3.1423   0.0000   0.0000   0.0000   0.1672
  -7.500  -0.5302   0.05501   0.05255  -0.0417  1.0000  0.0104  -3.2084   0.0000   0.0000   0.0000   0.1671
  -7.400  -0.5335   0.05287   0.05035  -0.0419  1.0000  0.0103  -3.2737   0.0000   0.0000   0.0000   0.1674
  -7.300  -0.5364   0.05075   0.04816  -0.0418  1.0000  0.0102  -3.3386   0.0000   0.0000   0.0000   0.1680
  -7.200  -0.5388   0.04864   0.04598  -0.0416  1.0000  0.0101  -3.4039   0.0000   0.0000   0.0000   0.1687
  -7.100  -0.5408   0.04655   0.04382  -0.0413  1.0000  0.0100  -3.4686   0.0000   0.0000   0.0000   0.1696
  -7.000  -0.5423   0.04448   0.04165  -0.0409  1.0000  0.0099  -3.5338   0.0000   0.0000   0.0000   0.1706
  -6.900  -0.5432   0.04241   0.03949  -0.0404  1.0000  0.0098  -3.5988   0.0000   0.0000   0.0000   0.1716
  -6.800  -0.5435   0.04037   0.03733  -0.0398  1.0000  0.0096  -3.6632   0.0000   0.0000   0.0000   0.1727
  -6.700  -0.5432   0.03834   0.03517  -0.0393  1.0000  0.0095  -3.7283   0.0000   0.0000   0.0000   0.1738
  -6.600  -0.5422   0.03635   0.03305  -0.0386  1.0000  0.0094  -3.7900   0.0000   0.0000   0.0000   0.1748
  -6.500  -0.5404   0.03439   0.03094  -0.0380  1.0000  0.0092  -3.8510   0.0000   0.0000   0.0000   0.1757
  -6.400  -0.5379   0.03248   0.02888  -0.0374  1.0000  0.0091  -3.9089   0.0000   0.0000   0.0000   0.1766
  -6.300  -0.5345   0.03065   0.02689  -0.0368  1.0000  0.0090  -3.9601   0.0000   0.0000   0.0000   0.1773
  -6.200  -0.5304   0.02891   0.02497  -0.0362  1.0000  0.0088  -4.0060   0.0000   0.0000   0.0000   0.1779
  -6.100  -0.5254   0.02724   0.02313  -0.0356  1.0000  0.0087  -4.0453   0.0000   0.0000   0.0000   0.1783
  -6.000  -0.5171   0.02548   0.02116  -0.0356  0.9997  0.0086  -4.0783   0.0000   0.0000   0.0000   0.1771
  -5.900  -0.5045   0.02364   0.01909  -0.0364  0.9988  0.0084  -4.0992   0.0000   0.0000   0.0000   0.1738
  -5.800  -0.4916   0.02203   0.01726  -0.0371  0.9979  0.0083  -4.1038   0.0000   0.0000   0.0000   0.1705
  -5.700  -0.4784   0.02061   0.01563  -0.0378  0.9971  0.0082  -4.0943   0.0000   0.0000   0.0000   0.1670
  -5.600  -0.4651   0.01933   0.01407  -0.0384  0.9964  0.0081  -4.0806   0.0000   0.0000   0.0000   0.1635
  -5.500  -0.4520   0.01829   0.01287  -0.0389  0.9955  0.0081  -4.0432   0.0000   0.0000   0.0000   0.1599
  -5.400  -0.4388   0.01736   0.01181  -0.0394  0.9945  0.0081  -3.9958   0.0000   0.0000   0.0000   0.1562
  -5.300  -0.4255   0.01655   0.01087  -0.0399  0.9936  0.0081  -3.9392   0.0000   0.0000   0.0000   0.1523
  -5.200  -0.4123   0.01584   0.01005  -0.0403  0.9926  0.0081  -3.8745   0.0000   0.0000   0.0000   0.1481
  -5.100  -0.3990   0.01521   0.00933  -0.0408  0.9918  0.0082  -3.8022   0.0000   0.0000   0.0000   0.1437
  -5.000  -0.3854   0.01465   0.00868  -0.0414  0.9909  0.0083  -3.7234   0.0000   0.0000   0.0000   0.1387
  -4.900  -0.3715   0.01414   0.00810  -0.0420  0.9900  0.0084  -3.6385   0.0000   0.0000   0.0000   0.1330
  -4.800  -0.3572   0.01368   0.00757  -0.0426  0.9892  0.0085  -3.5483   0.0000   0.0000   0.0000   0.1266
  -4.700  -0.3426   0.01326   0.00709  -0.0434  0.9884  0.0087  -3.4535   0.0000   0.0000   0.0000   0.1192
  -4.600  -0.3276   0.01289   0.00667  -0.0442  0.9876  0.0089  -3.3545   0.0000   0.0000   0.0000   0.1109
  -4.500  -0.3140   0.01255   0.00628  -0.0448  0.9863  0.0091  -3.2584   0.0000   0.0000   0.0000   0.1033
  -4.400  -0.3011   0.01225   0.00594  -0.0452  0.9845  0.0094  -3.1632   0.0000   0.0000   0.0000   0.0960
  -4.300  -0.2877   0.01198   0.00563  -0.0457  0.9828  0.0097  -3.0645   0.0000   0.0000   0.0000   0.0872
  -4.200  -0.2740   0.01175   0.00536  -0.0462  0.9812  0.0100  -2.9633   0.0000   0.0000   0.0000   0.0772
  -4.100  -0.2600   0.01154   0.00513  -0.0469  0.9797  0.0103  -2.8595   0.0000   0.0000   0.0000   0.0656
  -4.000  -0.2456   0.01136   0.00492  -0.0476  0.9784  0.0107  -2.7527   0.0000   0.0000   0.0000   0.0520
  -3.900  -0.2307   0.01120   0.00474  -0.0484  0.9771  0.0111  -2.6426   0.0000   0.0000   0.0000   0.0359
  -3.800  -0.2154   0.01106   0.00460  -0.0493  0.9759  0.0115  -2.5284   0.0000   0.0000   0.0000   0.0168
  -3.700  -0.1999   0.01095   0.00448  -0.0503  0.9748  0.0119  -2.4090   0.0000   0.0000   0.0000  -0.0059
  -3.600  -0.1842   0.01088   0.00442  -0.0513  0.9739  0.0122  -2.2833   0.0000   0.0000   0.0000  -0.0330
  -3.500  -0.1684   0.01083   0.00439  -0.0523  0.9730  0.0125  -2.1529   0.0000   0.0000   0.0000  -0.0654
  -3.400  -0.1537   0.01050   0.00397  -0.0530  0.9721  0.0136  -2.1167   0.0000   0.0000   0.0000  -0.1001
  -3.300  -0.1443   0.01019   0.00358  -0.0525  0.9687  0.0179  -2.1343   0.0000   0.0000   0.0000  -0.1188
  -3.200  -0.1319   0.01001   0.00345  -0.0527  0.9662  0.0231  -2.0658   0.0000   0.0000   0.0000  -0.1551
  -3.100  -0.1185   0.00986   0.00333  -0.0532  0.9641  0.0311  -1.9824   0.0000   0.0000   0.0000  -0.2052
  -3.000  -0.1044   0.00968   0.00321  -0.0539  0.9622  0.0435  -1.8938   0.0000   0.0000   0.0000  -0.2728
  -2.900  -0.0898   0.00951   0.00311  -0.0547  0.9604  0.0567  -1.8036   0.0000   0.0000   0.0000  -0.3664
  -2.800  -0.0747   0.00936   0.00300  -0.0556  0.9589  0.0686  -1.7126   0.0000   0.0000   0.0000  -0.5020
  -2.700  -0.0604   0.00885   0.00280  -0.0566  0.9575  0.1465  -1.6011   0.0000   0.0000   0.0000  -0.6963
  -2.600  -0.0455   0.00856   0.00270  -0.0576  0.9563  0.1922  -1.5155   0.0000   0.0000   0.0000  -1.0281
  -2.500  -0.0307   0.00824   0.00261  -0.0586  0.9552  0.2495  -1.4315   0.0000   0.0000   0.0000  -1.6768
  -2.400  -0.0163   0.00781   0.00252  -0.0597  0.9542  0.3331  -1.3501   0.0000   0.0000   0.0000  -3.4448
  -2.300  -0.0023   0.00733   0.00244  -0.0606  0.9530  0.4365  -1.2712   0.0000   0.0000   0.0000  -25.9593
  -2.200   0.0061   0.00694   0.00241  -0.0601  0.9491  0.5308  -1.2101   0.0000   0.0000   0.0000  10.1974
  -2.100   0.0155   0.00670   0.00243  -0.0597  0.9451  0.6085  -1.1460   0.0000   0.0000   0.0000   4.1191
  -2.000   0.0272   0.00655   0.00243  -0.0597  0.9417  0.6521  -1.0761   0.0000   0.0000   0.0000   2.4591
  -1.900   0.0400   0.00646   0.00240  -0.0599  0.9387  0.6761  -1.0041   0.0000   0.0000   0.0000   1.7558
  -1.800   0.0530   0.00638   0.00238  -0.0602  0.9359  0.6986  -0.9327   0.0000   0.0000   0.0000   1.3905
  -1.700   0.0672   0.00635   0.00234  -0.0607  0.9335  0.7126  -0.8595   0.0000   0.0000   0.0000   1.1574
  -1.600   0.0810   0.00626   0.00231  -0.0611  0.9312  0.7277  -0.7886   0.0000   0.0000   0.0000   1.0072
  -1.500   0.0956   0.00620   0.00227  -0.0617  0.9288  0.7375  -0.7172   0.0000   0.0000   0.0000   0.8978
  -1.400   0.1067   0.00617   0.00225  -0.0616  0.9244  0.7463  -0.6567   0.0000   0.0000   0.0000   0.8288
  -1.300   0.1168   0.00615   0.00222  -0.0612  0.9188  0.7542  -0.6001   0.0000   0.0000   0.0000   0.7755
  -1.200   0.1288   0.00614   0.00219  -0.0613  0.9136  0.7599  -0.5398   0.0000   0.0000   0.0000   0.7269
  -1.100   0.1413   0.00608   0.00214  -0.0614  0.9089  0.7683  -0.4794   0.0000   0.0000   0.0000   0.6856
  -1.000   0.1540   0.00603   0.00211  -0.0616  0.9046  0.7763  -0.4198   0.0000   0.0000   0.0000   0.6506
  -0.900   0.1670   0.00600   0.00209  -0.0619  0.9006  0.7840  -0.3905   0.0000   0.0000   0.0000   0.6208
  -0.800   0.1785   0.00599   0.00208  -0.0618  0.8959  0.7909  -0.3994   0.0000   0.0000   0.0000   0.5965
  -0.700   0.1885   0.00598   0.00207  -0.0615  0.8898  0.7968  -0.4081   0.0000   0.0000   0.0000   0.5762
  -0.600   0.1996   0.00598   0.00205  -0.0614  0.8833  0.8018  -0.4179   0.0000   0.0000   0.0000   0.5573
  -0.500   0.2114   0.00598   0.00202  -0.0614  0.8767  0.8049  -0.4282   0.0000   0.0000   0.0000   0.5402
  -0.400   0.2239   0.00597   0.00198  -0.0616  0.8702  0.8055  -0.4389   0.0000   0.0000   0.0000   0.5248
  -0.300   0.2364   0.00598   0.00194  -0.0619  0.8638  0.8055  -0.4495   0.0000   0.0000   0.0000   0.5111
  -0.200   0.2459   0.00594   0.00195  -0.0614  0.8577  0.8136  -0.4586   0.0000   0.0000   0.0000   0.4991
  -0.100   0.2542   0.00592   0.00200  -0.0605  0.8510  0.8311  -0.4672   0.0000   0.0000   0.0000   0.4873
   0.000   0.2648   0.00593   0.00199  -0.0603  0.8440  0.8372  -0.4771   0.0000   0.0000   0.0000   0.4768
   0.100   0.2758   0.00595   0.00191  -0.0601  0.8366  0.8420  -0.4885   0.0000   0.0000   0.0000   0.4670
   0.200   0.2870   0.00598   0.00189  -0.0600  0.8287  0.8464  -0.5001   0.0000   0.0000   0.0000   0.4581
   0.300   0.2973   0.00597   0.00188  -0.0597  0.8219  0.8520  -0.5112   0.0000   0.0000   0.0000   0.4499
   0.400   0.3069   0.00596   0.00188  -0.0593  0.8143  0.8583  -0.5219   0.0000   0.0000   0.0000   0.4420
   0.500   0.3167   0.00596   0.00188  -0.0589  0.8060  0.8645  -0.5328   0.0000   0.0000   0.0000   0.4347
   0.600   0.3267   0.00597   0.00187  -0.0585  0.7977  0.8707  -0.5438   0.0000   0.0000   0.0000   0.4277
   0.700   0.3369   0.00600   0.00186  -0.0581  0.7897  0.8769  -0.5564   0.0000   0.0000   0.0000   0.4213
   0.800   0.3472   0.00602   0.00188  -0.0579  0.7831  0.8829  -0.5695   0.0000   0.0000   0.0000   0.4154
   0.900   0.3571   0.00602   0.00188  -0.0576  0.7766  0.8890  -0.5824   0.0000   0.0000   0.0000   0.4098
   1.000   0.3664   0.00601   0.00188  -0.0570  0.7684  0.8958  -0.5948   0.0000   0.0000   0.0000   0.4042
   1.100   0.3757   0.00602   0.00187  -0.0565  0.7592  0.9029  -0.6074   0.0000   0.0000   0.0000   0.3988
   1.200   0.3850   0.00606   0.00186  -0.0560  0.7493  0.9102  -0.6200   0.0000   0.0000   0.0000   0.3937
   1.300   0.3945   0.00610   0.00186  -0.0555  0.7400  0.9174  -0.6349   0.0000   0.0000   0.0000   0.3890
   1.400   0.4040   0.00609   0.00186  -0.0551  0.7330  0.9249  -0.6501   0.0000   0.0000   0.0000   0.3845
   1.500   0.4136   0.00609   0.00186  -0.0546  0.7250  0.9332  -0.6654   0.0000   0.0000   0.0000   0.3802
   1.600   0.4235   0.00611   0.00186  -0.0542  0.7159  0.9421  -0.6810   0.0000   0.0000   0.0000   0.3761
   1.700   0.4340   0.00615   0.00185  -0.0540  0.7055  0.9504  -0.6984   0.0000   0.0000   0.0000   0.3724
   1.800   0.4464   0.00620   0.00185  -0.0542  0.6944  0.9579  -0.7195   0.0000   0.0000   0.0000   0.3694
   1.900   0.4596   0.00621   0.00185  -0.0546  0.6862  0.9656  -0.7414   0.0000   0.0000   0.0000   0.3667
   2.000   0.4733   0.00624   0.00185  -0.0552  0.6757  0.9721  -0.7639   0.0000   0.0000   0.0000   0.3644
   2.100   0.4881   0.00629   0.00185  -0.0560  0.6643  0.9777  -0.7877   0.0000   0.0000   0.0000   0.3625
   2.200   0.5022   0.00637   0.00186  -0.0566  0.6516  0.9841  -0.8108   0.0000   0.0000   0.0000   0.3605
   2.300   0.5174   0.00640   0.00187  -0.0576  0.6416  0.9898  -0.8351   0.0000   0.0000   0.0000   0.3589
   2.400   0.5327   0.00644   0.00188  -0.0585  0.6301  0.9962  -0.8627   0.0000   0.0000   0.0000   0.3575
   2.500   0.5447   0.00651   0.00189  -0.0588  0.6175  1.0000  -0.8894   0.0000   0.0000   0.0000   0.3555
   2.600   0.5534   0.00660   0.00191  -0.0584  0.6054  1.0000  -0.9123   0.0000   0.0000   0.0000   0.3530
   2.700   0.5630   0.00668   0.00194  -0.0582  0.5954  1.0000  -0.9365   0.0000   0.0000   0.0000   0.3508
   2.800   0.5733   0.00672   0.00198  -0.0581  0.5869  1.0000  -0.9681   0.0000   0.0000   0.0000   0.3486
   2.900   0.5834   0.00679   0.00200  -0.0579  0.5753  1.0000  -0.9996   0.0000   0.0000   0.0000   0.3465
   3.000   0.5929   0.00690   0.00203  -0.0576  0.5616  1.0000  -1.0306   0.0000   0.0000   0.0000   0.3444
   3.100   0.6022   0.00702   0.00208  -0.0573  0.5469  1.0000  -1.0615   0.0000   0.0000   0.0000   0.3423
   3.200   0.6128   0.00707   0.00212  -0.0572  0.5381  1.0000  -1.0946   0.0000   0.0000   0.0000   0.3405
   3.300   0.6230   0.00715   0.00216  -0.0571  0.5267  1.0000  -1.1274   0.0000   0.0000   0.0000   0.3386
   3.400   0.6327   0.00726   0.00220  -0.0568  0.5129  1.0000  -1.1596   0.0000   0.0000   0.0000   0.3368
   3.500   0.6420   0.00740   0.00226  -0.0565  0.4968  1.0000  -1.1914   0.0000   0.0000   0.0000   0.3349
   3.600   0.6526   0.00746   0.00231  -0.0565  0.4873  1.0000  -1.2254   0.0000   0.0000   0.0000   0.3333
   3.700   0.6627   0.00755   0.00236  -0.0563  0.4747  1.0000  -1.2590   0.0000   0.0000   0.0000   0.3316
   3.800   0.6724   0.00768   0.00242  -0.0561  0.4613  1.0000  -1.2921   0.0000   0.0000   0.0000   0.3300
   3.900   0.6820   0.00781   0.00249  -0.0558  0.4466  1.0000  -1.3332   0.0000   0.0000   0.0000   0.3284
   4.000   0.6926   0.00788   0.00255  -0.0557  0.4381  1.0000  -1.3802   0.0000   0.0000   0.0000   0.3269
   4.100   0.7028   0.00798   0.00277  -0.0556  0.4254  1.0000  -1.4536   0.0000   0.0000   0.0000   0.3254
   4.200   0.7121   0.00815   0.00285  -0.0553  0.4083  1.0000  -1.5176   0.0000   0.0000   0.0000   0.3239
   4.300   0.7219   0.00828   0.00294  -0.0551  0.3931  1.0000  -1.5849   0.0000   0.0000   0.0000   0.3225
   4.400   0.7319   0.00839   0.00301  -0.0549  0.3791  1.0000  -1.6547   0.0000   0.0000   0.0000   0.3212
   4.500   0.7411   0.00859   0.00309  -0.0546  0.3597  1.0000  -1.7224   0.0000   0.0000   0.0000   0.3197
   4.600   0.7507   0.00874   0.00319  -0.0544  0.3415  1.0000  -1.7928   0.0000   0.0000   0.0000   0.3184
   4.700   0.7599   0.00894   0.00327  -0.0541  0.3204  1.0000  -1.8630   0.0000   0.0000   0.0000   0.3171
   4.800   0.7690   0.00915   0.00338  -0.0539  0.2982  1.0000  -1.9336   0.0000   0.0000   0.0000   0.3158
   4.900   0.7782   0.00936   0.00348  -0.0536  0.2771  1.0000  -2.0057   0.0000   0.0000   0.0000   0.3146
   5.000   0.7871   0.00961   0.00360  -0.0533  0.2527  1.0000  -2.0773   0.0000   0.0000   0.0000   0.3134
   5.100   0.7958   0.00988   0.00372  -0.0530  0.2280  1.0000  -2.1493   0.0000   0.0000   0.0000   0.3122
   5.200   0.8049   0.01012   0.00385  -0.0528  0.2049  1.0000  -2.2235   0.0000   0.0000   0.0000   0.3110
   5.400   0.8225   0.01067   0.00414  -0.0523  0.1602  1.0000  -2.3726   0.0000   0.0000   0.0000   0.3088
   5.500   0.8313   0.01096   0.00430  -0.0520  0.1402  1.0000  -2.4548   0.0000   0.0000   0.0000   0.3077
   5.600   0.8410   0.01113   0.00442  -0.0518  0.1296  1.0000  -2.5780   0.0000   0.0000   0.0000   0.3067
   5.700   0.8504   0.01134   0.00457  -0.0516  0.1185  1.0000  -2.7008   0.0000   0.0000   0.0000   0.3057
   5.800   0.8600   0.01153   0.00471  -0.0514  0.1082  1.0000  -2.8266   0.0000   0.0000   0.0000   0.3047
   5.900   0.8700   0.01168   0.00484  -0.0513  0.1016  1.0000  -2.9566   0.0000   0.0000   0.0000   0.3038
   6.000   0.8795   0.01188   0.00499  -0.0511  0.0933  1.0000  -3.0859   0.0000   0.0000   0.0000   0.3028
   6.100   0.8888   0.01210   0.00515  -0.0509  0.0837  1.0000  -3.2153   0.0000   0.0000   0.0000   0.3019
   6.200   0.8988   0.01225   0.00529  -0.0508  0.0781  1.0000  -3.3504   0.0000   0.0000   0.0000   0.3010
   6.300   0.9085   0.01241   0.00544  -0.0506  0.0727  1.0000  -3.4863   0.0000   0.0000   0.0000   0.3001
   6.400   0.9180   0.01262   0.00560  -0.0504  0.0664  1.0000  -3.6214   0.0000   0.0000   0.0000   0.2992
   6.500   0.9273   0.01283   0.00577  -0.0502  0.0593  1.0000  -3.7570   0.0000   0.0000   0.0000   0.2983
   6.600   0.9372   0.01298   0.00592  -0.0500  0.0550  1.0000  -3.8975   0.0000   0.0000   0.0000   0.2975
   6.700   0.9468   0.01316   0.00609  -0.0499  0.0504  1.0000  -4.0380   0.0000   0.0000   0.0000   0.2966
   6.800   0.9559   0.01340   0.00628  -0.0496  0.0442  1.0000  -4.1754   0.0000   0.0000   0.0000   0.2958
   6.900   0.9650   0.01365   0.00648  -0.0494  0.0376  1.0000  -4.3122   0.0000   0.0000   0.0000   0.2949
   7.000   0.9746   0.01383   0.00665  -0.0492  0.0339  1.0000  -4.4527   0.0000   0.0000   0.0000   0.2941
   7.100   0.9837   0.01407   0.00686  -0.0489  0.0285  1.0000  -4.5882   0.0000   0.0000   0.0000   0.2933
   7.200   0.9921   0.01440   0.00712  -0.0486  0.0209  1.0000  -4.7138   0.0000   0.0000   0.0000   0.2924
   7.300   1.0011   0.01466   0.00737  -0.0483  0.0167  1.0000  -4.8390   0.0000   0.0000   0.0000   0.2915
   7.400   1.0092   0.01504   0.00769  -0.0478  0.0120  1.0000  -4.9413   0.0000   0.0000   0.0000   0.2906
   7.500   1.0173   0.01547   0.00818  -0.0472  0.0091  1.0000  -4.9887   0.0000   0.0000   0.0000   0.2895
   7.600   1.0252   0.01593   0.00890  -0.0466  0.0080  1.0000  -5.0045   0.0000   0.0000   0.0000   0.2884
   7.700   1.0336   0.01628   0.00932  -0.0461  0.0078  1.0000  -5.0939   0.0000   0.0000   0.0000   0.2875
   7.800   1.0418   0.01665   0.00977  -0.0456  0.0076  1.0000  -5.1837   0.0000   0.0000   0.0000   0.2865
   7.900   1.0497   0.01705   0.01024  -0.0451  0.0075  1.0000  -5.2725   0.0000   0.0000   0.0000   0.2856
   8.000   1.0573   0.01748   0.01075  -0.0445  0.0074  1.0000  -5.3590   0.0000   0.0000   0.0000   0.2846
   8.100   1.0646   0.01794   0.01130  -0.0439  0.0073  1.0000  -5.4430   0.0000   0.0000   0.0000   0.2836
   8.200   1.0717   0.01844   0.01188  -0.0432  0.0073  1.0000  -5.5243   0.0000   0.0000   0.0000   0.2826
   8.300   1.0784   0.01897   0.01249  -0.0425  0.0072  1.0000  -5.6027   0.0000   0.0000   0.0000   0.2816
   8.400   1.0849   0.01954   0.01314  -0.0418  0.0072  1.0000  -5.6781   0.0000   0.0000   0.0000   0.2805
   8.500   1.0912   0.02015   0.01383  -0.0410  0.0072  1.0000  -5.7506   0.0000   0.0000   0.0000   0.2795
   8.600   1.0973   0.02079   0.01456  -0.0402  0.0072  1.0000  -5.8201   0.0000   0.0000   0.0000   0.2785
   8.700   1.1033   0.02148   0.01534  -0.0394  0.0072  1.0000  -5.8864   0.0000   0.0000   0.0000   0.2774
   8.800   1.1091   0.02221   0.01616  -0.0386  0.0072  1.0000  -5.9495   0.0000   0.0000   0.0000   0.2764
   8.900   1.1147   0.02299   0.01704  -0.0378  0.0072  1.0000  -6.0089   0.0000   0.0000   0.0000   0.2754
   9.000   1.1203   0.02383   0.01798  -0.0370  0.0072  1.0000  -6.0647   0.0000   0.0000   0.0000   0.2743
   9.100   1.1256   0.02472   0.01897  -0.0361  0.0073  1.0000  -6.1370   0.0000   0.0000   0.0000   0.2733
   9.200   1.1308   0.02567   0.02003  -0.0353  0.0073  1.0000  -6.2076   0.0000   0.0000   0.0000   0.2723
   9.300   1.1357   0.02668   0.02116  -0.0344  0.0074  1.0000  -6.2735   0.0000   0.0000   0.0000   0.2713
   9.400   1.1403   0.02775   0.02235  -0.0336  0.0074  1.0000  -6.3342   0.0000   0.0000   0.0000   0.2703
   9.500   1.1444   0.02888   0.02360  -0.0327  0.0075  1.0000  -6.3893   0.0000   0.0000   0.0000   0.2693
   9.600   1.1481   0.03006   0.02492  -0.0317  0.0075  1.0000  -6.4384   0.0000   0.0000   0.0000   0.2683
   9.700   1.1511   0.03130   0.02629  -0.0307  0.0076  1.0000  -6.4813   0.0000   0.0000   0.0000   0.2673
   9.800   1.1534   0.03258   0.02770  -0.0297  0.0076  1.0000  -6.5181   0.0000   0.0000   0.0000   0.2662
   9.900   1.1550   0.03390   0.02915  -0.0286  0.0077  1.0000  -6.5487   0.0000   0.0000   0.0000   0.2651
  10.000   1.1558   0.03525   0.03064  -0.0275  0.0078  1.0000  -6.5728   0.0000   0.0000   0.0000   0.2640
  10.100   1.1557   0.03662   0.03215  -0.0263  0.0078  1.0000  -6.5906   0.0000   0.0000   0.0000   0.2629
  10.200   1.1546   0.03801   0.03367  -0.0251  0.0079  1.0000  -6.6021   0.0000   0.0000   0.0000   0.2618
  10.300   1.1523   0.03935   0.03513  -0.0237  0.0079  1.0000  -6.6072   0.0000   0.0000   0.0000   0.2605
  10.400   1.1487   0.04064   0.03653  -0.0222  0.0080  1.0000  -6.6069   0.0000   0.0000   0.0000   0.2591
  10.500   1.1442   0.04191   0.03791  -0.0206  0.0080  1.0000  -6.6024   0.0000   0.0000   0.0000   0.2577
  10.600   1.1391   0.04319   0.03930  -0.0191  0.0081  1.0000  -6.5942   0.0000   0.0000   0.0000   0.2564
  10.700   1.1335   0.04450   0.04070  -0.0177  0.0081  1.0000  -6.5829   0.0000   0.0000   0.0000   0.2551
  10.800   1.1273   0.04583   0.04213  -0.0165  0.0081  1.0000  -6.5686   0.0000   0.0000   0.0000   0.2540
  10.900   1.1209   0.04722   0.04362  -0.0154  0.0082  1.0000  -6.5517   0.0000   0.0000   0.0000   0.2529
  11.000   1.1142   0.04868   0.04517  -0.0145  0.0082  1.0000  -6.5323   0.0000   0.0000   0.0000   0.2521
  11.100   1.1071   0.05017   0.04675  -0.0138  0.0082  1.0000  -6.5105   0.0000   0.0000   0.0000   0.2514
  11.200   1.0998   0.05173   0.04840  -0.0132  0.0082  1.0000  -6.4865   0.0000   0.0000   0.0000   0.2509
  11.300   1.0924   0.05340   0.05015  -0.0130  0.0083  1.0000  -6.4603   0.0000   0.0000   0.0000   0.2506
  11.400   1.0848   0.05517   0.05200  -0.0130  0.0083  1.0000  -6.4317   0.0000   0.0000   0.0000   0.2505
  11.500   1.0773   0.05705   0.05396  -0.0132  0.0083  1.0000  -6.4009   0.0000   0.0000   0.0000   0.2506
  11.600   1.0697   0.05903   0.05602  -0.0137  0.0083  1.0000  -6.3678   0.0000   0.0000   0.0000   0.2510
  11.700   1.0619   0.06113   0.05819  -0.0144  0.0083  1.0000  -6.3324   0.0000   0.0000   0.0000   0.2516
  11.800   1.0543   0.06334   0.06048  -0.0153  0.0084  1.0000  -6.2945   0.0000   0.0000   0.0000   0.2524
  11.900   1.0465   0.06567   0.06287  -0.0165  0.0084  1.0000  -6.2541   0.0000   0.0000   0.0000   0.2535
  12.000   1.0386   0.06806   0.06533  -0.0178  0.0084  1.0000  -6.2114   0.0000   0.0000   0.0000   0.2547
  12.100   1.0308   0.07058   0.06791  -0.0193  0.0084  1.0000  -6.1657   0.0000   0.0000   0.0000   0.2561
  12.200   1.0230   0.07329   0.07068  -0.0211  0.0084  1.0000  -6.1165   0.0000   0.0000   0.0000   0.2579
  12.300   1.0154   0.07617   0.07362  -0.0230  0.0084  1.0000  -6.0633   0.0000   0.0000   0.0000   0.2598
  12.400   1.0079   0.07921   0.07672  -0.0252  0.0084  1.0000  -6.0059   0.0000   0.0000   0.0000   0.2620
  12.500   1.0003   0.08245   0.08002  -0.0275  0.0084  1.0000  -5.9432   0.0000   0.0000   0.0000   0.2644
  12.600   0.9928   0.08583   0.08345  -0.0300  0.0084  1.0000  -5.8751   0.0000   0.0000   0.0000   0.2669
  12.700   0.9854   0.08939   0.08706  -0.0325  0.0084  1.0000  -5.8004   0.0000   0.0000   0.0000   0.2697
  12.800   0.9778   0.09316   0.09088  -0.0353  0.0084  1.0000  -5.7172   0.0000   0.0000   0.0000   0.2726
  12.900   0.9702   0.09707   0.09483  -0.0380  0.0084  1.0000  -5.6253   0.0000   0.0000   0.0000   0.2757
  13.000   0.9625   0.10117   0.09898  -0.0409  0.0084  1.0000  -5.5222   0.0000   0.0000   0.0000   0.2789
  13.100   0.9544   0.10555   0.10339  -0.0438  0.0084  1.0000  -5.4027   0.0000   0.0000   0.0000   0.2823
  13.200   0.9461   0.11014   0.10802  -0.0467  0.0084  1.0000  -5.2652   0.0000   0.0000   0.0000   0.2858
  13.300   0.9372   0.11498   0.11289  -0.0497  0.0084  1.0000  -5.1051   0.0000   0.0000   0.0000   0.2894
  13.400   0.9279   0.12010   0.11803  -0.0526  0.0084  1.0000  -4.9166   0.0000   0.0000   0.0000   0.2931
  13.500   0.9179   0.12546   0.12340  -0.0554  0.0085  1.0000  -4.6972   0.0000   0.0000   0.0000   0.2969
  13.600   0.9081   0.13081   0.12875  -0.0580  0.0085  1.0000  -4.4592   0.0000   0.0000   0.0000   0.3005
  13.700   0.8990   0.13585   0.13378  -0.0604  0.0086  1.0000  -4.2242   0.0000   0.0000   0.0000   0.3039
  13.800   0.8913   0.14039   0.13830  -0.0626  0.0087  1.0000  -4.0173   0.0000   0.0000   0.0000   0.3069
  13.900   0.8846   0.14459   0.14249  -0.0646  0.0088  1.0000  -3.8277   0.0000   0.0000   0.0000   0.3098
  14.000   0.8774   0.14862   0.14651  -0.0667  0.0090  1.0000  -3.6225   0.0000   0.0000   0.0000   0.3128
  14.500   0.8590   0.16933   0.16718  -0.0745  0.0193  1.0000  -2.5595   0.0000   0.0000   0.0000   0.3238
  14.600   0.8625   0.17087   0.16872  -0.0755  0.0185  1.0000  -2.5743   0.0000   0.0000   0.0000   0.3244
  15.200   0.8603   0.18641   0.18424  -0.0815  0.0204  1.0000  -2.3346   0.0000   0.0000   0.0000   0.3311
  15.300   0.8620   0.18846   0.18629  -0.0824  0.0204  1.0000  -2.3253   0.0000   0.0000   0.0000   0.3319
  15.400   0.8637   0.19050   0.18833  -0.0833  0.0204  1.0000  -2.3168   0.0000   0.0000   0.0000   0.3327
  15.500   0.8655   0.19253   0.19035  -0.0842  0.0203  1.0000  -2.3093   0.0000   0.0000   0.0000   0.3335
  15.600   0.8674   0.19453   0.19235  -0.0851  0.0203  1.0000  -2.3028   0.0000   0.0000   0.0000   0.3342
  15.700   0.8693   0.19651   0.19433  -0.0861  0.0202  1.0000  -2.2976   0.0000   0.0000   0.0000   0.3349
  15.800   0.8714   0.19844   0.19626  -0.0870  0.0202  1.0000  -2.2941   0.0000   0.0000   0.0000   0.3356
  15.900   0.8737   0.20028   0.19811  -0.0879  0.0200  1.0000  -2.2937   0.0000   0.0000   0.0000   0.3363
  16.000   0.8766   0.20189   0.19972  -0.0888  0.0198  1.0000  -2.3016   0.0000   0.0000   0.0000   0.3369
  16.100   0.8814   0.20285   0.20068  -0.0899  0.0187  1.0000  -2.3225   0.0000   0.0000   0.0000   0.3375
  16.200   0.8832   0.20486   0.20269  -0.0911  0.0180  1.0000  -2.3024   0.0000   0.0000   0.0000   0.3386
  16.300   0.8850   0.20694   0.20477  -0.0922  0.0176  1.0000  -2.2865   0.0000   0.0000   0.0000   0.3395
  16.400   0.8867   0.20903   0.20686  -0.0932  0.0171  1.0000  -2.2736   0.0000   0.0000   0.0000   0.3403
  16.500   0.8885   0.21112   0.20894  -0.0941  0.0168  1.0000  -2.2631   0.0000   0.0000   0.0000   0.3410
  16.600   0.8903   0.21320   0.21103  -0.0951  0.0164  1.0000  -2.2545   0.0000   0.0000   0.0000   0.3418
  16.700   0.8921   0.21528   0.21310  -0.0960  0.0161  1.0000  -2.2473   0.0000   0.0000   0.0000   0.3425
  16.800   0.8939   0.21735   0.21517  -0.0969  0.0158  1.0000  -2.2415   0.0000   0.0000   0.0000   0.3431
  16.900   0.8957   0.21941   0.21724  -0.0978  0.0155  1.0000  -2.2368   0.0000   0.0000   0.0000   0.3438
  17.000   0.8975   0.22147   0.21930  -0.0986  0.0152  1.0000  -2.2330   0.0000   0.0000   0.0000   0.3444
  17.100   0.8994   0.22353   0.22136  -0.0995  0.0149  1.0000  -2.2302   0.0000   0.0000   0.0000   0.3450
  17.200   0.9012   0.22559   0.22342  -0.1003  0.0146  1.0000  -2.2283   0.0000   0.0000   0.0000   0.3456
  17.300   0.9030   0.22764   0.22547  -0.1012  0.0144  1.0000  -2.2271   0.0000   0.0000   0.0000   0.3462
  17.400   0.9049   0.22968   0.22752  -0.1020  0.0141  1.0000  -2.2267   0.0000   0.0000   0.0000   0.3468
  17.500   0.9068   0.23173   0.22956  -0.1028  0.0139  1.0000  -2.2271   0.0000   0.0000   0.0000   0.3473
  17.600   0.9086   0.23377   0.23161  -0.1037  0.0137  1.0000  -2.2282   0.0000   0.0000   0.0000   0.3479
  17.700   0.9105   0.23581   0.23365  -0.1045  0.0134  1.0000  -2.2301   0.0000   0.0000   0.0000   0.3484
  17.800   0.9123   0.23784   0.23568  -0.1053  0.0132  1.0000  -2.2328   0.0000   0.0000   0.0000   0.3489
  17.900   0.9142   0.23987   0.23771  -0.1060  0.0130  1.0000  -2.2363   0.0000   0.0000   0.0000   0.3494
  18.000   0.9161   0.24189   0.23973  -0.1068  0.0128  1.0000  -2.2407   0.0000   0.0000   0.0000   0.3498
  18.100   0.9179   0.24390   0.24175  -0.1076  0.0126  1.0000  -2.2461   0.0000   0.0000   0.0000   0.3503
  18.200   0.9198   0.24591   0.24376  -0.1083  0.0124  1.0000  -2.2524   0.0000   0.0000   0.0000   0.3508
  18.300   0.9216   0.24791   0.24577  -0.1091  0.0123  1.0000  -2.2597   0.0000   0.0000   0.0000   0.3512
  18.400   0.9235   0.24990   0.24776  -0.1098  0.0121  1.0000  -2.2683   0.0000   0.0000   0.0000   0.3516
  18.500   0.9253   0.25186   0.24972  -0.1105  0.0119  1.0000  -2.2796   0.0000   0.0000   0.0000   0.3520
  18.600   0.9272   0.25377   0.25164  -0.1112  0.0117  1.0000  -2.2957   0.0000   0.0000   0.0000   0.3523
  18.700   0.9292   0.25559   0.25346  -0.1118  0.0115  1.0000  -2.3198   0.0000   0.0000   0.0000   0.3526
  18.800   0.9314   0.25727   0.25515  -0.1124  0.0113  1.0000  -2.3564   0.0000   0.0000   0.0000   0.3527
  18.900   0.9338   0.25877   0.25666  -0.1129  0.0110  1.0000  -2.4109   0.0000   0.0000   0.0000   0.3527
  19.000   0.9366   0.26003   0.25793  -0.1131  0.0107  1.0000  -2.4903   0.0000   0.0000   0.0000   0.3524
  19.100   0.9391   0.26139   0.25929  -0.1133  0.0103  1.0000  -2.5746   0.0000   0.0000   0.0000   0.3521
  19.200   0.9389   0.26410   0.26200  -0.1139  0.0099  1.0000  -2.5809   0.0000   0.0000   0.0000   0.3525
  19.400   0.9311   0.27485   0.27271  -0.1162  0.0093  1.0000  -2.2158   0.0000   0.0000   0.0000   0.3561
  19.500   0.9323   0.27715   0.27502  -0.1170  0.0093  1.0000  -2.1990   0.0000   0.0000   0.0000   0.3567
  19.600   0.9334   0.27947   0.27734  -0.1177  0.0093  1.0000  -2.1822   0.0000   0.0000   0.0000   0.3572
  19.700   0.9344   0.28180   0.27967  -0.1185  0.0093  1.0000  -2.1654   0.0000   0.0000   0.0000   0.3577
  19.800   0.9353   0.28414   0.28201  -0.1192  0.0093  1.0000  -2.1484   0.0000   0.0000   0.0000   0.3583
  19.900   0.9362   0.28647   0.28435  -0.1199  0.0092  1.0000  -2.1314   0.0000   0.0000   0.0000   0.3588
  20.000   0.9370   0.28880   0.28668  -0.1206  0.0092  1.0000  -2.1141   0.0000   0.0000   0.0000   0.3593
  20.100   0.9377   0.29112   0.28900  -0.1213  0.0092  1.0000  -2.0967   0.0000   0.0000   0.0000   0.3598
  20.200   0.9384   0.29343   0.29132  -0.1220  0.0092  1.0000  -2.0792   0.0000   0.0000   0.0000   0.3603
  20.300   0.9389   0.29573   0.29362  -0.1227  0.0092  1.0000  -2.0616   0.0000   0.0000   0.0000   0.3608
  20.400   0.9393   0.29801   0.29591  -0.1233  0.0092  1.0000  -2.0439   0.0000   0.0000   0.0000   0.3614
  20.500   0.9395   0.30028   0.29818  -0.1239  0.0092  1.0000  -2.0261   0.0000   0.0000   0.0000   0.3619
  20.600   0.9396   0.30252   0.30043  -0.1246  0.0092  1.0000  -2.0082   0.0000   0.0000   0.0000   0.3624
  20.700   0.9396   0.30474   0.30265  -0.1252  0.0092  1.0000  -1.9901   0.0000   0.0000   0.0000   0.3629
  20.800   0.9394   0.30692   0.30484  -0.1257  0.0092  1.0000  -1.9718   0.0000   0.0000   0.0000   0.3635
  20.900   0.9389   0.30906   0.30699  -0.1263  0.0092  1.0000  -1.9532   0.0000   0.0000   0.0000   0.3640
  21.000   0.9382   0.31115   0.30908  -0.1268  0.0092  1.0000  -1.9343   0.0000   0.0000   0.0000   0.3646
  21.100   0.9372   0.31317   0.31111  -0.1273  0.0092  1.0000  -1.9148   0.0000   0.0000   0.0000   0.3651
  21.200   0.9357   0.31511   0.31305  -0.1277  0.0092  1.0000  -1.8946   0.0000   0.0000   0.0000   0.3657
  21.300   0.9338   0.31692   0.31487  -0.1281  0.0092  1.0000  -1.8732   0.0000   0.0000   0.0000   0.3663
  21.400   0.9311   0.31855   0.31652  -0.1284  0.0092  1.0000  -1.8501   0.0000   0.0000   0.0000   0.3669
  21.500   0.8832   0.30885   0.30691  -0.1238  0.0092  1.0000  -1.7109   0.0000   0.0000   0.0000   0.3698
  21.600   0.8762   0.30836   0.30644  -0.1235  0.0092  1.0000  -1.6780   0.0000   0.0000   0.0000   0.3706
  21.700   0.8709   0.30823   0.30632  -0.1234  0.0092  1.0000  -1.6497   0.0000   0.0000   0.0000   0.3714
  21.800   0.8665   0.30827   0.30638  -0.1234  0.0092  1.0000  -1.6242   0.0000   0.0000   0.0000   0.3721
  21.900   0.8628   0.30844   0.30656  -0.1235  0.0092  1.0000  -1.6005   0.0000   0.0000   0.0000   0.3727
  22.000   0.8595   0.30868   0.30681  -0.1236  0.0091  1.0000  -1.5783   0.0000   0.0000   0.0000   0.3734
  22.100   0.8565   0.30898   0.30712  -0.1238  0.0091  1.0000  -1.5573   0.0000   0.0000   0.0000   0.3740
  22.200   0.8539   0.30932   0.30747  -0.1239  0.0091  1.0000  -1.5372   0.0000   0.0000   0.0000   0.3746
  22.300   0.8514   0.30970   0.30786  -0.1241  0.0091  1.0000  -1.5180   0.0000   0.0000   0.0000   0.3751
  22.400   0.8492   0.31011   0.30828  -0.1244  0.0091  1.0000  -1.4997   0.0000   0.0000   0.0000   0.3757
  22.500   0.8472   0.31054   0.30872  -0.1246  0.0091  1.0000  -1.4820   0.0000   0.0000   0.0000   0.3762
  22.600   0.8453   0.31100   0.30919  -0.1248  0.0091  1.0000  -1.4650   0.0000   0.0000   0.0000   0.3768
  22.700   0.8436   0.31147   0.30967  -0.1251  0.0091  1.0000  -1.4486   0.0000   0.0000   0.0000   0.3773
  22.800   0.8420   0.31197   0.31017  -0.1254  0.0091  1.0000  -1.4327   0.0000   0.0000   0.0000   0.3778
  22.900   0.8405   0.31248   0.31069  -0.1257  0.0091  1.0000  -1.4174   0.0000   0.0000   0.0000   0.3783
  23.000   0.8391   0.31300   0.31122  -0.1259  0.0091  1.0000  -1.4025   0.0000   0.0000   0.0000   0.3788
  23.100   0.8377   0.31353   0.31175  -0.1262  0.0091  1.0000  -1.3878   0.0000   0.0000   0.0000   0.3793
  23.200   0.8365   0.31407   0.31230  -0.1266  0.0091  1.0000  -1.3734   0.0000   0.0000   0.0000   0.3798
  23.300   0.8353   0.31462   0.31286  -0.1269  0.0091  1.0000  -1.3595   0.0000   0.0000   0.0000   0.3803
  23.400   0.8343   0.31518   0.31343  -0.1272  0.0091  1.0000  -1.3459   0.0000   0.0000   0.0000   0.3808
  23.500   0.8332   0.31575   0.31400  -0.1275  0.0091  1.0000  -1.3327   0.0000   0.0000   0.0000   0.3812
  23.600   0.8323   0.31631   0.31461  -0.1279  0.0091  1.0000  -1.3230   0.0000   0.0000   0.0000   0.3817
  23.700   0.8314   0.31689   0.31520  -0.1282  0.0091  1.0000  -1.3119   0.0000   0.0000   0.0000   0.3822
  23.800   0.8306   0.31747   0.31579  -0.1285  0.0091  1.0000  -1.3003   0.0000   0.0000   0.0000   0.3826
  23.900   0.8298   0.31806   0.31638  -0.1289  0.0090  1.0000  -1.2887   0.0000   0.0000   0.0000   0.3831
  24.000   0.8291   0.31866   0.31699  -0.1292  0.0090  1.0000  -1.2773   0.0000   0.0000   0.0000   0.3835
  24.100   0.8284   0.31926   0.31760  -0.1296  0.0090  1.0000  -1.2661   0.0000   0.0000   0.0000   0.3839
  24.200   0.8277   0.31986   0.31821  -0.1300  0.0090  1.0000  -1.2552   0.0000   0.0000   0.0000   0.3844
  24.300   0.8271   0.32047   0.31882  -0.1303  0.0090  1.0000  -1.2444   0.0000   0.0000   0.0000   0.3848
  24.400   0.8265   0.32109   0.31944  -0.1307  0.0090  1.0000  -1.2339   0.0000   0.0000   0.0000   0.3852
  24.500   0.8260   0.32171   0.32007  -0.1311  0.0090  1.0000  -1.2236   0.0000   0.0000   0.0000   0.3856
  24.600   0.8255   0.32233   0.32070  -0.1314  0.0090  1.0000  -1.2134   0.0000   0.0000   0.0000   0.3861
  24.700   0.8250   0.32295   0.32133  -0.1318  0.0090  1.0000  -1.2035   0.0000   0.0000   0.0000   0.3865
  24.800   0.8245   0.32358   0.32196  -0.1322  0.0090  1.0000  -1.1938   0.0000   0.0000   0.0000   0.3869
  24.900   0.8241   0.32421   0.32260  -0.1326  0.0090  1.0000  -1.1843   0.0000   0.0000   0.0000   0.3873
  25.000   0.8237   0.32484   0.32324  -0.1329  0.0090  1.0000  -1.1750   0.0000   0.0000   0.0000   0.3877
  25.100   0.8233   0.32548   0.32388  -0.1333  0.0090  1.0000  -1.1652   0.0000   0.0000   0.0000   0.3881
  25.200   0.8230   0.32612   0.32452  -0.1337  0.0090  1.0000  -1.1556   0.0000   0.0000   0.0000   0.3885
  25.300   0.8226   0.32676   0.32517  -0.1341  0.0090  1.0000  -1.1461   0.0000   0.0000   0.0000   0.3889
  25.400   0.8223   0.32741   0.32582  -0.1345  0.0089  1.0000  -1.1368   0.0000   0.0000   0.0000   0.3893
  25.500   0.8220   0.32806   0.32648  -0.1349  0.0089  1.0000  -1.1277   0.0000   0.0000   0.0000   0.3897
  25.600   0.8218   0.32870   0.32713  -0.1353  0.0089  1.0000  -1.1187   0.0000   0.0000   0.0000   0.3901
  25.700   0.8215   0.32936   0.32779  -0.1358  0.0089  1.0000  -1.1100   0.0000   0.0000   0.0000   0.3905
  25.800   0.8213   0.33001   0.32845  -0.1362  0.0089  1.0000  -1.1014   0.0000   0.0000   0.0000   0.3909
  25.900   0.8211   0.33066   0.32911  -0.1366  0.0089  1.0000  -1.0929   0.0000   0.0000   0.0000   0.3913
  26.000   0.8209   0.33132   0.32977  -0.1370  0.0089  1.0000  -1.0846   0.0000   0.0000   0.0000   0.3917
  26.100   0.8207   0.33198   0.33043  -0.1374  0.0089  1.0000  -1.0765   0.0000   0.0000   0.0000   0.3921
  26.200   0.8205   0.33264   0.33110  -0.1378  0.0089  1.0000  -1.0685   0.0000   0.0000   0.0000   0.3925
  26.300   0.8204   0.33330   0.33177  -0.1382  0.0089  1.0000  -1.0607   0.0000   0.0000   0.0000   0.3928
  26.400   0.8202   0.33397   0.33244  -0.1386  0.0088  1.0000  -1.0530   0.0000   0.0000   0.0000   0.3932
  26.500   0.8201   0.33463   0.33311  -0.1391  0.0088  1.0000  -1.0454   0.0000   0.0000   0.0000   0.3936
  26.600   0.8200   0.33530   0.33378  -0.1395  0.0088  1.0000  -1.0380   0.0000   0.0000   0.0000   0.3940
  26.700   0.8199   0.33597   0.33446  -0.1399  0.0088  1.0000  -1.0307   0.0000   0.0000   0.0000   0.3943
  26.800   0.8199   0.33664   0.33513  -0.1403  0.0088  1.0000  -1.0235   0.0000   0.0000   0.0000   0.3947
  26.900   0.8198   0.33731   0.33581  -0.1408  0.0088  1.0000  -1.0164   0.0000   0.0000   0.0000   0.3950
  27.000   0.8198   0.33799   0.33649  -0.1412  0.0088  1.0000  -1.0095   0.0000   0.0000   0.0000   0.3954
  27.100   0.8197   0.33866   0.33717  -0.1416  0.0088  1.0000  -1.0027   0.0000   0.0000   0.0000   0.3958
  27.200   0.8197   0.33934   0.33785  -0.1420  0.0088  1.0000  -0.9960   0.0000   0.0000   0.0000   0.3961
  27.300   0.8197   0.34001   0.33853  -0.1425  0.0087  1.0000  -0.9893   0.0000   0.0000   0.0000   0.3965
  27.400   0.8197   0.34069   0.33922  -0.1429  0.0087  1.0000  -0.9828   0.0000   0.0000   0.0000   0.3968
  27.500   0.8197   0.34137   0.33990  -0.1433  0.0087  1.0000  -0.9764   0.0000   0.0000   0.0000   0.3971


