xflr5 v6.61

 Calculated polar for: RG-15 8.9%

 1 1 Reynolds number fixed          Mach number fixed         

 xtrf =   1.000 (top)        1.000 (bottom)
 Mach =   0.000     Re =     0.688 e 6     Ncrit =   9.000

  alpha     CL        CD       CDp       Cm    Top Xtr Bot Xtr   Cpmin    Chinge    XCp    
 ------- -------- --------- --------- -------- ------- ------- -------- --------- ---------
 -10.000  -0.4561   0.10483   0.10267  -0.0192  1.0000  0.0122  -1.8850   0.0000   0.0000   0.0000   0.2014
  -9.900  -0.4556   0.10323   0.10107  -0.0198  1.0000  0.0122  -1.9037   0.0000   0.0000   0.0000   0.2002
  -9.800  -0.4552   0.10160   0.09945  -0.0203  1.0000  0.0121  -1.9238   0.0000   0.0000   0.0000   0.1991
  -9.700  -0.4550   0.09996   0.09782  -0.0209  1.0000  0.0121  -1.9458   0.0000   0.0000   0.0000   0.1979
  -9.600  -0.4551   0.09828   0.09615  -0.0214  1.0000  0.0121  -1.9703   0.0000   0.0000   0.0000   0.1967
  -9.500  -0.4555   0.09656   0.09444  -0.0220  1.0000  0.0121  -1.9986   0.0000   0.0000   0.0000   0.1956
  -9.400  -0.4564   0.09477   0.09265  -0.0226  1.0000  0.0120  -2.0340   0.0000   0.0000   0.0000   0.1944
  -9.300  -0.4586   0.09276   0.09064  -0.0233  1.0000  0.0119  -2.0873   0.0000   0.0000   0.0000   0.1933
  -9.200  -0.4641   0.09019   0.08809  -0.0242  1.0000  0.0116  -2.1889   0.0000   0.0000   0.0000   0.1921
  -9.100  -0.4679   0.08802   0.08599  -0.0250  1.0000  0.0113  -2.2619   0.0000   0.0000   0.0000   0.1908
  -9.000  -0.4713   0.08587   0.08386  -0.0259  1.0000  0.0111  -2.3295   0.0000   0.0000   0.0000   0.1894
  -8.900  -0.4744   0.08381   0.08181  -0.0268  1.0000  0.0109  -2.3893   0.0000   0.0000   0.0000   0.1880
  -8.800  -0.4773   0.08182   0.07983  -0.0277  1.0000  0.0107  -2.4446   0.0000   0.0000   0.0000   0.1866
  -8.700  -0.4803   0.07985   0.07788  -0.0285  1.0000  0.0106  -2.4976   0.0000   0.0000   0.0000   0.1852
  -8.600  -0.4834   0.07791   0.07595  -0.0294  1.0000  0.0105  -2.5495   0.0000   0.0000   0.0000   0.1838
  -8.500  -0.4869   0.07599   0.07404  -0.0304  1.0000  0.0104  -2.6009   0.0000   0.0000   0.0000   0.1825
  -8.400  -0.4907   0.07405   0.07212  -0.0313  1.0000  0.0103  -2.6523   0.0000   0.0000   0.0000   0.1812
  -8.300  -0.4952   0.07215   0.07024  -0.0322  1.0000  0.0103  -2.7032   0.0000   0.0000   0.0000   0.1800
  -8.200  -0.5006   0.07031   0.06841  -0.0331  1.0000  0.0102  -2.7527   0.0000   0.0000   0.0000   0.1790
  -8.100  -0.5072   0.06856   0.06668  -0.0340  1.0000  0.0103  -2.7995   0.0000   0.0000   0.0000   0.1783
  -8.000  -0.5139   0.06645   0.06460  -0.0360  1.0000  0.0103  -2.8509   0.0000   0.0000   0.0000   0.1754
  -7.900  -0.5183   0.06396   0.06208  -0.0382  1.0000  0.0103  -2.9159   0.0000   0.0000   0.0000   0.1720
  -7.800  -0.5227   0.06168   0.05978  -0.0393  1.0000  0.0103  -2.9805   0.0000   0.0000   0.0000   0.1706
  -7.700  -0.5271   0.05943   0.05751  -0.0401  1.0000  0.0102  -3.0462   0.0000   0.0000   0.0000   0.1698
  -7.600  -0.5313   0.05722   0.05525  -0.0406  1.0000  0.0101  -3.1131   0.0000   0.0000   0.0000   0.1694
  -7.500  -0.5353   0.05504   0.05303  -0.0409  1.0000  0.0101  -3.1810   0.0000   0.0000   0.0000   0.1696
  -7.400  -0.5392   0.05289   0.05083  -0.0409  1.0000  0.0099  -3.2494   0.0000   0.0000   0.0000   0.1701
  -7.300  -0.5426   0.05072   0.04860  -0.0408  1.0000  0.0098  -3.3204   0.0000   0.0000   0.0000   0.1708
  -7.200  -0.5458   0.04859   0.04641  -0.0405  1.0000  0.0097  -3.3916   0.0000   0.0000   0.0000   0.1719
  -7.100  -0.5485   0.04641   0.04415  -0.0401  1.0000  0.0095  -3.4669   0.0000   0.0000   0.0000   0.1730
  -7.000  -0.5509   0.04425   0.04191  -0.0396  1.0000  0.0093  -3.5432   0.0000   0.0000   0.0000   0.1742
  -6.900  -0.5526   0.04204   0.03959  -0.0390  1.0000  0.0092  -3.6253   0.0000   0.0000   0.0000   0.1755
  -6.800  -0.5518   0.03941   0.03683  -0.0390  0.9997  0.0089  -3.7251   0.0000   0.0000   0.0000   0.1754
  -6.700  -0.5431   0.03544   0.03261  -0.0410  0.9985  0.0085  -3.8865   0.0000   0.0000   0.0000   0.1706
  -6.600  -0.5339   0.03163   0.02853  -0.0425  0.9973  0.0081  -4.0567   0.0000   0.0000   0.0000   0.1663
  -6.500  -0.5244   0.02816   0.02475  -0.0436  0.9962  0.0077  -4.2210   0.0000   0.0000   0.0000   0.1626
  -6.400  -0.5148   0.02508   0.02137  -0.0443  0.9950  0.0073  -4.3738   0.0000   0.0000   0.0000   0.1597
  -6.300  -0.5043   0.02244   0.01842  -0.0448  0.9938  0.0070  -4.4977   0.0000   0.0000   0.0000   0.1567
  -6.200  -0.4931   0.02021   0.01591  -0.0453  0.9927  0.0067  -4.5911   0.0000   0.0000   0.0000   0.1537
  -6.100  -0.4812   0.01843   0.01391  -0.0457  0.9918  0.0065  -4.6395   0.0000   0.0000   0.0000   0.1506
  -6.000  -0.4689   0.01695   0.01222  -0.0461  0.9910  0.0063  -4.6603   0.0000   0.0000   0.0000   0.1472
  -5.900  -0.4562   0.01574   0.01082  -0.0465  0.9903  0.0062  -4.6540   0.0000   0.0000   0.0000   0.1436
  -5.800  -0.4434   0.01474   0.00967  -0.0469  0.9896  0.0061  -4.6233   0.0000   0.0000   0.0000   0.1397
  -5.700  -0.4304   0.01391   0.00863  -0.0473  0.9890  0.0060  -4.5796   0.0000   0.0000   0.0000   0.1355
  -5.600  -0.4172   0.01328   0.00790  -0.0478  0.9885  0.0060  -4.5081   0.0000   0.0000   0.0000   0.1309
  -5.500  -0.4038   0.01274   0.00728  -0.0484  0.9880  0.0059  -4.4234   0.0000   0.0000   0.0000   0.1258
  -5.400  -0.3899   0.01228   0.00674  -0.0490  0.9875  0.0059  -4.3277   0.0000   0.0000   0.0000   0.1199
  -5.300  -0.3776   0.01189   0.00629  -0.0492  0.9863  0.0060  -4.2314   0.0000   0.0000   0.0000   0.1152
  -5.200  -0.3659   0.01155   0.00590  -0.0494  0.9847  0.0060  -4.1321   0.0000   0.0000   0.0000   0.1106
  -5.100  -0.3533   0.01125   0.00554  -0.0497  0.9832  0.0061  -4.0251   0.0000   0.0000   0.0000   0.1049
  -5.000  -0.3401   0.01097   0.00522  -0.0501  0.9818  0.0061  -3.9127   0.0000   0.0000   0.0000   0.0981
  -4.900  -0.3266   0.01073   0.00494  -0.0507  0.9805  0.0062  -3.7964   0.0000   0.0000   0.0000   0.0905
  -4.800  -0.3129   0.01051   0.00468  -0.0512  0.9793  0.0064  -3.6777   0.0000   0.0000   0.0000   0.0819
  -4.700  -0.2990   0.01031   0.00445  -0.0518  0.9782  0.0065  -3.5574   0.0000   0.0000   0.0000   0.0723
  -4.600  -0.2850   0.01013   0.00424  -0.0524  0.9773  0.0067  -3.4362   0.0000   0.0000   0.0000   0.0615
  -4.500  -0.2707   0.00996   0.00405  -0.0531  0.9764  0.0069  -3.3137   0.0000   0.0000   0.0000   0.0492
  -4.400  -0.2561   0.00980   0.00387  -0.0539  0.9755  0.0071  -3.1903   0.0000   0.0000   0.0000   0.0350
  -4.300  -0.2412   0.00966   0.00371  -0.0547  0.9747  0.0074  -3.0669   0.0000   0.0000   0.0000   0.0187
  -4.200  -0.2263   0.00952   0.00356  -0.0555  0.9740  0.0077  -2.9444   0.0000   0.0000   0.0000  -0.0000
  -4.100  -0.2112   0.00940   0.00343  -0.0563  0.9733  0.0080  -2.8237   0.0000   0.0000   0.0000  -0.0216
  -4.000  -0.1962   0.00929   0.00331  -0.0572  0.9728  0.0084  -2.7057   0.0000   0.0000   0.0000  -0.0465
  -3.900  -0.1849   0.00918   0.00320  -0.0572  0.9708  0.0087  -2.6070   0.0000   0.0000   0.0000  -0.0643
  -3.800  -0.1748   0.00908   0.00309  -0.0569  0.9679  0.0091  -2.5151   0.0000   0.0000   0.0000  -0.0809
  -3.700  -0.1624   0.00898   0.00299  -0.0572  0.9658  0.0095  -2.4161   0.0000   0.0000   0.0000  -0.1072
  -3.600  -0.1492   0.00889   0.00289  -0.0576  0.9640  0.0100  -2.3159   0.0000   0.0000   0.0000  -0.1416
  -3.500  -0.1354   0.00879   0.00279  -0.0582  0.9623  0.0105  -2.2160   0.0000   0.0000   0.0000  -0.1853
  -3.400  -0.1212   0.00869   0.00269  -0.0588  0.9608  0.0110  -2.1173   0.0000   0.0000   0.0000  -0.2413
  -3.300  -0.1068   0.00860   0.00260  -0.0595  0.9594  0.0116  -2.0206   0.0000   0.0000   0.0000  -0.3137
  -3.200  -0.0924   0.00851   0.00250  -0.0601  0.9579  0.0123  -1.9269   0.0000   0.0000   0.0000  -0.4079
  -3.100  -0.0783   0.00842   0.00242  -0.0608  0.9566  0.0144  -1.8368   0.0000   0.0000   0.0000  -0.5341
  -3.000  -0.0643   0.00830   0.00232  -0.0614  0.9552  0.0188  -1.7473   0.0000   0.0000   0.0000  -0.7136
  -2.900  -0.0506   0.00793   0.00211  -0.0621  0.9538  0.0603  -1.6386   0.0000   0.0000   0.0000  -0.9888
  -2.800  -0.0360   0.00782   0.00203  -0.0629  0.9524  0.0683  -1.5525   0.0000   0.0000   0.0000  -1.5105
  -2.700  -0.0275   0.00769   0.00196  -0.0623  0.9477  0.0819  -1.4876   0.0000   0.0000   0.0000  -2.0338
  -2.600  -0.0165   0.00758   0.00189  -0.0623  0.9437  0.0928  -1.4152   0.0000   0.0000   0.0000  -3.5528
  -2.500  -0.0041   0.00750   0.00182  -0.0625  0.9401  0.0994  -1.3391   0.0000   0.0000   0.0000  -15.1818
  -2.400   0.0092   0.00737   0.00175  -0.0630  0.9370  0.1131  -1.2618   0.0000   0.0000   0.0000   7.1480
  -2.300   0.0228   0.00725   0.00167  -0.0635  0.9342  0.1267  -1.1846   0.0000   0.0000   0.0000   3.0578
  -2.200   0.0365   0.00713   0.00161  -0.0641  0.9314  0.1455  -1.1085   0.0000   0.0000   0.0000   2.0185
  -2.100   0.0503   0.00699   0.00153  -0.0647  0.9284  0.1651  -1.0334   0.0000   0.0000   0.0000   1.5444
  -2.000   0.0608   0.00688   0.00149  -0.0646  0.9237  0.1856  -0.9692   0.0000   0.0000   0.0000   1.3181
  -1.900   0.0715   0.00676   0.00144  -0.0645  0.9182  0.2076  -0.9055   0.0000   0.0000   0.0000   1.1567
  -1.800   0.0829   0.00660   0.00139  -0.0647  0.9127  0.2392  -0.8409   0.0000   0.0000   0.0000   1.0327
  -1.700   0.0948   0.00641   0.00133  -0.0649  0.9072  0.2809  -0.7764   0.0000   0.0000   0.0000   0.9369
  -1.600   0.1067   0.00618   0.00127  -0.0652  0.9018  0.3367  -0.7132   0.0000   0.0000   0.0000   0.8629
  -1.500   0.1179   0.00598   0.00122  -0.0653  0.8968  0.3884  -0.6528   0.0000   0.0000   0.0000   0.8054
  -1.400   0.1281   0.00583   0.00120  -0.0652  0.8917  0.4261  -0.5963   0.0000   0.0000   0.0000   0.7600
  -1.200   0.1495   0.00560   0.00115  -0.0650  0.8792  0.4925  -0.4837   0.0000   0.0000   0.0000   0.6857
  -1.100   0.1605   0.00551   0.00112  -0.0650  0.8723  0.5211  -0.4280   0.0000   0.0000   0.0000   0.6553
  -0.900   0.1829   0.00551   0.00108  -0.0649  0.8590  0.5289  -0.3985   0.0000   0.0000   0.0000   0.6049
  -0.800   0.1944   0.00563   0.00107  -0.0648  0.8521  0.4995  -0.4074   0.0000   0.0000   0.0000   0.5835
  -0.700   0.2062   0.00578   0.00105  -0.0648  0.8447  0.4588  -0.4176   0.0000   0.0000   0.0000   0.5642
  -0.600   0.2177   0.00590   0.00104  -0.0647  0.8375  0.4285  -0.4277   0.0000   0.0000   0.0000   0.5472
  -0.500   0.2289   0.00599   0.00103  -0.0646  0.8296  0.4153  -0.4376   0.0000   0.0000   0.0000   0.5321
  -0.400   0.2394   0.00589   0.00102  -0.0646  0.8232  0.4476  -0.4472   0.0000   0.0000   0.0000   0.5192
  -0.300   0.2494   0.00569   0.00103  -0.0644  0.8164  0.5111  -0.4565   0.0000   0.0000   0.0000   0.5078
  -0.200   0.2586   0.00544   0.00107  -0.0641  0.8081  0.6052  -0.4655   0.0000   0.0000   0.0000   0.4973
  -0.100   0.2660   0.00519   0.00120  -0.0632  0.7991  0.7236  -0.4737   0.0000   0.0000   0.0000   0.4869
   0.000   0.2728   0.00511   0.00131  -0.0619  0.7896  0.7894  -0.4822   0.0000   0.0000   0.0000   0.4762
   0.100   0.2835   0.00513   0.00128  -0.0618  0.7826  0.7945  -0.4934   0.0000   0.0000   0.0000   0.4670
   0.200   0.2944   0.00514   0.00128  -0.0617  0.7767  0.7992  -0.5048   0.0000   0.0000   0.0000   0.4585
   0.300   0.3053   0.00517   0.00128  -0.0616  0.7695  0.8029  -0.5162   0.0000   0.0000   0.0000   0.4506
   0.500   0.3261   0.00523   0.00128  -0.0611  0.7512  0.8130  -0.5387   0.0000   0.0000   0.0000   0.4363
   0.600   0.3361   0.00526   0.00128  -0.0608  0.7409  0.8193  -0.5499   0.0000   0.0000   0.0000   0.4297
   0.700   0.3466   0.00526   0.00129  -0.0606  0.7344  0.8251  -0.5631   0.0000   0.0000   0.0000   0.4236
   0.800   0.3570   0.00526   0.00132  -0.0604  0.7267  0.8310  -0.5764   0.0000   0.0000   0.0000   0.4179
   0.900   0.3674   0.00529   0.00132  -0.0602  0.7176  0.8364  -0.5896   0.0000   0.0000   0.0000   0.4124
   1.000   0.3776   0.00534   0.00133  -0.0600  0.7082  0.8414  -0.6027   0.0000   0.0000   0.0000   0.4073
   1.100   0.3878   0.00540   0.00133  -0.0597  0.6976  0.8458  -0.6159   0.0000   0.0000   0.0000   0.4024
   1.200   0.3984   0.00542   0.00134  -0.0596  0.6910  0.8513  -0.6305   0.0000   0.0000   0.0000   0.3979
   1.300   0.4085   0.00542   0.00136  -0.0593  0.6832  0.8586  -0.6461   0.0000   0.0000   0.0000   0.3935
   1.400   0.4184   0.00544   0.00137  -0.0590  0.6731  0.8653  -0.6616   0.0000   0.0000   0.0000   0.3892
   1.500   0.4279   0.00549   0.00138  -0.0586  0.6614  0.8719  -0.6769   0.0000   0.0000   0.0000   0.3850
   1.600   0.4375   0.00556   0.00140  -0.0582  0.6484  0.8784  -0.6922   0.0000   0.0000   0.0000   0.3811
   1.700   0.4481   0.00558   0.00142  -0.0580  0.6421  0.8842  -0.7115   0.0000   0.0000   0.0000   0.3776
   1.800   0.4580   0.00559   0.00143  -0.0577  0.6344  0.8916  -0.7303   0.0000   0.0000   0.0000   0.3740
   1.900   0.4672   0.00561   0.00145  -0.0572  0.6242  0.9002  -0.7486   0.0000   0.0000   0.0000   0.3704
   2.000   0.4761   0.00567   0.00147  -0.0567  0.6117  0.9088  -0.7667   0.0000   0.0000   0.0000   0.3669
   2.100   0.4852   0.00575   0.00149  -0.0562  0.5975  0.9171  -0.7849   0.0000   0.0000   0.0000   0.3636
   2.200   0.4949   0.00575   0.00151  -0.0558  0.5907  0.9256  -0.8038   0.0000   0.0000   0.0000   0.3605
   2.300   0.5044   0.00577   0.00152  -0.0554  0.5822  0.9350  -0.8228   0.0000   0.0000   0.0000   0.3575
   2.400   0.5142   0.00580   0.00154  -0.0551  0.5727  0.9445  -0.8420   0.0000   0.0000   0.0000   0.3547
   2.500   0.5248   0.00587   0.00156  -0.0549  0.5610  0.9535  -0.8670   0.0000   0.0000   0.0000   0.3522
   2.600   0.5365   0.00594   0.00158  -0.0551  0.5468  0.9632  -0.8935   0.0000   0.0000   0.0000   0.3501
   2.700   0.5499   0.00597   0.00160  -0.0556  0.5382  0.9720  -0.9222   0.0000   0.0000   0.0000   0.3485
   2.800   0.5644   0.00604   0.00163  -0.0564  0.5240  0.9808  -0.9548   0.0000   0.0000   0.0000   0.3472
   2.900   0.5787   0.00616   0.00166  -0.0572  0.5060  0.9909  -0.9927   0.0000   0.0000   0.0000   0.3460
   3.000   0.5924   0.00624   0.00169  -0.0578  0.4930  1.0000  -1.0300   0.0000   0.0000   0.0000   0.3448
   3.100   0.6028   0.00631   0.00172  -0.0577  0.4820  1.0000  -1.0626   0.0000   0.0000   0.0000   0.3429
   3.200   0.6127   0.00642   0.00176  -0.0576  0.4666  1.0000  -1.0946   0.0000   0.0000   0.0000   0.3410
   3.300   0.6222   0.00657   0.00181  -0.0573  0.4477  1.0000  -1.1263   0.0000   0.0000   0.0000   0.3391
   3.400   0.6329   0.00663   0.00185  -0.0573  0.4391  1.0000  -1.1601   0.0000   0.0000   0.0000   0.3374
   3.500   0.6432   0.00672   0.00190  -0.0572  0.4264  1.0000  -1.1935   0.0000   0.0000   0.0000   0.3357
   3.600   0.6529   0.00687   0.00196  -0.0570  0.4099  1.0000  -1.2262   0.0000   0.0000   0.0000   0.3340
   3.700   0.6629   0.00698   0.00201  -0.0568  0.3939  1.0000  -1.2596   0.0000   0.0000   0.0000   0.3324
   3.800   0.6731   0.00710   0.00206  -0.0567  0.3788  1.0000  -1.2974   0.0000   0.0000   0.0000   0.3308
   3.900   0.6822   0.00731   0.00214  -0.0564  0.3543  1.0000  -1.3407   0.0000   0.0000   0.0000   0.3292
   4.000   0.6922   0.00743   0.00220  -0.0563  0.3370  1.0000  -1.3865   0.0000   0.0000   0.0000   0.3277
   4.100   0.6997   0.00783   0.00244  -0.0558  0.2851  1.0000  -1.4396   0.0000   0.0000   0.0000   0.3261
   4.200   0.7100   0.00794   0.00252  -0.0557  0.2760  1.0000  -1.5062   0.0000   0.0000   0.0000   0.3247
   4.300   0.7195   0.00813   0.00262  -0.0555  0.2552  1.0000  -1.5724   0.0000   0.0000   0.0000   0.3233
   4.400   0.7289   0.00834   0.00271  -0.0552  0.2336  1.0000  -1.6396   0.0000   0.0000   0.0000   0.3219
   4.500   0.7382   0.00857   0.00282  -0.0550  0.2097  1.0000  -1.7073   0.0000   0.0000   0.0000   0.3206
   4.600   0.7472   0.00882   0.00293  -0.0548  0.1867  1.0000  -1.7752   0.0000   0.0000   0.0000   0.3193
   4.700   0.7569   0.00901   0.00305  -0.0546  0.1689  1.0000  -1.8465   0.0000   0.0000   0.0000   0.3180
   4.800   0.7662   0.00923   0.00316  -0.0544  0.1519  1.0000  -1.9174   0.0000   0.0000   0.0000   0.3168
   4.900   0.7762   0.00938   0.00326  -0.0543  0.1396  1.0000  -1.9916   0.0000   0.0000   0.0000   0.3156
   5.000   0.7864   0.00951   0.00336  -0.0542  0.1319  1.0000  -2.0678   0.0000   0.0000   0.0000   0.3145
   5.100   0.7962   0.00969   0.00347  -0.0540  0.1213  1.0000  -2.1431   0.0000   0.0000   0.0000   0.3133
   5.200   0.8060   0.00986   0.00358  -0.0538  0.1093  1.0000  -2.2198   0.0000   0.0000   0.0000   0.3122
   5.300   0.8163   0.00998   0.00368  -0.0537  0.1036  1.0000  -2.2994   0.0000   0.0000   0.0000   0.3112
   5.400   0.8261   0.01014   0.00380  -0.0536  0.0956  1.0000  -2.3944   0.0000   0.0000   0.0000   0.3101
   5.500   0.8357   0.01034   0.00392  -0.0534  0.0857  1.0000  -2.5159   0.0000   0.0000   0.0000   0.3091
   5.600   0.8459   0.01046   0.00403  -0.0533  0.0790  1.0000  -2.6436   0.0000   0.0000   0.0000   0.3081
   5.700   0.8560   0.01059   0.00414  -0.0532  0.0738  1.0000  -2.7731   0.0000   0.0000   0.0000   0.3071
   5.800   0.8657   0.01077   0.00427  -0.0530  0.0671  1.0000  -2.9019   0.0000   0.0000   0.0000   0.3061
   5.900   0.8754   0.01096   0.00441  -0.0528  0.0594  1.0000  -3.0316   0.0000   0.0000   0.0000   0.3052
   6.000   0.8856   0.01109   0.00452  -0.0527  0.0550  1.0000  -3.1671   0.0000   0.0000   0.0000   0.3042
   6.100   0.8956   0.01122   0.00464  -0.0526  0.0512  1.0000  -3.3039   0.0000   0.0000   0.0000   0.3033
   6.200   0.9054   0.01138   0.00477  -0.0525  0.0463  1.0000  -3.4405   0.0000   0.0000   0.0000   0.3024
   6.300   0.9149   0.01159   0.00493  -0.0523  0.0405  1.0000  -3.5762   0.0000   0.0000   0.0000   0.3015
   6.400   0.9249   0.01173   0.00506  -0.0521  0.0359  1.0000  -3.7164   0.0000   0.0000   0.0000   0.3006
   6.500   0.9347   0.01190   0.00521  -0.0520  0.0322  1.0000  -3.8572   0.0000   0.0000   0.0000   0.2998
   6.600   0.9441   0.01210   0.00537  -0.0518  0.0274  1.0000  -3.9960   0.0000   0.0000   0.0000   0.2989
   6.700   0.9535   0.01232   0.00554  -0.0515  0.0214  1.0000  -4.1336   0.0000   0.0000   0.0000   0.2980
   6.800   0.9631   0.01251   0.00571  -0.0513  0.0176  1.0000  -4.2726   0.0000   0.0000   0.0000   0.2972
   6.900   0.9718   0.01280   0.00595  -0.0510  0.0121  1.0000  -4.4032   0.0000   0.0000   0.0000   0.2963
   7.000   0.9814   0.01300   0.00613  -0.0508  0.0089  1.0000  -4.5332   0.0000   0.0000   0.0000   0.2954
   7.100   0.9911   0.01317   0.00630  -0.0506  0.0080  1.0000  -4.6598   0.0000   0.0000   0.0000   0.2946
   7.200   1.0008   0.01336   0.00650  -0.0504  0.0072  1.0000  -4.7797   0.0000   0.0000   0.0000   0.2937
   7.300   1.0103   0.01356   0.00672  -0.0501  0.0067  1.0000  -4.8946   0.0000   0.0000   0.0000   0.2929
   7.400   1.0198   0.01376   0.00696  -0.0499  0.0063  1.0000  -5.0081   0.0000   0.0000   0.0000   0.2921
   7.500   1.0285   0.01412   0.00752  -0.0493  0.0056  1.0000  -5.0397   0.0000   0.0000   0.0000   0.2910
   7.600   1.0377   0.01436   0.00782  -0.0490  0.0055  1.0000  -5.1495   0.0000   0.0000   0.0000   0.2902
   7.700   1.0469   0.01462   0.00813  -0.0487  0.0054  1.0000  -5.2616   0.0000   0.0000   0.0000   0.2893
   7.800   1.0559   0.01489   0.00847  -0.0483  0.0054  1.0000  -5.3732   0.0000   0.0000   0.0000   0.2885
   7.900   1.0647   0.01518   0.00882  -0.0479  0.0054  1.0000  -5.4832   0.0000   0.0000   0.0000   0.2876
   8.000   1.0732   0.01549   0.00920  -0.0475  0.0053  1.0000  -5.5904   0.0000   0.0000   0.0000   0.2867
   8.100   1.0816   0.01584   0.00962  -0.0470  0.0053  1.0000  -5.6939   0.0000   0.0000   0.0000   0.2858
   8.200   1.0895   0.01623   0.01008  -0.0465  0.0053  1.0000  -5.7922   0.0000   0.0000   0.0000   0.2849
   8.300   1.0971   0.01665   0.01058  -0.0459  0.0054  1.0000  -5.8849   0.0000   0.0000   0.0000   0.2840
   8.400   1.1044   0.01712   0.01113  -0.0453  0.0054  1.0000  -5.9722   0.0000   0.0000   0.0000   0.2830
   8.500   1.1113   0.01763   0.01173  -0.0446  0.0054  1.0000  -6.0543   0.0000   0.0000   0.0000   0.2820
   8.600   1.1179   0.01819   0.01237  -0.0438  0.0055  1.0000  -6.1312   0.0000   0.0000   0.0000   0.2809
   8.700   1.1242   0.01879   0.01306  -0.0430  0.0055  1.0000  -6.2029   0.0000   0.0000   0.0000   0.2799
   8.800   1.1301   0.01945   0.01381  -0.0422  0.0056  1.0000  -6.2693   0.0000   0.0000   0.0000   0.2788
   8.900   1.1358   0.02016   0.01462  -0.0413  0.0056  1.0000  -6.3439   0.0000   0.0000   0.0000   0.2778
   9.000   1.1413   0.02093   0.01549  -0.0404  0.0057  1.0000  -6.4252   0.0000   0.0000   0.0000   0.2767
   9.100   1.1466   0.02176   0.01643  -0.0395  0.0058  1.0000  -6.5012   0.0000   0.0000   0.0000   0.2756
   9.200   1.1516   0.02267   0.01743  -0.0386  0.0058  1.0000  -6.5718   0.0000   0.0000   0.0000   0.2745
   9.300   1.1565   0.02364   0.01852  -0.0376  0.0059  1.0000  -6.6370   0.0000   0.0000   0.0000   0.2735
   9.400   1.1611   0.02468   0.01968  -0.0367  0.0060  1.0000  -6.6964   0.0000   0.0000   0.0000   0.2724
   9.500   1.1653   0.02581   0.02093  -0.0357  0.0061  1.0000  -6.7487   0.0000   0.0000   0.0000   0.2714
   9.600   1.1691   0.02702   0.02227  -0.0347  0.0062  1.0000  -6.7927   0.0000   0.0000   0.0000   0.2703
   9.700   1.1723   0.02829   0.02368  -0.0337  0.0063  1.0000  -6.8295   0.0000   0.0000   0.0000   0.2692
   9.800   1.1750   0.02963   0.02515  -0.0326  0.0065  1.0000  -6.8594   0.0000   0.0000   0.0000   0.2681
   9.900   1.1769   0.03102   0.02668  -0.0314  0.0066  1.0000  -6.8828   0.0000   0.0000   0.0000   0.2670
  10.000   1.1781   0.03245   0.02824  -0.0303  0.0067  1.0000  -6.8995   0.0000   0.0000   0.0000   0.2659
  10.100   1.1783   0.03391   0.02984  -0.0290  0.0068  1.0000  -6.9098   0.0000   0.0000   0.0000   0.2647
  10.200   1.1776   0.03540   0.03146  -0.0277  0.0069  1.0000  -6.9139   0.0000   0.0000   0.0000   0.2635
  10.300   1.1760   0.03689   0.03308  -0.0264  0.0070  1.0000  -6.9124   0.0000   0.0000   0.0000   0.2623
  10.400   1.1733   0.03835   0.03468  -0.0250  0.0071  1.0000  -6.9059   0.0000   0.0000   0.0000   0.2610
  10.500   1.1690   0.03969   0.03613  -0.0233  0.0072  1.0000  -6.8953   0.0000   0.0000   0.0000   0.2596
  10.600   1.1638   0.04099   0.03753  -0.0216  0.0072  1.0000  -6.8818   0.0000   0.0000   0.0000   0.2581
  10.700   1.1579   0.04227   0.03891  -0.0199  0.0073  1.0000  -6.8659   0.0000   0.0000   0.0000   0.2566
  10.800   1.1516   0.04358   0.04031  -0.0184  0.0073  1.0000  -6.8478   0.0000   0.0000   0.0000   0.2553
  10.900   1.1448   0.04490   0.04173  -0.0170  0.0074  1.0000  -6.8279   0.0000   0.0000   0.0000   0.2540
  11.000   1.1378   0.04629   0.04320  -0.0158  0.0074  1.0000  -6.8061   0.0000   0.0000   0.0000   0.2529
  11.100   1.1306   0.04774   0.04474  -0.0148  0.0075  1.0000  -6.7825   0.0000   0.0000   0.0000   0.2520
  11.200   1.1231   0.04923   0.04631  -0.0140  0.0075  1.0000  -6.7576   0.0000   0.0000   0.0000   0.2513
  11.300   1.1154   0.05078   0.04794  -0.0134  0.0075  1.0000  -6.7313   0.0000   0.0000   0.0000   0.2507
  11.400   1.1077   0.05243   0.04967  -0.0131  0.0076  1.0000  -6.7033   0.0000   0.0000   0.0000   0.2504
  11.500   1.1000   0.05419   0.05150  -0.0131  0.0076  1.0000  -6.6737   0.0000   0.0000   0.0000   0.2503
  11.600   1.0922   0.05606   0.05345  -0.0133  0.0076  1.0000  -6.6424   0.0000   0.0000   0.0000   0.2504
  11.700   1.0845   0.05804   0.05549  -0.0137  0.0076  1.0000  -6.6094   0.0000   0.0000   0.0000   0.2507
  11.800   1.0766   0.06012   0.05765  -0.0144  0.0076  1.0000  -6.5748   0.0000   0.0000   0.0000   0.2513
  11.900   1.0689   0.06232   0.05991  -0.0153  0.0077  1.0000  -6.5381   0.0000   0.0000   0.0000   0.2521
  12.000   1.0612   0.06463   0.06229  -0.0165  0.0077  1.0000  -6.4997   0.0000   0.0000   0.0000   0.2531
  12.100   1.0534   0.06701   0.06472  -0.0178  0.0077  1.0000  -6.4596   0.0000   0.0000   0.0000   0.2543
  12.200   1.0456   0.06948   0.06726  -0.0193  0.0077  1.0000  -6.4173   0.0000   0.0000   0.0000   0.2557
  12.300   1.0379   0.07215   0.06998  -0.0211  0.0077  1.0000  -6.3721   0.0000   0.0000   0.0000   0.2574
  12.400   1.0305   0.07497   0.07286  -0.0230  0.0077  1.0000  -6.3234   0.0000   0.0000   0.0000   0.2592
  12.500   1.0231   0.07797   0.07591  -0.0251  0.0076  1.0000  -6.2711   0.0000   0.0000   0.0000   0.2613
  12.600   1.0157   0.08115   0.07914  -0.0274  0.0076  1.0000  -6.2145   0.0000   0.0000   0.0000   0.2636
  12.700   1.0086   0.08445   0.08249  -0.0298  0.0076  1.0000  -6.1532   0.0000   0.0000   0.0000   0.2661
  12.800   1.0013   0.08795   0.08604  -0.0324  0.0076  1.0000  -6.0862   0.0000   0.0000   0.0000   0.2687
  12.900   0.9941   0.09162   0.08975  -0.0350  0.0076  1.0000  -6.0123   0.0000   0.0000   0.0000   0.2716
  13.000   0.9870   0.09539   0.09357  -0.0377  0.0076  1.0000  -5.9313   0.0000   0.0000   0.0000   0.2744
  13.100   0.9796   0.09941   0.09763  -0.0405  0.0075  1.0000  -5.8397   0.0000   0.0000   0.0000   0.2775
  13.200   0.9721   0.10361   0.10187  -0.0434  0.0075  1.0000  -5.7355   0.0000   0.0000   0.0000   0.2807
  13.300   0.9644   0.10797   0.10626  -0.0462  0.0075  1.0000  -5.6172   0.0000   0.0000   0.0000   0.2840
  13.400   0.9562   0.11259   0.11090  -0.0490  0.0074  1.0000  -5.4788   0.0000   0.0000   0.0000   0.2874
  13.500   0.9474   0.11755   0.11590  -0.0519  0.0074  1.0000  -5.3107   0.0000   0.0000   0.0000   0.2909
  13.600   0.9378   0.12284   0.12120  -0.0548  0.0074  1.0000  -5.1068   0.0000   0.0000   0.0000   0.2946
  13.700   0.9276   0.12836   0.12673  -0.0575  0.0074  1.0000  -4.8637   0.0000   0.0000   0.0000   0.2983
  13.800   0.9173   0.13393   0.13229  -0.0601  0.0074  1.0000  -4.5929   0.0000   0.0000   0.0000   0.3019
  13.900   0.9094   0.13862   0.13697  -0.0623  0.0075  1.0000  -4.3788   0.0000   0.0000   0.0000   0.3050
  14.000   0.9031   0.14279   0.14112  -0.0644  0.0076  1.0000  -4.2009   0.0000   0.0000   0.0000   0.3077
  14.100   0.8979   0.14654   0.14487  -0.0663  0.0077  1.0000  -4.0455   0.0000   0.0000   0.0000   0.3103
  14.200   0.8935   0.14983   0.14814  -0.0680  0.0077  1.0000  -3.9069   0.0000   0.0000   0.0000   0.3126
  14.300   0.8898   0.15293   0.15124  -0.0697  0.0078  1.0000  -3.7796   0.0000   0.0000   0.0000   0.3148
  14.400   0.8866   0.15599   0.15428  -0.0713  0.0080  1.0000  -3.6604   0.0000   0.0000   0.0000   0.3168
  14.500   0.8838   0.15901   0.15730  -0.0728  0.0081  1.0000  -3.5466   0.0000   0.0000   0.0000   0.3188
  14.600   0.8813   0.16205   0.16033  -0.0744  0.0082  1.0000  -3.4352   0.0000   0.0000   0.0000   0.3207
  14.700   0.8788   0.16515   0.16343  -0.0759  0.0084  1.0000  -3.3205   0.0000   0.0000   0.0000   0.3227
  14.800   0.8757   0.16853   0.16679  -0.0775  0.0086  1.0000  -3.1836   0.0000   0.0000   0.0000   0.3248
  15.800   0.8742   0.19497   0.19320  -0.0884  0.0093  1.0000  -2.5892   0.0000   0.0000   0.0000   0.3367
  15.900   0.8757   0.19716   0.19539  -0.0893  0.0093  1.0000  -2.5738   0.0000   0.0000   0.0000   0.3374
  16.000   0.8774   0.19935   0.19759  -0.0902  0.0093  1.0000  -2.5590   0.0000   0.0000   0.0000   0.3382
  16.100   0.8790   0.20155   0.19978  -0.0911  0.0093  1.0000  -2.5447   0.0000   0.0000   0.0000   0.3389
  16.200   0.8807   0.20374   0.20198  -0.0920  0.0093  1.0000  -2.5309   0.0000   0.0000   0.0000   0.3396
  16.300   0.8824   0.20594   0.20418  -0.0929  0.0093  1.0000  -2.5174   0.0000   0.0000   0.0000   0.3404
  16.400   0.8841   0.20814   0.20638  -0.0938  0.0093  1.0000  -2.5042   0.0000   0.0000   0.0000   0.3410
  16.500   0.8858   0.21035   0.20858  -0.0947  0.0093  1.0000  -2.4912   0.0000   0.0000   0.0000   0.3417
  16.600   0.8876   0.21256   0.21079  -0.0956  0.0093  1.0000  -2.4785   0.0000   0.0000   0.0000   0.3424
  16.700   0.8894   0.21477   0.21301  -0.0965  0.0093  1.0000  -2.4659   0.0000   0.0000   0.0000   0.3431
  16.800   0.8911   0.21699   0.21523  -0.0973  0.0093  1.0000  -2.4533   0.0000   0.0000   0.0000   0.3437
  16.900   0.8929   0.21921   0.21745  -0.0982  0.0093  1.0000  -2.4409   0.0000   0.0000   0.0000   0.3443
  17.000   0.8947   0.22144   0.21968  -0.0991  0.0093  1.0000  -2.4284   0.0000   0.0000   0.0000   0.3450
  17.100   0.8965   0.22367   0.22191  -0.0999  0.0093  1.0000  -2.4159   0.0000   0.0000   0.0000   0.3456
  17.200   0.8983   0.22591   0.22415  -0.1008  0.0093  1.0000  -2.4032   0.0000   0.0000   0.0000   0.3462
  17.300   0.9001   0.22815   0.22639  -0.1016  0.0093  1.0000  -2.3906   0.0000   0.0000   0.0000   0.3468
  17.400   0.9019   0.23037   0.22862  -0.1025  0.0093  1.0000  -2.3780   0.0000   0.0000   0.0000   0.3475
  17.500   0.9037   0.23259   0.23084  -0.1034  0.0093  1.0000  -2.3657   0.0000   0.0000   0.0000   0.3481
  17.600   0.9056   0.23480   0.23305  -0.1043  0.0092  1.0000  -2.3538   0.0000   0.0000   0.0000   0.3487
  17.700   0.9074   0.23699   0.23524  -0.1051  0.0092  1.0000  -2.3425   0.0000   0.0000   0.0000   0.3493
  17.800   0.9093   0.23917   0.23742  -0.1060  0.0092  1.0000  -2.3317   0.0000   0.0000   0.0000   0.3499
  17.900   0.9111   0.24136   0.23961  -0.1069  0.0092  1.0000  -2.3210   0.0000   0.0000   0.0000   0.3505
  18.000   0.9130   0.24356   0.24181  -0.1077  0.0092  1.0000  -2.3095   0.0000   0.0000   0.0000   0.3511
  18.100   0.9147   0.24582   0.24407  -0.1086  0.0092  1.0000  -2.2957   0.0000   0.0000   0.0000   0.3517
  18.200   0.9164   0.24810   0.24636  -0.1094  0.0091  1.0000  -2.2806   0.0000   0.0000   0.0000   0.3522
  18.300   0.9181   0.25040   0.24865  -0.1102  0.0091  1.0000  -2.2652   0.0000   0.0000   0.0000   0.3528
  18.400   0.9198   0.25270   0.25095  -0.1110  0.0091  1.0000  -2.2494   0.0000   0.0000   0.0000   0.3533
  18.500   0.9214   0.25500   0.25326  -0.1118  0.0091  1.0000  -2.2331   0.0000   0.0000   0.0000   0.3539
  18.600   0.9230   0.25732   0.25558  -0.1126  0.0091  1.0000  -2.2164   0.0000   0.0000   0.0000   0.3544
  18.700   0.9246   0.25964   0.25791  -0.1134  0.0091  1.0000  -2.1995   0.0000   0.0000   0.0000   0.3549
  18.800   0.9261   0.26197   0.26024  -0.1142  0.0091  1.0000  -2.1823   0.0000   0.0000   0.0000   0.3555
  18.900   0.9276   0.26431   0.26257  -0.1150  0.0091  1.0000  -2.1650   0.0000   0.0000   0.0000   0.3560
  19.000   0.9291   0.26665   0.26491  -0.1158  0.0091  1.0000  -2.1476   0.0000   0.0000   0.0000   0.3565
  19.100   0.9305   0.26899   0.26726  -0.1166  0.0091  1.0000  -2.1302   0.0000   0.0000   0.0000   0.3570
  19.200   0.9319   0.27134   0.26961  -0.1174  0.0091  1.0000  -2.1129   0.0000   0.0000   0.0000   0.3576
  19.300   0.9332   0.27369   0.27196  -0.1181  0.0091  1.0000  -2.0956   0.0000   0.0000   0.0000   0.3581
  19.400   0.9345   0.27604   0.27431  -0.1189  0.0091  1.0000  -2.0785   0.0000   0.0000   0.0000   0.3586
  19.500   0.9357   0.27839   0.27667  -0.1196  0.0090  1.0000  -2.0616   0.0000   0.0000   0.0000   0.3591
  19.600   0.9369   0.28074   0.27902  -0.1204  0.0090  1.0000  -2.0447   0.0000   0.0000   0.0000   0.3596
  19.700   0.9380   0.28309   0.28137  -0.1211  0.0090  1.0000  -2.0280   0.0000   0.0000   0.0000   0.3601
  19.800   0.9391   0.28543   0.28371  -0.1219  0.0090  1.0000  -2.0115   0.0000   0.0000   0.0000   0.3606
  19.900   0.9400   0.28777   0.28606  -0.1226  0.0090  1.0000  -1.9952   0.0000   0.0000   0.0000   0.3611
  20.000   0.9409   0.29011   0.28839  -0.1233  0.0090  1.0000  -1.9790   0.0000   0.0000   0.0000   0.3616
  20.100   0.9418   0.29243   0.29072  -0.1240  0.0090  1.0000  -1.9631   0.0000   0.0000   0.0000   0.3622
  20.200   0.9425   0.29475   0.29304  -0.1247  0.0090  1.0000  -1.9473   0.0000   0.0000   0.0000   0.3627
  20.300   0.9431   0.29705   0.29535  -0.1254  0.0090  1.0000  -1.9317   0.0000   0.0000   0.0000   0.3632
  20.400   0.9436   0.29934   0.29764  -0.1261  0.0090  1.0000  -1.9162   0.0000   0.0000   0.0000   0.3637
  20.500   0.9440   0.30161   0.29992  -0.1267  0.0090  1.0000  -1.9007   0.0000   0.0000   0.0000   0.3642
  20.600   0.9443   0.30386   0.30217  -0.1273  0.0090  1.0000  -1.8853   0.0000   0.0000   0.0000   0.3647
  20.700   0.9444   0.30608   0.30440  -0.1280  0.0089  1.0000  -1.8699   0.0000   0.0000   0.0000   0.3652
  20.800   0.9443   0.30827   0.30659  -0.1286  0.0089  1.0000  -1.8543   0.0000   0.0000   0.0000   0.3658
  20.900   0.9440   0.31042   0.30875  -0.1292  0.0089  1.0000  -1.8381   0.0000   0.0000   0.0000   0.3663
  21.000   0.9434   0.31253   0.31086  -0.1297  0.0089  1.0000  -1.8217   0.0000   0.0000   0.0000   0.3669
  21.100   0.9426   0.31457   0.31291  -0.1302  0.0089  1.0000  -1.8049   0.0000   0.0000   0.0000   0.3674
  21.200   0.9414   0.31653   0.31487  -0.1307  0.0089  1.0000  -1.7874   0.0000   0.0000   0.0000   0.3680
  21.300   0.9397   0.31838   0.31673  -0.1312  0.0089  1.0000  -1.7691   0.0000   0.0000   0.0000   0.3686
  21.400   0.9374   0.32007   0.31843  -0.1315  0.0089  1.0000  -1.7494   0.0000   0.0000   0.0000   0.3693
  21.500   0.8852   0.30955   0.30799  -0.1266  0.0089  1.0000  -1.6002   0.0000   0.0000   0.0000   0.3727
  21.600   0.8790   0.30918   0.30765  -0.1264  0.0089  1.0000  -1.5715   0.0000   0.0000   0.0000   0.3735
  21.700   0.8741   0.30912   0.30759  -0.1264  0.0089  1.0000  -1.5468   0.0000   0.0000   0.0000   0.3743
  21.800   0.8701   0.30921   0.30769  -0.1264  0.0088  1.0000  -1.5246   0.0000   0.0000   0.0000   0.3749
  21.900   0.8666   0.30940   0.30790  -0.1265  0.0088  1.0000  -1.5042   0.0000   0.0000   0.0000   0.3756
  22.000   0.8636   0.30966   0.30816  -0.1267  0.0088  1.0000  -1.4852   0.0000   0.0000   0.0000   0.3762
  22.100   0.8608   0.30997   0.30849  -0.1269  0.0088  1.0000  -1.4665   0.0000   0.0000   0.0000   0.3768
  22.200   0.8584   0.31034   0.30885  -0.1271  0.0088  1.0000  -1.4485   0.0000   0.0000   0.0000   0.3774
  22.300   0.8561   0.31073   0.30926  -0.1273  0.0088  1.0000  -1.4315   0.0000   0.0000   0.0000   0.3780
  22.400   0.8541   0.31116   0.30970  -0.1276  0.0087  1.0000  -1.4152   0.0000   0.0000   0.0000   0.3786
  22.500   0.8523   0.31162   0.31016  -0.1278  0.0087  1.0000  -1.3998   0.0000   0.0000   0.0000   0.3791
  22.600   0.8507   0.31210   0.31064  -0.1281  0.0087  1.0000  -1.3851   0.0000   0.0000   0.0000   0.3797
  22.700   0.8493   0.31260   0.31115  -0.1284  0.0086  1.0000  -1.3710   0.0000   0.0000   0.0000   0.3802
  22.800   0.8480   0.31312   0.31168  -0.1288  0.0086  1.0000  -1.3576   0.0000   0.0000   0.0000   0.3807
  22.900   0.8468   0.31366   0.31222  -0.1291  0.0086  1.0000  -1.3448   0.0000   0.0000   0.0000   0.3812
  23.000   0.8458   0.31422   0.31279  -0.1295  0.0085  1.0000  -1.3326   0.0000   0.0000   0.0000   0.3817
  23.100   0.8450   0.31480   0.31338  -0.1298  0.0084  1.0000  -1.3209   0.0000   0.0000   0.0000   0.3822
  23.200   0.8444   0.31541   0.31400  -0.1302  0.0083  1.0000  -1.3097   0.0000   0.0000   0.0000   0.3826
  23.300   0.8440   0.31605   0.31464  -0.1306  0.0082  1.0000  -1.2986   0.0000   0.0000   0.0000   0.3831
  23.400   0.8438   0.31673   0.31532  -0.1310  0.0080  1.0000  -1.2874   0.0000   0.0000   0.0000   0.3835
  23.500   0.8435   0.31741   0.31601  -0.1314  0.0078  1.0000  -1.2760   0.0000   0.0000   0.0000   0.3839
  23.600   0.8432   0.31808   0.31668  -0.1318  0.0075  1.0000  -1.2651   0.0000   0.0000   0.0000   0.3843
  23.700   0.8424   0.31866   0.31731  -0.1321  0.0074  1.0000  -1.2570   0.0000   0.0000   0.0000   0.3847
  23.800   0.8418   0.31929   0.31794  -0.1325  0.0072  1.0000  -1.2477   0.0000   0.0000   0.0000   0.3851
  23.900   0.8413   0.31991   0.31857  -0.1328  0.0070  1.0000  -1.2391   0.0000   0.0000   0.0000   0.3855
  24.000   0.8406   0.32052   0.31919  -0.1332  0.0068  1.0000  -1.2312   0.0000   0.0000   0.0000   0.3859
  24.100   0.8400   0.32113   0.31980  -0.1335  0.0066  1.0000  -1.2239   0.0000   0.0000   0.0000   0.3863
  24.200   0.8394   0.32174   0.32041  -0.1339  0.0064  1.0000  -1.2173   0.0000   0.0000   0.0000   0.3867
  24.300   0.8388   0.32234   0.32102  -0.1342  0.0062  1.0000  -1.2111   0.0000   0.0000   0.0000   0.3871
  24.400   0.8383   0.32295   0.32163  -0.1346  0.0060  1.0000  -1.2054   0.0000   0.0000   0.0000   0.3875
  24.500   0.8377   0.32355   0.32224  -0.1349  0.0059  1.0000  -1.2002   0.0000   0.0000   0.0000   0.3879
  24.600   0.8372   0.32415   0.32285  -0.1353  0.0057  1.0000  -1.1953   0.0000   0.0000   0.0000   0.3883
  24.700   0.8367   0.32476   0.32346  -0.1356  0.0056  1.0000  -1.1909   0.0000   0.0000   0.0000   0.3887
  24.800   0.8362   0.32537   0.32407  -0.1360  0.0054  1.0000  -1.1868   0.0000   0.0000   0.0000   0.3890
  24.900   0.8358   0.32597   0.32468  -0.1364  0.0053  1.0000  -1.1832   0.0000   0.0000   0.0000   0.3894
  25.000   0.8354   0.32658   0.32529  -0.1367  0.0052  1.0000  -1.1799   0.0000   0.0000   0.0000   0.3898
  25.100   0.8350   0.32719   0.32591  -0.1371  0.0050  1.0000  -1.1769   0.0000   0.0000   0.0000   0.3902
  25.200   0.8346   0.32780   0.32652  -0.1375  0.0049  1.0000  -1.1743   0.0000   0.0000   0.0000   0.3905
  25.300   0.8343   0.32840   0.32713  -0.1378  0.0048  1.0000  -1.1721   0.0000   0.0000   0.0000   0.3909
  25.400   0.8340   0.32901   0.32775  -0.1382  0.0047  1.0000  -1.1702   0.0000   0.0000   0.0000   0.3912
  25.500   0.8337   0.32962   0.32836  -0.1386  0.0046  1.0000  -1.1687   0.0000   0.0000   0.0000   0.3916
  25.600   0.8334   0.33023   0.32897  -0.1390  0.0045  1.0000  -1.1675   0.0000   0.0000   0.0000   0.3920
  25.700   0.8331   0.33084   0.32959  -0.1393  0.0044  1.0000  -1.1666   0.0000   0.0000   0.0000   0.3923
  25.800   0.8329   0.33145   0.33020  -0.1397  0.0043  1.0000  -1.1662   0.0000   0.0000   0.0000   0.3926
  25.900   0.8326   0.33205   0.33081  -0.1401  0.0042  1.0000  -1.1661   0.0000   0.0000   0.0000   0.3930


