xflr5 v6.61

 Calculated polar for: RG-15 8.9%

 1 1 Reynolds number fixed          Mach number fixed         

 xtrf =   1.000 (top)        1.000 (bottom)
 Mach =   0.000     Re =     0.100 e 6     Ncrit =   9.000

  alpha     CL        CD       CDp       Cm    Top Xtr Bot Xtr   Cpmin    Chinge    XCp    
 ------- -------- --------- --------- -------- ------- ------- -------- --------- ---------
 -10.000  -0.4799   0.11913   0.11377  -0.0229  1.0000  0.0697  -1.6047   0.0000   0.0000   0.0000   0.1967
  -9.900  -0.4794   0.11781   0.11246  -0.0237  1.0000  0.0698  -1.6159   0.0000   0.0000   0.0000   0.1951
  -9.800  -0.4791   0.11645   0.11112  -0.0245  1.0000  0.0699  -1.6273   0.0000   0.0000   0.0000   0.1934
  -9.700  -0.4788   0.11506   0.10975  -0.0253  1.0000  0.0699  -1.6391   0.0000   0.0000   0.0000   0.1918
  -9.600  -0.4785   0.11364   0.10834  -0.0262  1.0000  0.0700  -1.6512   0.0000   0.0000   0.0000   0.1901
  -9.500  -0.4783   0.11217   0.10689  -0.0270  1.0000  0.0700  -1.6638   0.0000   0.0000   0.0000   0.1884
  -9.400  -0.4783   0.11068   0.10542  -0.0279  1.0000  0.0701  -1.6770   0.0000   0.0000   0.0000   0.1867
  -9.300  -0.4851   0.10593   0.10075  -0.0289  1.0000  0.0710  -1.7412   0.0000   0.0000   0.0000   0.1854
  -9.200  -0.4869   0.10199   0.09683  -0.0284  1.0000  0.0723  -1.7465   0.0000   0.0000   0.0000   0.1867
  -9.100  -0.4800   0.09992   0.09475  -0.0268  1.0000  0.0735  -1.6882   0.0000   0.0000   0.0000   0.1893
  -9.000  -0.4757   0.09839   0.09322  -0.0260  1.0000  0.0744  -1.6520   0.0000   0.0000   0.0000   0.1904
  -8.900  -0.4722   0.09700   0.09184  -0.0255  1.0000  0.0753  -1.6240   0.0000   0.0000   0.0000   0.1911
  -8.800  -0.4690   0.09567   0.09052  -0.0252  1.0000  0.0761  -1.6009   0.0000   0.0000   0.0000   0.1914
  -8.700  -0.4667   0.09436   0.08921  -0.0251  1.0000  0.0769  -1.5846   0.0000   0.0000   0.0000   0.1914
  -8.600  -0.4650   0.09305   0.08792  -0.0252  1.0000  0.0777  -1.5735   0.0000   0.0000   0.0000   0.1912
  -8.500  -0.4639   0.09174   0.08662  -0.0253  1.0000  0.0784  -1.5663   0.0000   0.0000   0.0000   0.1908
  -8.400  -0.4631   0.09042   0.08532  -0.0255  1.0000  0.0791  -1.5623   0.0000   0.0000   0.0000   0.1903
  -8.300  -0.4628   0.08909   0.08402  -0.0258  1.0000  0.0798  -1.5610   0.0000   0.0000   0.0000   0.1897
  -8.200  -0.4628   0.08776   0.08271  -0.0262  1.0000  0.0805  -1.5622   0.0000   0.0000   0.0000   0.1891
  -8.100  -0.4633   0.08641   0.08139  -0.0265  1.0000  0.0812  -1.5656   0.0000   0.0000   0.0000   0.1885
  -8.000  -0.4642   0.08506   0.08007  -0.0269  1.0000  0.0818  -1.5710   0.0000   0.0000   0.0000   0.1878
  -7.900  -0.4655   0.08371   0.07874  -0.0273  1.0000  0.0824  -1.5786   0.0000   0.0000   0.0000   0.1872
  -7.800  -0.4675   0.08236   0.07742  -0.0277  1.0000  0.0829  -1.5883   0.0000   0.0000   0.0000   0.1867
  -7.700  -0.4701   0.08102   0.07611  -0.0282  1.0000  0.0834  -1.6001   0.0000   0.0000   0.0000   0.1862
  -7.600  -0.4733   0.07966   0.07479  -0.0286  1.0000  0.0838  -1.6143   0.0000   0.0000   0.0000   0.1858
  -7.500  -0.4764   0.07818   0.07334  -0.0294  1.0000  0.0842  -1.6304   0.0000   0.0000   0.0000   0.1847
  -7.400  -0.4784   0.07649   0.07168  -0.0307  1.0000  0.0847  -1.6480   0.0000   0.0000   0.0000   0.1823
  -7.300  -0.4803   0.07478   0.06998  -0.0320  1.0000  0.0851  -1.6664   0.0000   0.0000   0.0000   0.1801
  -7.200  -0.4819   0.07311   0.06832  -0.0330  1.0000  0.0856  -1.6834   0.0000   0.0000   0.0000   0.1783
  -7.100  -0.4833   0.07144   0.06666  -0.0339  1.0000  0.0860  -1.7000   0.0000   0.0000   0.0000   0.1767
  -7.000  -0.4845   0.06977   0.06498  -0.0347  1.0000  0.0864  -1.7164   0.0000   0.0000   0.0000   0.1752
  -6.900  -0.4854   0.06809   0.06328  -0.0355  1.0000  0.0866  -1.7324   0.0000   0.0000   0.0000   0.1738
  -6.800  -0.4860   0.06638   0.06157  -0.0361  1.0000  0.0867  -1.7484   0.0000   0.0000   0.0000   0.1726
  -6.700  -0.4918   0.06055   0.05550  -0.0399  1.0000  0.0618  -2.0116   0.0000   0.0000   0.0000   0.1657
  -6.600  -0.4916   0.05528   0.04981  -0.0418  1.0000  0.0439  -2.3353   0.0000   0.0000   0.0000   0.1614
  -6.500  -0.4919   0.05316   0.04764  -0.0417  1.0000  0.0429  -2.3532   0.0000   0.0000   0.0000   0.1617
  -6.400  -0.4910   0.05125   0.04567  -0.0416  1.0000  0.0422  -2.3701   0.0000   0.0000   0.0000   0.1619
  -6.300  -0.4895   0.04943   0.04377  -0.0415  1.0000  0.0415  -2.3876   0.0000   0.0000   0.0000   0.1620
  -6.200  -0.4873   0.04766   0.04190  -0.0413  1.0000  0.0408  -2.4049   0.0000   0.0000   0.0000   0.1620
  -6.100  -0.4845   0.04592   0.04006  -0.0411  1.0000  0.0402  -2.4220   0.0000   0.0000   0.0000   0.1619
  -6.000  -0.4811   0.04421   0.03823  -0.0408  1.0000  0.0396  -2.4390   0.0000   0.0000   0.0000   0.1619
  -5.900  -0.4772   0.04254   0.03643  -0.0405  1.0000  0.0390  -2.4553   0.0000   0.0000   0.0000   0.1617
  -5.800  -0.4728   0.04090   0.03466  -0.0403  1.0000  0.0386  -2.4704   0.0000   0.0000   0.0000   0.1616
  -5.700  -0.4678   0.03932   0.03292  -0.0399  1.0000  0.0381  -2.4839   0.0000   0.0000   0.0000   0.1613
  -5.600  -0.4624   0.03779   0.03123  -0.0396  1.0000  0.0378  -2.4952   0.0000   0.0000   0.0000   0.1610
  -5.500  -0.4564   0.03633   0.02961  -0.0393  1.0000  0.0375  -2.5036   0.0000   0.0000   0.0000   0.1607
  -5.400  -0.4500   0.03494   0.02805  -0.0389  1.0000  0.0374  -2.5084   0.0000   0.0000   0.0000   0.1603
  -5.300  -0.4431   0.03364   0.02658  -0.0385  1.0000  0.0373  -2.5093   0.0000   0.0000   0.0000   0.1598
  -5.200  -0.4359   0.03242   0.02518  -0.0381  1.0000  0.0373  -2.5062   0.0000   0.0000   0.0000   0.1592
  -5.100  -0.4283   0.03127   0.02387  -0.0378  1.0000  0.0374  -2.4991   0.0000   0.0000   0.0000   0.1586
  -5.000  -0.4205   0.03020   0.02264  -0.0374  1.0000  0.0377  -2.4884   0.0000   0.0000   0.0000   0.1578
  -4.900  -0.4123   0.02920   0.02148  -0.0370  1.0000  0.0380  -2.4745   0.0000   0.0000   0.0000   0.1570
  -4.800  -0.4039   0.02827   0.02040  -0.0366  1.0000  0.0384  -2.4577   0.0000   0.0000   0.0000   0.1561
  -4.700  -0.3953   0.02740   0.01938  -0.0362  1.0000  0.0388  -2.4384   0.0000   0.0000   0.0000   0.1551
  -4.600  -0.3865   0.02658   0.01843  -0.0359  1.0000  0.0393  -2.4172   0.0000   0.0000   0.0000   0.1540
  -4.500  -0.3776   0.02584   0.01757  -0.0355  1.0000  0.0401  -2.3922   0.0000   0.0000   0.0000   0.1528
  -4.400  -0.3688   0.02549   0.01713  -0.0351  1.0000  0.0420  -2.3444   0.0000   0.0000   0.0000   0.1517
  -4.300  -0.3602   0.02583   0.01743  -0.0346  1.0000  0.0449  -2.2680   0.0000   0.0000   0.0000   0.1508
  -4.200  -0.3514   0.02470   0.01613  -0.0345  1.0000  0.0477  -2.2467   0.0000   0.0000   0.0000   0.1488
  -4.100  -0.3436   0.02355   0.01504  -0.0345  1.0000  0.0524  -2.1920   0.0000   0.0000   0.0000   0.1463
  -4.000  -0.3361   0.02362   0.01521  -0.0344  1.0000  0.0579  -2.1023   0.0000   0.0000   0.0000   0.1447
  -3.900  -0.3275   0.02344   0.01502  -0.0340  1.0000  0.0619  -2.0481   0.0000   0.0000   0.0000   0.1431
  -3.800  -0.3182   0.02304   0.01455  -0.0337  1.0000  0.0644  -2.0158   0.0000   0.0000   0.0000   0.1412
  -3.700  -0.3085   0.02250   0.01392  -0.0333  1.0000  0.0659  -1.9953   0.0000   0.0000   0.0000   0.1391
  -3.600  -0.2986   0.02185   0.01319  -0.0329  1.0000  0.0668  -1.9830   0.0000   0.0000   0.0000   0.1367
  -3.500  -0.2885   0.02121   0.01246  -0.0326  1.0000  0.0676  -1.9738   0.0000   0.0000   0.0000   0.1341
  -3.400  -0.2785   0.02065   0.01182  -0.0322  1.0000  0.0687  -1.9647   0.0000   0.0000   0.0000   0.1315
  -3.300  -0.2686   0.02020   0.01131  -0.0317  1.0000  0.0700  -1.9553   0.0000   0.0000   0.0000   0.1287
  -3.200  -0.2574   0.01864   0.00975  -0.0316  1.0000  0.0746  -1.9941   0.0000   0.0000   0.0000   0.1243
  -3.100  -0.2474   0.01787   0.00906  -0.0313  1.0000  0.0832  -2.0103   0.0000   0.0000   0.0000   0.1203
  -3.000  -0.2362   0.01668   0.00805  -0.0311  1.0000  0.1212  -2.1434   0.0000   0.0000   0.0000   0.1154
  -2.900  -0.2260   0.01575   0.00749  -0.0311  1.0000  0.1839  -2.1651   0.0000   0.0000   0.0000   0.1094
  -2.800  -0.2160   0.01470   0.00706  -0.0312  1.0000  0.2833  -2.1434   0.0000   0.0000   0.0000   0.1023
  -2.700  -0.2083   0.01358   0.00693  -0.0309  1.0000  0.4673  -2.0989   0.0000   0.0000   0.0000   0.0986
  -2.600  -0.2057   0.01317   0.00723  -0.0285  1.0000  0.6242  -2.0558   0.0000   0.0000   0.0000   0.1082
  -2.500  -0.2022   0.01313   0.00738  -0.0264  1.0000  0.6987  -2.0088   0.0000   0.0000   0.0000   0.1165
  -2.400  -0.1984   0.01313   0.00747  -0.0244  1.0000  0.7413  -1.9599   0.0000   0.0000   0.0000   0.1241
  -2.300  -0.1940   0.01315   0.00750  -0.0226  1.0000  0.7723  -1.9086   0.0000   0.0000   0.0000   0.1304
  -2.200  -0.1898   0.01318   0.00753  -0.0209  1.0000  0.8005  -1.8577   0.0000   0.0000   0.0000   0.1371
  -2.100  -0.1872   0.01318   0.00757  -0.0187  1.0000  0.8253  -1.8111   0.0000   0.0000   0.0000   0.1474
  -2.000  -0.1840   0.01319   0.00758  -0.0167  1.0000  0.8515  -1.7630   0.0000   0.0000   0.0000   0.1562
  -1.900  -0.1814   0.01318   0.00757  -0.0145  1.0000  0.8766  -1.7158   0.0000   0.0000   0.0000   0.1672
  -1.800  -0.1760   0.01317   0.00733  -0.0130  1.0000  0.8998  -1.6152   0.0000   0.0000   0.0000   0.1735
  -1.700  -0.1661   0.01315   0.00729  -0.0124  1.0000  0.9297  -1.5481   0.0000   0.0000   0.0000   0.1728
  -1.600  -0.1417   0.01316   0.00723  -0.0147  1.0000  0.9681  -1.4350   0.0000   0.0000   0.0000   0.1437
  -1.500  -0.1178   0.01314   0.00710  -0.0175  1.0000  1.0000  -1.3271   0.0000   0.0000   0.0000   0.0988
  -1.400  -0.1127   0.01312   0.00701  -0.0171  1.0000  1.0000  -1.2816   0.0000   0.0000   0.0000   0.0952
  -1.300  -0.1060   0.01313   0.00695  -0.0170  1.0000  1.0000  -1.2309   0.0000   0.0000   0.0000   0.0864
  -1.200  -0.0983   0.01316   0.00691  -0.0171  1.0000  1.0000  -1.1774   0.0000   0.0000   0.0000   0.0735
  -1.100  -0.0900   0.01321   0.00689  -0.0172  1.0000  1.0000  -1.1228   0.0000   0.0000   0.0000   0.0565
  -1.000  -0.0815   0.01328   0.00689  -0.0173  1.0000  1.0000  -1.0676   0.0000   0.0000   0.0000   0.0348
  -0.900  -0.0728   0.01336   0.00690  -0.0175  1.0000  1.0000  -1.0125   0.0000   0.0000   0.0000   0.0073
  -0.800  -0.0640   0.01345   0.00693  -0.0176  1.0000  1.0000  -0.9579   0.0000   0.0000   0.0000  -0.0281
  -0.700  -0.0542   0.01356   0.00697  -0.0180  0.9997  1.0000  -0.9008   0.0000   0.0000   0.0000  -0.0844
  -0.600  -0.0328   0.01377   0.00711  -0.0203  0.9957  1.0000  -0.8114   0.0000   0.0000   0.0000  -0.3732
  -0.500  -0.0126   0.01396   0.00723  -0.0225  0.9913  1.0000  -0.7269   0.0000   0.0000   0.0000  -1.5512
  -0.400   0.0082   0.01417   0.00738  -0.0248  0.9879  1.0000  -0.6433   0.0000   0.0000   0.0000   3.2809
  -0.300   0.0264   0.01430   0.00746  -0.0265  0.9833  1.0000  -0.5688   0.0000   0.0000   0.0000   1.2571
  -0.200   0.0456   0.01445   0.00756  -0.0284  0.9786  1.0000  -0.4935   0.0000   0.0000   0.0000   0.8739
  -0.100   0.0669   0.01462   0.00769  -0.0307  0.9747  1.0000  -0.4155   0.0000   0.0000   0.0000   0.7088
   0.000   0.0869   0.01476   0.00779  -0.0327  0.9705  1.0000  -0.3667   0.0000   0.0000   0.0000   0.6257
   0.100   0.1032   0.01482   0.00783  -0.0340  0.9642  1.0000  -0.3787   0.0000   0.0000   0.0000   0.5784
   0.200   0.1229   0.01492   0.00790  -0.0359  0.9593  1.0000  -0.3927   0.0000   0.0000   0.0000   0.5409
   0.300   0.1443   0.01503   0.00800  -0.0381  0.9554  1.0000  -0.4078   0.0000   0.0000   0.0000   0.5126
   0.400   0.1664   0.01515   0.00812  -0.0404  0.9522  1.0000  -0.4234   0.0000   0.0000   0.0000   0.4914
   0.500   0.1771   0.01516   0.00812  -0.0405  0.9447  1.0000  -0.4328   0.0000   0.0000   0.0000   0.4775
   0.600   0.1946   0.01521   0.00816  -0.0419  0.9390  1.0000  -0.4477   0.0000   0.0000   0.0000   0.4639
   0.800   0.2379   0.01527   0.00805  -0.0460  0.9306  1.0000  -0.4831   0.0000   0.0000   0.0000   0.4419
   0.900   0.2625   0.01528   0.00806  -0.0486  0.9277  1.0000  -0.5029   0.0000   0.0000   0.0000   0.4336
   1.000   0.2687   0.01530   0.00807  -0.0478  0.9183  1.0000  -0.5108   0.0000   0.0000   0.0000   0.4262
   1.100   0.2852   0.01529   0.00805  -0.0488  0.9122  1.0000  -0.5275   0.0000   0.0000   0.0000   0.4195
   1.200   0.3052   0.01525   0.00801  -0.0505  0.9075  1.0000  -0.5470   0.0000   0.0000   0.0000   0.4137
   1.300   0.3267   0.01518   0.00802  -0.0524  0.9040  1.0000  -0.5679   0.0000   0.0000   0.0000   0.4086
   1.400   0.3509   0.01507   0.00791  -0.0548  0.9010  1.0000  -0.5911   0.0000   0.0000   0.0000   0.4042
   1.500   0.3756   0.01494   0.00779  -0.0571  0.8981  1.0000  -0.6174   0.0000   0.0000   0.0000   0.4002
   1.600   0.3779   0.01502   0.00785  -0.0555  0.8868  1.0000  -0.6259   0.0000   0.0000   0.0000   0.3949
   1.700   0.3939   0.01494   0.00778  -0.0563  0.8801  1.0000  -0.6462   0.0000   0.0000   0.0000   0.3908
   1.800   0.4130   0.01482   0.00766  -0.0575  0.8748  1.0000  -0.6695   0.0000   0.0000   0.0000   0.3873
   1.900   0.4336   0.01467   0.00752  -0.0590  0.8703  1.0000  -0.6959   0.0000   0.0000   0.0000   0.3840
   2.000   0.4554   0.01450   0.00736  -0.0607  0.8662  1.0000  -0.7264   0.0000   0.0000   0.0000   0.3811
   2.100   0.4646   0.01452   0.00739  -0.0602  0.8574  1.0000  -0.7442   0.0000   0.0000   0.0000   0.3774
   2.200   0.4748   0.01449   0.00737  -0.0598  0.8480  1.0000  -0.7632   0.0000   0.0000   0.0000   0.3738
   2.300   0.4905   0.01437   0.00726  -0.0603  0.8406  1.0000  -0.7881   0.0000   0.0000   0.0000   0.3707
   2.400   0.5081   0.01421   0.00711  -0.0611  0.8342  1.0000  -0.8153   0.0000   0.0000   0.0000   0.3680
   2.500   0.5265   0.01406   0.00696  -0.0620  0.8284  1.0000  -0.8441   0.0000   0.0000   0.0000   0.3654
   2.600   0.5350   0.01411   0.00702  -0.0614  0.8188  1.0000  -0.8663   0.0000   0.0000   0.0000   0.3623
   2.700   0.5448   0.01410   0.00703  -0.0609  0.8084  1.0000  -0.8904   0.0000   0.0000   0.0000   0.3594
   2.800   0.5581   0.01401   0.00694  -0.0610  0.7993  1.0000  -0.9225   0.0000   0.0000   0.0000   0.3567
   2.900   0.5732   0.01389   0.00681  -0.0612  0.7913  1.0000  -0.9618   0.0000   0.0000   0.0000   0.3541
   3.000   0.5866   0.01386   0.00677  -0.0613  0.7826  1.0000  -0.9986   0.0000   0.0000   0.0000   0.3517
   3.100   0.5940   0.01392   0.00685  -0.0604  0.7708  1.0000  -1.0257   0.0000   0.0000   0.0000   0.3490
   3.200   0.6047   0.01390   0.00684  -0.0600  0.7599  1.0000  -1.0587   0.0000   0.0000   0.0000   0.3465
   3.300   0.6175   0.01384   0.00675  -0.0599  0.7500  1.0000  -1.0956   0.0000   0.0000   0.0000   0.3441
   3.400   0.6311   0.01384   0.00670  -0.0599  0.7402  1.0000  -1.1340   0.0000   0.0000   0.0000   0.3420
   3.500   0.6384   0.01392   0.00682  -0.0591  0.7279  1.0000  -1.1617   0.0000   0.0000   0.0000   0.3396
   3.600   0.6480   0.01393   0.00684  -0.0586  0.7156  1.0000  -1.1939   0.0000   0.0000   0.0000   0.3373
   3.700   0.6597   0.01392   0.00678  -0.0582  0.7041  1.0000  -1.2301   0.0000   0.0000   0.0000   0.3351
   3.800   0.6715   0.01399   0.00679  -0.0580  0.6928  1.0000  -1.2666   0.0000   0.0000   0.0000   0.3331
   3.900   0.6795   0.01406   0.00691  -0.0573  0.6799  1.0000  -1.2961   0.0000   0.0000   0.0000   0.3310
   4.000   0.6890   0.01410   0.00694  -0.0568  0.6667  1.0000  -1.3316   0.0000   0.0000   0.0000   0.3290
   4.100   0.7001   0.01415   0.00691  -0.0563  0.6541  1.0000  -1.4022   0.0000   0.0000   0.0000   0.3270
   4.200   0.7104   0.01426   0.00732  -0.0559  0.6420  1.0000  -1.4929   0.0000   0.0000   0.0000   0.3251
   4.300   0.7188   0.01433   0.00745  -0.0553  0.6278  1.0000  -1.5544   0.0000   0.0000   0.0000   0.3233
   4.400   0.7284   0.01440   0.00750  -0.0547  0.6137  1.0000  -1.6224   0.0000   0.0000   0.0000   0.3214
   4.500   0.7390   0.01454   0.00751  -0.0543  0.5998  1.0000  -1.6959   0.0000   0.0000   0.0000   0.3196
   4.600   0.7475   0.01464   0.00766  -0.0537  0.5858  1.0000  -1.7611   0.0000   0.0000   0.0000   0.3180
   4.700   0.7563   0.01473   0.00775  -0.0531  0.5706  1.0000  -1.8290   0.0000   0.0000   0.0000   0.3162
   4.800   0.7658   0.01486   0.00778  -0.0525  0.5555  1.0000  -1.9014   0.0000   0.0000   0.0000   0.3145
   4.900   0.7750   0.01502   0.00790  -0.0520  0.5408  1.0000  -1.9723   0.0000   0.0000   0.0000   0.3130
   5.000   0.7835   0.01512   0.00805  -0.0514  0.5250  1.0000  -2.0412   0.0000   0.0000   0.0000   0.3114
   5.100   0.7924   0.01527   0.00810  -0.0508  0.5087  1.0000  -2.1134   0.0000   0.0000   0.0000   0.3098
   5.200   0.8013   0.01549   0.00822  -0.0502  0.4926  1.0000  -2.1860   0.0000   0.0000   0.0000   0.3083
   5.300   0.8096   0.01559   0.00838  -0.0497  0.4757  1.0000  -2.2565   0.0000   0.0000   0.0000   0.3068
   5.400   0.8180   0.01578   0.00847  -0.0490  0.4584  1.0000  -2.3289   0.0000   0.0000   0.0000   0.3053
   5.500   0.8266   0.01603   0.00863  -0.0485  0.4418  1.0000  -2.4019   0.0000   0.0000   0.0000   0.3039
   5.600   0.8350   0.01617   0.00882  -0.0479  0.4245  1.0000  -2.4742   0.0000   0.0000   0.0000   0.3026
   5.700   0.8428   0.01642   0.00894  -0.0472  0.4062  1.0000  -2.5463   0.0000   0.0000   0.0000   0.3011
   5.800   0.8509   0.01667   0.00915  -0.0466  0.3877  1.0000  -2.6189   0.0000   0.0000   0.0000   0.2998
   5.900   0.8587   0.01687   0.00931  -0.0460  0.3676  1.0000  -2.6912   0.0000   0.0000   0.0000   0.2985
   6.000   0.8657   0.01725   0.00949  -0.0452  0.3472  1.0000  -2.7611   0.0000   0.0000   0.0000   0.2971
   6.100   0.8737   0.01743   0.00973  -0.0447  0.3272  1.0000  -2.8342   0.0000   0.0000   0.0000   0.2958
   6.200   0.8802   0.01785   0.00995  -0.0439  0.3064  1.0000  -2.9174   0.0000   0.0000   0.0000   0.2945
   6.300   0.8883   0.01815   0.01027  -0.0434  0.2869  1.0000  -3.0256   0.0000   0.0000   0.0000   0.2933
   6.400   0.8948   0.01858   0.01054  -0.0426  0.2666  1.0000  -3.1277   0.0000   0.0000   0.0000   0.2920
   6.500   0.9022   0.01902   0.01093  -0.0420  0.2465  1.0000  -3.2311   0.0000   0.0000   0.0000   0.2909
   6.600   0.9088   0.01945   0.01123  -0.0413  0.2271  1.0000  -3.3335   0.0000   0.0000   0.0000   0.2897
   6.700   0.9156   0.02002   0.01170  -0.0407  0.2083  1.0000  -3.4327   0.0000   0.0000   0.0000   0.2885
   6.800   0.9227   0.02038   0.01202  -0.0401  0.1914  1.0000  -3.5389   0.0000   0.0000   0.0000   0.2874
   6.900   0.9287   0.02116   0.01260  -0.0394  0.1749  1.0000  -3.6315   0.0000   0.0000   0.0000   0.2863
   7.000   0.9370   0.02150   0.01302  -0.0389  0.1625  1.0000  -3.7383   0.0000   0.0000   0.0000   0.2852
   7.100   0.9437   0.02207   0.01349  -0.0382  0.1510  1.0000  -3.8373   0.0000   0.0000   0.0000   0.2842
   7.200   0.9508   0.02313   0.01445  -0.0376  0.1394  1.0000  -3.9201   0.0000   0.0000   0.0000   0.2831
   7.300   0.9593   0.02357   0.01499  -0.0371  0.1310  1.0000  -4.0185   0.0000   0.0000   0.0000   0.2821
   7.400   0.9670   0.02411   0.01554  -0.0365  0.1224  1.0000  -4.1141   0.0000   0.0000   0.0000   0.2811
   7.500   0.9739   0.02513   0.01644  -0.0359  0.1138  1.0000  -4.1950   0.0000   0.0000   0.0000   0.2801
   7.600   0.9821   0.02624   0.01760  -0.0354  0.1056  1.0000  -4.2663   0.0000   0.0000   0.0000   0.2792
   7.700   0.9887   0.02629   0.01772  -0.0348  0.0965  1.0000  -4.3692   0.0000   0.0000   0.0000   0.2782
   7.800   0.9943   0.02663   0.01797  -0.0342  0.0880  1.0000  -4.4696   0.0000   0.0000   0.0000   0.2773
   7.900   1.0009   0.02841   0.01971  -0.0336  0.0792  1.0000  -4.5000   0.0000   0.0000   0.0000   0.2763
   8.000   1.0031   0.02758   0.01917  -0.0327  0.0636  1.0000  -4.6054   0.0000   0.0000   0.0000   0.2752
   8.100   1.0068   0.02879   0.02029  -0.0320  0.0542  1.0000  -4.6438   0.0000   0.0000   0.0000   0.2743
   8.200   1.0136   0.02885   0.02043  -0.0314  0.0472  1.0000  -4.7327   0.0000   0.0000   0.0000   0.2734
   8.300   1.0195   0.02944   0.02101  -0.0308  0.0428  1.0000  -4.7964   0.0000   0.0000   0.0000   0.2725
   8.400   1.0246   0.03051   0.02206  -0.0301  0.0397  1.0000  -4.8374   0.0000   0.0000   0.0000   0.2716
   8.500   1.0294   0.03321   0.02486  -0.0294  0.0367  1.0000  -4.7930   0.0000   0.0000   0.0000   0.2707
   8.600   1.0370   0.03396   0.02569  -0.0288  0.0356  1.0000  -4.8409   0.0000   0.0000   0.0000   0.2698
   8.700   1.0445   0.03480   0.02668  -0.0282  0.0344  1.0000  -4.8824   0.0000   0.0000   0.0000   0.2689
   8.800   1.0515   0.03584   0.02786  -0.0276  0.0333  1.0000  -4.9145   0.0000   0.0000   0.0000   0.2680
   8.900   1.0579   0.03698   0.02915  -0.0269  0.0323  1.0000  -4.9403   0.0000   0.0000   0.0000   0.2671
   9.000   1.0638   0.03821   0.03053  -0.0262  0.0315  1.0000  -4.9617   0.0000   0.0000   0.0000   0.2662
   9.100   1.0691   0.03950   0.03198  -0.0255  0.0308  1.0000  -4.9793   0.0000   0.0000   0.0000   0.2654
   9.200   1.0735   0.04084   0.03348  -0.0247  0.0303  1.0000  -4.9928   0.0000   0.0000   0.0000   0.2644
   9.300   1.0772   0.04223   0.03504  -0.0239  0.0299  1.0000  -5.0024   0.0000   0.0000   0.0000   0.2635
   9.400   1.0801   0.04366   0.03664  -0.0231  0.0296  1.0000  -5.0080   0.0000   0.0000   0.0000   0.2626
   9.500   1.0822   0.04513   0.03829  -0.0222  0.0293  1.0000  -5.0095   0.0000   0.0000   0.0000   0.2616
   9.600   1.0834   0.04665   0.03997  -0.0212  0.0292  1.0000  -5.0069   0.0000   0.0000   0.0000   0.2606
   9.700   1.0837   0.04819   0.04168  -0.0203  0.0291  1.0000  -5.0003   0.0000   0.0000   0.0000   0.2596
   9.800   1.0831   0.04975   0.04341  -0.0193  0.0290  1.0000  -4.9900   0.0000   0.0000   0.0000   0.2587
   9.900   1.0814   0.05132   0.04514  -0.0183  0.0290  1.0000  -4.9760   0.0000   0.0000   0.0000   0.2577
  10.000   1.0788   0.05289   0.04687  -0.0173  0.0290  1.0000  -4.9590   0.0000   0.0000   0.0000   0.2567
  10.100   1.0752   0.05446   0.04858  -0.0162  0.0290  1.0000  -4.9393   0.0000   0.0000   0.0000   0.2557
  10.200   1.0703   0.05594   0.05019  -0.0151  0.0291  1.0000  -4.9175   0.0000   0.0000   0.0000   0.2546
  10.300   1.0646   0.05739   0.05177  -0.0139  0.0292  1.0000  -4.8941   0.0000   0.0000   0.0000   0.2535
  10.400   1.0582   0.05887   0.05335  -0.0129  0.0292  1.0000  -4.8690   0.0000   0.0000   0.0000   0.2524
  10.500   1.0512   0.06037   0.05497  -0.0120  0.0293  1.0000  -4.8423   0.0000   0.0000   0.0000   0.2516
  10.600   1.0439   0.06193   0.05662  -0.0113  0.0294  1.0000  -4.8139   0.0000   0.0000   0.0000   0.2508
  10.700   1.0362   0.06355   0.05835  -0.0108  0.0295  1.0000  -4.7836   0.0000   0.0000   0.0000   0.2503
  10.800   1.0281   0.06525   0.06013  -0.0105  0.0296  1.0000  -4.7516   0.0000   0.0000   0.0000   0.2501
  10.900   1.0197   0.06702   0.06200  -0.0105  0.0297  1.0000  -4.7175   0.0000   0.0000   0.0000   0.2500
  11.000   1.0111   0.06893   0.06399  -0.0108  0.0298  1.0000  -4.6810   0.0000   0.0000   0.0000   0.2502
  11.100   1.0024   0.07096   0.06611  -0.0114  0.0300  1.0000  -4.6418   0.0000   0.0000   0.0000   0.2508
  11.200   0.9935   0.07315   0.06836  -0.0122  0.0301  1.0000  -4.5996   0.0000   0.0000   0.0000   0.2516
  11.300   0.9844   0.07549   0.07078  -0.0134  0.0302  1.0000  -4.5539   0.0000   0.0000   0.0000   0.2528
  11.400   0.9751   0.07801   0.07336  -0.0149  0.0304  1.0000  -4.5043   0.0000   0.0000   0.0000   0.2543
  11.500   0.9656   0.08067   0.07609  -0.0166  0.0306  1.0000  -4.4504   0.0000   0.0000   0.0000   0.2561
  11.600   0.9559   0.08354   0.07902  -0.0185  0.0307  1.0000  -4.3912   0.0000   0.0000   0.0000   0.2582
  11.700   0.9461   0.08668   0.08220  -0.0208  0.0310  1.0000  -4.3255   0.0000   0.0000   0.0000   0.2607
  11.800   0.9363   0.09010   0.08567  -0.0234  0.0312  1.0000  -4.2520   0.0000   0.0000   0.0000   0.2635
  11.900   0.9265   0.09381   0.08942  -0.0262  0.0315  1.0000  -4.1698   0.0000   0.0000   0.0000   0.2667
  12.000   0.9168   0.09779   0.09342  -0.0291  0.0318  1.0000  -4.0787   0.0000   0.0000   0.0000   0.2702
  12.100   0.9074   0.10196   0.09761  -0.0321  0.0322  1.0000  -3.9796   0.0000   0.0000   0.0000   0.2738
  12.200   0.8987   0.10621   0.10186  -0.0350  0.0326  1.0000  -3.8755   0.0000   0.0000   0.0000   0.2773
  12.300   0.8908   0.11042   0.10607  -0.0377  0.0330  1.0000  -3.7704   0.0000   0.0000   0.0000   0.2807
  12.400   0.8838   0.11447   0.11010  -0.0401  0.0334  1.0000  -3.6687   0.0000   0.0000   0.0000   0.2837
  12.500   0.8779   0.11832   0.11394  -0.0422  0.0338  1.0000  -3.5718   0.0000   0.0000   0.0000   0.2865
  12.600   0.8728   0.12193   0.11754  -0.0441  0.0342  1.0000  -3.4829   0.0000   0.0000   0.0000   0.2889
  12.700   0.8684   0.12529   0.12088  -0.0458  0.0345  1.0000  -3.4030   0.0000   0.0000   0.0000   0.2911
  12.800   0.8647   0.12846   0.12403  -0.0474  0.0348  1.0000  -3.3301   0.0000   0.0000   0.0000   0.2931
  12.900   0.8613   0.13148   0.12704  -0.0489  0.0351  1.0000  -3.2628   0.0000   0.0000   0.0000   0.2949
  13.000   0.8584   0.13440   0.12994  -0.0502  0.0354  1.0000  -3.2000   0.0000   0.0000   0.0000   0.2966
  13.100   0.8557   0.13724   0.13276  -0.0514  0.0357  1.0000  -3.1406   0.0000   0.0000   0.0000   0.2982
  13.200   0.8532   0.14006   0.13556  -0.0525  0.0360  1.0000  -3.0834   0.0000   0.0000   0.0000   0.2995
  13.700   0.8455   0.15624   0.15142  -0.0622  0.0435  1.0000  -2.6182   0.0000   0.0000   0.0000   0.3117
  13.800   0.8425   0.15953   0.15470  -0.0640  0.0458  1.0000  -2.5143   0.0000   0.0000   0.0000   0.3141
  13.900   0.8417   0.16218   0.15734  -0.0653  0.0476  1.0000  -2.4511   0.0000   0.0000   0.0000   0.3156
  14.000   0.8419   0.16459   0.15974  -0.0662  0.0494  1.0000  -2.4065   0.0000   0.0000   0.0000   0.3166
  14.100   0.8431   0.16686   0.16201  -0.0668  0.0514  1.0000  -2.3787   0.0000   0.0000   0.0000   0.3171
  14.500   0.8400   0.17964   0.17478  -0.0731  0.0742  1.0000  -2.0378   0.0000   0.0000   0.0000   0.3249
  14.600   0.8407   0.18143   0.17657  -0.0742  0.0738  1.0000  -2.0170   0.0000   0.0000   0.0000   0.3260
  14.700   0.8414   0.18319   0.17832  -0.0752  0.0732  1.0000  -1.9972   0.0000   0.0000   0.0000   0.3270
  14.800   0.8423   0.18494   0.18007  -0.0762  0.0724  1.0000  -1.9791   0.0000   0.0000   0.0000   0.3280
  14.900   0.8434   0.18670   0.18183  -0.0771  0.0716  1.0000  -1.9628   0.0000   0.0000   0.0000   0.3289
  15.000   0.8446   0.18847   0.18359  -0.0780  0.0708  1.0000  -1.9483   0.0000   0.0000   0.0000   0.3297
  15.100   0.8460   0.19024   0.18536  -0.0789  0.0700  1.0000  -1.9356   0.0000   0.0000   0.0000   0.3305
  15.200   0.8476   0.19202   0.18714  -0.0797  0.0692  1.0000  -1.9244   0.0000   0.0000   0.0000   0.3312
  15.300   0.8492   0.19380   0.18892  -0.0805  0.0684  1.0000  -1.9147   0.0000   0.0000   0.0000   0.3318
  15.500   0.8522   0.19784   0.19319  -0.0821  0.0669  1.0000  -1.8638   0.0000   0.0000   0.0000   0.3332
  15.600   0.8541   0.19967   0.19502  -0.0829  0.0663  1.0000  -1.8659   0.0000   0.0000   0.0000   0.3337
  15.700   0.8561   0.20149   0.19684  -0.0835  0.0657  1.0000  -1.8696   0.0000   0.0000   0.0000   0.3342
  15.800   0.8583   0.20329   0.19865  -0.0842  0.0650  1.0000  -1.8748   0.0000   0.0000   0.0000   0.3346
  15.900   0.8605   0.20510   0.20047  -0.0848  0.0644  1.0000  -1.8818   0.0000   0.0000   0.0000   0.3349
  16.000   0.8629   0.20691   0.20228  -0.0854  0.0637  1.0000  -1.8907   0.0000   0.0000   0.0000   0.3352
  16.100   0.8655   0.20874   0.20411  -0.0859  0.0631  1.0000  -1.9018   0.0000   0.0000   0.0000   0.3354
  16.200   0.8682   0.21057   0.20595  -0.0864  0.0625  1.0000  -1.9156   0.0000   0.0000   0.0000   0.3355
  16.300   0.8712   0.21244   0.20783  -0.0868  0.0618  1.0000  -1.9327   0.0000   0.0000   0.0000   0.3355
  16.400   0.8745   0.21436   0.20976  -0.0871  0.0612  1.0000  -1.9539   0.0000   0.0000   0.0000   0.3353
  16.500   0.8782   0.21638   0.21179  -0.0872  0.0606  1.0000  -1.9807   0.0000   0.0000   0.0000   0.3349
  16.600   0.8827   0.21859   0.21402  -0.0872  0.0599  1.0000  -2.0152   0.0000   0.0000   0.0000   0.3342
  16.700   0.8887   0.22124   0.21669  -0.0868  0.0592  1.0000  -2.0632   0.0000   0.0000   0.0000   0.3330
  16.800   0.8953   0.22457   0.22004  -0.0861  0.0584  1.0000  -2.1199   0.0000   0.0000   0.0000   0.3314
  16.900   0.8951   0.23463   0.23006  -0.0857  0.0567  1.0000  -2.0967   0.0000   0.0000   0.0000   0.3309
  17.000   0.8966   0.23666   0.23209  -0.0866  0.0567  1.0000  -2.0883   0.0000   0.0000   0.0000   0.3317
  17.100   0.8981   0.23867   0.23410  -0.0875  0.0567  1.0000  -2.0799   0.0000   0.0000   0.0000   0.3324
  17.200   0.8996   0.24065   0.23608  -0.0884  0.0566  1.0000  -2.0714   0.0000   0.0000   0.0000   0.3331
  17.300   0.9011   0.24261   0.23804  -0.0893  0.0566  1.0000  -2.0629   0.0000   0.0000   0.0000   0.3338
  17.400   0.9025   0.24453   0.23996  -0.0902  0.0565  1.0000  -2.0542   0.0000   0.0000   0.0000   0.3346
  17.500   0.9039   0.24643   0.24186  -0.0911  0.0565  1.0000  -2.0455   0.0000   0.0000   0.0000   0.3353
  17.600   0.9053   0.24828   0.24371  -0.0920  0.0564  1.0000  -2.0367   0.0000   0.0000   0.0000   0.3360
  17.700   0.9066   0.25009   0.24552  -0.0929  0.0563  1.0000  -2.0276   0.0000   0.0000   0.0000   0.3368
  17.800   0.9079   0.25185   0.24728  -0.0938  0.0563  1.0000  -2.0184   0.0000   0.0000   0.0000   0.3375
  17.900   0.9091   0.25354   0.24897  -0.0948  0.0562  1.0000  -2.0087   0.0000   0.0000   0.0000   0.3383
  18.000   0.9098   0.25509   0.25052  -0.0958  0.0560  1.0000  -1.9948   0.0000   0.0000   0.0000   0.3392
  18.100   0.9101   0.25650   0.25193  -0.0969  0.0559  1.0000  -1.9777   0.0000   0.0000   0.0000   0.3403
  18.200   0.9101   0.25778   0.25321  -0.0980  0.0557  1.0000  -1.9591   0.0000   0.0000   0.0000   0.3414
  18.300   0.9092   0.25882   0.25424  -0.0993  0.0555  1.0000  -1.9349   0.0000   0.0000   0.0000   0.3427
  18.400   0.9082   0.25975   0.25517  -0.1007  0.0552  1.0000  -1.9082   0.0000   0.0000   0.0000   0.3442
  18.500   0.9072   0.26066   0.25607  -0.1021  0.0548  1.0000  -1.8798   0.0000   0.0000   0.0000   0.3458
  18.600   0.9065   0.26164   0.25705  -0.1035  0.0543  1.0000  -1.8508   0.0000   0.0000   0.0000   0.3473
  18.700   0.9064   0.26288   0.25828  -0.1049  0.0536  1.0000  -1.8246   0.0000   0.0000   0.0000   0.3487
  18.800   0.9069   0.26443   0.25983  -0.1061  0.0528  1.0000  -1.8042   0.0000   0.0000   0.0000   0.3498
  18.900   0.9078   0.26621   0.26161  -0.1071  0.0520  1.0000  -1.7895   0.0000   0.0000   0.0000   0.3507
  19.000   0.9088   0.26811   0.26352  -0.1080  0.0512  1.0000  -1.7785   0.0000   0.0000   0.0000   0.3514
  19.100   0.9099   0.27009   0.26550  -0.1088  0.0504  1.0000  -1.7701   0.0000   0.0000   0.0000   0.3521
  19.200   0.9110   0.27209   0.26752  -0.1096  0.0497  1.0000  -1.7633   0.0000   0.0000   0.0000   0.3526
  19.300   0.9121   0.27412   0.26955  -0.1103  0.0490  1.0000  -1.7578   0.0000   0.0000   0.0000   0.3532
  19.400   0.9132   0.27616   0.27159  -0.1110  0.0483  1.0000  -1.7532   0.0000   0.0000   0.0000   0.3536
  19.500   0.9142   0.27819   0.27364  -0.1117  0.0476  1.0000  -1.7493   0.0000   0.0000   0.0000   0.3541
  19.600   0.9152   0.28023   0.27568  -0.1123  0.0470  1.0000  -1.7460   0.0000   0.0000   0.0000   0.3545
  19.700   0.9161   0.28226   0.27772  -0.1129  0.0464  1.0000  -1.7433   0.0000   0.0000   0.0000   0.3550
  19.800   0.9170   0.28429   0.27976  -0.1135  0.0458  1.0000  -1.7410   0.0000   0.0000   0.0000   0.3554
  19.900   0.9179   0.28630   0.28178  -0.1141  0.0452  1.0000  -1.7393   0.0000   0.0000   0.0000   0.3557
  20.000   0.9186   0.28831   0.28380  -0.1146  0.0447  1.0000  -1.7380   0.0000   0.0000   0.0000   0.3561
  20.100   0.9193   0.29030   0.28580  -0.1152  0.0442  1.0000  -1.7372   0.0000   0.0000   0.0000   0.3564
  20.200   0.9199   0.29228   0.28779  -0.1157  0.0436  1.0000  -1.7369   0.0000   0.0000   0.0000   0.3568
  20.300   0.9205   0.29423   0.28975  -0.1161  0.0431  1.0000  -1.7371   0.0000   0.0000   0.0000   0.3571
  20.400   0.9209   0.29617   0.29171  -0.1166  0.0426  1.0000  -1.7379   0.0000   0.0000   0.0000   0.3574
  20.500   0.9212   0.29809   0.29364  -0.1170  0.0422  1.0000  -1.7393   0.0000   0.0000   0.0000   0.3576
  20.600   0.9215   0.29998   0.29554  -0.1174  0.0417  1.0000  -1.7413   0.0000   0.0000   0.0000   0.3579
  20.700   0.9216   0.30185   0.29743  -0.1177  0.0412  1.0000  -1.7442   0.0000   0.0000   0.0000   0.3581
  20.800   0.9216   0.30369   0.29928  -0.1180  0.0408  1.0000  -1.7479   0.0000   0.0000   0.0000   0.3583
  20.900   0.9214   0.30551   0.30111  -0.1182  0.0404  1.0000  -1.7525   0.0000   0.0000   0.0000   0.3584
  21.000   0.9212   0.30730   0.30292  -0.1183  0.0400  1.0000  -1.7583   0.0000   0.0000   0.0000   0.3585
  21.100   0.9207   0.30907   0.30472  -0.1184  0.0396  1.0000  -1.7655   0.0000   0.0000   0.0000   0.3585
  21.200   0.9202   0.31085   0.30651  -0.1184  0.0392  1.0000  -1.7744   0.0000   0.0000   0.0000   0.3584
  21.300   0.9196   0.31265   0.30834  -0.1183  0.0388  1.0000  -1.7856   0.0000   0.0000   0.0000   0.3583
  21.400   0.9192   0.31460   0.31031  -0.1180  0.0384  1.0000  -1.8006   0.0000   0.0000   0.0000   0.3579
  21.500   0.9199   0.31701   0.31275  -0.1176  0.0380  1.0000  -1.8244   0.0000   0.0000   0.0000   0.3573
  21.600   0.9364   0.32847   0.32424  -0.1164  0.0368  1.0000  -1.9156   0.0000   0.0000   0.0000   0.3537
  21.700   0.9332   0.33270   0.32842  -0.1167  0.0366  1.0000  -1.8694   0.0000   0.0000   0.0000   0.3544
  21.800   0.9298   0.33376   0.32950  -0.1170  0.0365  1.0000  -1.8488   0.0000   0.0000   0.0000   0.3550
  21.900   0.9059   0.32933   0.32516  -0.1146  0.0365  1.0000  -1.7785   0.0000   0.0000   0.0000   0.3561
  22.000   0.8906   0.32629   0.32217  -0.1133  0.0365  1.0000  -1.7293   0.0000   0.0000   0.0000   0.3569
  22.100   0.8825   0.32512   0.32103  -0.1129  0.0365  1.0000  -1.6977   0.0000   0.0000   0.0000   0.3577
  22.200   0.8763   0.32440   0.32035  -0.1128  0.0365  1.0000  -1.6707   0.0000   0.0000   0.0000   0.3584
  22.300   0.8711   0.32392   0.31989  -0.1127  0.0365  1.0000  -1.6463   0.0000   0.0000   0.0000   0.3590
  22.400   0.8666   0.32358   0.31958  -0.1127  0.0365  1.0000  -1.6237   0.0000   0.0000   0.0000   0.3597
  22.500   0.8626   0.32332   0.31934  -0.1128  0.0364  1.0000  -1.6021   0.0000   0.0000   0.0000   0.3604
  22.600   0.8588   0.32309   0.31912  -0.1129  0.0364  1.0000  -1.5812   0.0000   0.0000   0.0000   0.3610
  22.700   0.8554   0.32291   0.31896  -0.1131  0.0364  1.0000  -1.5612   0.0000   0.0000   0.0000   0.3617
  22.800   0.8521   0.32275   0.31882  -0.1133  0.0364  1.0000  -1.5415   0.0000   0.0000   0.0000   0.3623
  22.900   0.8484   0.32234   0.31843  -0.1135  0.0363  1.0000  -1.5187   0.0000   0.0000   0.0000   0.3631
  23.000   0.8447   0.32193   0.31804  -0.1138  0.0363  1.0000  -1.4960   0.0000   0.0000   0.0000   0.3639
  23.100   0.8412   0.32150   0.31762  -0.1141  0.0363  1.0000  -1.4732   0.0000   0.0000   0.0000   0.3648
  23.200   0.8378   0.32110   0.31724  -0.1144  0.0362  1.0000  -1.4509   0.0000   0.0000   0.0000   0.3656
  23.300   0.8347   0.32072   0.31688  -0.1147  0.0362  1.0000  -1.4291   0.0000   0.0000   0.0000   0.3664
  23.400   0.8318   0.32038   0.31655  -0.1151  0.0361  1.0000  -1.4077   0.0000   0.0000   0.0000   0.3673
  23.500   0.8290   0.32006   0.31624  -0.1154  0.0361  1.0000  -1.3866   0.0000   0.0000   0.0000   0.3681
  23.600   0.8264   0.31976   0.31596  -0.1158  0.0360  1.0000  -1.3659   0.0000   0.0000   0.0000   0.3689
  23.700   0.8240   0.31950   0.31581  -0.1163  0.0360  1.0000  -1.3470   0.0000   0.0000   0.0000   0.3697
  23.800   0.8218   0.31927   0.31559  -0.1167  0.0359  1.0000  -1.3277   0.0000   0.0000   0.0000   0.3706
  23.900   0.8196   0.31907   0.31540  -0.1172  0.0358  1.0000  -1.3082   0.0000   0.0000   0.0000   0.3714
  24.000   0.8177   0.31890   0.31525  -0.1177  0.0357  1.0000  -1.2887   0.0000   0.0000   0.0000   0.3723
  24.100   0.8160   0.31878   0.31514  -0.1182  0.0356  1.0000  -1.2693   0.0000   0.0000   0.0000   0.3731
  24.200   0.8144   0.31872   0.31509  -0.1188  0.0355  1.0000  -1.2499   0.0000   0.0000   0.0000   0.3740
  24.300   0.8131   0.31874   0.31512  -0.1194  0.0353  1.0000  -1.2306   0.0000   0.0000   0.0000   0.3748
  24.400   0.8120   0.31885   0.31524  -0.1200  0.0351  1.0000  -1.2116   0.0000   0.0000   0.0000   0.3756
  24.500   0.8111   0.31908   0.31548  -0.1206  0.0349  1.0000  -1.1931   0.0000   0.0000   0.0000   0.3764
  24.600   0.8106   0.31944   0.31585  -0.1213  0.0346  1.0000  -1.1757   0.0000   0.0000   0.0000   0.3772
  24.700   0.8101   0.31989   0.31632  -0.1219  0.0342  1.0000  -1.1596   0.0000   0.0000   0.0000   0.3779
  24.800   0.8098   0.32043   0.31687  -0.1224  0.0339  1.0000  -1.1450   0.0000   0.0000   0.0000   0.3785
  24.900   0.8095   0.32102   0.31747  -0.1229  0.0335  1.0000  -1.1318   0.0000   0.0000   0.0000   0.3790
  25.000   0.8093   0.32164   0.31810  -0.1234  0.0331  1.0000  -1.1199   0.0000   0.0000   0.0000   0.3795
  25.100   0.8090   0.32226   0.31874  -0.1239  0.0327  1.0000  -1.1091   0.0000   0.0000   0.0000   0.3800
  25.200   0.8088   0.32290   0.31938  -0.1243  0.0323  1.0000  -1.0991   0.0000   0.0000   0.0000   0.3805
  25.300   0.8085   0.32353   0.32003  -0.1248  0.0319  1.0000  -1.0898   0.0000   0.0000   0.0000   0.3809
  25.400   0.8083   0.32417   0.32068  -0.1252  0.0315  1.0000  -1.0810   0.0000   0.0000   0.0000   0.3813
  25.500   0.8081   0.32480   0.32132  -0.1256  0.0311  1.0000  -1.0728   0.0000   0.0000   0.0000   0.3817
  25.600   0.8078   0.32544   0.32197  -0.1260  0.0308  1.0000  -1.0649   0.0000   0.0000   0.0000   0.3821
  25.700   0.8076   0.32607   0.32262  -0.1264  0.0304  1.0000  -1.0575   0.0000   0.0000   0.0000   0.3825
  25.800   0.8074   0.32670   0.32326  -0.1268  0.0301  1.0000  -1.0503   0.0000   0.0000   0.0000   0.3829
  25.900   0.8072   0.32733   0.32391  -0.1272  0.0297  1.0000  -1.0435   0.0000   0.0000   0.0000   0.3833
  26.000   0.8070   0.32796   0.32455  -0.1276  0.0294  1.0000  -1.0370   0.0000   0.0000   0.0000   0.3837
  26.100   0.8069   0.32859   0.32519  -0.1280  0.0290  1.0000  -1.0307   0.0000   0.0000   0.0000   0.3840
  26.200   0.8067   0.32922   0.32583  -0.1284  0.0287  1.0000  -1.0247   0.0000   0.0000   0.0000   0.3844
  26.300   0.8066   0.32985   0.32648  -0.1288  0.0284  1.0000  -1.0189   0.0000   0.0000   0.0000   0.3848
  26.400   0.8064   0.33048   0.32712  -0.1292  0.0281  1.0000  -1.0134   0.0000   0.0000   0.0000   0.3851
  26.500   0.8063   0.33111   0.32776  -0.1295  0.0278  1.0000  -1.0081   0.0000   0.0000   0.0000   0.3855
  26.600   0.8062   0.33173   0.32840  -0.1299  0.0275  1.0000  -1.0031   0.0000   0.0000   0.0000   0.3858
  26.700   0.8061   0.33236   0.32903  -0.1303  0.0272  1.0000  -0.9983   0.0000   0.0000   0.0000   0.3862
  26.800   0.8060   0.33298   0.32967  -0.1307  0.0270  1.0000  -0.9938   0.0000   0.0000   0.0000   0.3865
  26.900   0.8059   0.33360   0.33030  -0.1311  0.0267  1.0000  -0.9895   0.0000   0.0000   0.0000   0.3868
  27.000   0.8058   0.33422   0.33094  -0.1315  0.0264  1.0000  -0.9855   0.0000   0.0000   0.0000   0.3872
  27.100   0.8058   0.33484   0.33157  -0.1319  0.0261  1.0000  -0.9817   0.0000   0.0000   0.0000   0.3875
  27.200   0.8057   0.33546   0.33220  -0.1323  0.0259  1.0000  -0.9782   0.0000   0.0000   0.0000   0.3878
  27.300   0.8057   0.33608   0.33283  -0.1327  0.0256  1.0000  -0.9750   0.0000   0.0000   0.0000   0.3881
  27.400   0.8056   0.33669   0.33345  -0.1331  0.0254  1.0000  -0.9720   0.0000   0.0000   0.0000   0.3884
  27.500   0.8056   0.33730   0.33408  -0.1335  0.0251  1.0000  -0.9694   0.0000   0.0000   0.0000   0.3887
  27.600   0.8056   0.33791   0.33470  -0.1338  0.0249  1.0000  -0.9671   0.0000   0.0000   0.0000   0.3890
  27.700   0.8055   0.33852   0.33532  -0.1342  0.0247  1.0000  -0.9651   0.0000   0.0000   0.0000   0.3893
  27.800   0.8055   0.33912   0.33593  -0.1346  0.0244  1.0000  -0.9634   0.0000   0.0000   0.0000   0.3896
  27.900   0.8055   0.33972   0.33655  -0.1350  0.0242  1.0000  -0.9622   0.0000   0.0000   0.0000   0.3899
  28.000   0.8055   0.34032   0.33716  -0.1353  0.0240  1.0000  -0.9613   0.0000   0.0000   0.0000   0.3902
  28.100   0.8055   0.34092   0.33777  -0.1357  0.0238  1.0000  -0.9608   0.0000   0.0000   0.0000   0.3904
  28.200   0.8055   0.34151   0.33838  -0.1361  0.0236  1.0000  -0.9608   0.0000   0.0000   0.0000   0.3907
  28.300   0.8055   0.34210   0.33898  -0.1364  0.0234  1.0000  -0.9612   0.0000   0.0000   0.0000   0.3909
  28.400   0.8055   0.34270   0.33959  -0.1368  0.0232  1.0000  -0.9623   0.0000   0.0000   0.0000   0.3912
  28.500   0.8055   0.34330   0.34020  -0.1371  0.0230  1.0000  -0.9640   0.0000   0.0000   0.0000   0.3914
  28.600   0.8055   0.34390   0.34082  -0.1374  0.0228  1.0000  -0.9665   0.0000   0.0000   0.0000   0.3916
  28.700   0.8055   0.34451   0.34144  -0.1377  0.0226  1.0000  -0.9699   0.0000   0.0000   0.0000   0.3917
  28.800   0.8056   0.34515   0.34210  -0.1380  0.0224  1.0000  -0.9744   0.0000   0.0000   0.0000   0.3919
  28.900   0.8057   0.34583   0.34279  -0.1382  0.0222  1.0000  -0.9802   0.0000   0.0000   0.0000   0.3919
  29.000   0.8058   0.34660   0.34357  -0.1384  0.0220  1.0000  -0.9877   0.0000   0.0000   0.0000   0.3919
  29.100   0.8061   0.34752   0.34451  -0.1386  0.0218  1.0000  -0.9973   0.0000   0.0000   0.0000   0.3919
  29.200   0.8066   0.34877   0.34578  -0.1386  0.0216  1.0000  -1.0101   0.0000   0.0000   0.0000   0.3916
  29.300   0.8079   0.35093   0.34795  -0.1385  0.0213  1.0000  -1.0282   0.0000   0.0000   0.0000   0.3911


