xflr5 v6.61

 Calculated polar for: RG-15 8.9%

 1 1 Reynolds number fixed          Mach number fixed         

 xtrf =   1.000 (top)        1.000 (bottom)
 Mach =   0.000     Re =     0.625 e 6     Ncrit =   9.000

  alpha     CL        CD       CDp       Cm    Top Xtr Bot Xtr   Cpmin    Chinge    XCp    
 ------- -------- --------- --------- -------- ------- ------- -------- --------- ---------
 -10.000  -0.4564   0.10477   0.10250  -0.0194  1.0000  0.0122  -1.9004   0.0000   0.0000   0.0000   0.2011
  -9.900  -0.4560   0.10315   0.10089  -0.0199  1.0000  0.0122  -1.9199   0.0000   0.0000   0.0000   0.1999
  -9.800  -0.4557   0.10151   0.09926  -0.0204  1.0000  0.0122  -1.9411   0.0000   0.0000   0.0000   0.1988
  -9.700  -0.4556   0.09984   0.09759  -0.0210  1.0000  0.0121  -1.9649   0.0000   0.0000   0.0000   0.1976
  -9.600  -0.4559   0.09812   0.09588  -0.0216  1.0000  0.0121  -1.9926   0.0000   0.0000   0.0000   0.1965
  -9.500  -0.4567   0.09631   0.09408  -0.0222  1.0000  0.0120  -2.0278   0.0000   0.0000   0.0000   0.1953
  -9.400  -0.4591   0.09423   0.09201  -0.0228  1.0000  0.0119  -2.0853   0.0000   0.0000   0.0000   0.1942
  -9.300  -0.4646   0.09163   0.08942  -0.0237  1.0000  0.0115  -2.1891   0.0000   0.0000   0.0000   0.1930
  -9.200  -0.4674   0.08963   0.08750  -0.0245  1.0000  0.0113  -2.2479   0.0000   0.0000   0.0000   0.1918
  -9.100  -0.4706   0.08755   0.08543  -0.0253  1.0000  0.0111  -2.3120   0.0000   0.0000   0.0000   0.1905
  -9.000  -0.4733   0.08553   0.08342  -0.0261  1.0000  0.0109  -2.3687   0.0000   0.0000   0.0000   0.1891
  -8.900  -0.4759   0.08356   0.08147  -0.0270  1.0000  0.0108  -2.4215   0.0000   0.0000   0.0000   0.1877
  -8.800  -0.4785   0.08162   0.07953  -0.0278  1.0000  0.0106  -2.4725   0.0000   0.0000   0.0000   0.1863
  -8.700  -0.4813   0.07969   0.07762  -0.0287  1.0000  0.0105  -2.5227   0.0000   0.0000   0.0000   0.1849
  -8.600  -0.4843   0.07777   0.07571  -0.0296  1.0000  0.0104  -2.5728   0.0000   0.0000   0.0000   0.1836
  -8.500  -0.4877   0.07585   0.07381  -0.0305  1.0000  0.0103  -2.6231   0.0000   0.0000   0.0000   0.1822
  -8.400  -0.4915   0.07392   0.07190  -0.0315  1.0000  0.0103  -2.6739   0.0000   0.0000   0.0000   0.1809
  -8.300  -0.4960   0.07202   0.07001  -0.0324  1.0000  0.0102  -2.7249   0.0000   0.0000   0.0000   0.1797
  -8.200  -0.5014   0.07016   0.06817  -0.0333  1.0000  0.0102  -2.7753   0.0000   0.0000   0.0000   0.1787
  -8.100  -0.5082   0.06836   0.06640  -0.0343  1.0000  0.0102  -2.8243   0.0000   0.0000   0.0000   0.1778
  -8.000  -0.5148   0.06610   0.06415  -0.0366  1.0000  0.0103  -2.8816   0.0000   0.0000   0.0000   0.1744
  -7.900  -0.5192   0.06365   0.06167  -0.0385  1.0000  0.0102  -2.9479   0.0000   0.0000   0.0000   0.1715
  -7.800  -0.5236   0.06136   0.05936  -0.0396  1.0000  0.0102  -3.0133   0.0000   0.0000   0.0000   0.1700
  -7.700  -0.5279   0.05912   0.05709  -0.0404  1.0000  0.0101  -3.0792   0.0000   0.0000   0.0000   0.1692
  -7.600  -0.5320   0.05691   0.05485  -0.0409  1.0000  0.0101  -3.1459   0.0000   0.0000   0.0000   0.1689
  -7.500  -0.5358   0.05472   0.05262  -0.0412  1.0000  0.0100  -3.2134   0.0000   0.0000   0.0000   0.1691
  -7.400  -0.5394   0.05258   0.05042  -0.0412  1.0000  0.0099  -3.2808   0.0000   0.0000   0.0000   0.1695
  -7.300  -0.5427   0.05043   0.04821  -0.0411  1.0000  0.0097  -3.3503   0.0000   0.0000   0.0000   0.1703
  -7.200  -0.5456   0.04830   0.04601  -0.0408  1.0000  0.0096  -3.4204   0.0000   0.0000   0.0000   0.1712
  -7.100  -0.5480   0.04615   0.04378  -0.0404  1.0000  0.0095  -3.4934   0.0000   0.0000   0.0000   0.1723
  -7.000  -0.5500   0.04401   0.04155  -0.0399  1.0000  0.0093  -3.5676   0.0000   0.0000   0.0000   0.1735
  -6.900  -0.5515   0.04182   0.03926  -0.0393  1.0000  0.0091  -3.6467   0.0000   0.0000   0.0000   0.1747
  -6.800  -0.5524   0.03964   0.03697  -0.0387  1.0000  0.0090  -3.7270   0.0000   0.0000   0.0000   0.1760
  -6.700  -0.5526   0.03740   0.03460  -0.0381  1.0000  0.0088  -3.8141   0.0000   0.0000   0.0000   0.1772
  -6.600  -0.5438   0.03379   0.03074  -0.0396  0.9989  0.0084  -3.9567   0.0000   0.0000   0.0000   0.1731
  -6.500  -0.5340   0.03035   0.02702  -0.0410  0.9977  0.0081  -4.1019   0.0000   0.0000   0.0000   0.1692
  -6.400  -0.5235   0.02724   0.02362  -0.0421  0.9968  0.0077  -4.2341   0.0000   0.0000   0.0000   0.1655
  -6.300  -0.5131   0.02458   0.02068  -0.0427  0.9957  0.0074  -4.3441   0.0000   0.0000   0.0000   0.1625
  -6.200  -0.5021   0.02231   0.01814  -0.0432  0.9946  0.0072  -4.4262   0.0000   0.0000   0.0000   0.1596
  -6.100  -0.4904   0.02038   0.01595  -0.0437  0.9936  0.0070  -4.4822   0.0000   0.0000   0.0000   0.1566
  -6.000  -0.4783   0.01876   0.01412  -0.0441  0.9926  0.0068  -4.5088   0.0000   0.0000   0.0000   0.1534
  -5.900  -0.4658   0.01742   0.01258  -0.0446  0.9918  0.0067  -4.5085   0.0000   0.0000   0.0000   0.1499
  -5.800  -0.4530   0.01627   0.01126  -0.0450  0.9910  0.0066  -4.4890   0.0000   0.0000   0.0000   0.1463
  -5.700  -0.4401   0.01527   0.01003  -0.0454  0.9902  0.0064  -4.4612   0.0000   0.0000   0.0000   0.1424
  -5.600  -0.4269   0.01449   0.00913  -0.0459  0.9896  0.0064  -4.4041   0.0000   0.0000   0.0000   0.1381
  -5.500  -0.4137   0.01383   0.00837  -0.0464  0.9890  0.0064  -4.3344   0.0000   0.0000   0.0000   0.1335
  -5.400  -0.4003   0.01327   0.00772  -0.0469  0.9884  0.0064  -4.2536   0.0000   0.0000   0.0000   0.1285
  -5.300  -0.3865   0.01277   0.00715  -0.0475  0.9878  0.0064  -4.1631   0.0000   0.0000   0.0000   0.1227
  -5.200  -0.3723   0.01235   0.00666  -0.0482  0.9873  0.0064  -4.0643   0.0000   0.0000   0.0000   0.1162
  -5.100  -0.3607   0.01198   0.00623  -0.0483  0.9857  0.0065  -3.9710   0.0000   0.0000   0.0000   0.1117
  -5.000  -0.3483   0.01165   0.00585  -0.0486  0.9841  0.0066  -3.8709   0.0000   0.0000   0.0000   0.1062
  -4.900  -0.3353   0.01135   0.00551  -0.0490  0.9826  0.0067  -3.7651   0.0000   0.0000   0.0000   0.0996
  -4.800  -0.3219   0.01108   0.00520  -0.0495  0.9812  0.0068  -3.6551   0.0000   0.0000   0.0000   0.0920
  -4.700  -0.3082   0.01084   0.00492  -0.0500  0.9799  0.0069  -3.5425   0.0000   0.0000   0.0000   0.0833
  -4.600  -0.2943   0.01062   0.00467  -0.0506  0.9787  0.0071  -3.4281   0.0000   0.0000   0.0000   0.0737
  -4.500  -0.2803   0.01043   0.00444  -0.0512  0.9777  0.0073  -3.3124   0.0000   0.0000   0.0000   0.0628
  -4.400  -0.2660   0.01025   0.00423  -0.0519  0.9767  0.0076  -3.1950   0.0000   0.0000   0.0000   0.0503
  -4.300  -0.2513   0.01008   0.00404  -0.0527  0.9758  0.0078  -3.0767   0.0000   0.0000   0.0000   0.0358
  -4.200  -0.2364   0.00993   0.00387  -0.0535  0.9749  0.0082  -2.9583   0.0000   0.0000   0.0000   0.0191
  -4.100  -0.2213   0.00979   0.00372  -0.0543  0.9741  0.0085  -2.8406   0.0000   0.0000   0.0000  -0.0003
  -4.000  -0.2061   0.00967   0.00358  -0.0552  0.9734  0.0089  -2.7244   0.0000   0.0000   0.0000  -0.0227
  -3.900  -0.1909   0.00955   0.00345  -0.0561  0.9728  0.0093  -2.6107   0.0000   0.0000   0.0000  -0.0488
  -3.800  -0.1792   0.00944   0.00334  -0.0562  0.9709  0.0097  -2.5142   0.0000   0.0000   0.0000  -0.0687
  -3.700  -0.1690   0.00934   0.00322  -0.0560  0.9680  0.0101  -2.4260   0.0000   0.0000   0.0000  -0.0862
  -3.600  -0.1566   0.00923   0.00311  -0.0562  0.9659  0.0106  -2.3307   0.0000   0.0000   0.0000  -0.1142
  -3.500  -0.1433   0.00913   0.00301  -0.0567  0.9640  0.0111  -2.2344   0.0000   0.0000   0.0000  -0.1509
  -3.400  -0.1294   0.00903   0.00290  -0.0572  0.9623  0.0116  -2.1388   0.0000   0.0000   0.0000  -0.1981
  -3.300  -0.1150   0.00893   0.00280  -0.0579  0.9607  0.0122  -2.0451   0.0000   0.0000   0.0000  -0.2594
  -3.200  -0.1004   0.00883   0.00270  -0.0586  0.9593  0.0143  -1.9562   0.0000   0.0000   0.0000  -0.3406
  -3.100  -0.0857   0.00871   0.00259  -0.0594  0.9580  0.0184  -1.8642   0.0000   0.0000   0.0000  -0.4499
  -3.000  -0.0713   0.00858   0.00249  -0.0601  0.9567  0.0232  -1.7729   0.0000   0.0000   0.0000  -0.6011
  -2.900  -0.0578   0.00820   0.00228  -0.0608  0.9554  0.0666  -1.6634   0.0000   0.0000   0.0000  -0.8128
  -2.800  -0.0434   0.00808   0.00219  -0.0615  0.9541  0.0778  -1.5782   0.0000   0.0000   0.0000  -1.1792
  -2.700  -0.0288   0.00791   0.00211  -0.0623  0.9528  0.0953  -1.4930   0.0000   0.0000   0.0000  -1.9332
  -2.600  -0.0191   0.00782   0.00204  -0.0620  0.9488  0.1053  -1.4250   0.0000   0.0000   0.0000  -3.0245
  -2.500  -0.0084   0.00769   0.00197  -0.0619  0.9447  0.1182  -1.3545   0.0000   0.0000   0.0000  -7.2128
  -2.400   0.0037   0.00759   0.00190  -0.0621  0.9411  0.1287  -1.2806   0.0000   0.0000   0.0000  17.1628
  -2.300   0.0167   0.00744   0.00182  -0.0625  0.9379  0.1479  -1.2052   0.0000   0.0000   0.0000   4.0177
  -2.200   0.0302   0.00729   0.00175  -0.0630  0.9351  0.1703  -1.1291   0.0000   0.0000   0.0000   2.3468
  -2.100   0.0437   0.00707   0.00167  -0.0637  0.9325  0.2084  -1.0548   0.0000   0.0000   0.0000   1.7132
  -2.000   0.0574   0.00684   0.00159  -0.0643  0.9297  0.2537  -0.9814   0.0000   0.0000   0.0000   1.3765
  -1.900   0.0693   0.00662   0.00153  -0.0646  0.9259  0.3021  -0.9143   0.0000   0.0000   0.0000   1.1866
  -1.800   0.0788   0.00640   0.00149  -0.0644  0.9203  0.3527  -0.8552   0.0000   0.0000   0.0000   1.0701
  -1.700   0.0893   0.00608   0.00143  -0.0644  0.9147  0.4267  -0.7944   0.0000   0.0000   0.0000   0.9740
  -1.600   0.1003   0.00577   0.00139  -0.0645  0.9093  0.5102  -0.7331   0.0000   0.0000   0.0000   0.8954
  -1.500   0.1115   0.00550   0.00139  -0.0646  0.9041  0.5876  -0.6720   0.0000   0.0000   0.0000   0.8310
  -1.400   0.1238   0.00543   0.00138  -0.0648  0.8992  0.6188  -0.6091   0.0000   0.0000   0.0000   0.7746
  -1.300   0.1341   0.00536   0.00139  -0.0645  0.8945  0.6435  -0.5526   0.0000   0.0000   0.0000   0.7322
  -1.200   0.1448   0.00534   0.00138  -0.0644  0.8889  0.6579  -0.4965   0.0000   0.0000   0.0000   0.6953
  -1.100   0.1559   0.00533   0.00137  -0.0643  0.8826  0.6670  -0.4405   0.0000   0.0000   0.0000   0.6629
  -1.000   0.1672   0.00530   0.00135  -0.0642  0.8759  0.6747  -0.3876   0.0000   0.0000   0.0000   0.6345
  -0.900   0.1790   0.00531   0.00132  -0.0643  0.8689  0.6752  -0.3966   0.0000   0.0000   0.0000   0.6093
  -0.800   0.1907   0.00535   0.00128  -0.0644  0.8623  0.6697  -0.4055   0.0000   0.0000   0.0000   0.5875
  -0.700   0.2019   0.00538   0.00126  -0.0643  0.8559  0.6602  -0.4153   0.0000   0.0000   0.0000   0.5684
  -0.600   0.2132   0.00542   0.00123  -0.0643  0.8489  0.6448  -0.4253   0.0000   0.0000   0.0000   0.5513
  -0.500   0.2254   0.00553   0.00118  -0.0644  0.8418  0.6101  -0.4357   0.0000   0.0000   0.0000   0.5356
  -0.400   0.2368   0.00560   0.00116  -0.0644  0.8344  0.5938  -0.4457   0.0000   0.0000   0.0000   0.5216
  -0.300   0.2476   0.00560   0.00116  -0.0643  0.8263  0.6116  -0.4555   0.0000   0.0000   0.0000   0.5091
  -0.200   0.2572   0.00547   0.00122  -0.0639  0.8203  0.6667  -0.4647   0.0000   0.0000   0.0000   0.4980
  -0.100   0.2644   0.00529   0.00136  -0.0629  0.8126  0.7567  -0.4728   0.0000   0.0000   0.0000   0.4870
   0.000   0.2722   0.00525   0.00144  -0.0618  0.8041  0.7990  -0.4817   0.0000   0.0000   0.0000   0.4763
   0.100   0.2829   0.00530   0.00139  -0.0616  0.7950  0.8028  -0.4930   0.0000   0.0000   0.0000   0.4670
   0.300   0.3041   0.00533   0.00139  -0.0613  0.7804  0.8130  -0.5155   0.0000   0.0000   0.0000   0.4505
   0.400   0.3144   0.00532   0.00139  -0.0611  0.7739  0.8195  -0.5266   0.0000   0.0000   0.0000   0.4431
   0.500   0.3247   0.00533   0.00140  -0.0608  0.7658  0.8252  -0.5378   0.0000   0.0000   0.0000   0.4360
   0.600   0.3349   0.00536   0.00140  -0.0605  0.7565  0.8307  -0.5492   0.0000   0.0000   0.0000   0.4294
   0.700   0.3449   0.00541   0.00140  -0.0602  0.7458  0.8362  -0.5620   0.0000   0.0000   0.0000   0.4232
   0.800   0.3555   0.00543   0.00142  -0.0600  0.7385  0.8414  -0.5753   0.0000   0.0000   0.0000   0.4175
   0.900   0.3662   0.00545   0.00143  -0.0599  0.7312  0.8457  -0.5888   0.0000   0.0000   0.0000   0.4121
   1.000   0.3767   0.00547   0.00143  -0.0597  0.7225  0.8510  -0.6020   0.0000   0.0000   0.0000   0.4070
   1.100   0.3865   0.00549   0.00144  -0.0593  0.7135  0.8581  -0.6149   0.0000   0.0000   0.0000   0.4020
   1.200   0.3960   0.00552   0.00144  -0.0589  0.7038  0.8648  -0.6285   0.0000   0.0000   0.0000   0.3971
   1.300   0.4057   0.00556   0.00146  -0.0586  0.6941  0.8713  -0.6438   0.0000   0.0000   0.0000   0.3926
   1.400   0.4161   0.00557   0.00147  -0.0583  0.6872  0.8776  -0.6597   0.0000   0.0000   0.0000   0.3884
   1.500   0.4264   0.00561   0.00148  -0.0581  0.6777  0.8834  -0.6756   0.0000   0.0000   0.0000   0.3845
   1.600   0.4360   0.00564   0.00149  -0.0577  0.6667  0.8900  -0.6911   0.0000   0.0000   0.0000   0.3805
   1.700   0.4447   0.00569   0.00150  -0.0571  0.6548  0.8981  -0.7084   0.0000   0.0000   0.0000   0.3765
   1.800   0.4540   0.00572   0.00152  -0.0566  0.6453  0.9065  -0.7266   0.0000   0.0000   0.0000   0.3727
   1.900   0.4638   0.00573   0.00154  -0.0563  0.6386  0.9147  -0.7454   0.0000   0.0000   0.0000   0.3693
   2.000   0.4734   0.00576   0.00155  -0.0559  0.6291  0.9228  -0.7641   0.0000   0.0000   0.0000   0.3659
   2.100   0.4823   0.00579   0.00156  -0.0553  0.6176  0.9321  -0.7822   0.0000   0.0000   0.0000   0.3625
   2.200   0.4912   0.00587   0.00157  -0.0548  0.6037  0.9418  -0.8004   0.0000   0.0000   0.0000   0.3592
   2.300   0.5018   0.00590   0.00159  -0.0546  0.5940  0.9506  -0.8203   0.0000   0.0000   0.0000   0.3565
   2.400   0.5141   0.00592   0.00161  -0.0548  0.5858  0.9591  -0.8419   0.0000   0.0000   0.0000   0.3543
   2.500   0.5267   0.00596   0.00162  -0.0552  0.5761  0.9680  -0.8691   0.0000   0.0000   0.0000   0.3523
   2.600   0.5406   0.00604   0.00164  -0.0558  0.5632  0.9756  -0.8982   0.0000   0.0000   0.0000   0.3507
   2.700   0.5546   0.00614   0.00167  -0.0565  0.5469  0.9848  -0.9275   0.0000   0.0000   0.0000   0.3493
   2.800   0.5700   0.00617   0.00169  -0.0575  0.5372  0.9933  -0.9633   0.0000   0.0000   0.0000   0.3482
   2.900   0.5828   0.00625   0.00172  -0.0580  0.5235  1.0000  -0.9990   0.0000   0.0000   0.0000   0.3467
   3.000   0.5924   0.00637   0.00175  -0.0577  0.5090  1.0000  -1.0300   0.0000   0.0000   0.0000   0.3446
   3.100   0.6023   0.00647   0.00179  -0.0576  0.4952  1.0000  -1.0618   0.0000   0.0000   0.0000   0.3427
   3.200   0.6129   0.00653   0.00183  -0.0575  0.4856  1.0000  -1.0950   0.0000   0.0000   0.0000   0.3409
   3.300   0.6230   0.00663   0.00187  -0.0574  0.4719  1.0000  -1.1276   0.0000   0.0000   0.0000   0.3390
   3.400   0.6325   0.00677   0.00192  -0.0571  0.4551  1.0000  -1.1595   0.0000   0.0000   0.0000   0.3372
   3.500   0.6428   0.00686   0.00197  -0.0570  0.4430  1.0000  -1.1929   0.0000   0.0000   0.0000   0.3355
   3.600   0.6533   0.00693   0.00201  -0.0569  0.4322  1.0000  -1.2268   0.0000   0.0000   0.0000   0.3339
   3.700   0.6631   0.00706   0.00207  -0.0567  0.4173  1.0000  -1.2601   0.0000   0.0000   0.0000   0.3322
   3.800   0.6727   0.00722   0.00214  -0.0565  0.3985  1.0000  -1.2950   0.0000   0.0000   0.0000   0.3306
   3.900   0.6832   0.00730   0.00219  -0.0564  0.3879  1.0000  -1.3415   0.0000   0.0000   0.0000   0.3291
   4.000   0.6929   0.00745   0.00225  -0.0562  0.3700  1.0000  -1.3866   0.0000   0.0000   0.0000   0.3276
   4.100   0.7012   0.00774   0.00247  -0.0558  0.3304  1.0000  -1.4455   0.0000   0.0000   0.0000   0.3260
   4.200   0.7109   0.00790   0.00256  -0.0556  0.3151  1.0000  -1.5106   0.0000   0.0000   0.0000   0.3245
   4.300   0.7207   0.00805   0.00265  -0.0554  0.2966  1.0000  -1.5778   0.0000   0.0000   0.0000   0.3231
   4.400   0.7300   0.00827   0.00274  -0.0552  0.2735  1.0000  -1.6446   0.0000   0.0000   0.0000   0.3218
   4.500   0.7392   0.00849   0.00284  -0.0550  0.2491  1.0000  -1.7125   0.0000   0.0000   0.0000   0.3204
   4.600   0.7480   0.00877   0.00296  -0.0547  0.2219  1.0000  -1.7796   0.0000   0.0000   0.0000   0.3191
   4.700   0.7575   0.00896   0.00306  -0.0545  0.2017  1.0000  -1.8505   0.0000   0.0000   0.0000   0.3178
   4.800   0.7664   0.00924   0.00319  -0.0542  0.1763  1.0000  -1.9197   0.0000   0.0000   0.0000   0.3165
   4.900   0.7760   0.00943   0.00331  -0.0541  0.1605  1.0000  -1.9928   0.0000   0.0000   0.0000   0.3154
   5.000   0.7853   0.00966   0.00342  -0.0538  0.1423  1.0000  -2.0654   0.0000   0.0000   0.0000   0.3142
   5.100   0.7955   0.00978   0.00352  -0.0537  0.1350  1.0000  -2.1427   0.0000   0.0000   0.0000   0.3131
   5.200   0.8054   0.00995   0.00364  -0.0536  0.1253  1.0000  -2.2196   0.0000   0.0000   0.0000   0.3120
   5.300   0.8149   0.01015   0.00376  -0.0534  0.1131  1.0000  -2.2961   0.0000   0.0000   0.0000   0.3109
   5.400   0.8251   0.01028   0.00386  -0.0533  0.1058  1.0000  -2.3813   0.0000   0.0000   0.0000   0.3098
   5.500   0.8351   0.01042   0.00398  -0.0532  0.0985  1.0000  -2.5055   0.0000   0.0000   0.0000   0.3088
   5.600   0.8446   0.01062   0.00412  -0.0530  0.0894  1.0000  -2.6287   0.0000   0.0000   0.0000   0.3078
   5.700   0.8545   0.01079   0.00424  -0.0528  0.0805  1.0000  -2.7557   0.0000   0.0000   0.0000   0.3068
   5.800   0.8646   0.01091   0.00435  -0.0527  0.0758  1.0000  -2.8869   0.0000   0.0000   0.0000   0.3058
   5.900   0.8745   0.01107   0.00447  -0.0526  0.0697  1.0000  -3.0182   0.0000   0.0000   0.0000   0.3049
   6.000   0.8840   0.01128   0.00463  -0.0524  0.0625  1.0000  -3.1486   0.0000   0.0000   0.0000   0.3039
   6.100   0.8940   0.01143   0.00476  -0.0522  0.0562  1.0000  -3.2836   0.0000   0.0000   0.0000   0.3030
   6.200   0.9040   0.01156   0.00488  -0.0521  0.0529  1.0000  -3.4218   0.0000   0.0000   0.0000   0.3021
   6.300   0.9139   0.01171   0.00501  -0.0520  0.0485  1.0000  -3.5599   0.0000   0.0000   0.0000   0.3012
   6.400   0.9235   0.01191   0.00516  -0.0518  0.0432  1.0000  -3.6973   0.0000   0.0000   0.0000   0.3003
   6.500   0.9330   0.01210   0.00532  -0.0516  0.0366  1.0000  -3.8354   0.0000   0.0000   0.0000   0.2995
   6.600   0.9428   0.01226   0.00547  -0.0514  0.0331  1.0000  -3.9769   0.0000   0.0000   0.0000   0.2986
   6.700   0.9523   0.01246   0.00564  -0.0512  0.0288  1.0000  -4.1165   0.0000   0.0000   0.0000   0.2977
   6.800   0.9614   0.01272   0.00583  -0.0510  0.0226  1.0000  -4.2521   0.0000   0.0000   0.0000   0.2969
   6.900   0.9709   0.01291   0.00600  -0.0507  0.0180  1.0000  -4.3898   0.0000   0.0000   0.0000   0.2960
   7.000   0.9796   0.01320   0.00624  -0.0504  0.0128  1.0000  -4.5190   0.0000   0.0000   0.0000   0.2951
   7.100   0.9890   0.01343   0.00645  -0.0502  0.0091  1.0000  -4.6425   0.0000   0.0000   0.0000   0.2943
   7.200   0.9986   0.01361   0.00665  -0.0499  0.0082  1.0000  -4.7655   0.0000   0.0000   0.0000   0.2934
   7.300   1.0082   0.01381   0.00687  -0.0497  0.0075  1.0000  -4.8826   0.0000   0.0000   0.0000   0.2926
   7.400   1.0176   0.01402   0.00711  -0.0494  0.0070  1.0000  -4.9956   0.0000   0.0000   0.0000   0.2918
   7.500   1.0262   0.01440   0.00769  -0.0489  0.0062  1.0000  -5.0221   0.0000   0.0000   0.0000   0.2907
   7.600   1.0353   0.01465   0.00801  -0.0486  0.0060  1.0000  -5.1265   0.0000   0.0000   0.0000   0.2899
   7.700   1.0443   0.01493   0.00835  -0.0482  0.0059  1.0000  -5.2337   0.0000   0.0000   0.0000   0.2890
   7.800   1.0531   0.01522   0.00870  -0.0478  0.0058  1.0000  -5.3401   0.0000   0.0000   0.0000   0.2881
   7.900   1.0617   0.01554   0.00909  -0.0474  0.0058  1.0000  -5.4438   0.0000   0.0000   0.0000   0.2872
   8.000   1.0700   0.01588   0.00950  -0.0469  0.0057  1.0000  -5.5442   0.0000   0.0000   0.0000   0.2863
   8.100   1.0781   0.01626   0.00995  -0.0464  0.0057  1.0000  -5.6407   0.0000   0.0000   0.0000   0.2854
   8.200   1.0858   0.01668   0.01044  -0.0458  0.0057  1.0000  -5.7333   0.0000   0.0000   0.0000   0.2844
   8.300   1.0932   0.01713   0.01098  -0.0452  0.0057  1.0000  -5.8217   0.0000   0.0000   0.0000   0.2834
   8.400   1.1003   0.01762   0.01155  -0.0445  0.0057  1.0000  -5.9058   0.0000   0.0000   0.0000   0.2824
   8.500   1.1070   0.01816   0.01217  -0.0438  0.0058  1.0000  -5.9853   0.0000   0.0000   0.0000   0.2814
   8.600   1.1135   0.01873   0.01283  -0.0430  0.0058  1.0000  -6.0605   0.0000   0.0000   0.0000   0.2804
   8.700   1.1197   0.01936   0.01354  -0.0422  0.0058  1.0000  -6.1312   0.0000   0.0000   0.0000   0.2793
   8.800   1.1256   0.02003   0.01431  -0.0414  0.0059  1.0000  -6.1974   0.0000   0.0000   0.0000   0.2783
   8.900   1.1313   0.02075   0.01512  -0.0405  0.0059  1.0000  -6.2645   0.0000   0.0000   0.0000   0.2772
   9.000   1.1368   0.02153   0.01600  -0.0396  0.0060  1.0000  -6.3462   0.0000   0.0000   0.0000   0.2762
   9.100   1.1421   0.02237   0.01694  -0.0388  0.0060  1.0000  -6.4233   0.0000   0.0000   0.0000   0.2751
   9.200   1.1472   0.02327   0.01795  -0.0379  0.0061  1.0000  -6.4957   0.0000   0.0000   0.0000   0.2741
   9.300   1.1521   0.02424   0.01902  -0.0370  0.0062  1.0000  -6.5632   0.0000   0.0000   0.0000   0.2730
   9.400   1.1568   0.02527   0.02018  -0.0360  0.0063  1.0000  -6.6246   0.0000   0.0000   0.0000   0.2720
   9.500   1.1611   0.02639   0.02142  -0.0351  0.0064  1.0000  -6.6787   0.0000   0.0000   0.0000   0.2709
   9.600   1.1649   0.02757   0.02273  -0.0341  0.0065  1.0000  -6.7263   0.0000   0.0000   0.0000   0.2699
   9.700   1.1682   0.02881   0.02411  -0.0331  0.0066  1.0000  -6.7671   0.0000   0.0000   0.0000   0.2688
   9.800   1.1709   0.03012   0.02554  -0.0320  0.0066  1.0000  -6.8014   0.0000   0.0000   0.0000   0.2677
   9.900   1.1729   0.03147   0.02703  -0.0309  0.0067  1.0000  -6.8293   0.0000   0.0000   0.0000   0.2666
  10.000   1.1742   0.03286   0.02855  -0.0298  0.0068  1.0000  -6.8507   0.0000   0.0000   0.0000   0.2655
  10.100   1.1745   0.03428   0.03011  -0.0286  0.0069  1.0000  -6.8656   0.0000   0.0000   0.0000   0.2644
  10.200   1.1740   0.03572   0.03168  -0.0273  0.0070  1.0000  -6.8742   0.0000   0.0000   0.0000   0.2632
  10.300   1.1725   0.03717   0.03326  -0.0260  0.0071  1.0000  -6.8771   0.0000   0.0000   0.0000   0.2620
  10.400   1.1698   0.03858   0.03479  -0.0246  0.0072  1.0000  -6.8746   0.0000   0.0000   0.0000   0.2607
  10.500   1.1657   0.03989   0.03621  -0.0229  0.0073  1.0000  -6.8675   0.0000   0.0000   0.0000   0.2593
  10.600   1.1607   0.04117   0.03759  -0.0212  0.0073  1.0000  -6.8571   0.0000   0.0000   0.0000   0.2578
  10.700   1.1550   0.04244   0.03897  -0.0196  0.0074  1.0000  -6.8439   0.0000   0.0000   0.0000   0.2564
  10.800   1.1489   0.04374   0.04036  -0.0181  0.0074  1.0000  -6.8283   0.0000   0.0000   0.0000   0.2551
  10.900   1.1423   0.04507   0.04178  -0.0168  0.0075  1.0000  -6.8105   0.0000   0.0000   0.0000   0.2539
  11.000   1.1355   0.04645   0.04326  -0.0156  0.0075  1.0000  -6.7906   0.0000   0.0000   0.0000   0.2528
  11.100   1.1285   0.04791   0.04480  -0.0147  0.0075  1.0000  -6.7688   0.0000   0.0000   0.0000   0.2519
  11.200   1.1211   0.04939   0.04636  -0.0139  0.0076  1.0000  -6.7453   0.0000   0.0000   0.0000   0.2512
  11.300   1.1136   0.05094   0.04799  -0.0134  0.0076  1.0000  -6.7200   0.0000   0.0000   0.0000   0.2507
  11.400   1.1060   0.05260   0.04973  -0.0131  0.0076  1.0000  -6.6929   0.0000   0.0000   0.0000   0.2503
  11.500   1.0983   0.05436   0.05157  -0.0130  0.0077  1.0000  -6.6640   0.0000   0.0000   0.0000   0.2502
  11.600   1.0907   0.05623   0.05352  -0.0133  0.0077  1.0000  -6.6332   0.0000   0.0000   0.0000   0.2504
  11.700   1.0830   0.05821   0.05557  -0.0137  0.0077  1.0000  -6.6004   0.0000   0.0000   0.0000   0.2507
  11.800   1.0752   0.06030   0.05773  -0.0144  0.0077  1.0000  -6.5658   0.0000   0.0000   0.0000   0.2513
  11.900   1.0675   0.06250   0.06000  -0.0153  0.0077  1.0000  -6.5290   0.0000   0.0000   0.0000   0.2521
  12.000   1.0598   0.06482   0.06239  -0.0165  0.0077  1.0000  -6.4901   0.0000   0.0000   0.0000   0.2531
  12.100   1.0520   0.06720   0.06483  -0.0178  0.0077  1.0000  -6.4494   0.0000   0.0000   0.0000   0.2544
  12.200   1.0442   0.06969   0.06738  -0.0193  0.0077  1.0000  -6.4060   0.0000   0.0000   0.0000   0.2557
  12.300   1.0365   0.07238   0.07012  -0.0211  0.0077  1.0000  -6.3595   0.0000   0.0000   0.0000   0.2574
  12.400   1.0290   0.07522   0.07302  -0.0230  0.0077  1.0000  -6.3094   0.0000   0.0000   0.0000   0.2593
  12.500   1.0215   0.07824   0.07609  -0.0251  0.0077  1.0000  -6.2555   0.0000   0.0000   0.0000   0.2614
  12.600   1.0141   0.08144   0.07935  -0.0275  0.0077  1.0000  -6.1968   0.0000   0.0000   0.0000   0.2638
  12.700   1.0068   0.08478   0.08273  -0.0299  0.0077  1.0000  -6.1333   0.0000   0.0000   0.0000   0.2662
  12.800   0.9995   0.08830   0.08630  -0.0325  0.0077  1.0000  -6.0636   0.0000   0.0000   0.0000   0.2689
  12.900   0.9922   0.09201   0.09006  -0.0352  0.0077  1.0000  -5.9866   0.0000   0.0000   0.0000   0.2718
  13.000   0.9848   0.09583   0.09392  -0.0379  0.0077  1.0000  -5.9020   0.0000   0.0000   0.0000   0.2747
  13.100   0.9773   0.09988   0.09801  -0.0407  0.0076  1.0000  -5.8064   0.0000   0.0000   0.0000   0.2778
  13.200   0.9696   0.10415   0.10232  -0.0436  0.0076  1.0000  -5.6970   0.0000   0.0000   0.0000   0.2811
  13.300   0.9616   0.10860   0.10681  -0.0464  0.0076  1.0000  -5.5722   0.0000   0.0000   0.0000   0.2844
  13.400   0.9533   0.11328   0.11152  -0.0493  0.0076  1.0000  -5.4268   0.0000   0.0000   0.0000   0.2878
  13.500   0.9442   0.11831   0.11657  -0.0522  0.0076  1.0000  -5.2514   0.0000   0.0000   0.0000   0.2914
  13.600   0.9344   0.12368   0.12196  -0.0551  0.0075  1.0000  -5.0384   0.0000   0.0000   0.0000   0.2952
  13.700   0.9241   0.12923   0.12751  -0.0578  0.0076  1.0000  -4.7903   0.0000   0.0000   0.0000   0.2989
  13.800   0.9142   0.13462   0.13289  -0.0603  0.0076  1.0000  -4.5303   0.0000   0.0000   0.0000   0.3024
  13.900   0.9066   0.13919   0.13745  -0.0625  0.0077  1.0000  -4.3243   0.0000   0.0000   0.0000   0.3054
  14.000   0.9005   0.14328   0.14153  -0.0645  0.0078  1.0000  -4.1515   0.0000   0.0000   0.0000   0.3081
  14.100   0.8955   0.14693   0.14516  -0.0663  0.0079  1.0000  -4.0001   0.0000   0.0000   0.0000   0.3106
  14.200   0.8912   0.15016   0.14839  -0.0681  0.0079  1.0000  -3.8643   0.0000   0.0000   0.0000   0.3129
  14.300   0.8876   0.15326   0.15148  -0.0697  0.0080  1.0000  -3.7386   0.0000   0.0000   0.0000   0.3150
  14.400   0.8844   0.15632   0.15453  -0.0713  0.0082  1.0000  -3.6198   0.0000   0.0000   0.0000   0.3171
  14.500   0.8816   0.15937   0.15757  -0.0729  0.0083  1.0000  -3.5047   0.0000   0.0000   0.0000   0.3191
  14.600   0.8789   0.16247   0.16066  -0.0744  0.0084  1.0000  -3.3886   0.0000   0.0000   0.0000   0.3210
  14.700   0.8758   0.16574   0.16392  -0.0760  0.0086  1.0000  -3.2588   0.0000   0.0000   0.0000   0.3231
  15.300   0.8902   0.17516   0.17338  -0.0801  0.0104  1.0000  -3.3285   0.0000   0.0000   0.0000   0.3255
  15.400   0.8909   0.17771   0.17593  -0.0812  0.0105  1.0000  -3.2727   0.0000   0.0000   0.0000   0.3267
  15.500   0.8914   0.18022   0.17843  -0.0823  0.0106  1.0000  -3.2223   0.0000   0.0000   0.0000   0.3278
  15.600   0.8921   0.18262   0.18083  -0.0834  0.0107  1.0000  -3.1821   0.0000   0.0000   0.0000   0.3289
  15.700   0.8930   0.18493   0.18314  -0.0845  0.0107  1.0000  -3.1505   0.0000   0.0000   0.0000   0.3299
  15.800   0.8940   0.18718   0.18539  -0.0855  0.0106  1.0000  -3.1255   0.0000   0.0000   0.0000   0.3308
  15.900   0.8951   0.18937   0.18758  -0.0865  0.0106  1.0000  -3.1056   0.0000   0.0000   0.0000   0.3317
  16.000   0.8963   0.19154   0.18974  -0.0874  0.0106  1.0000  -3.0893   0.0000   0.0000   0.0000   0.3325
  16.100   0.8975   0.19368   0.19189  -0.0884  0.0105  1.0000  -3.0756   0.0000   0.0000   0.0000   0.3333
  16.200   0.8987   0.19582   0.19403  -0.0893  0.0104  1.0000  -3.0633   0.0000   0.0000   0.0000   0.3341
  16.300   0.9000   0.19797   0.19618  -0.0902  0.0104  1.0000  -3.0513   0.0000   0.0000   0.0000   0.3349
  16.400   0.9011   0.20016   0.19836  -0.0912  0.0103  1.0000  -3.0381   0.0000   0.0000   0.0000   0.3357
  16.500   0.9022   0.20240   0.20061  -0.0921  0.0102  1.0000  -3.0215   0.0000   0.0000   0.0000   0.3365
  16.600   0.9030   0.20477   0.20297  -0.0931  0.0101  1.0000  -2.9978   0.0000   0.0000   0.0000   0.3374
  16.700   0.9033   0.20738   0.20558  -0.0941  0.0100  1.0000  -2.9581   0.0000   0.0000   0.0000   0.3384
  16.800   0.9018   0.21089   0.20909  -0.0953  0.0097  1.0000  -2.8582   0.0000   0.0000   0.0000   0.3399
  16.900   0.8926   0.21885   0.21701  -0.0977  0.0093  1.0000  -2.4660   0.0000   0.0000   0.0000   0.3438
  17.000   0.8944   0.22109   0.21924  -0.0985  0.0093  1.0000  -2.4536   0.0000   0.0000   0.0000   0.3444
  17.100   0.8962   0.22332   0.22148  -0.0994  0.0093  1.0000  -2.4412   0.0000   0.0000   0.0000   0.3451
  17.200   0.8980   0.22557   0.22372  -0.1003  0.0093  1.0000  -2.4287   0.0000   0.0000   0.0000   0.3457
  17.300   0.8998   0.22781   0.22597  -0.1011  0.0093  1.0000  -2.4161   0.0000   0.0000   0.0000   0.3463
  17.400   0.9015   0.23007   0.22823  -0.1020  0.0093  1.0000  -2.4033   0.0000   0.0000   0.0000   0.3469
  17.500   0.9033   0.23233   0.23048  -0.1028  0.0093  1.0000  -2.3904   0.0000   0.0000   0.0000   0.3475
  17.600   0.9051   0.23458   0.23274  -0.1037  0.0093  1.0000  -2.3772   0.0000   0.0000   0.0000   0.3481
  17.700   0.9068   0.23684   0.23500  -0.1045  0.0093  1.0000  -2.3638   0.0000   0.0000   0.0000   0.3487
  17.800   0.9086   0.23908   0.23724  -0.1054  0.0093  1.0000  -2.3504   0.0000   0.0000   0.0000   0.3493
  17.900   0.9103   0.24131   0.23948  -0.1063  0.0093  1.0000  -2.3373   0.0000   0.0000   0.0000   0.3499
  18.000   0.9121   0.24354   0.24170  -0.1071  0.0092  1.0000  -2.3245   0.0000   0.0000   0.0000   0.3505
  18.100   0.9139   0.24575   0.24391  -0.1080  0.0092  1.0000  -2.3120   0.0000   0.0000   0.0000   0.3511
  18.200   0.9156   0.24796   0.24613  -0.1089  0.0092  1.0000  -2.2997   0.0000   0.0000   0.0000   0.3517
  18.300   0.9173   0.25019   0.24836  -0.1097  0.0092  1.0000  -2.2868   0.0000   0.0000   0.0000   0.3523
  18.400   0.9190   0.25247   0.25064  -0.1105  0.0092  1.0000  -2.2725   0.0000   0.0000   0.0000   0.3529
  18.500   0.9206   0.25477   0.25295  -0.1113  0.0092  1.0000  -2.2570   0.0000   0.0000   0.0000   0.3534
  18.600   0.9222   0.25709   0.25526  -0.1121  0.0092  1.0000  -2.2412   0.0000   0.0000   0.0000   0.3539
  18.700   0.9238   0.25941   0.25758  -0.1129  0.0092  1.0000  -2.2251   0.0000   0.0000   0.0000   0.3545
  18.800   0.9253   0.26173   0.25991  -0.1137  0.0092  1.0000  -2.2086   0.0000   0.0000   0.0000   0.3550
  18.900   0.9268   0.26406   0.26224  -0.1145  0.0091  1.0000  -2.1918   0.0000   0.0000   0.0000   0.3555
  19.000   0.9282   0.26640   0.26458  -0.1153  0.0091  1.0000  -2.1749   0.0000   0.0000   0.0000   0.3561
  19.100   0.9296   0.26874   0.26692  -0.1161  0.0091  1.0000  -2.1578   0.0000   0.0000   0.0000   0.3566
  19.200   0.9310   0.27108   0.26927  -0.1168  0.0091  1.0000  -2.1406   0.0000   0.0000   0.0000   0.3571
  19.300   0.9323   0.27343   0.27162  -0.1176  0.0091  1.0000  -2.1234   0.0000   0.0000   0.0000   0.3576
  19.400   0.9336   0.27578   0.27397  -0.1184  0.0091  1.0000  -2.1062   0.0000   0.0000   0.0000   0.3581
  19.500   0.9348   0.27813   0.27632  -0.1191  0.0091  1.0000  -2.0891   0.0000   0.0000   0.0000   0.3587
  19.600   0.9360   0.28048   0.27867  -0.1199  0.0091  1.0000  -2.0720   0.0000   0.0000   0.0000   0.3592
  19.700   0.9371   0.28282   0.28102  -0.1206  0.0091  1.0000  -2.0551   0.0000   0.0000   0.0000   0.3597
  19.800   0.9381   0.28517   0.28337  -0.1213  0.0091  1.0000  -2.0383   0.0000   0.0000   0.0000   0.3602
  19.900   0.9390   0.28751   0.28571  -0.1220  0.0091  1.0000  -2.0216   0.0000   0.0000   0.0000   0.3607
  20.000   0.9399   0.28985   0.28805  -0.1228  0.0091  1.0000  -2.0050   0.0000   0.0000   0.0000   0.3612
  20.100   0.9407   0.29217   0.29038  -0.1235  0.0091  1.0000  -1.9884   0.0000   0.0000   0.0000   0.3617
  20.200   0.9414   0.29449   0.29270  -0.1242  0.0091  1.0000  -1.9719   0.0000   0.0000   0.0000   0.3622
  20.300   0.9420   0.29680   0.29501  -0.1248  0.0090  1.0000  -1.9555   0.0000   0.0000   0.0000   0.3627
  20.400   0.9424   0.29909   0.29731  -0.1255  0.0090  1.0000  -1.9392   0.0000   0.0000   0.0000   0.3633
  20.500   0.9428   0.30136   0.29959  -0.1261  0.0090  1.0000  -1.9229   0.0000   0.0000   0.0000   0.3638
  20.600   0.9430   0.30362   0.30184  -0.1268  0.0090  1.0000  -1.9066   0.0000   0.0000   0.0000   0.3643
  20.700   0.9430   0.30584   0.30408  -0.1274  0.0090  1.0000  -1.8902   0.0000   0.0000   0.0000   0.3648
  20.800   0.9429   0.30804   0.30627  -0.1280  0.0090  1.0000  -1.8737   0.0000   0.0000   0.0000   0.3654
  20.900   0.9426   0.31019   0.30843  -0.1286  0.0090  1.0000  -1.8570   0.0000   0.0000   0.0000   0.3659
  21.000   0.9420   0.31229   0.31054  -0.1291  0.0090  1.0000  -1.8399   0.0000   0.0000   0.0000   0.3664
  21.100   0.9411   0.31433   0.31259  -0.1296  0.0090  1.0000  -1.8224   0.0000   0.0000   0.0000   0.3670
  21.200   0.9398   0.31629   0.31455  -0.1301  0.0090  1.0000  -1.8043   0.0000   0.0000   0.0000   0.3676
  21.300   0.9380   0.31813   0.31640  -0.1305  0.0090  1.0000  -1.7849   0.0000   0.0000   0.0000   0.3682
  21.400   0.9354   0.31980   0.31808  -0.1308  0.0090  1.0000  -1.7638   0.0000   0.0000   0.0000   0.3689
  21.500   0.8840   0.30931   0.30768  -0.1259  0.0090  1.0000  -1.6170   0.0000   0.0000   0.0000   0.3722
  21.600   0.8776   0.30895   0.30733  -0.1257  0.0090  1.0000  -1.5873   0.0000   0.0000   0.0000   0.3730
  21.700   0.8727   0.30887   0.30727  -0.1257  0.0090  1.0000  -1.5616   0.0000   0.0000   0.0000   0.3737
  21.800   0.8686   0.30896   0.30737  -0.1257  0.0089  1.0000  -1.5384   0.0000   0.0000   0.0000   0.3744
  21.900   0.8651   0.30915   0.30757  -0.1258  0.0089  1.0000  -1.5170   0.0000   0.0000   0.0000   0.3751
  22.000   0.8619   0.30941   0.30784  -0.1260  0.0089  1.0000  -1.4969   0.0000   0.0000   0.0000   0.3757
  22.100   0.8591   0.30972   0.30815  -0.1261  0.0089  1.0000  -1.4779   0.0000   0.0000   0.0000   0.3763
  22.200   0.8566   0.31007   0.30851  -0.1263  0.0089  1.0000  -1.4600   0.0000   0.0000   0.0000   0.3769
  22.300   0.8543   0.31046   0.30891  -0.1265  0.0089  1.0000  -1.4429   0.0000   0.0000   0.0000   0.3774
  22.400   0.8523   0.31087   0.30933  -0.1268  0.0089  1.0000  -1.4266   0.0000   0.0000   0.0000   0.3780
  22.500   0.8504   0.31131   0.30978  -0.1270  0.0089  1.0000  -1.4110   0.0000   0.0000   0.0000   0.3785
  22.600   0.8486   0.31178   0.31025  -0.1273  0.0089  1.0000  -1.3960   0.0000   0.0000   0.0000   0.3791
  22.700   0.8470   0.31226   0.31074  -0.1276  0.0088  1.0000  -1.3812   0.0000   0.0000   0.0000   0.3796
  22.800   0.8455   0.31276   0.31125  -0.1279  0.0088  1.0000  -1.3664   0.0000   0.0000   0.0000   0.3801
  22.900   0.8441   0.31328   0.31177  -0.1282  0.0088  1.0000  -1.3520   0.0000   0.0000   0.0000   0.3806
  23.000   0.8428   0.31381   0.31231  -0.1285  0.0088  1.0000  -1.3382   0.0000   0.0000   0.0000   0.3811
  23.100   0.8416   0.31435   0.31286  -0.1288  0.0088  1.0000  -1.3249   0.0000   0.0000   0.0000   0.3816
  23.200   0.8405   0.31491   0.31342  -0.1291  0.0088  1.0000  -1.3120   0.0000   0.0000   0.0000   0.3821
  23.300   0.8395   0.31547   0.31399  -0.1295  0.0087  1.0000  -1.2995   0.0000   0.0000   0.0000   0.3826
  23.400   0.8386   0.31604   0.31457  -0.1298  0.0087  1.0000  -1.2875   0.0000   0.0000   0.0000   0.3831
  23.500   0.8378   0.31663   0.31516  -0.1302  0.0087  1.0000  -1.2758   0.0000   0.0000   0.0000   0.3835
  23.600   0.8370   0.31722   0.31576  -0.1306  0.0087  1.0000  -1.2645   0.0000   0.0000   0.0000   0.3840
  23.700   0.8362   0.31780   0.31638  -0.1309  0.0086  1.0000  -1.2563   0.0000   0.0000   0.0000   0.3844
  23.800   0.8356   0.31840   0.31698  -0.1313  0.0086  1.0000  -1.2462   0.0000   0.0000   0.0000   0.3849
  23.900   0.8350   0.31902   0.31760  -0.1317  0.0086  1.0000  -1.2362   0.0000   0.0000   0.0000   0.3853
  24.000   0.8345   0.31964   0.31823  -0.1320  0.0085  1.0000  -1.2264   0.0000   0.0000   0.0000   0.3858
  24.100   0.8341   0.32027   0.31887  -0.1324  0.0085  1.0000  -1.2168   0.0000   0.0000   0.0000   0.3862
  24.200   0.8338   0.32092   0.31952  -0.1328  0.0084  1.0000  -1.2074   0.0000   0.0000   0.0000   0.3866
  24.300   0.8336   0.32158   0.32019  -0.1333  0.0084  1.0000  -1.1982   0.0000   0.0000   0.0000   0.3870
  24.400   0.8335   0.32225   0.32087  -0.1337  0.0083  1.0000  -1.1891   0.0000   0.0000   0.0000   0.3874
  24.500   0.8335   0.32294   0.32156  -0.1341  0.0081  1.0000  -1.1799   0.0000   0.0000   0.0000   0.3878
  24.600   0.8335   0.32365   0.32227  -0.1345  0.0080  1.0000  -1.1707   0.0000   0.0000   0.0000   0.3881
  24.700   0.8335   0.32436   0.32299  -0.1349  0.0078  1.0000  -1.1615   0.0000   0.0000   0.0000   0.3885
  24.800   0.8335   0.32506   0.32369  -0.1353  0.0076  1.0000  -1.1526   0.0000   0.0000   0.0000   0.3889
  24.900   0.8334   0.32575   0.32439  -0.1357  0.0074  1.0000  -1.1442   0.0000   0.0000   0.0000   0.3892
  25.000   0.8332   0.32642   0.32506  -0.1361  0.0072  1.0000  -1.1366   0.0000   0.0000   0.0000   0.3896
  25.100   0.8330   0.32708   0.32573  -0.1365  0.0070  1.0000  -1.1295   0.0000   0.0000   0.0000   0.3899
  25.200   0.8328   0.32774   0.32639  -0.1369  0.0068  1.0000  -1.1230   0.0000   0.0000   0.0000   0.3903
  25.300   0.8325   0.32838   0.32705  -0.1373  0.0066  1.0000  -1.1169   0.0000   0.0000   0.0000   0.3906
  25.400   0.8322   0.32903   0.32770  -0.1376  0.0065  1.0000  -1.1113   0.0000   0.0000   0.0000   0.3910
  25.500   0.8320   0.32968   0.32835  -0.1380  0.0063  1.0000  -1.1060   0.0000   0.0000   0.0000   0.3914
  25.600   0.8317   0.33032   0.32899  -0.1384  0.0061  1.0000  -1.1011   0.0000   0.0000   0.0000   0.3917
  25.700   0.8314   0.33096   0.32964  -0.1388  0.0060  1.0000  -1.0965   0.0000   0.0000   0.0000   0.3921
  25.800   0.8312   0.33160   0.33029  -0.1392  0.0059  1.0000  -1.0922   0.0000   0.0000   0.0000   0.3924
  25.900   0.8310   0.33224   0.33093  -0.1395  0.0057  1.0000  -1.0881   0.0000   0.0000   0.0000   0.3928
  26.000   0.8308   0.33288   0.33158  -0.1399  0.0056  1.0000  -1.0843   0.0000   0.0000   0.0000   0.3931
  26.100   0.8305   0.33352   0.33222  -0.1403  0.0055  1.0000  -1.0808   0.0000   0.0000   0.0000   0.3935
  26.200   0.8303   0.33416   0.33286  -0.1407  0.0054  1.0000  -1.0775   0.0000   0.0000   0.0000   0.3938
  26.300   0.8302   0.33480   0.33351  -0.1411  0.0053  1.0000  -1.0744   0.0000   0.0000   0.0000   0.3942


