xflr5 v6.61

 Calculated polar for: RG-15 8.9%

 1 1 Reynolds number fixed          Mach number fixed         

 xtrf =   1.000 (top)        1.000 (bottom)
 Mach =   0.000     Re =     0.500 e 6     Ncrit =   9.000

  alpha     CL        CD       CDp       Cm    Top Xtr Bot Xtr   Cpmin    Chinge    XCp    
 ------- -------- --------- --------- -------- ------- ------- -------- --------- ---------
 -10.000  -0.4565   0.10486   0.10240  -0.0197  1.0000  0.0123  -1.9263   0.0000   0.0000   0.0000   0.2002
  -9.900  -0.4563   0.10316   0.10063  -0.0203  1.0000  0.0123  -1.9488   0.0000   0.0000   0.0000   0.1991
  -9.800  -0.4559   0.10152   0.09900  -0.0208  1.0000  0.0122  -1.9693   0.0000   0.0000   0.0000   0.1979
  -9.700  -0.4558   0.09985   0.09734  -0.0214  1.0000  0.0122  -1.9923   0.0000   0.0000   0.0000   0.1968
  -9.600  -0.4560   0.09813   0.09563  -0.0219  1.0000  0.0122  -2.0192   0.0000   0.0000   0.0000   0.1957
  -9.500  -0.4569   0.09630   0.09381  -0.0225  1.0000  0.0121  -2.0549   0.0000   0.0000   0.0000   0.1946
  -9.400  -0.4602   0.09403   0.09155  -0.0232  1.0000  0.0119  -2.1268   0.0000   0.0000   0.0000   0.1936
  -9.300  -0.4633   0.09189   0.08949  -0.0239  1.0000  0.0117  -2.1941   0.0000   0.0000   0.0000   0.1925
  -9.200  -0.4669   0.08973   0.08734  -0.0247  1.0000  0.0115  -2.2646   0.0000   0.0000   0.0000   0.1913
  -9.100  -0.4697   0.08770   0.08533  -0.0254  1.0000  0.0113  -2.3238   0.0000   0.0000   0.0000   0.1900
  -9.000  -0.4722   0.08572   0.08336  -0.0263  1.0000  0.0111  -2.3773   0.0000   0.0000   0.0000   0.1887
  -8.900  -0.4746   0.08377   0.08143  -0.0271  1.0000  0.0110  -2.4279   0.0000   0.0000   0.0000   0.1873
  -8.800  -0.4771   0.08185   0.07951  -0.0279  1.0000  0.0109  -2.4772   0.0000   0.0000   0.0000   0.1859
  -8.700  -0.4798   0.07993   0.07761  -0.0288  1.0000  0.0108  -2.5261   0.0000   0.0000   0.0000   0.1845
  -8.600  -0.4827   0.07801   0.07571  -0.0297  1.0000  0.0107  -2.5752   0.0000   0.0000   0.0000   0.1832
  -8.500  -0.4860   0.07610   0.07381  -0.0306  1.0000  0.0106  -2.6249   0.0000   0.0000   0.0000   0.1818
  -8.400  -0.4897   0.07416   0.07189  -0.0316  1.0000  0.0105  -2.6756   0.0000   0.0000   0.0000   0.1804
  -8.300  -0.4939   0.07222   0.06997  -0.0326  1.0000  0.0105  -2.7272   0.0000   0.0000   0.0000   0.1791
  -8.200  -0.4992   0.07032   0.06809  -0.0336  1.0000  0.0105  -2.7793   0.0000   0.0000   0.0000   0.1779
  -8.100  -0.5058   0.06844   0.06624  -0.0347  1.0000  0.0104  -2.8318   0.0000   0.0000   0.0000   0.1768
  -8.000  -0.5126   0.06618   0.06399  -0.0368  1.0000  0.0105  -2.8926   0.0000   0.0000   0.0000   0.1736
  -7.900  -0.5170   0.06368   0.06147  -0.0388  1.0000  0.0104  -2.9614   0.0000   0.0000   0.0000   0.1705
  -7.800  -0.5214   0.06136   0.05913  -0.0400  1.0000  0.0104  -3.0282   0.0000   0.0000   0.0000   0.1690
  -7.700  -0.5256   0.05911   0.05685  -0.0408  1.0000  0.0103  -3.0945   0.0000   0.0000   0.0000   0.1681
  -7.600  -0.5295   0.05691   0.05460  -0.0413  1.0000  0.0102  -3.1605   0.0000   0.0000   0.0000   0.1678
  -7.500  -0.5331   0.05472   0.05237  -0.0416  1.0000  0.0102  -3.2269   0.0000   0.0000   0.0000   0.1678
  -7.400  -0.5364   0.05258   0.05018  -0.0417  1.0000  0.0101  -3.2927   0.0000   0.0000   0.0000   0.1681
  -7.300  -0.5394   0.05046   0.04799  -0.0416  1.0000  0.0100  -3.3588   0.0000   0.0000   0.0000   0.1688
  -7.200  -0.5418   0.04834   0.04580  -0.0414  1.0000  0.0099  -3.4256   0.0000   0.0000   0.0000   0.1696
  -7.100  -0.5439   0.04624   0.04362  -0.0411  1.0000  0.0097  -3.4927   0.0000   0.0000   0.0000   0.1705
  -7.000  -0.5455   0.04414   0.04143  -0.0406  1.0000  0.0096  -3.5607   0.0000   0.0000   0.0000   0.1716
  -6.900  -0.5465   0.04204   0.03923  -0.0401  1.0000  0.0095  -3.6300   0.0000   0.0000   0.0000   0.1727
  -6.800  -0.5469   0.03996   0.03703  -0.0395  1.0000  0.0093  -3.6991   0.0000   0.0000   0.0000   0.1738
  -6.700  -0.5467   0.03787   0.03482  -0.0389  1.0000  0.0092  -3.7705   0.0000   0.0000   0.0000   0.1749
  -6.600  -0.5458   0.03582   0.03263  -0.0382  1.0000  0.0090  -3.8396   0.0000   0.0000   0.0000   0.1760
  -6.500  -0.5441   0.03378   0.03044  -0.0376  1.0000  0.0089  -3.9092   0.0000   0.0000   0.0000   0.1769
  -6.400  -0.5415   0.03179   0.02829  -0.0370  1.0000  0.0087  -3.9766   0.0000   0.0000   0.0000   0.1778
  -6.300  -0.5382   0.02989   0.02621  -0.0363  1.0000  0.0086  -4.0375   0.0000   0.0000   0.0000   0.1786
  -6.200  -0.5270   0.02736   0.02343  -0.0373  0.9991  0.0083  -4.1117   0.0000   0.0000   0.0000   0.1752
  -6.100  -0.5152   0.02513   0.02095  -0.0381  0.9981  0.0081  -4.1674   0.0000   0.0000   0.0000   0.1720
  -6.000  -0.5028   0.02320   0.01877  -0.0389  0.9973  0.0080  -4.2018   0.0000   0.0000   0.0000   0.1686
  -5.900  -0.4902   0.02152   0.01687  -0.0395  0.9965  0.0078  -4.2172   0.0000   0.0000   0.0000   0.1652
  -5.800  -0.4777   0.02008   0.01522  -0.0400  0.9956  0.0077  -4.2156   0.0000   0.0000   0.0000   0.1621
  -5.700  -0.4650   0.01880   0.01377  -0.0405  0.9947  0.0076  -4.2004   0.0000   0.0000   0.0000   0.1588
  -5.600  -0.4520   0.01768   0.01239  -0.0410  0.9937  0.0075  -4.1777   0.0000   0.0000   0.0000   0.1552
  -5.500  -0.4389   0.01676   0.01133  -0.0415  0.9928  0.0075  -4.1311   0.0000   0.0000   0.0000   0.1514
  -5.400  -0.4256   0.01596   0.01040  -0.0419  0.9919  0.0075  -4.0732   0.0000   0.0000   0.0000   0.1473
  -5.300  -0.4124   0.01526   0.00960  -0.0424  0.9911  0.0075  -4.0069   0.0000   0.0000   0.0000   0.1430
  -5.200  -0.3991   0.01464   0.00889  -0.0429  0.9903  0.0075  -3.9327   0.0000   0.0000   0.0000   0.1384
  -5.100  -0.3854   0.01409   0.00826  -0.0435  0.9895  0.0076  -3.8511   0.0000   0.0000   0.0000   0.1331
  -5.000  -0.3714   0.01360   0.00769  -0.0441  0.9888  0.0077  -3.7630   0.0000   0.0000   0.0000   0.1271
  -4.900  -0.3570   0.01316   0.00718  -0.0448  0.9881  0.0078  -3.6691   0.0000   0.0000   0.0000   0.1204
  -4.800  -0.3423   0.01276   0.00673  -0.0456  0.9875  0.0079  -3.5704   0.0000   0.0000   0.0000   0.1127
  -4.700  -0.3295   0.01241   0.00632  -0.0459  0.9860  0.0081  -3.4765   0.0000   0.0000   0.0000   0.1064
  -4.600  -0.3168   0.01208   0.00596  -0.0463  0.9843  0.0083  -3.3808   0.0000   0.0000   0.0000   0.0997
  -4.500  -0.3035   0.01179   0.00562  -0.0468  0.9826  0.0085  -3.2811   0.0000   0.0000   0.0000   0.0917
  -4.400  -0.2898   0.01153   0.00532  -0.0473  0.9811  0.0087  -3.1785   0.0000   0.0000   0.0000   0.0826
  -4.300  -0.2760   0.01130   0.00505  -0.0479  0.9797  0.0090  -3.0743   0.0000   0.0000   0.0000   0.0722
  -4.200  -0.2618   0.01109   0.00481  -0.0486  0.9784  0.0094  -2.9685   0.0000   0.0000   0.0000   0.0602
  -4.100  -0.2472   0.01091   0.00460  -0.0493  0.9773  0.0097  -2.8607   0.0000   0.0000   0.0000   0.0463
  -4.000  -0.2323   0.01074   0.00441  -0.0501  0.9761  0.0101  -2.7516   0.0000   0.0000   0.0000   0.0299
  -3.900  -0.2171   0.01059   0.00424  -0.0510  0.9751  0.0105  -2.6414   0.0000   0.0000   0.0000   0.0106
  -3.800  -0.2016   0.01045   0.00409  -0.0519  0.9742  0.0110  -2.5305   0.0000   0.0000   0.0000  -0.0121
  -3.700  -0.1861   0.01033   0.00395  -0.0529  0.9734  0.0114  -2.4185   0.0000   0.0000   0.0000  -0.0390
  -3.600  -0.1705   0.01023   0.00385  -0.0539  0.9727  0.0119  -2.3045   0.0000   0.0000   0.0000  -0.0707
  -3.500  -0.1598   0.01014   0.00376  -0.0538  0.9701  0.0122  -2.2078   0.0000   0.0000   0.0000  -0.0915
  -3.400  -0.1485   0.01006   0.00369  -0.0538  0.9674  0.0124  -2.1049   0.0000   0.0000   0.0000  -0.1175
  -3.300  -0.1355   0.00977   0.00331  -0.0540  0.9652  0.0159  -2.1100   0.0000   0.0000   0.0000  -0.1541
  -3.200  -0.1219   0.00961   0.00319  -0.0546  0.9633  0.0206  -2.0324   0.0000   0.0000   0.0000  -0.2035
  -3.100  -0.1076   0.00948   0.00307  -0.0552  0.9615  0.0257  -1.9432   0.0000   0.0000   0.0000  -0.2697
  -3.000  -0.0930   0.00928   0.00296  -0.0560  0.9599  0.0384  -1.8524   0.0000   0.0000   0.0000  -0.3592
  -2.900  -0.0780   0.00915   0.00285  -0.0569  0.9585  0.0484  -1.7607   0.0000   0.0000   0.0000  -0.4868
  -2.800  -0.0635   0.00877   0.00265  -0.0578  0.9572  0.0971  -1.6472   0.0000   0.0000   0.0000  -0.6698
  -2.700  -0.0485   0.00856   0.00256  -0.0587  0.9561  0.1224  -1.5607   0.0000   0.0000   0.0000  -0.9719
  -2.600  -0.0336   0.00837   0.00247  -0.0596  0.9550  0.1474  -1.4754   0.0000   0.0000   0.0000  -1.5394
  -2.500  -0.0189   0.00814   0.00238  -0.0605  0.9539  0.1836  -1.3921   0.0000   0.0000   0.0000  -2.9698
  -2.400  -0.0045   0.00781   0.00228  -0.0615  0.9526  0.2412  -1.3109   0.0000   0.0000   0.0000  -13.5127
  -2.300   0.0035   0.00753   0.00221  -0.0609  0.9480  0.2968  -1.2508   0.0000   0.0000   0.0000  17.6057
  -2.200   0.0140   0.00715   0.00213  -0.0610  0.9441  0.3755  -1.1841   0.0000   0.0000   0.0000   4.6335
  -2.100   0.0254   0.00675   0.00206  -0.0613  0.9407  0.4654  -1.1153   0.0000   0.0000   0.0000   2.6781
  -2.000   0.0368   0.00637   0.00204  -0.0615  0.9375  0.5627  -1.0469   0.0000   0.0000   0.0000   1.9274
  -1.900   0.0493   0.00616   0.00205  -0.0617  0.9348  0.6255  -0.9762   0.0000   0.0000   0.0000   1.5068
  -1.800   0.0630   0.00607   0.00204  -0.0621  0.9324  0.6608  -0.9034   0.0000   0.0000   0.0000   1.2406
  -1.700   0.0764   0.00596   0.00204  -0.0625  0.9300  0.6904  -0.8325   0.0000   0.0000   0.0000   1.0705
  -1.600   0.0901   0.00592   0.00201  -0.0629  0.9270  0.7085  -0.7626   0.0000   0.0000   0.0000   0.9504
  -1.500   0.0993   0.00589   0.00200  -0.0624  0.9214  0.7189  -0.7064   0.0000   0.0000   0.0000   0.8799
  -1.400   0.1099   0.00583   0.00198  -0.0621  0.9159  0.7303  -0.6472   0.0000   0.0000   0.0000   0.8164
  -1.300   0.1220   0.00579   0.00196  -0.0621  0.9109  0.7413  -0.5855   0.0000   0.0000   0.0000   0.7607
  -1.200   0.1347   0.00577   0.00193  -0.0624  0.9062  0.7505  -0.5233   0.0000   0.0000   0.0000   0.7136
  -1.100   0.1479   0.00576   0.00189  -0.0627  0.9019  0.7568  -0.4616   0.0000   0.0000   0.0000   0.6743
  -1.000   0.1608   0.00576   0.00186  -0.0630  0.8976  0.7613  -0.4021   0.0000   0.0000   0.0000   0.6419
  -0.900   0.1706   0.00572   0.00186  -0.0626  0.8920  0.7691  -0.3924   0.0000   0.0000   0.0000   0.6171
  -0.800   0.1811   0.00569   0.00185  -0.0623  0.8858  0.7752  -0.4007   0.0000   0.0000   0.0000   0.5943
  -0.700   0.1925   0.00568   0.00182  -0.0623  0.8792  0.7786  -0.4103   0.0000   0.0000   0.0000   0.5736
  -0.600   0.2047   0.00567   0.00177  -0.0625  0.8726  0.7783  -0.4208   0.0000   0.0000   0.0000   0.5549
  -0.500   0.2175   0.00569   0.00172  -0.0628  0.8659  0.7736  -0.4316   0.0000   0.0000   0.0000   0.5383
  -0.400   0.2293   0.00572   0.00168  -0.0629  0.8598  0.7661  -0.4417   0.0000   0.0000   0.0000   0.5240
  -0.300   0.2405   0.00573   0.00167  -0.0629  0.8532  0.7630  -0.4517   0.0000   0.0000   0.0000   0.5111
  -0.200   0.2502   0.00569   0.00169  -0.0625  0.8463  0.7786  -0.4609   0.0000   0.0000   0.0000   0.4990
  -0.100   0.2586   0.00569   0.00177  -0.0615  0.8389  0.8116  -0.4696   0.0000   0.0000   0.0000   0.4872
   0.000   0.2683   0.00568   0.00177  -0.0610  0.8313  0.8240  -0.4793   0.0000   0.0000   0.0000   0.4765
   0.100   0.2788   0.00570   0.00171  -0.0607  0.8241  0.8294  -0.4904   0.0000   0.0000   0.0000   0.4669
   0.200   0.2890   0.00570   0.00172  -0.0605  0.8171  0.8352  -0.5014   0.0000   0.0000   0.0000   0.4582
   0.300   0.2995   0.00572   0.00172  -0.0602  0.8088  0.8404  -0.5126   0.0000   0.0000   0.0000   0.4500
   0.400   0.3101   0.00574   0.00170  -0.0600  0.8002  0.8448  -0.5239   0.0000   0.0000   0.0000   0.4424
   0.600   0.3307   0.00578   0.00169  -0.0595  0.7843  0.8561  -0.5463   0.0000   0.0000   0.0000   0.4286
   0.700   0.3406   0.00577   0.00170  -0.0591  0.7782  0.8624  -0.5589   0.0000   0.0000   0.0000   0.4222
   0.800   0.3505   0.00577   0.00173  -0.0587  0.7710  0.8690  -0.5718   0.0000   0.0000   0.0000   0.4162
   0.900   0.3604   0.00579   0.00172  -0.0584  0.7624  0.8754  -0.5847   0.0000   0.0000   0.0000   0.4106
   1.000   0.3704   0.00583   0.00172  -0.0580  0.7527  0.8814  -0.5977   0.0000   0.0000   0.0000   0.4052
   1.200   0.3898   0.00587   0.00172  -0.0573  0.7354  0.8939  -0.6236   0.0000   0.0000   0.0000   0.3952
   1.300   0.3992   0.00587   0.00172  -0.0568  0.7275  0.9011  -0.6386   0.0000   0.0000   0.0000   0.3905
   1.400   0.4087   0.00589   0.00173  -0.0563  0.7190  0.9087  -0.6538   0.0000   0.0000   0.0000   0.3860
   1.500   0.4181   0.00593   0.00173  -0.0559  0.7095  0.9163  -0.6690   0.0000   0.0000   0.0000   0.3818
   1.600   0.4270   0.00598   0.00173  -0.0553  0.6985  0.9241  -0.6838   0.0000   0.0000   0.0000   0.3775
   1.700   0.4365   0.00598   0.00174  -0.0548  0.6906  0.9329  -0.7007   0.0000   0.0000   0.0000   0.3736
   1.800   0.4463   0.00599   0.00174  -0.0544  0.6819  0.9422  -0.7195   0.0000   0.0000   0.0000   0.3699
   1.900   0.4570   0.00602   0.00174  -0.0542  0.6714  0.9505  -0.7390   0.0000   0.0000   0.0000   0.3666
   2.000   0.4691   0.00607   0.00174  -0.0544  0.6601  0.9584  -0.7600   0.0000   0.0000   0.0000   0.3638
   2.100   0.4814   0.00614   0.00175  -0.0546  0.6477  0.9665  -0.7813   0.0000   0.0000   0.0000   0.3613
   2.200   0.4956   0.00615   0.00176  -0.0553  0.6398  0.9730  -0.8045   0.0000   0.0000   0.0000   0.3593
   2.300   0.5104   0.00619   0.00177  -0.0561  0.6284  0.9792  -0.8285   0.0000   0.0000   0.0000   0.3577
   2.500   0.5393   0.00636   0.00179  -0.0577  0.6001  0.9935  -0.8834   0.0000   0.0000   0.0000   0.3545
   2.600   0.5536   0.00639   0.00182  -0.0585  0.5920  1.0000  -0.9130   0.0000   0.0000   0.0000   0.3531
   2.700   0.5635   0.00644   0.00184  -0.0583  0.5829  1.0000  -0.9375   0.0000   0.0000   0.0000   0.3509
   2.800   0.5733   0.00652   0.00187  -0.0581  0.5709  1.0000  -0.9682   0.0000   0.0000   0.0000   0.3487
   2.900   0.5825   0.00664   0.00190  -0.0578  0.5566  1.0000  -0.9985   0.0000   0.0000   0.0000   0.3465
   3.000   0.5924   0.00672   0.00194  -0.0576  0.5443  1.0000  -1.0300   0.0000   0.0000   0.0000   0.3444
   3.100   0.6029   0.00678   0.00197  -0.0575  0.5344  1.0000  -1.0627   0.0000   0.0000   0.0000   0.3425
   3.200   0.6130   0.00686   0.00201  -0.0573  0.5222  1.0000  -1.0951   0.0000   0.0000   0.0000   0.3406
   3.300   0.6225   0.00699   0.00206  -0.0571  0.5077  1.0000  -1.1267   0.0000   0.0000   0.0000   0.3387
   3.400   0.6324   0.00709   0.00211  -0.0569  0.4942  1.0000  -1.1592   0.0000   0.0000   0.0000   0.3368
   3.500   0.6429   0.00716   0.00215  -0.0568  0.4837  1.0000  -1.1929   0.0000   0.0000   0.0000   0.3352
   3.600   0.6529   0.00726   0.00220  -0.0566  0.4706  1.0000  -1.2261   0.0000   0.0000   0.0000   0.3335
   3.700   0.6625   0.00740   0.00226  -0.0564  0.4563  1.0000  -1.2588   0.0000   0.0000   0.0000   0.3318
   3.800   0.6725   0.00750   0.00232  -0.0562  0.4439  1.0000  -1.2925   0.0000   0.0000   0.0000   0.3302
   3.900   0.6830   0.00758   0.00238  -0.0561  0.4336  1.0000  -1.3374   0.0000   0.0000   0.0000   0.3287
   4.000   0.6929   0.00770   0.00243  -0.0559  0.4193  1.0000  -1.3829   0.0000   0.0000   0.0000   0.3272
   4.100   0.7023   0.00787   0.00266  -0.0556  0.4011  1.0000  -1.4511   0.0000   0.0000   0.0000   0.3256
   4.200   0.7126   0.00796   0.00274  -0.0555  0.3889  1.0000  -1.5180   0.0000   0.0000   0.0000   0.3242
   4.300   0.7224   0.00810   0.00281  -0.0553  0.3727  1.0000  -1.5856   0.0000   0.0000   0.0000   0.3228
   4.500   0.7412   0.00845   0.00298  -0.0548  0.3330  1.0000  -1.7220   0.0000   0.0000   0.0000   0.3200
   4.600   0.7498   0.00871   0.00308  -0.0545  0.3061  1.0000  -1.7890   0.0000   0.0000   0.0000   0.3186
   4.700   0.7595   0.00887   0.00318  -0.0543  0.2873  1.0000  -1.8607   0.0000   0.0000   0.0000   0.3174
   4.800   0.7681   0.00915   0.00329  -0.0540  0.2596  1.0000  -1.9294   0.0000   0.0000   0.0000   0.3161
   4.900   0.7775   0.00935   0.00340  -0.0538  0.2390  1.0000  -2.0020   0.0000   0.0000   0.0000   0.3148
   5.000   0.7862   0.00963   0.00352  -0.0535  0.2126  1.0000  -2.0728   0.0000   0.0000   0.0000   0.3136
   5.100   0.7950   0.00991   0.00366  -0.0532  0.1893  1.0000  -2.1451   0.0000   0.0000   0.0000   0.3124
   5.200   0.8042   0.01014   0.00379  -0.0530  0.1683  1.0000  -2.2196   0.0000   0.0000   0.0000   0.3113
   5.300   0.8130   0.01043   0.00394  -0.0527  0.1479  1.0000  -2.2932   0.0000   0.0000   0.0000   0.3102
   5.400   0.8228   0.01060   0.00406  -0.0525  0.1355  1.0000  -2.3718   0.0000   0.0000   0.0000   0.3091
   5.500   0.8326   0.01077   0.00418  -0.0524  0.1256  1.0000  -2.4720   0.0000   0.0000   0.0000   0.3081
   5.600   0.8419   0.01100   0.00433  -0.0522  0.1138  1.0000  -2.5928   0.0000   0.0000   0.0000   0.3070
   5.700   0.8519   0.01114   0.00445  -0.0520  0.1060  1.0000  -2.7198   0.0000   0.0000   0.0000   0.3061
   5.800   0.8618   0.01130   0.00458  -0.0519  0.0987  1.0000  -2.8482   0.0000   0.0000   0.0000   0.3051
   5.900   0.8712   0.01150   0.00472  -0.0517  0.0897  1.0000  -2.9757   0.0000   0.0000   0.0000   0.3041
   6.000   0.8808   0.01170   0.00487  -0.0515  0.0807  1.0000  -3.1056   0.0000   0.0000   0.0000   0.3032
   6.100   0.8908   0.01183   0.00500  -0.0514  0.0761  1.0000  -3.2403   0.0000   0.0000   0.0000   0.3023
   6.200   0.9006   0.01201   0.00514  -0.0512  0.0702  1.0000  -3.3750   0.0000   0.0000   0.0000   0.3014
   6.300   0.9100   0.01221   0.00530  -0.0510  0.0635  1.0000  -3.5089   0.0000   0.0000   0.0000   0.3004
   6.400   0.9197   0.01240   0.00545  -0.0508  0.0566  1.0000  -3.6457   0.0000   0.0000   0.0000   0.2996
   6.500   0.9296   0.01253   0.00560  -0.0507  0.0537  1.0000  -3.7864   0.0000   0.0000   0.0000   0.2987
   6.600   0.9393   0.01271   0.00576  -0.0505  0.0490  1.0000  -3.9262   0.0000   0.0000   0.0000   0.2979
   6.700   0.9483   0.01296   0.00594  -0.0503  0.0421  1.0000  -4.0628   0.0000   0.0000   0.0000   0.2970
   6.800   0.9578   0.01316   0.00611  -0.0501  0.0362  1.0000  -4.2020   0.0000   0.0000   0.0000   0.2961
   6.900   0.9674   0.01334   0.00628  -0.0499  0.0327  1.0000  -4.3432   0.0000   0.0000   0.0000   0.2953
   7.000   0.9765   0.01359   0.00649  -0.0496  0.0272  1.0000  -4.4788   0.0000   0.0000   0.0000   0.2945
   7.100   0.9852   0.01388   0.00672  -0.0493  0.0203  1.0000  -4.6085   0.0000   0.0000   0.0000   0.2936
   7.200   0.9942   0.01414   0.00696  -0.0490  0.0158  1.0000  -4.7364   0.0000   0.0000   0.0000   0.2927
   7.300   1.0026   0.01448   0.00725  -0.0486  0.0110  1.0000  -4.8462   0.0000   0.0000   0.0000   0.2918
   7.400   1.0117   0.01476   0.00756  -0.0483  0.0089  1.0000  -4.9370   0.0000   0.0000   0.0000   0.2909
   7.500   1.0200   0.01516   0.00819  -0.0477  0.0076  1.0000  -4.9628   0.0000   0.0000   0.0000   0.2898
   7.600   1.0287   0.01548   0.00858  -0.0473  0.0073  1.0000  -5.0479   0.0000   0.0000   0.0000   0.2889
   7.700   1.0373   0.01580   0.00897  -0.0468  0.0071  1.0000  -5.1420   0.0000   0.0000   0.0000   0.2880
   7.800   1.0457   0.01614   0.00939  -0.0464  0.0070  1.0000  -5.2364   0.0000   0.0000   0.0000   0.2871
   7.900   1.0538   0.01652   0.00984  -0.0459  0.0069  1.0000  -5.3290   0.0000   0.0000   0.0000   0.2861
   8.000   1.0616   0.01693   0.01033  -0.0453  0.0068  1.0000  -5.4193   0.0000   0.0000   0.0000   0.2852
   8.100   1.0692   0.01737   0.01084  -0.0447  0.0068  1.0000  -5.5069   0.0000   0.0000   0.0000   0.2842
   8.200   1.0764   0.01785   0.01140  -0.0441  0.0067  1.0000  -5.5913   0.0000   0.0000   0.0000   0.2832
   8.300   1.0833   0.01835   0.01198  -0.0434  0.0067  1.0000  -5.6727   0.0000   0.0000   0.0000   0.2822
   8.400   1.0900   0.01890   0.01261  -0.0427  0.0067  1.0000  -5.7508   0.0000   0.0000   0.0000   0.2812
   8.500   1.0965   0.01948   0.01328  -0.0419  0.0067  1.0000  -5.8256   0.0000   0.0000   0.0000   0.2801
   8.600   1.1026   0.02010   0.01398  -0.0411  0.0067  1.0000  -5.8971   0.0000   0.0000   0.0000   0.2791
   8.700   1.1087   0.02076   0.01473  -0.0403  0.0067  1.0000  -5.9653   0.0000   0.0000   0.0000   0.2780
   8.800   1.1145   0.02147   0.01553  -0.0395  0.0067  1.0000  -6.0300   0.0000   0.0000   0.0000   0.2770
   8.900   1.1202   0.02223   0.01639  -0.0387  0.0068  1.0000  -6.0912   0.0000   0.0000   0.0000   0.2760
   9.000   1.1257   0.02304   0.01729  -0.0378  0.0068  1.0000  -6.1569   0.0000   0.0000   0.0000   0.2749
   9.100   1.1311   0.02391   0.01826  -0.0370  0.0068  1.0000  -6.2332   0.0000   0.0000   0.0000   0.2739
   9.200   1.1363   0.02483   0.01930  -0.0361  0.0069  1.0000  -6.3051   0.0000   0.0000   0.0000   0.2729
   9.300   1.1413   0.02582   0.02040  -0.0353  0.0069  1.0000  -6.3722   0.0000   0.0000   0.0000   0.2719
   9.400   1.1459   0.02687   0.02157  -0.0344  0.0070  1.0000  -6.4341   0.0000   0.0000   0.0000   0.2709
   9.500   1.1502   0.02799   0.02281  -0.0335  0.0071  1.0000  -6.4904   0.0000   0.0000   0.0000   0.2699
   9.600   1.1539   0.02916   0.02411  -0.0325  0.0071  1.0000  -6.5407   0.0000   0.0000   0.0000   0.2688
   9.700   1.1571   0.03038   0.02546  -0.0316  0.0072  1.0000  -6.5847   0.0000   0.0000   0.0000   0.2678
   9.800   1.1597   0.03165   0.02687  -0.0305  0.0073  1.0000  -6.6227   0.0000   0.0000   0.0000   0.2667
   9.900   1.1615   0.03297   0.02831  -0.0295  0.0073  1.0000  -6.6544   0.0000   0.0000   0.0000   0.2657
  10.000   1.1626   0.03431   0.02979  -0.0283  0.0074  1.0000  -6.6798   0.0000   0.0000   0.0000   0.2646
  10.100   1.1628   0.03569   0.03130  -0.0272  0.0075  1.0000  -6.6988   0.0000   0.0000   0.0000   0.2635
  10.200   1.1621   0.03708   0.03282  -0.0259  0.0075  1.0000  -6.7116   0.0000   0.0000   0.0000   0.2623
  10.300   1.1603   0.03846   0.03433  -0.0246  0.0076  1.0000  -6.7184   0.0000   0.0000   0.0000   0.2611
  10.400   1.1571   0.03976   0.03574  -0.0231  0.0077  1.0000  -6.7192   0.0000   0.0000   0.0000   0.2597
  10.500   1.1528   0.04102   0.03712  -0.0215  0.0077  1.0000  -6.7157   0.0000   0.0000   0.0000   0.2583
  10.600   1.1479   0.04229   0.03849  -0.0199  0.0078  1.0000  -6.7085   0.0000   0.0000   0.0000   0.2569
  10.700   1.1424   0.04358   0.03987  -0.0185  0.0078  1.0000  -6.6981   0.0000   0.0000   0.0000   0.2556
  10.800   1.1364   0.04488   0.04128  -0.0171  0.0078  1.0000  -6.6849   0.0000   0.0000   0.0000   0.2544
  10.900   1.1301   0.04624   0.04273  -0.0159  0.0079  1.0000  -6.6691   0.0000   0.0000   0.0000   0.2533
  11.000   1.1234   0.04766   0.04424  -0.0149  0.0079  1.0000  -6.6509   0.0000   0.0000   0.0000   0.2524
  11.100   1.1165   0.04913   0.04580  -0.0141  0.0079  1.0000  -6.6303   0.0000   0.0000   0.0000   0.2516
  11.200   1.1093   0.05064   0.04740  -0.0135  0.0080  1.0000  -6.6077   0.0000   0.0000   0.0000   0.2510
  11.300   1.1018   0.05225   0.04908  -0.0131  0.0080  1.0000  -6.5829   0.0000   0.0000   0.0000   0.2506
  11.400   1.0944   0.05396   0.05088  -0.0130  0.0080  1.0000  -6.5560   0.0000   0.0000   0.0000   0.2504
  11.500   1.0869   0.05578   0.05278  -0.0131  0.0080  1.0000  -6.5268   0.0000   0.0000   0.0000   0.2504
  11.600   1.0793   0.05771   0.05478  -0.0134  0.0081  1.0000  -6.4955   0.0000   0.0000   0.0000   0.2506
  11.700   1.0717   0.05975   0.05690  -0.0140  0.0081  1.0000  -6.4618   0.0000   0.0000   0.0000   0.2511
  11.800   1.0640   0.06190   0.05912  -0.0148  0.0081  1.0000  -6.4259   0.0000   0.0000   0.0000   0.2518
  11.900   1.0563   0.06417   0.06146  -0.0159  0.0081  1.0000  -6.3875   0.0000   0.0000   0.0000   0.2528
  12.000   1.0486   0.06652   0.06388  -0.0171  0.0081  1.0000  -6.3466   0.0000   0.0000   0.0000   0.2539
  12.100   1.0407   0.06897   0.06639  -0.0185  0.0081  1.0000  -6.3033   0.0000   0.0000   0.0000   0.2552
  12.200   1.0329   0.07158   0.06906  -0.0202  0.0081  1.0000  -6.2567   0.0000   0.0000   0.0000   0.2568
  12.300   1.0253   0.07435   0.07189  -0.0220  0.0081  1.0000  -6.2066   0.0000   0.0000   0.0000   0.2586
  12.400   1.0177   0.07732   0.07492  -0.0241  0.0081  1.0000  -6.1521   0.0000   0.0000   0.0000   0.2607
  12.500   1.0102   0.08045   0.07810  -0.0263  0.0081  1.0000  -6.0931   0.0000   0.0000   0.0000   0.2629
  12.600   1.0027   0.08374   0.08145  -0.0287  0.0081  1.0000  -6.0291   0.0000   0.0000   0.0000   0.2653
  12.700   0.9952   0.08723   0.08500  -0.0313  0.0081  1.0000  -5.9585   0.0000   0.0000   0.0000   0.2680
  12.800   0.9878   0.09086   0.08867  -0.0339  0.0081  1.0000  -5.8814   0.0000   0.0000   0.0000   0.2708
  12.900   0.9803   0.09467   0.09253  -0.0366  0.0081  1.0000  -5.7959   0.0000   0.0000   0.0000   0.2737
  13.000   0.9726   0.09872   0.09662  -0.0395  0.0081  1.0000  -5.6991   0.0000   0.0000   0.0000   0.2769
  13.100   0.9648   0.10291   0.10086  -0.0423  0.0081  1.0000  -5.5908   0.0000   0.0000   0.0000   0.2801
  13.200   0.9568   0.10731   0.10529  -0.0452  0.0081  1.0000  -5.4676   0.0000   0.0000   0.0000   0.2835
  13.300   0.9482   0.11203   0.11004  -0.0481  0.0081  1.0000  -5.3217   0.0000   0.0000   0.0000   0.2870
  13.400   0.9391   0.11703   0.11507  -0.0511  0.0081  1.0000  -5.1490   0.0000   0.0000   0.0000   0.2907
  13.500   0.9294   0.12230   0.12036  -0.0540  0.0081  1.0000  -4.9454   0.0000   0.0000   0.0000   0.2944
  13.600   0.9194   0.12773   0.12579  -0.0567  0.0081  1.0000  -4.7131   0.0000   0.0000   0.0000   0.2981
  13.700   0.9097   0.13300   0.13105  -0.0592  0.0082  1.0000  -4.4699   0.0000   0.0000   0.0000   0.3016
  13.800   0.9016   0.13775   0.13579  -0.0615  0.0083  1.0000  -4.2516   0.0000   0.0000   0.0000   0.3048
  13.900   0.8950   0.14196   0.13999  -0.0635  0.0084  1.0000  -4.0698   0.0000   0.0000   0.0000   0.3076
  14.000   0.8895   0.14576   0.14378  -0.0654  0.0084  1.0000  -3.9093   0.0000   0.0000   0.0000   0.3102
  14.100   0.8847   0.14915   0.14716  -0.0672  0.0085  1.0000  -3.7620   0.0000   0.0000   0.0000   0.3126
  14.200   0.8802   0.15245   0.15044  -0.0689  0.0087  1.0000  -3.6183   0.0000   0.0000   0.0000   0.3149
  14.300   0.8755   0.15591   0.15389  -0.0707  0.0088  1.0000  -3.4616   0.0000   0.0000   0.0000   0.3173
  15.000   0.8693   0.17909   0.17704  -0.0801  0.0161  1.0000  -2.5147   0.0000   0.0000   0.0000   0.3287
  15.100   0.8703   0.18125   0.17920  -0.0811  0.0161  1.0000  -2.4918   0.0000   0.0000   0.0000   0.3297
  15.200   0.8713   0.18338   0.18133  -0.0821  0.0160  1.0000  -2.4717   0.0000   0.0000   0.0000   0.3307
  15.300   0.8725   0.18549   0.18344  -0.0831  0.0159  1.0000  -2.4540   0.0000   0.0000   0.0000   0.3316
  15.400   0.8737   0.18759   0.18553  -0.0841  0.0158  1.0000  -2.4385   0.0000   0.0000   0.0000   0.3325
  15.500   0.8750   0.18966   0.18761  -0.0851  0.0156  1.0000  -2.4249   0.0000   0.0000   0.0000   0.3334
  15.600   0.8764   0.19173   0.18967  -0.0861  0.0154  1.0000  -2.4131   0.0000   0.0000   0.0000   0.3343
  15.700   0.8779   0.19378   0.19172  -0.0871  0.0152  1.0000  -2.4029   0.0000   0.0000   0.0000   0.3351
  15.800   0.8794   0.19582   0.19376  -0.0880  0.0150  1.0000  -2.3942   0.0000   0.0000   0.0000   0.3359
  15.900   0.8810   0.19785   0.19579  -0.0889  0.0148  1.0000  -2.3869   0.0000   0.0000   0.0000   0.3367
  16.000   0.8826   0.19987   0.19782  -0.0899  0.0146  1.0000  -2.3809   0.0000   0.0000   0.0000   0.3374
  16.100   0.8843   0.20189   0.19983  -0.0908  0.0144  1.0000  -2.3761   0.0000   0.0000   0.0000   0.3382
  16.200   0.8860   0.20390   0.20184  -0.0917  0.0142  1.0000  -2.3725   0.0000   0.0000   0.0000   0.3389
  16.300   0.8878   0.20590   0.20384  -0.0926  0.0140  1.0000  -2.3700   0.0000   0.0000   0.0000   0.3395
  16.400   0.8895   0.20789   0.20584  -0.0935  0.0138  1.0000  -2.3685   0.0000   0.0000   0.0000   0.3402
  16.500   0.8913   0.20988   0.20783  -0.0943  0.0136  1.0000  -2.3682   0.0000   0.0000   0.0000   0.3408
  16.600   0.8932   0.21187   0.20981  -0.0952  0.0134  1.0000  -2.3690   0.0000   0.0000   0.0000   0.3415
  16.700   0.8950   0.21384   0.21179  -0.0960  0.0132  1.0000  -2.3709   0.0000   0.0000   0.0000   0.3421
  16.800   0.8969   0.21581   0.21376  -0.0969  0.0130  1.0000  -2.3739   0.0000   0.0000   0.0000   0.3427
  16.900   0.8988   0.21777   0.21572  -0.0977  0.0129  1.0000  -2.3779   0.0000   0.0000   0.0000   0.3432
  17.000   0.9007   0.21973   0.21768  -0.0985  0.0127  1.0000  -2.3831   0.0000   0.0000   0.0000   0.3438
  17.100   0.9027   0.22167   0.21963  -0.0993  0.0125  1.0000  -2.3893   0.0000   0.0000   0.0000   0.3443
  17.200   0.9046   0.22361   0.22157  -0.1001  0.0124  1.0000  -2.3966   0.0000   0.0000   0.0000   0.3448
  17.300   0.9066   0.22555   0.22350  -0.1009  0.0122  1.0000  -2.4051   0.0000   0.0000   0.0000   0.3453
  17.400   0.9086   0.22747   0.22543  -0.1017  0.0121  1.0000  -2.4149   0.0000   0.0000   0.0000   0.3458
  17.500   0.9106   0.22939   0.22735  -0.1024  0.0119  1.0000  -2.4259   0.0000   0.0000   0.0000   0.3462
  17.600   0.9126   0.23129   0.22926  -0.1032  0.0118  1.0000  -2.4383   0.0000   0.0000   0.0000   0.3467
  17.700   0.9147   0.23319   0.23116  -0.1039  0.0116  1.0000  -2.4522   0.0000   0.0000   0.0000   0.3471
  17.800   0.9167   0.23508   0.23305  -0.1046  0.0115  1.0000  -2.4675   0.0000   0.0000   0.0000   0.3474
  17.900   0.9188   0.23695   0.23493  -0.1053  0.0113  1.0000  -2.4844   0.0000   0.0000   0.0000   0.3478
  18.000   0.9209   0.23881   0.23679  -0.1060  0.0112  1.0000  -2.5029   0.0000   0.0000   0.0000   0.3481
  18.100   0.9230   0.24065   0.23863  -0.1067  0.0111  1.0000  -2.5250   0.0000   0.0000   0.0000   0.3484
  18.200   0.9252   0.24242   0.24040  -0.1073  0.0109  1.0000  -2.5539   0.0000   0.0000   0.0000   0.3486
  18.300   0.9277   0.24406   0.24205  -0.1078  0.0108  1.0000  -2.5952   0.0000   0.0000   0.0000   0.3487
  18.400   0.9301   0.24565   0.24365  -0.1082  0.0105  1.0000  -2.6454   0.0000   0.0000   0.0000   0.3487
  18.500   0.9317   0.24756   0.24556  -0.1089  0.0103  1.0000  -2.6765   0.0000   0.0000   0.0000   0.3490
  18.600   0.9316   0.25026   0.24827  -0.1096  0.0099  1.0000  -2.6691   0.0000   0.0000   0.0000   0.3496
  19.200   0.9293   0.27044   0.26841  -0.1155  0.0092  1.0000  -2.2108   0.0000   0.0000   0.0000   0.3559
  19.300   0.9305   0.27278   0.27075  -0.1162  0.0092  1.0000  -2.1944   0.0000   0.0000   0.0000   0.3564
  19.400   0.9318   0.27512   0.27309  -0.1170  0.0092  1.0000  -2.1779   0.0000   0.0000   0.0000   0.3569
  19.500   0.9330   0.27746   0.27544  -0.1177  0.0092  1.0000  -2.1611   0.0000   0.0000   0.0000   0.3574
  19.600   0.9341   0.27980   0.27778  -0.1185  0.0092  1.0000  -2.1442   0.0000   0.0000   0.0000   0.3579
  19.700   0.9351   0.28215   0.28013  -0.1192  0.0092  1.0000  -2.1271   0.0000   0.0000   0.0000   0.3585
  19.800   0.9361   0.28449   0.28247  -0.1199  0.0092  1.0000  -2.1100   0.0000   0.0000   0.0000   0.3590
  19.900   0.9370   0.28682   0.28481  -0.1207  0.0092  1.0000  -2.0928   0.0000   0.0000   0.0000   0.3595
  20.000   0.9378   0.28915   0.28714  -0.1214  0.0092  1.0000  -2.0756   0.0000   0.0000   0.0000   0.3600
  20.100   0.9385   0.29147   0.28947  -0.1221  0.0092  1.0000  -2.0583   0.0000   0.0000   0.0000   0.3605
  20.200   0.9392   0.29379   0.29179  -0.1227  0.0092  1.0000  -2.0411   0.0000   0.0000   0.0000   0.3610
  20.300   0.9397   0.29609   0.29409  -0.1234  0.0092  1.0000  -2.0238   0.0000   0.0000   0.0000   0.3615
  20.400   0.9401   0.29838   0.29638  -0.1241  0.0092  1.0000  -2.0065   0.0000   0.0000   0.0000   0.3621
  20.500   0.9404   0.30065   0.29866  -0.1247  0.0092  1.0000  -1.9891   0.0000   0.0000   0.0000   0.3626
  20.600   0.9406   0.30290   0.30091  -0.1253  0.0092  1.0000  -1.9717   0.0000   0.0000   0.0000   0.3631
  20.700   0.9406   0.30512   0.30314  -0.1259  0.0091  1.0000  -1.9542   0.0000   0.0000   0.0000   0.3636
  20.800   0.9404   0.30730   0.30533  -0.1265  0.0091  1.0000  -1.9364   0.0000   0.0000   0.0000   0.3641
  20.900   0.9399   0.30945   0.30748  -0.1271  0.0091  1.0000  -1.9181   0.0000   0.0000   0.0000   0.3647
  21.000   0.9392   0.31154   0.30958  -0.1276  0.0091  1.0000  -1.8995   0.0000   0.0000   0.0000   0.3652
  21.100   0.9382   0.31357   0.31162  -0.1281  0.0091  1.0000  -1.8804   0.0000   0.0000   0.0000   0.3658
  21.200   0.9368   0.31551   0.31356  -0.1285  0.0091  1.0000  -1.8605   0.0000   0.0000   0.0000   0.3664
  21.300   0.9348   0.31733   0.31539  -0.1289  0.0091  1.0000  -1.8396   0.0000   0.0000   0.0000   0.3670
  21.400   0.9322   0.31897   0.31704  -0.1292  0.0091  1.0000  -1.8171   0.0000   0.0000   0.0000   0.3676
  21.500   0.8830   0.30894   0.30711  -0.1245  0.0091  1.0000  -1.6754   0.0000   0.0000   0.0000   0.3707
  21.600   0.8763   0.30851   0.30669  -0.1242  0.0091  1.0000  -1.6438   0.0000   0.0000   0.0000   0.3715
  21.700   0.8711   0.30840   0.30660  -0.1242  0.0091  1.0000  -1.6166   0.0000   0.0000   0.0000   0.3722
  21.800   0.8669   0.30847   0.30668  -0.1242  0.0091  1.0000  -1.5919   0.0000   0.0000   0.0000   0.3729
  21.900   0.8632   0.30865   0.30687  -0.1243  0.0091  1.0000  -1.5690   0.0000   0.0000   0.0000   0.3736
  22.000   0.8600   0.30890   0.30713  -0.1244  0.0091  1.0000  -1.5476   0.0000   0.0000   0.0000   0.3742
  22.100   0.8571   0.30920   0.30744  -0.1245  0.0091  1.0000  -1.5273   0.0000   0.0000   0.0000   0.3748
  22.200   0.8545   0.30954   0.30779  -0.1247  0.0091  1.0000  -1.5079   0.0000   0.0000   0.0000   0.3754
  22.300   0.8521   0.30992   0.30818  -0.1249  0.0091  1.0000  -1.4895   0.0000   0.0000   0.0000   0.3759
  22.400   0.8499   0.31034   0.30860  -0.1251  0.0091  1.0000  -1.4718   0.0000   0.0000   0.0000   0.3765
  22.500   0.8479   0.31077   0.30905  -0.1254  0.0091  1.0000  -1.4546   0.0000   0.0000   0.0000   0.3770
  22.600   0.8461   0.31123   0.30952  -0.1256  0.0091  1.0000  -1.4379   0.0000   0.0000   0.0000   0.3776
  22.700   0.8443   0.31171   0.31000  -0.1259  0.0090  1.0000  -1.4218   0.0000   0.0000   0.0000   0.3781
  22.800   0.8427   0.31220   0.31050  -0.1262  0.0090  1.0000  -1.4062   0.0000   0.0000   0.0000   0.3786
  22.900   0.8413   0.31271   0.31102  -0.1265  0.0090  1.0000  -1.3912   0.0000   0.0000   0.0000   0.3791
  23.000   0.8399   0.31323   0.31155  -0.1268  0.0090  1.0000  -1.3766   0.0000   0.0000   0.0000   0.3796
  23.100   0.8386   0.31377   0.31209  -0.1271  0.0090  1.0000  -1.3625   0.0000   0.0000   0.0000   0.3801
  23.200   0.8374   0.31431   0.31264  -0.1274  0.0090  1.0000  -1.3488   0.0000   0.0000   0.0000   0.3806
  23.300   0.8363   0.31486   0.31319  -0.1277  0.0090  1.0000  -1.3355   0.0000   0.0000   0.0000   0.3811
  23.400   0.8352   0.31542   0.31376  -0.1280  0.0090  1.0000  -1.3225   0.0000   0.0000   0.0000   0.3816
  23.500   0.8342   0.31599   0.31434  -0.1283  0.0090  1.0000  -1.3100   0.0000   0.0000   0.0000   0.3820
  23.600   0.8333   0.31656   0.31492  -0.1287  0.0090  1.0000  -1.2977   0.0000   0.0000   0.0000   0.3825
  23.700   0.8325   0.31713   0.31553  -0.1290  0.0090  1.0000  -1.2897   0.0000   0.0000   0.0000   0.3829
  23.800   0.8316   0.31772   0.31612  -0.1294  0.0090  1.0000  -1.2787   0.0000   0.0000   0.0000   0.3834
  23.900   0.8309   0.31831   0.31672  -0.1297  0.0090  1.0000  -1.2677   0.0000   0.0000   0.0000   0.3838
  24.000   0.8302   0.31890   0.31732  -0.1301  0.0090  1.0000  -1.2569   0.0000   0.0000   0.0000   0.3843
  24.100   0.8295   0.31951   0.31793  -0.1304  0.0090  1.0000  -1.2463   0.0000   0.0000   0.0000   0.3847
  24.200   0.8289   0.32011   0.31854  -0.1308  0.0089  1.0000  -1.2359   0.0000   0.0000   0.0000   0.3851
  24.300   0.8283   0.32072   0.31916  -0.1311  0.0089  1.0000  -1.2252   0.0000   0.0000   0.0000   0.3856
  24.400   0.8277   0.32134   0.31979  -0.1315  0.0089  1.0000  -1.2144   0.0000   0.0000   0.0000   0.3860
  24.500   0.8272   0.32196   0.32041  -0.1319  0.0089  1.0000  -1.2039   0.0000   0.0000   0.0000   0.3864
  24.600   0.8267   0.32259   0.32104  -0.1323  0.0089  1.0000  -1.1936   0.0000   0.0000   0.0000   0.3869
  24.700   0.8262   0.32322   0.32168  -0.1327  0.0089  1.0000  -1.1835   0.0000   0.0000   0.0000   0.3873
  24.800   0.8258   0.32385   0.32232  -0.1331  0.0089  1.0000  -1.1736   0.0000   0.0000   0.0000   0.3877
  24.900   0.8254   0.32449   0.32296  -0.1335  0.0089  1.0000  -1.1640   0.0000   0.0000   0.0000   0.3881
  25.000   0.8250   0.32512   0.32360  -0.1338  0.0089  1.0000  -1.1545   0.0000   0.0000   0.0000   0.3885
  25.100   0.8246   0.32576   0.32425  -0.1342  0.0089  1.0000  -1.1452   0.0000   0.0000   0.0000   0.3889
  25.200   0.8243   0.32641   0.32490  -0.1346  0.0088  1.0000  -1.1362   0.0000   0.0000   0.0000   0.3893
  25.300   0.8240   0.32706   0.32555  -0.1350  0.0088  1.0000  -1.1273   0.0000   0.0000   0.0000   0.3897
  25.400   0.8238   0.32771   0.32620  -0.1354  0.0088  1.0000  -1.1186   0.0000   0.0000   0.0000   0.3901
  25.500   0.8235   0.32836   0.32686  -0.1359  0.0088  1.0000  -1.1101   0.0000   0.0000   0.0000   0.3905
  25.600   0.8233   0.32901   0.32752  -0.1363  0.0088  1.0000  -1.1017   0.0000   0.0000   0.0000   0.3909
  25.700   0.8231   0.32967   0.32818  -0.1367  0.0088  1.0000  -1.0935   0.0000   0.0000   0.0000   0.3913
  25.800   0.8229   0.33033   0.32885  -0.1371  0.0088  1.0000  -1.0855   0.0000   0.0000   0.0000   0.3917
  25.900   0.8228   0.33099   0.32952  -0.1375  0.0087  1.0000  -1.0776   0.0000   0.0000   0.0000   0.3921
  26.000   0.8227   0.33166   0.33019  -0.1379  0.0087  1.0000  -1.0699   0.0000   0.0000   0.0000   0.3924
  26.100   0.8226   0.33232   0.33086  -0.1383  0.0087  1.0000  -1.0623   0.0000   0.0000   0.0000   0.3928
  26.200   0.8225   0.33299   0.33153  -0.1387  0.0087  1.0000  -1.0548   0.0000   0.0000   0.0000   0.3932
  26.300   0.8224   0.33366   0.33221  -0.1392  0.0087  1.0000  -1.0475   0.0000   0.0000   0.0000   0.3935
  26.400   0.8223   0.33434   0.33289  -0.1396  0.0086  1.0000  -1.0403   0.0000   0.0000   0.0000   0.3939
  26.500   0.8223   0.33501   0.33357  -0.1400  0.0086  1.0000  -1.0333   0.0000   0.0000   0.0000   0.3943
  26.600   0.8223   0.33569   0.33426  -0.1405  0.0086  1.0000  -1.0263   0.0000   0.0000   0.0000   0.3946
  26.700   0.8223   0.33638   0.33494  -0.1409  0.0086  1.0000  -1.0195   0.0000   0.0000   0.0000   0.3950
  26.800   0.8223   0.33706   0.33564  -0.1413  0.0085  1.0000  -1.0127   0.0000   0.0000   0.0000   0.3953
  26.900   0.8224   0.33775   0.33633  -0.1417  0.0085  1.0000  -1.0061   0.0000   0.0000   0.0000   0.3957
  27.000   0.8225   0.33844   0.33703  -0.1422  0.0085  1.0000  -0.9995   0.0000   0.0000   0.0000   0.3960
  27.100   0.8226   0.33914   0.33773  -0.1426  0.0084  1.0000  -0.9930   0.0000   0.0000   0.0000   0.3963


