xflr5 v6.61

 Calculated polar for: RG-15 8.9%

 1 1 Reynolds number fixed          Mach number fixed         

 xtrf =   1.000 (top)        1.000 (bottom)
 Mach =   0.000     Re =     0.200 e 6     Ncrit =   9.000

  alpha     CL        CD       CDp       Cm    Top Xtr Bot Xtr   Cpmin    Chinge    XCp    
 ------- -------- --------- --------- -------- ------- ------- -------- --------- ---------
 -10.000  -0.4794   0.10495   0.10123  -0.0228  1.0000  0.0288  -1.9492   0.0000   0.0000   0.0000   0.1963
  -9.900  -0.4778   0.10356   0.09985  -0.0229  1.0000  0.0291  -1.9345   0.0000   0.0000   0.0000   0.1959
  -9.800  -0.4764   0.10219   0.09848  -0.0231  1.0000  0.0293  -1.9221   0.0000   0.0000   0.0000   0.1954
  -9.700  -0.4751   0.10082   0.09712  -0.0234  1.0000  0.0295  -1.9123   0.0000   0.0000   0.0000   0.1947
  -9.600  -0.4740   0.09943   0.09574  -0.0238  1.0000  0.0297  -1.9060   0.0000   0.0000   0.0000   0.1940
  -9.400  -0.4735   0.09632   0.09253  -0.0249  1.0000  0.0299  -1.9273   0.0000   0.0000   0.0000   0.1917
  -9.300  -0.4728   0.09493   0.09115  -0.0253  1.0000  0.0300  -1.9240   0.0000   0.0000   0.0000   0.1909
  -9.200  -0.4723   0.09353   0.08976  -0.0257  1.0000  0.0302  -1.9231   0.0000   0.0000   0.0000   0.1900
  -9.100  -0.4719   0.09211   0.08835  -0.0262  1.0000  0.0304  -1.9244   0.0000   0.0000   0.0000   0.1891
  -9.000  -0.4717   0.09065   0.08691  -0.0267  1.0000  0.0305  -1.9281   0.0000   0.0000   0.0000   0.1881
  -8.900  -0.4717   0.08917   0.08544  -0.0272  1.0000  0.0307  -1.9342   0.0000   0.0000   0.0000   0.1870
  -8.800  -0.4719   0.08766   0.08395  -0.0278  1.0000  0.0308  -1.9429   0.0000   0.0000   0.0000   0.1859
  -8.700  -0.4724   0.08613   0.08244  -0.0284  1.0000  0.0309  -1.9558   0.0000   0.0000   0.0000   0.1847
  -8.600  -0.4732   0.08457   0.08089  -0.0291  1.0000  0.0310  -1.9717   0.0000   0.0000   0.0000   0.1835
  -8.500  -0.4743   0.08298   0.07932  -0.0298  1.0000  0.0311  -1.9905   0.0000   0.0000   0.0000   0.1823
  -8.400  -0.4759   0.08135   0.07772  -0.0305  1.0000  0.0311  -2.0125   0.0000   0.0000   0.0000   0.1810
  -8.300  -0.4780   0.07969   0.07607  -0.0313  1.0000  0.0311  -2.0381   0.0000   0.0000   0.0000   0.1797
  -8.200  -0.4807   0.07798   0.07439  -0.0322  1.0000  0.0311  -2.0676   0.0000   0.0000   0.0000   0.1784
  -8.100  -0.4842   0.07625   0.07269  -0.0331  1.0000  0.0311  -2.1014   0.0000   0.0000   0.0000   0.1771
  -8.000  -0.4889   0.07447   0.07094  -0.0341  1.0000  0.0310  -2.1403   0.0000   0.0000   0.0000   0.1759
  -7.900  -0.4947   0.07258   0.06908  -0.0354  1.0000  0.0309  -2.1860   0.0000   0.0000   0.0000   0.1741
  -7.800  -0.4989   0.07023   0.06673  -0.0377  1.0000  0.0309  -2.2390   0.0000   0.0000   0.0000   0.1702
  -7.700  -0.5021   0.06810   0.06458  -0.0391  1.0000  0.0308  -2.2862   0.0000   0.0000   0.0000   0.1680
  -7.600  -0.5051   0.06599   0.06245  -0.0403  1.0000  0.0307  -2.3340   0.0000   0.0000   0.0000   0.1663
  -7.200  -0.5014   0.05888   0.05515  -0.0417  1.0000  0.0246  -2.5198   0.0000   0.0000   0.0000   0.1629
  -7.100  -0.5055   0.05676   0.05299  -0.0418  1.0000  0.0238  -2.5638   0.0000   0.0000   0.0000   0.1634
  -7.000  -0.5080   0.05477   0.05096  -0.0419  1.0000  0.0232  -2.6025   0.0000   0.0000   0.0000   0.1638
  -6.900  -0.5097   0.05283   0.04896  -0.0419  1.0000  0.0226  -2.6398   0.0000   0.0000   0.0000   0.1642
  -6.800  -0.5107   0.05089   0.04695  -0.0418  1.0000  0.0221  -2.6780   0.0000   0.0000   0.0000   0.1646
  -6.700  -0.5110   0.04894   0.04492  -0.0416  1.0000  0.0215  -2.7183   0.0000   0.0000   0.0000   0.1650
  -6.600  -0.5109   0.04698   0.04287  -0.0414  1.0000  0.0209  -2.7611   0.0000   0.0000   0.0000   0.1654
  -6.500  -0.5101   0.04498   0.04076  -0.0411  1.0000  0.0203  -2.8076   0.0000   0.0000   0.0000   0.1659
  -6.400  -0.5088   0.04293   0.03859  -0.0407  1.0000  0.0197  -2.8598   0.0000   0.0000   0.0000   0.1663
  -6.300  -0.5071   0.04085   0.03636  -0.0404  1.0000  0.0191  -2.9173   0.0000   0.0000   0.0000   0.1668
  -6.200  -0.5047   0.03870   0.03405  -0.0399  1.0000  0.0185  -2.9819   0.0000   0.0000   0.0000   0.1673
  -6.100  -0.5016   0.03651   0.03166  -0.0394  1.0000  0.0179  -3.0544   0.0000   0.0000   0.0000   0.1678
  -6.000  -0.4979   0.03432   0.02926  -0.0389  1.0000  0.0173  -3.1311   0.0000   0.0000   0.0000   0.1682
  -5.900  -0.4933   0.03220   0.02689  -0.0384  1.0000  0.0168  -3.2073   0.0000   0.0000   0.0000   0.1685
  -5.800  -0.4878   0.03038   0.02485  -0.0378  1.0000  0.0165  -3.2590   0.0000   0.0000   0.0000   0.1687
  -5.700  -0.4815   0.02889   0.02316  -0.0373  1.0000  0.0162  -3.2816   0.0000   0.0000   0.0000   0.1688
  -5.600  -0.4746   0.02756   0.02165  -0.0368  1.0000  0.0161  -3.2904   0.0000   0.0000   0.0000   0.1687
  -5.500  -0.4672   0.02637   0.02030  -0.0364  1.0000  0.0160  -3.2866   0.0000   0.0000   0.0000   0.1685
  -5.400  -0.4596   0.02531   0.01908  -0.0359  1.0000  0.0160  -3.2720   0.0000   0.0000   0.0000   0.1681
  -5.300  -0.4516   0.02435   0.01797  -0.0355  1.0000  0.0160  -3.2485   0.0000   0.0000   0.0000   0.1677
  -5.200  -0.4434   0.02348   0.01696  -0.0351  1.0000  0.0161  -3.2176   0.0000   0.0000   0.0000   0.1672
  -5.100  -0.4349   0.02268   0.01603  -0.0347  1.0000  0.0163  -3.1808   0.0000   0.0000   0.0000   0.1665
  -5.000  -0.4263   0.02195   0.01518  -0.0344  1.0000  0.0164  -3.1389   0.0000   0.0000   0.0000   0.1658
  -4.900  -0.4175   0.02127   0.01441  -0.0340  1.0000  0.0167  -3.0928   0.0000   0.0000   0.0000   0.1650
  -4.800  -0.4087   0.02065   0.01369  -0.0337  1.0000  0.0169  -3.0431   0.0000   0.0000   0.0000   0.1641
  -4.700  -0.3997   0.02008   0.01303  -0.0333  1.0000  0.0173  -2.9913   0.0000   0.0000   0.0000   0.1631
  -4.600  -0.3906   0.01954   0.01242  -0.0330  1.0000  0.0176  -2.9379   0.0000   0.0000   0.0000   0.1620
  -4.500  -0.3814   0.01904   0.01184  -0.0327  1.0000  0.0180  -2.8832   0.0000   0.0000   0.0000   0.1609
  -4.400  -0.3722   0.01858   0.01131  -0.0324  1.0000  0.0185  -2.8278   0.0000   0.0000   0.0000   0.1596
  -4.300  -0.3629   0.01814   0.01082  -0.0321  1.0000  0.0189  -2.7720   0.0000   0.0000   0.0000   0.1582
  -4.200  -0.3535   0.01773   0.01035  -0.0318  1.0000  0.0195  -2.7160   0.0000   0.0000   0.0000   0.1567
  -4.100  -0.3440   0.01734   0.00992  -0.0315  1.0000  0.0200  -2.6603   0.0000   0.0000   0.0000   0.1550
  -4.000  -0.3345   0.01698   0.00951  -0.0312  1.0000  0.0206  -2.6052   0.0000   0.0000   0.0000   0.1532
  -3.900  -0.3251   0.01663   0.00913  -0.0310  1.0000  0.0213  -2.5510   0.0000   0.0000   0.0000   0.1514
  -3.800  -0.3156   0.01631   0.00877  -0.0307  1.0000  0.0219  -2.4977   0.0000   0.0000   0.0000   0.1494
  -3.700  -0.3062   0.01600   0.00843  -0.0305  1.0000  0.0226  -2.4452   0.0000   0.0000   0.0000   0.1472
  -3.600  -0.2968   0.01571   0.00811  -0.0302  1.0000  0.0233  -2.3937   0.0000   0.0000   0.0000   0.1450
  -3.500  -0.2875   0.01544   0.00781  -0.0300  1.0000  0.0241  -2.3428   0.0000   0.0000   0.0000   0.1425
  -3.400  -0.2782   0.01520   0.00754  -0.0297  1.0000  0.0248  -2.2924   0.0000   0.0000   0.0000   0.1400
  -3.300  -0.2689   0.01498   0.00729  -0.0295  1.0000  0.0255  -2.2420   0.0000   0.0000   0.0000   0.1372
  -3.200  -0.2596   0.01479   0.00708  -0.0292  1.0000  0.0261  -2.1909   0.0000   0.0000   0.0000   0.1342
  -3.100  -0.2469   0.01452   0.00679  -0.0297  0.9992  0.0270  -2.1409   0.0000   0.0000   0.0000   0.1266
  -3.000  -0.2309   0.01380   0.00596  -0.0307  0.9980  0.0324  -2.1562   0.0000   0.0000   0.0000   0.1140
  -2.900  -0.2146   0.01317   0.00553  -0.0318  0.9967  0.0629  -2.1873   0.0000   0.0000   0.0000   0.0985
  -2.800  -0.1990   0.01264   0.00535  -0.0331  0.9949  0.1229  -2.1356   0.0000   0.0000   0.0000   0.0802
  -2.700  -0.1834   0.01217   0.00526  -0.0345  0.9930  0.1969  -2.0523   0.0000   0.0000   0.0000   0.0582
  -2.600  -0.1685   0.01148   0.00520  -0.0360  0.9913  0.3252  -1.9660   0.0000   0.0000   0.0000   0.0329
  -2.500  -0.1548   0.01078   0.00523  -0.0370  0.9897  0.4835  -1.8814   0.0000   0.0000   0.0000   0.0074
  -2.400  -0.1420   0.01044   0.00545  -0.0372  0.9880  0.6215  -1.7977   0.0000   0.0000   0.0000  -0.0155
  -2.300  -0.1289   0.01038   0.00553  -0.0373  0.9854  0.6766  -1.7139   0.0000   0.0000   0.0000  -0.0436
  -2.200  -0.1153   0.01037   0.00539  -0.0377  0.9822  0.7030  -1.5966   0.0000   0.0000   0.0000  -0.0810
  -2.100  -0.1014   0.01036   0.00543  -0.0380  0.9792  0.7284  -1.5153   0.0000   0.0000   0.0000  -0.1293
  -2.000  -0.0862   0.01038   0.00546  -0.0387  0.9765  0.7501  -1.4305   0.0000   0.0000   0.0000  -0.2035
  -1.900  -0.0702   0.01040   0.00548  -0.0395  0.9742  0.7686  -1.3441   0.0000   0.0000   0.0000  -0.3182
  -1.800  -0.0555   0.01041   0.00554  -0.0399  0.9718  0.7885  -1.2623   0.0000   0.0000   0.0000  -0.4763
  -1.700  -0.0445   0.01039   0.00549  -0.0397  0.9671  0.8041  -1.1940   0.0000   0.0000   0.0000  -0.6509
  -1.600  -0.0325   0.01034   0.00548  -0.0396  0.9631  0.8178  -1.1231   0.0000   0.0000   0.0000  -0.9782
  -1.500  -0.0191   0.01032   0.00548  -0.0398  0.9598  0.8323  -1.0490   0.0000   0.0000   0.0000  -1.8447
  -1.400  -0.0039   0.01033   0.00546  -0.0404  0.9571  0.8456  -0.9713   0.0000   0.0000   0.0000  -10.0798
  -1.300   0.0106   0.01029   0.00544  -0.0408  0.9549  0.8570  -0.8967   0.0000   0.0000   0.0000   4.1372
  -1.200   0.0257   0.01027   0.00542  -0.0413  0.9530  0.8691  -0.8216   0.0000   0.0000   0.0000   1.8637
  -1.100   0.0340   0.01023   0.00538  -0.0405  0.9479  0.8799  -0.7677   0.0000   0.0000   0.0000   1.4474
  -1.000   0.0448   0.01018   0.00532  -0.0402  0.9431  0.8896  -0.7077   0.0000   0.0000   0.0000   1.1523
  -0.900   0.0573   0.01011   0.00527  -0.0402  0.9394  0.8998  -0.6437   0.0000   0.0000   0.0000   0.9530
  -0.800   0.0717   0.01005   0.00520  -0.0405  0.9363  0.9105  -0.5764   0.0000   0.0000   0.0000   0.8167
  -0.700   0.0873   0.01000   0.00513  -0.0412  0.9338  0.9201  -0.5080   0.0000   0.0000   0.0000   0.7230
  -0.600   0.1048   0.00994   0.00507  -0.0422  0.9321  0.9290  -0.4363   0.0000   0.0000   0.0000   0.6530
  -0.500   0.1232   0.00989   0.00502  -0.0434  0.9306  0.9379  -0.3784   0.0000   0.0000   0.0000   0.6027
  -0.400   0.1414   0.00983   0.00495  -0.0447  0.9291  0.9463  -0.3919   0.0000   0.0000   0.0000   0.5658
  -0.300   0.1629   0.00977   0.00488  -0.0466  0.9278  0.9523  -0.4074   0.0000   0.0000   0.0000   0.5357
  -0.200   0.1782   0.00972   0.00483  -0.0473  0.9231  0.9600  -0.4194   0.0000   0.0000   0.0000   0.5151
  -0.100   0.1946   0.00966   0.00478  -0.0483  0.9188  0.9676  -0.4321   0.0000   0.0000   0.0000   0.4975
   0.000   0.2149   0.00959   0.00471  -0.0501  0.9156  0.9729  -0.4471   0.0000   0.0000   0.0000   0.4822
   0.100   0.2366   0.00952   0.00463  -0.0521  0.9129  0.9772  -0.4629   0.0000   0.0000   0.0000   0.4695
   0.300   0.2785   0.00937   0.00435  -0.0559  0.9072  0.9854  -0.4975   0.0000   0.0000   0.0000   0.4498
   0.400   0.3009   0.00927   0.00424  -0.0581  0.9043  0.9879  -0.5161   0.0000   0.0000   0.0000   0.4421
   0.500   0.3237   0.00915   0.00411  -0.0604  0.9012  0.9899  -0.5350   0.0000   0.0000   0.0000   0.4354
   0.600   0.3461   0.00905   0.00398  -0.0626  0.8980  0.9919  -0.5547   0.0000   0.0000   0.0000   0.4296
   0.700   0.3636   0.00899   0.00397  -0.0640  0.8919  0.9973  -0.5726   0.0000   0.0000   0.0000   0.4248
   0.800   0.3777   0.00893   0.00390  -0.0647  0.8848  1.0000  -0.5882   0.0000   0.0000   0.0000   0.4200
   0.900   0.3886   0.00886   0.00381  -0.0647  0.8773  1.0000  -0.6017   0.0000   0.0000   0.0000   0.4151
   1.000   0.4024   0.00878   0.00369  -0.0652  0.8708  1.0000  -0.6174   0.0000   0.0000   0.0000   0.4105
   1.100   0.4174   0.00870   0.00357  -0.0659  0.8646  1.0000  -0.6356   0.0000   0.0000   0.0000   0.4063
   1.200   0.4211   0.00871   0.00357  -0.0645  0.8546  1.0000  -0.6457   0.0000   0.0000   0.0000   0.4017
   1.300   0.4289   0.00868   0.00353  -0.0639  0.8453  1.0000  -0.6593   0.0000   0.0000   0.0000   0.3973
   1.400   0.4395   0.00865   0.00346  -0.0637  0.8370  1.0000  -0.6754   0.0000   0.0000   0.0000   0.3933
   1.500   0.4515   0.00863   0.00338  -0.0638  0.8296  1.0000  -0.6929   0.0000   0.0000   0.0000   0.3896
   1.600   0.4597   0.00864   0.00338  -0.0633  0.8215  1.0000  -0.7087   0.0000   0.0000   0.0000   0.3858
   1.700   0.4666   0.00866   0.00338  -0.0625  0.8119  1.0000  -0.7243   0.0000   0.0000   0.0000   0.3820
   1.800   0.4758   0.00866   0.00335  -0.0621  0.8023  1.0000  -0.7425   0.0000   0.0000   0.0000   0.3785
   1.900   0.4866   0.00867   0.00330  -0.0619  0.7932  1.0000  -0.7622   0.0000   0.0000   0.0000   0.3751
   2.000   0.4976   0.00870   0.00328  -0.0618  0.7843  1.0000  -0.7823   0.0000   0.0000   0.0000   0.3720
   2.100   0.5055   0.00873   0.00331  -0.0612  0.7749  1.0000  -0.7993   0.0000   0.0000   0.0000   0.3688
   2.200   0.5149   0.00876   0.00332  -0.0608  0.7648  1.0000  -0.8178   0.0000   0.0000   0.0000   0.3658
   2.300   0.5251   0.00880   0.00330  -0.0605  0.7550  1.0000  -0.8375   0.0000   0.0000   0.0000   0.3629
   2.400   0.5359   0.00885   0.00329  -0.0603  0.7452  1.0000  -0.8596   0.0000   0.0000   0.0000   0.3602
   2.500   0.5455   0.00890   0.00332  -0.0600  0.7358  1.0000  -0.8835   0.0000   0.0000   0.0000   0.3576
   2.600   0.5549   0.00894   0.00335  -0.0596  0.7251  1.0000  -0.9072   0.0000   0.0000   0.0000   0.3549
   2.700   0.5647   0.00899   0.00336  -0.0593  0.7139  1.0000  -0.9342   0.0000   0.0000   0.0000   0.3524
   2.800   0.5750   0.00907   0.00336  -0.0590  0.7028  1.0000  -0.9659   0.0000   0.0000   0.0000   0.3500
   2.900   0.5851   0.00915   0.00339  -0.0587  0.6924  1.0000  -0.9975   0.0000   0.0000   0.0000   0.3477
   3.000   0.5946   0.00919   0.00344  -0.0584  0.6821  1.0000  -1.0283   0.0000   0.0000   0.0000   0.3454
   3.100   0.6043   0.00925   0.00347  -0.0580  0.6702  1.0000  -1.0597   0.0000   0.0000   0.0000   0.3432
   3.200   0.6142   0.00934   0.00349  -0.0577  0.6579  1.0000  -1.0918   0.0000   0.0000   0.0000   0.3410
   3.300   0.6241   0.00946   0.00352  -0.0574  0.6460  1.0000  -1.1241   0.0000   0.0000   0.0000   0.3390
   3.400   0.6339   0.00950   0.00359  -0.0571  0.6357  1.0000  -1.1561   0.0000   0.0000   0.0000   0.3371
   3.500   0.6436   0.00957   0.00364  -0.0568  0.6236  1.0000  -1.1884   0.0000   0.0000   0.0000   0.3351
   3.600   0.6532   0.00968   0.00368  -0.0564  0.6109  1.0000  -1.2209   0.0000   0.0000   0.0000   0.3332
   3.700   0.6628   0.00983   0.00372  -0.0560  0.5974  1.0000  -1.2536   0.0000   0.0000   0.0000   0.3313
   3.800   0.6726   0.00988   0.00380  -0.0558  0.5864  1.0000  -1.2866   0.0000   0.0000   0.0000   0.3296
   3.900   0.6822   0.00996   0.00386  -0.0555  0.5732  1.0000  -1.3197   0.0000   0.0000   0.0000   0.3279
   4.000   0.6916   0.01009   0.00391  -0.0551  0.5594  1.0000  -1.3708   0.0000   0.0000   0.0000   0.3261
   4.100   0.7012   0.01024   0.00421  -0.0547  0.5467  1.0000  -1.4505   0.0000   0.0000   0.0000   0.3244
   4.200   0.7111   0.01031   0.00432  -0.0544  0.5351  1.0000  -1.5157   0.0000   0.0000   0.0000   0.3229
   4.300   0.7205   0.01042   0.00440  -0.0541  0.5206  1.0000  -1.5820   0.0000   0.0000   0.0000   0.3213
   4.400   0.7294   0.01058   0.00447  -0.0536  0.5051  1.0000  -1.6480   0.0000   0.0000   0.0000   0.3197
   4.500   0.7389   0.01072   0.00457  -0.0533  0.4915  1.0000  -1.7166   0.0000   0.0000   0.0000   0.3182
   4.600   0.7486   0.01081   0.00467  -0.0530  0.4779  1.0000  -1.7872   0.0000   0.0000   0.0000   0.3168
   4.700   0.7578   0.01096   0.00476  -0.0527  0.4636  1.0000  -1.8572   0.0000   0.0000   0.0000   0.3154
   4.800   0.7665   0.01117   0.00487  -0.0522  0.4485  1.0000  -1.9262   0.0000   0.0000   0.0000   0.3139
   4.900   0.7764   0.01126   0.00499  -0.0520  0.4365  1.0000  -2.0002   0.0000   0.0000   0.0000   0.3127
   5.000   0.7858   0.01140   0.00509  -0.0517  0.4210  1.0000  -2.0732   0.0000   0.0000   0.0000   0.3114
   5.100   0.7941   0.01162   0.00520  -0.0512  0.4036  1.0000  -2.1438   0.0000   0.0000   0.0000   0.3100
   5.200   0.8035   0.01177   0.00533  -0.0509  0.3887  1.0000  -2.2185   0.0000   0.0000   0.0000   0.3088
   5.300   0.8126   0.01193   0.00545  -0.0505  0.3718  1.0000  -2.2936   0.0000   0.0000   0.0000   0.3076
   5.400   0.8207   0.01218   0.00557  -0.0501  0.3535  1.0000  -2.3655   0.0000   0.0000   0.0000   0.3063
   5.500   0.8302   0.01234   0.00572  -0.0498  0.3390  1.0000  -2.4431   0.0000   0.0000   0.0000   0.3052
   5.600   0.8391   0.01254   0.00586  -0.0494  0.3216  1.0000  -2.5195   0.0000   0.0000   0.0000   0.3040
   5.700   0.8469   0.01283   0.00602  -0.0489  0.3021  1.0000  -2.5924   0.0000   0.0000   0.0000   0.3028
   5.800   0.8565   0.01298   0.00617  -0.0487  0.2866  1.0000  -2.6877   0.0000   0.0000   0.0000   0.3018
   5.900   0.8645   0.01327   0.00634  -0.0483  0.2674  1.0000  -2.8014   0.0000   0.0000   0.0000   0.3006
   6.000   0.8733   0.01350   0.00653  -0.0479  0.2503  1.0000  -2.9206   0.0000   0.0000   0.0000   0.2996
   6.100   0.8819   0.01376   0.00671  -0.0476  0.2328  1.0000  -3.0405   0.0000   0.0000   0.0000   0.2986
   6.200   0.8897   0.01409   0.00694  -0.0471  0.2143  1.0000  -3.1555   0.0000   0.0000   0.0000   0.2975
   6.300   0.8987   0.01433   0.00713  -0.0469  0.1975  1.0000  -3.2803   0.0000   0.0000   0.0000   0.2965
   6.400   0.9059   0.01474   0.00738  -0.0464  0.1766  1.0000  -3.3941   0.0000   0.0000   0.0000   0.2955
   6.500   0.9148   0.01499   0.00758  -0.0461  0.1605  1.0000  -3.5218   0.0000   0.0000   0.0000   0.2946
   6.600   0.9220   0.01542   0.00784  -0.0456  0.1408  1.0000  -3.6380   0.0000   0.0000   0.0000   0.2936
   6.700   0.9309   0.01566   0.00804  -0.0454  0.1270  1.0000  -3.7699   0.0000   0.0000   0.0000   0.2928
   6.800   0.9380   0.01613   0.00834  -0.0450  0.1098  1.0000  -3.8869   0.0000   0.0000   0.0000   0.2918
   6.900   0.9473   0.01632   0.00853  -0.0448  0.0998  1.0000  -4.0246   0.0000   0.0000   0.0000   0.2910
   7.000   0.9553   0.01669   0.00877  -0.0445  0.0879  1.0000  -4.1518   0.0000   0.0000   0.0000   0.2902
   7.100   0.9636   0.01703   0.00907  -0.0441  0.0790  1.0000  -4.2784   0.0000   0.0000   0.0000   0.2893
   7.200   0.9727   0.01725   0.00933  -0.0438  0.0732  1.0000  -4.4130   0.0000   0.0000   0.0000   0.2885
   7.300   0.9809   0.01759   0.00960  -0.0435  0.0657  1.0000  -4.5422   0.0000   0.0000   0.0000   0.2877
   7.400   0.9880   0.01808   0.01002  -0.0430  0.0567  1.0000  -4.6536   0.0000   0.0000   0.0000   0.2867
   7.500   0.9974   0.01827   0.01027  -0.0427  0.0530  1.0000  -4.7893   0.0000   0.0000   0.0000   0.2860
   7.600   1.0059   0.01858   0.01059  -0.0424  0.0469  1.0000  -4.9125   0.0000   0.0000   0.0000   0.2852
   7.700   1.0109   0.01941   0.01153  -0.0415  0.0301  1.0000  -4.9247   0.0000   0.0000   0.0000   0.2839
   7.800   1.0134   0.02056   0.01264  -0.0401  0.0221  1.0000  -4.8949   0.0000   0.0000   0.0000   0.2824
   7.900   1.0183   0.02135   0.01352  -0.0391  0.0200  1.0000  -4.9181   0.0000   0.0000   0.0000   0.2811
   8.000   1.0257   0.02182   0.01406  -0.0385  0.0189  1.0000  -4.9890   0.0000   0.0000   0.0000   0.2801
   8.100   1.0324   0.02238   0.01470  -0.0378  0.0179  1.0000  -5.0486   0.0000   0.0000   0.0000   0.2791
   8.200   1.0388   0.02300   0.01540  -0.0371  0.0170  1.0000  -5.1041   0.0000   0.0000   0.0000   0.2780
   8.300   1.0451   0.02366   0.01614  -0.0363  0.0164  1.0000  -5.1580   0.0000   0.0000   0.0000   0.2770
   8.400   1.0512   0.02436   0.01692  -0.0355  0.0158  1.0000  -5.2113   0.0000   0.0000   0.0000   0.2759
   8.500   1.0574   0.02510   0.01773  -0.0348  0.0154  1.0000  -5.2644   0.0000   0.0000   0.0000   0.2749
   8.600   1.0636   0.02587   0.01858  -0.0341  0.0150  1.0000  -5.3172   0.0000   0.0000   0.0000   0.2739
   8.700   1.0698   0.02668   0.01949  -0.0333  0.0147  1.0000  -5.3688   0.0000   0.0000   0.0000   0.2729
   8.800   1.0760   0.02754   0.02044  -0.0326  0.0145  1.0000  -5.4188   0.0000   0.0000   0.0000   0.2720
   8.900   1.0822   0.02846   0.02145  -0.0319  0.0143  1.0000  -5.4665   0.0000   0.0000   0.0000   0.2710
   9.000   1.0883   0.02943   0.02253  -0.0312  0.0141  1.0000  -5.5112   0.0000   0.0000   0.0000   0.2701
   9.100   1.0942   0.03046   0.02368  -0.0305  0.0140  1.0000  -5.5524   0.0000   0.0000   0.0000   0.2692
   9.200   1.0998   0.03155   0.02490  -0.0298  0.0140  1.0000  -5.5891   0.0000   0.0000   0.0000   0.2683
   9.300   1.1050   0.03270   0.02620  -0.0290  0.0139  1.0000  -5.6208   0.0000   0.0000   0.0000   0.2673
   9.400   1.1097   0.03393   0.02757  -0.0282  0.0139  1.0000  -5.6469   0.0000   0.0000   0.0000   0.2664
   9.500   1.1138   0.03522   0.02901  -0.0274  0.0140  1.0000  -5.6829   0.0000   0.0000   0.0000   0.2654
   9.600   1.1171   0.03657   0.03052  -0.0265  0.0140  1.0000  -5.7142   0.0000   0.0000   0.0000   0.2645
   9.700   1.1197   0.03797   0.03208  -0.0255  0.0141  1.0000  -5.7381   0.0000   0.0000   0.0000   0.2635
   9.800   1.1213   0.03942   0.03370  -0.0245  0.0141  1.0000  -5.7551   0.0000   0.0000   0.0000   0.2624
   9.900   1.1220   0.04090   0.03535  -0.0235  0.0142  1.0000  -5.7653   0.0000   0.0000   0.0000   0.2614
  10.000   1.1215   0.04243   0.03704  -0.0223  0.0144  1.0000  -5.7655   0.0000   0.0000   0.0000   0.2603
  10.100   1.1200   0.04398   0.03875  -0.0211  0.0145  1.0000  -5.7599   0.0000   0.0000   0.0000   0.2592
  10.200   1.1175   0.04550   0.04043  -0.0199  0.0146  1.0000  -5.7499   0.0000   0.0000   0.0000   0.2580
  10.300   1.1137   0.04694   0.04200  -0.0185  0.0147  1.0000  -5.7363   0.0000   0.0000   0.0000   0.2567
  10.400   1.1090   0.04836   0.04355  -0.0171  0.0148  1.0000  -5.7197   0.0000   0.0000   0.0000   0.2554
  10.500   1.1036   0.04979   0.04510  -0.0158  0.0149  1.0000  -5.7006   0.0000   0.0000   0.0000   0.2542
  10.600   1.0976   0.05123   0.04665  -0.0146  0.0150  1.0000  -5.6793   0.0000   0.0000   0.0000   0.2531
  10.700   1.0911   0.05269   0.04822  -0.0135  0.0151  1.0000  -5.6559   0.0000   0.0000   0.0000   0.2521
  10.800   1.0843   0.05420   0.04984  -0.0127  0.0151  1.0000  -5.6306   0.0000   0.0000   0.0000   0.2512
  10.900   1.0772   0.05577   0.05151  -0.0120  0.0152  1.0000  -5.6033   0.0000   0.0000   0.0000   0.2506
  11.000   1.0697   0.05738   0.05322  -0.0115  0.0153  1.0000  -5.5744   0.0000   0.0000   0.0000   0.2501
  11.100   1.0620   0.05908   0.05501  -0.0113  0.0154  1.0000  -5.5434   0.0000   0.0000   0.0000   0.2498
  11.200   1.0541   0.06088   0.05690  -0.0113  0.0154  1.0000  -5.5103   0.0000   0.0000   0.0000   0.2497
  11.300   1.0462   0.06279   0.05890  -0.0116  0.0155  1.0000  -5.4748   0.0000   0.0000   0.0000   0.2500
  11.400   1.0381   0.06482   0.06101  -0.0121  0.0155  1.0000  -5.4369   0.0000   0.0000   0.0000   0.2504
  11.500   1.0299   0.06697   0.06324  -0.0130  0.0156  1.0000  -5.3962   0.0000   0.0000   0.0000   0.2512
  11.600   1.0217   0.06925   0.06560  -0.0140  0.0156  1.0000  -5.3526   0.0000   0.0000   0.0000   0.2521
  11.700   1.0132   0.07165   0.06807  -0.0153  0.0157  1.0000  -5.3058   0.0000   0.0000   0.0000   0.2534
  11.800   1.0046   0.07416   0.07065  -0.0168  0.0157  1.0000  -5.2555   0.0000   0.0000   0.0000   0.2549
  11.900   0.9960   0.07686   0.07341  -0.0186  0.0157  1.0000  -5.2006   0.0000   0.0000   0.0000   0.2566
  12.000   0.9873   0.07977   0.07639  -0.0206  0.0158  1.0000  -5.1403   0.0000   0.0000   0.0000   0.2587
  12.100   0.9786   0.08293   0.07961  -0.0229  0.0158  1.0000  -5.0732   0.0000   0.0000   0.0000   0.2611
  12.200   0.9698   0.08633   0.08307  -0.0254  0.0158  1.0000  -4.9981   0.0000   0.0000   0.0000   0.2639
  12.300   0.9608   0.09000   0.08678  -0.0282  0.0159  1.0000  -4.9133   0.0000   0.0000   0.0000   0.2669
  12.400   0.9517   0.09397   0.09080  -0.0312  0.0159  1.0000  -4.8160   0.0000   0.0000   0.0000   0.2702
  12.500   0.9422   0.09829   0.09517  -0.0344  0.0160  1.0000  -4.7024   0.0000   0.0000   0.0000   0.2739
  12.600   0.9323   0.10301   0.09992  -0.0377  0.0161  1.0000  -4.5680   0.0000   0.0000   0.0000   0.2778
  12.700   0.9220   0.10811   0.10504  -0.0411  0.0162  1.0000  -4.4089   0.0000   0.0000   0.0000   0.2820
  12.800   0.9116   0.11351   0.11046  -0.0444  0.0164  1.0000  -4.2247   0.0000   0.0000   0.0000   0.2861
  12.900   0.9016   0.11896   0.11590  -0.0474  0.0166  1.0000  -4.0261   0.0000   0.0000   0.0000   0.2901
  13.000   0.8934   0.12385   0.12077  -0.0499  0.0168  1.0000  -3.8481   0.0000   0.0000   0.0000   0.2934
  13.100   0.8869   0.12798   0.12489  -0.0520  0.0171  1.0000  -3.7088   0.0000   0.0000   0.0000   0.2962
  13.200   0.8817   0.13169   0.12858  -0.0539  0.0173  1.0000  -3.5919   0.0000   0.0000   0.0000   0.2987
  13.300   0.8773   0.13511   0.13198  -0.0556  0.0175  1.0000  -3.4899   0.0000   0.0000   0.0000   0.3009
  13.400   0.8735   0.13831   0.13517  -0.0572  0.0177  1.0000  -3.3991   0.0000   0.0000   0.0000   0.3030
  13.500   0.8704   0.14134   0.13819  -0.0587  0.0179  1.0000  -3.3173   0.0000   0.0000   0.0000   0.3050
  13.600   0.8677   0.14424   0.14107  -0.0602  0.0181  1.0000  -3.2427   0.0000   0.0000   0.0000   0.3068
  13.700   0.8653   0.14694   0.14376  -0.0615  0.0184  1.0000  -3.1746   0.0000   0.0000   0.0000   0.3085
  13.800   0.8633   0.14947   0.14628  -0.0628  0.0186  1.0000  -3.1117   0.0000   0.0000   0.0000   0.3101
  13.900   0.8616   0.15193   0.14873  -0.0641  0.0188  1.0000  -3.0526   0.0000   0.0000   0.0000   0.3117
  14.000   0.8601   0.15438   0.15116  -0.0653  0.0191  1.0000  -2.9960   0.0000   0.0000   0.0000   0.3132
  14.100   0.8585   0.15684   0.15362  -0.0665  0.0194  1.0000  -2.9399   0.0000   0.0000   0.0000   0.3146
  14.200   0.8567   0.15943   0.15620  -0.0676  0.0198  1.0000  -2.8783   0.0000   0.0000   0.0000   0.3160
  14.500   0.8483   0.17554   0.17230  -0.0704  0.0364  1.0000  -2.2964   0.0000   0.0000   0.0000   0.3204
  14.600   0.8496   0.17768   0.17443  -0.0714  0.0364  1.0000  -2.2836   0.0000   0.0000   0.0000   0.3212
  14.700   0.8509   0.17981   0.17656  -0.0723  0.0364  1.0000  -2.2713   0.0000   0.0000   0.0000   0.3221
  14.800   0.8523   0.18194   0.17868  -0.0732  0.0364  1.0000  -2.2597   0.0000   0.0000   0.0000   0.3230
  14.900   0.8537   0.18405   0.18080  -0.0742  0.0364  1.0000  -2.2485   0.0000   0.0000   0.0000   0.3238
  15.000   0.8552   0.18616   0.18290  -0.0751  0.0364  1.0000  -2.2379   0.0000   0.0000   0.0000   0.3247
  15.100   0.8567   0.18826   0.18500  -0.0760  0.0364  1.0000  -2.2277   0.0000   0.0000   0.0000   0.3255
  15.200   0.8583   0.19035   0.18709  -0.0769  0.0363  1.0000  -2.2179   0.0000   0.0000   0.0000   0.3263
  15.300   0.8599   0.19243   0.18917  -0.0778  0.0363  1.0000  -2.2085   0.0000   0.0000   0.0000   0.3271
  15.400   0.8616   0.19450   0.19124  -0.0788  0.0363  1.0000  -2.1994   0.0000   0.0000   0.0000   0.3279
  15.500   0.8632   0.19656   0.19330  -0.0797  0.0363  1.0000  -2.1907   0.0000   0.0000   0.0000   0.3287
  15.600   0.8649   0.19861   0.19534  -0.0806  0.0362  1.0000  -2.1822   0.0000   0.0000   0.0000   0.3295
  15.700   0.8667   0.20063   0.19737  -0.0815  0.0362  1.0000  -2.1741   0.0000   0.0000   0.0000   0.3302
  15.800   0.8684   0.20264   0.19937  -0.0824  0.0361  1.0000  -2.1662   0.0000   0.0000   0.0000   0.3310
  15.900   0.8702   0.20461   0.20135  -0.0834  0.0361  1.0000  -2.1585   0.0000   0.0000   0.0000   0.3318
  16.000   0.8720   0.20655   0.20329  -0.0843  0.0360  1.0000  -2.1511   0.0000   0.0000   0.0000   0.3325
  16.100   0.8739   0.20845   0.20518  -0.0853  0.0359  1.0000  -2.1439   0.0000   0.0000   0.0000   0.3333
  16.200   0.8758   0.21027   0.20700  -0.0862  0.0358  1.0000  -2.1369   0.0000   0.0000   0.0000   0.3341
  16.300   0.8777   0.21198   0.20871  -0.0872  0.0356  1.0000  -2.1299   0.0000   0.0000   0.0000   0.3349
  16.400   0.8798   0.21349   0.21022  -0.0883  0.0353  1.0000  -2.1222   0.0000   0.0000   0.0000   0.3358
  16.500   0.8809   0.21485   0.21158  -0.0898  0.0348  1.0000  -2.0961   0.0000   0.0000   0.0000   0.3373
  16.600   0.8812   0.21636   0.21308  -0.0915  0.0340  1.0000  -2.0601   0.0000   0.0000   0.0000   0.3391
  16.700   0.8822   0.21816   0.21487  -0.0929  0.0333  1.0000  -2.0334   0.0000   0.0000   0.0000   0.3404
  16.800   0.8837   0.22009   0.21681  -0.0940  0.0326  1.0000  -2.0155   0.0000   0.0000   0.0000   0.3414
  16.900   0.8852   0.22208   0.21880  -0.0951  0.0320  1.0000  -2.0030   0.0000   0.0000   0.0000   0.3423
  17.000   0.8869   0.22409   0.22081  -0.0960  0.0314  1.0000  -1.9940   0.0000   0.0000   0.0000   0.3431
  17.100   0.8886   0.22611   0.22283  -0.0969  0.0308  1.0000  -1.9874   0.0000   0.0000   0.0000   0.3438
  17.200   0.8904   0.22813   0.22485  -0.0978  0.0303  1.0000  -1.9825   0.0000   0.0000   0.0000   0.3444
  17.300   0.8922   0.23015   0.22687  -0.0986  0.0298  1.0000  -1.9791   0.0000   0.0000   0.0000   0.3450
  17.400   0.8940   0.23216   0.22889  -0.0995  0.0293  1.0000  -1.9768   0.0000   0.0000   0.0000   0.3456
  17.500   0.8958   0.23418   0.23090  -0.1003  0.0289  1.0000  -1.9755   0.0000   0.0000   0.0000   0.3461
  17.600   0.8976   0.23619   0.23292  -0.1011  0.0284  1.0000  -1.9751   0.0000   0.0000   0.0000   0.3467
  17.700   0.8994   0.23820   0.23493  -0.1018  0.0280  1.0000  -1.9755   0.0000   0.0000   0.0000   0.3472
  17.800   0.9012   0.24021   0.23695  -0.1026  0.0276  1.0000  -1.9766   0.0000   0.0000   0.0000   0.3477
  17.900   0.9030   0.24222   0.23896  -0.1033  0.0272  1.0000  -1.9786   0.0000   0.0000   0.0000   0.3481
  18.000   0.9048   0.24422   0.24097  -0.1041  0.0268  1.0000  -1.9812   0.0000   0.0000   0.0000   0.3486
  18.100   0.9066   0.24622   0.24297  -0.1048  0.0265  1.0000  -1.9847   0.0000   0.0000   0.0000   0.3490
  18.200   0.9084   0.24822   0.24497  -0.1055  0.0261  1.0000  -1.9889   0.0000   0.0000   0.0000   0.3494
  18.300   0.9102   0.25022   0.24697  -0.1062  0.0258  1.0000  -1.9939   0.0000   0.0000   0.0000   0.3498
  18.400   0.9119   0.25221   0.24897  -0.1069  0.0255  1.0000  -1.9997   0.0000   0.0000   0.0000   0.3502
  18.500   0.9137   0.25419   0.25096  -0.1075  0.0252  1.0000  -2.0065   0.0000   0.0000   0.0000   0.3505
  18.600   0.9155   0.25618   0.25295  -0.1082  0.0249  1.0000  -2.0143   0.0000   0.0000   0.0000   0.3509
  18.700   0.9173   0.25815   0.25493  -0.1088  0.0246  1.0000  -2.0231   0.0000   0.0000   0.0000   0.3512
  18.800   0.9190   0.26013   0.25691  -0.1094  0.0243  1.0000  -2.0332   0.0000   0.0000   0.0000   0.3515
  18.900   0.9208   0.26210   0.25889  -0.1100  0.0240  1.0000  -2.0445   0.0000   0.0000   0.0000   0.3517
  19.000   0.9226   0.26407   0.26086  -0.1105  0.0238  1.0000  -2.0572   0.0000   0.0000   0.0000   0.3519
  19.100   0.9244   0.26604   0.26284  -0.1110  0.0235  1.0000  -2.0716   0.0000   0.0000   0.0000   0.3521
  19.200   0.9262   0.26801   0.26482  -0.1115  0.0233  1.0000  -2.0880   0.0000   0.0000   0.0000   0.3522
  19.300   0.9281   0.26999   0.26680  -0.1119  0.0230  1.0000  -2.1065   0.0000   0.0000   0.0000   0.3523
  19.400   0.9300   0.27199   0.26882  -0.1123  0.0228  1.0000  -2.1274   0.0000   0.0000   0.0000   0.3523
  19.500   0.9320   0.27403   0.27087  -0.1126  0.0225  1.0000  -2.1510   0.0000   0.0000   0.0000   0.3522
  19.600   0.9341   0.27615   0.27300  -0.1128  0.0223  1.0000  -2.1778   0.0000   0.0000   0.0000   0.3520
  19.700   0.9364   0.27842   0.27528  -0.1129  0.0220  1.0000  -2.2086   0.0000   0.0000   0.0000   0.3517
  19.800   0.9390   0.28101   0.27789  -0.1129  0.0218  1.0000  -2.2408   0.0000   0.0000   0.0000   0.3512
  19.900   0.9393   0.28437   0.28125  -0.1132  0.0214  1.0000  -2.2352   0.0000   0.0000   0.0000   0.3513
  20.000   0.9333   0.29231   0.28915  -0.1139  0.0208  1.0000  -2.0827   0.0000   0.0000   0.0000   0.3529
  20.100   0.9339   0.29453   0.29137  -0.1146  0.0207  1.0000  -2.0701   0.0000   0.0000   0.0000   0.3534
  20.200   0.9344   0.29674   0.29358  -0.1152  0.0207  1.0000  -2.0573   0.0000   0.0000   0.0000   0.3539
  20.300   0.9348   0.29893   0.29578  -0.1159  0.0207  1.0000  -2.0441   0.0000   0.0000   0.0000   0.3545
  20.400   0.9351   0.30110   0.29796  -0.1165  0.0207  1.0000  -2.0306   0.0000   0.0000   0.0000   0.3550
  20.500   0.9353   0.30324   0.30011  -0.1171  0.0207  1.0000  -2.0168   0.0000   0.0000   0.0000   0.3555
  20.600   0.9353   0.30536   0.30224  -0.1177  0.0207  1.0000  -2.0026   0.0000   0.0000   0.0000   0.3560
  20.700   0.9351   0.30745   0.30433  -0.1183  0.0207  1.0000  -1.9880   0.0000   0.0000   0.0000   0.3565
  20.800   0.9348   0.30949   0.30638  -0.1189  0.0207  1.0000  -1.9728   0.0000   0.0000   0.0000   0.3571
  20.900   0.9342   0.31149   0.30839  -0.1194  0.0207  1.0000  -1.9571   0.0000   0.0000   0.0000   0.3576
  21.000   0.9334   0.31342   0.31033  -0.1199  0.0207  1.0000  -1.9408   0.0000   0.0000   0.0000   0.3582
  21.100   0.9323   0.31529   0.31221  -0.1204  0.0207  1.0000  -1.9238   0.0000   0.0000   0.0000   0.3587
  21.200   0.9309   0.31707   0.31400  -0.1208  0.0206  1.0000  -1.9060   0.0000   0.0000   0.0000   0.3593
  21.300   0.9290   0.31873   0.31568  -0.1212  0.0206  1.0000  -1.8871   0.0000   0.0000   0.0000   0.3599
  21.400   0.9265   0.32024   0.31719  -0.1215  0.0206  1.0000  -1.8668   0.0000   0.0000   0.0000   0.3605
  21.500   0.9225   0.32137   0.31834  -0.1216  0.0206  1.0000  -1.8427   0.0000   0.0000   0.0000   0.3611
  21.600   0.8814   0.31252   0.30960  -0.1174  0.0206  1.0000  -1.7260   0.0000   0.0000   0.0000   0.3631
  21.700   0.8740   0.31181   0.30892  -0.1171  0.0206  1.0000  -1.6942   0.0000   0.0000   0.0000   0.3638
  21.800   0.8685   0.31150   0.30863  -0.1170  0.0206  1.0000  -1.6671   0.0000   0.0000   0.0000   0.3645
  21.900   0.8639   0.31139   0.30854  -0.1170  0.0206  1.0000  -1.6426   0.0000   0.0000   0.0000   0.3652
  22.000   0.8600   0.31141   0.30858  -0.1171  0.0206  1.0000  -1.6198   0.0000   0.0000   0.0000   0.3659
  22.100   0.8565   0.31151   0.30870  -0.1172  0.0206  1.0000  -1.5983   0.0000   0.0000   0.0000   0.3665
  22.200   0.8534   0.31167   0.30887  -0.1173  0.0205  1.0000  -1.5777   0.0000   0.0000   0.0000   0.3671
  22.300   0.8505   0.31186   0.30907  -0.1175  0.0205  1.0000  -1.5577   0.0000   0.0000   0.0000   0.3678
  22.400   0.8479   0.31209   0.30931  -0.1178  0.0205  1.0000  -1.5385   0.0000   0.0000   0.0000   0.3684
  22.500   0.8455   0.31234   0.30958  -0.1180  0.0205  1.0000  -1.5199   0.0000   0.0000   0.0000   0.3690
  22.600   0.8432   0.31262   0.30987  -0.1183  0.0205  1.0000  -1.5019   0.0000   0.0000   0.0000   0.3696
  22.700   0.8412   0.31291   0.31017  -0.1186  0.0204  1.0000  -1.4844   0.0000   0.0000   0.0000   0.3702
  22.800   0.8392   0.31319   0.31047  -0.1189  0.0204  1.0000  -1.4667   0.0000   0.0000   0.0000   0.3708
  22.900   0.8373   0.31348   0.31077  -0.1192  0.0204  1.0000  -1.4492   0.0000   0.0000   0.0000   0.3715
  23.000   0.8354   0.31375   0.31104  -0.1196  0.0204  1.0000  -1.4310   0.0000   0.0000   0.0000   0.3721
  23.100   0.8335   0.31399   0.31129  -0.1200  0.0203  1.0000  -1.4115   0.0000   0.0000   0.0000   0.3728
  23.200   0.8317   0.31423   0.31155  -0.1204  0.0203  1.0000  -1.3921   0.0000   0.0000   0.0000   0.3736
  23.300   0.8300   0.31449   0.31181  -0.1208  0.0202  1.0000  -1.3729   0.0000   0.0000   0.0000   0.3743
  23.400   0.8285   0.31475   0.31208  -0.1213  0.0201  1.0000  -1.3537   0.0000   0.0000   0.0000   0.3750
  23.500   0.8272   0.31503   0.31237  -0.1218  0.0201  1.0000  -1.3344   0.0000   0.0000   0.0000   0.3758
  23.600   0.8260   0.31533   0.31268  -0.1224  0.0200  1.0000  -1.3148   0.0000   0.0000   0.0000   0.3766
  23.700   0.8251   0.31568   0.31304  -0.1230  0.0198  1.0000  -1.2946   0.0000   0.0000   0.0000   0.3773
  23.800   0.8243   0.31616   0.31359  -0.1235  0.0197  1.0000  -1.2828   0.0000   0.0000   0.0000   0.3779
  23.900   0.8238   0.31664   0.31408  -0.1241  0.0195  1.0000  -1.2638   0.0000   0.0000   0.0000   0.3787
  24.000   0.8237   0.31723   0.31468  -0.1248  0.0192  1.0000  -1.2434   0.0000   0.0000   0.0000   0.3794
  24.100   0.8237   0.31793   0.31539  -0.1255  0.0188  1.0000  -1.2234   0.0000   0.0000   0.0000   0.3801
  24.200   0.8237   0.31867   0.31613  -0.1260  0.0183  1.0000  -1.2059   0.0000   0.0000   0.0000   0.3807
  24.300   0.8236   0.31939   0.31686  -0.1265  0.0178  1.0000  -1.1915   0.0000   0.0000   0.0000   0.3812
  24.400   0.8233   0.32007   0.31755  -0.1270  0.0173  1.0000  -1.1797   0.0000   0.0000   0.0000   0.3816
  24.500   0.8229   0.32072   0.31821  -0.1274  0.0168  1.0000  -1.1698   0.0000   0.0000   0.0000   0.3821
  24.600   0.8225   0.32136   0.31886  -0.1278  0.0164  1.0000  -1.1612   0.0000   0.0000   0.0000   0.3825
  24.700   0.8221   0.32198   0.31949  -0.1282  0.0160  1.0000  -1.1537   0.0000   0.0000   0.0000   0.3829
  24.800   0.8217   0.32259   0.32011  -0.1285  0.0156  1.0000  -1.1470   0.0000   0.0000   0.0000   0.3833
  24.900   0.8213   0.32320   0.32073  -0.1289  0.0152  1.0000  -1.1410   0.0000   0.0000   0.0000   0.3837
  25.000   0.8209   0.32381   0.32135  -0.1293  0.0148  1.0000  -1.1356   0.0000   0.0000   0.0000   0.3841
  25.100   0.8206   0.32441   0.32196  -0.1297  0.0145  1.0000  -1.1305   0.0000   0.0000   0.0000   0.3845
  25.200   0.8202   0.32501   0.32257  -0.1300  0.0142  1.0000  -1.1258   0.0000   0.0000   0.0000   0.3848
  25.300   0.8199   0.32561   0.32318  -0.1304  0.0140  1.0000  -1.1213   0.0000   0.0000   0.0000   0.3852
  25.400   0.8196   0.32621   0.32379  -0.1308  0.0137  1.0000  -1.1169   0.0000   0.0000   0.0000   0.3856
  25.500   0.8193   0.32682   0.32440  -0.1312  0.0135  1.0000  -1.1125   0.0000   0.0000   0.0000   0.3859
  25.600   0.8190   0.32742   0.32502  -0.1315  0.0133  1.0000  -1.1082   0.0000   0.0000   0.0000   0.3863
  25.700   0.8188   0.32802   0.32563  -0.1319  0.0132  1.0000  -1.1042   0.0000   0.0000   0.0000   0.3867
  25.800   0.8185   0.32863   0.32624  -0.1323  0.0130  1.0000  -1.1006   0.0000   0.0000   0.0000   0.3870
  25.900   0.8183   0.32923   0.32685  -0.1327  0.0128  1.0000  -1.0973   0.0000   0.0000   0.0000   0.3874
  26.000   0.8181   0.32983   0.32746  -0.1330  0.0126  1.0000  -1.0944   0.0000   0.0000   0.0000   0.3877
  26.100   0.8179   0.33043   0.32807  -0.1334  0.0125  1.0000  -1.0917   0.0000   0.0000   0.0000   0.3881
  26.200   0.8177   0.33102   0.32867  -0.1338  0.0123  1.0000  -1.0895   0.0000   0.0000   0.0000   0.3884
  26.300   0.8176   0.33162   0.32928  -0.1342  0.0122  1.0000  -1.0876   0.0000   0.0000   0.0000   0.3887
  26.400   0.8174   0.33221   0.32988  -0.1346  0.0120  1.0000  -1.0860   0.0000   0.0000   0.0000   0.3891
  26.500   0.8172   0.33280   0.33048  -0.1350  0.0119  1.0000  -1.0849   0.0000   0.0000   0.0000   0.3894
  26.600   0.8171   0.33339   0.33107  -0.1353  0.0118  1.0000  -1.0841   0.0000   0.0000   0.0000   0.3897
  26.700   0.8170   0.33397   0.33167  -0.1357  0.0116  1.0000  -1.0837   0.0000   0.0000   0.0000   0.3900
  26.800   0.8169   0.33455   0.33226  -0.1361  0.0115  1.0000  -1.0837   0.0000   0.0000   0.0000   0.3903
  26.900   0.8167   0.33513   0.33284  -0.1365  0.0114  1.0000  -1.0841   0.0000   0.0000   0.0000   0.3906
  27.000   0.8166   0.33570   0.33342  -0.1368  0.0112  1.0000  -1.0850   0.0000   0.0000   0.0000   0.3909
  27.100   0.8165   0.33627   0.33400  -0.1372  0.0111  1.0000  -1.0863   0.0000   0.0000   0.0000   0.3912
  27.200   0.8164   0.33683   0.33458  -0.1376  0.0110  1.0000  -1.0881   0.0000   0.0000   0.0000   0.3915
  27.300   0.8163   0.33739   0.33514  -0.1379  0.0109  1.0000  -1.0904   0.0000   0.0000   0.0000   0.3918
  27.400   0.8162   0.33795   0.33571  -0.1383  0.0108  1.0000  -1.0931   0.0000   0.0000   0.0000   0.3920
  27.500   0.8161   0.33850   0.33627  -0.1386  0.0107  1.0000  -1.0964   0.0000   0.0000   0.0000   0.3923
  27.600   0.8160   0.33905   0.33683  -0.1390  0.0106  1.0000  -1.1003   0.0000   0.0000   0.0000   0.3925
  27.700   0.8160   0.33959   0.33738  -0.1393  0.0105  1.0000  -1.1048   0.0000   0.0000   0.0000   0.3928
  27.800   0.8159   0.34013   0.33794  -0.1396  0.0104  1.0000  -1.1098   0.0000   0.0000   0.0000   0.3930
  27.900   0.8158   0.34068   0.33849  -0.1400  0.0103  1.0000  -1.1155   0.0000   0.0000   0.0000   0.3932
  28.000   0.8157   0.34123   0.33905  -0.1403  0.0102  1.0000  -1.1217   0.0000   0.0000   0.0000   0.3934
  28.100   0.8156   0.34180   0.33963  -0.1405  0.0101  1.0000  -1.1285   0.0000   0.0000   0.0000   0.3935
  28.200   0.8155   0.34239   0.34023  -0.1408  0.0100  1.0000  -1.1357   0.0000   0.0000   0.0000   0.3937
  28.300   0.8155   0.34302   0.34087  -0.1410  0.0100  1.0000  -1.1432   0.0000   0.0000   0.0000   0.3937
  28.400   0.8154   0.34372   0.34159  -0.1412  0.0099  1.0000  -1.1507   0.0000   0.0000   0.0000   0.3938
  28.500   0.8154   0.34457   0.34244  -0.1413  0.0098  1.0000  -1.1575   0.0000   0.0000   0.0000   0.3938
  28.600   0.8155   0.34572   0.34360  -0.1414  0.0097  1.0000  -1.1619   0.0000   0.0000   0.0000   0.3936
  28.700   0.8149   0.34787   0.34576  -0.1413  0.0095  1.0000  -1.1357   0.0000   0.0000   0.0000   0.3936


