xflr5 v6.61

 Calculated polar for: S1221

 1 1 Reynolds number fixed          Mach number fixed         

 xtrf =   1.000 (top)        1.000 (bottom)
 Mach =   0.000     Re =     0.688 e 6     Ncrit =   9.000

  alpha     CL        CD       CDp       Cm    Top Xtr Bot Xtr   Cpmin    Chinge    XCp    
 ------- -------- --------- --------- -------- ------- ------- -------- --------- ---------
 -10.000  -0.3081   0.12767   0.12560  -0.0157  1.0000  0.0176  -1.4720   0.0000   0.0000   0.0000   0.1874
  -9.900  -0.3057   0.12644   0.12438  -0.0160  1.0000  0.0176  -1.4766   0.0000   0.0000   0.0000   0.1860
  -9.800  -0.3033   0.12521   0.12316  -0.0164  1.0000  0.0176  -1.4813   0.0000   0.0000   0.0000   0.1845
  -9.700  -0.3010   0.12398   0.12193  -0.0167  1.0000  0.0176  -1.4861   0.0000   0.0000   0.0000   0.1831
  -9.600  -0.2987   0.12275   0.12070  -0.0170  1.0000  0.0176  -1.4911   0.0000   0.0000   0.0000   0.1816
  -9.500  -0.2964   0.12152   0.11948  -0.0173  1.0000  0.0176  -1.4963   0.0000   0.0000   0.0000   0.1802
  -9.400  -0.2941   0.12028   0.11825  -0.0176  1.0000  0.0176  -1.5016   0.0000   0.0000   0.0000   0.1787
  -9.300  -0.2919   0.11905   0.11703  -0.0179  1.0000  0.0176  -1.5071   0.0000   0.0000   0.0000   0.1773
  -9.200  -0.2897   0.11782   0.11581  -0.0182  1.0000  0.0176  -1.5127   0.0000   0.0000   0.0000   0.1758
  -9.100  -0.2875   0.11660   0.11459  -0.0185  1.0000  0.0176  -1.5185   0.0000   0.0000   0.0000   0.1744
  -9.000  -0.2854   0.11537   0.11337  -0.0188  1.0000  0.0176  -1.5245   0.0000   0.0000   0.0000   0.1729
  -8.900  -0.2833   0.11415   0.11215  -0.0191  1.0000  0.0176  -1.5307   0.0000   0.0000   0.0000   0.1715
  -8.800  -0.2812   0.11293   0.11094  -0.0194  1.0000  0.0176  -1.5370   0.0000   0.0000   0.0000   0.1700
  -8.700  -0.2792   0.11172   0.10974  -0.0196  1.0000  0.0176  -1.5436   0.0000   0.0000   0.0000   0.1686
  -8.600  -0.2773   0.11051   0.10853  -0.0199  1.0000  0.0176  -1.5504   0.0000   0.0000   0.0000   0.1672
  -8.500  -0.2754   0.10930   0.10734  -0.0201  1.0000  0.0176  -1.5574   0.0000   0.0000   0.0000   0.1658
  -8.400  -0.2736   0.10811   0.10615  -0.0204  1.0000  0.0177  -1.5647   0.0000   0.0000   0.0000   0.1645
  -8.300  -0.2718   0.10691   0.10496  -0.0206  1.0000  0.0177  -1.5722   0.0000   0.0000   0.0000   0.1631
  -8.200  -0.2701   0.10572   0.10378  -0.0209  1.0000  0.0177  -1.5799   0.0000   0.0000   0.0000   0.1619
  -8.100  -0.2684   0.10452   0.10259  -0.0211  1.0000  0.0177  -1.5879   0.0000   0.0000   0.0000   0.1606
  -8.000  -0.2668   0.10332   0.10140  -0.0213  1.0000  0.0177  -1.5961   0.0000   0.0000   0.0000   0.1595
  -7.900  -0.2654   0.10213   0.10022  -0.0215  1.0000  0.0177  -1.6046   0.0000   0.0000   0.0000   0.1584
  -7.800  -0.2640   0.10095   0.09905  -0.0216  1.0000  0.0177  -1.6134   0.0000   0.0000   0.0000   0.1574
  -7.700  -0.2629   0.09978   0.09790  -0.0218  1.0000  0.0177  -1.6225   0.0000   0.0000   0.0000   0.1567
  -7.600  -0.2619   0.09863   0.09676  -0.0219  1.0000  0.0177  -1.6320   0.0000   0.0000   0.0000   0.1561
  -7.500  -0.2562   0.09701   0.09513  -0.0234  0.9996  0.0177  -1.6407   0.0000   0.0000   0.0000   0.1481
  -7.400  -0.2494   0.09527   0.09340  -0.0253  0.9989  0.0177  -1.6497   0.0000   0.0000   0.0000   0.1379
  -7.300  -0.2426   0.09353   0.09166  -0.0272  0.9983  0.0177  -1.6593   0.0000   0.0000   0.0000   0.1269
  -7.200  -0.2358   0.09179   0.08992  -0.0291  0.9976  0.0177  -1.6695   0.0000   0.0000   0.0000   0.1154
  -7.100  -0.2290   0.09003   0.08816  -0.0310  0.9968  0.0177  -1.6804   0.0000   0.0000   0.0000   0.1030
  -7.000  -0.2220   0.08824   0.08638  -0.0331  0.9959  0.0177  -1.6920   0.0000   0.0000   0.0000   0.0893
  -6.900  -0.2146   0.08642   0.08455  -0.0352  0.9949  0.0177  -1.7046   0.0000   0.0000   0.0000   0.0737
  -6.800  -0.2069   0.08454   0.08267  -0.0376  0.9940  0.0177  -1.7181   0.0000   0.0000   0.0000   0.0560
  -6.700  -0.2246   0.07680   0.07496  -0.0427  0.9916  0.0187  -2.1026   0.0000   0.0000   0.0000   0.0479
  -6.600  -0.2197   0.07488   0.07305  -0.0447  0.9895  0.0190  -2.1134   0.0000   0.0000   0.0000   0.0341
  -6.400  -0.2095   0.07174   0.06992  -0.0480  0.9845  0.0194  -2.1062   0.0000   0.0000   0.0000   0.0082
  -6.300  -0.2069   0.07042   0.06861  -0.0489  0.9794  0.0196  -2.1046   0.0000   0.0000   0.0000   0.0014
  -6.000  -0.2009   0.06711   0.06533  -0.0500  0.9581  0.0200  -2.0763   0.0000   0.0000   0.0000  -0.0111
  -5.900  -0.1926   0.06560   0.06382  -0.0520  0.9524  0.0202  -2.0526   0.0000   0.0000   0.0000  -0.0326
  -5.700  -0.1736   0.06220   0.06041  -0.0572  0.9427  0.0207  -2.0145   0.0000   0.0000   0.0000  -0.0926
  -5.600  -0.1657   0.06043   0.05862  -0.0597  0.9360  0.0210  -2.0097   0.0000   0.0000   0.0000  -0.1238
  -5.500  -0.1532   0.05827   0.05645  -0.0636  0.9257  0.0213  -1.9999   0.0000   0.0000   0.0000  -0.1799
  -5.400  -0.1211   0.05397   0.05209  -0.0744  0.9045  0.0219  -1.9976   0.0000   0.0000   0.0000  -0.3829
  -5.300  -0.0769   0.04164   0.03960  -0.1011  0.8865  0.0227  -2.2510   0.0000   0.0000   0.0000  -1.0945
  -5.200   0.0368   0.02871   0.02562  -0.1459  0.7907  0.0250  -2.3144   0.0000   0.0000   0.0000   4.2774
  -5.100   0.0523   0.02752   0.02416  -0.1486  0.7569  0.0257  -2.2861   0.0000   0.0000   0.0000   3.1350
  -5.000   0.0624   0.02676   0.02317  -0.1495  0.7239  0.0263  -2.2601   0.0000   0.0000   0.0000   2.6824
  -4.900   0.0749   0.02597   0.02224  -0.1507  0.7106  0.0271  -2.2251   0.0000   0.0000   0.0000   2.2910
  -4.800   0.0868   0.02545   0.02158  -0.1515  0.6948  0.0278  -2.1839   0.0000   0.0000   0.0000   2.0197
  -4.700   0.0974   0.02527   0.02125  -0.1516  0.6762  0.0285  -2.1356   0.0000   0.0000   0.0000   1.8283
  -4.600   0.1068   0.02549   0.02133  -0.1511  0.6526  0.0292  -2.0763   0.0000   0.0000   0.0000   1.6835
  -4.500   0.1175   0.02611   0.02187  -0.1505  0.6375  0.0298  -1.9986   0.0000   0.0000   0.0000   1.5481
  -4.400   0.1289   0.02614   0.02176  -0.1507  0.6226  0.0301  -1.9422   0.0000   0.0000   0.0000   1.4343
  -4.300   0.1396   0.02576   0.02119  -0.1512  0.6064  0.0302  -1.9038   0.0000   0.0000   0.0000   1.3458
  -4.200   0.1518   0.02514   0.02041  -0.1520  0.5930  0.0302  -1.8680   0.0000   0.0000   0.0000   1.2627
  -3.600   0.2349   0.01713   0.01150  -0.1614  0.5239  0.0386  -1.6833   0.0000   0.0000   0.0000   0.9433
  -3.500   0.2476   0.01682   0.01111  -0.1617  0.5164  0.0399  -1.6302   0.0000   0.0000   0.0000   0.9089
  -3.400   0.2601   0.01658   0.01079  -0.1620  0.5084  0.0413  -1.5785   0.0000   0.0000   0.0000   0.8780
  -3.300   0.2723   0.01646   0.01058  -0.1621  0.4999  0.0427  -1.5268   0.0000   0.0000   0.0000   0.8502
  -3.200   0.2839   0.01651   0.01056  -0.1620  0.4905  0.0440  -1.4720   0.0000   0.0000   0.0000   0.8251
  -3.100   0.2923   0.01808   0.01215  -0.1605  0.4862  0.0456  -1.3762   0.0000   0.0000   0.0000   0.8031
  -3.000   0.3239   0.01256   0.00599  -0.1644  0.4827  0.0198  -1.7601   0.0000   0.0000   0.0000   0.7611
  -2.900   0.3355   0.01259   0.00598  -0.1643  0.4774  0.0189  -1.6997   0.0000   0.0000   0.0000   0.7428
  -2.800   0.3468   0.01267   0.00602  -0.1641  0.4718  0.0184  -1.6350   0.0000   0.0000   0.0000   0.7261
  -2.700   0.3604   0.01232   0.00561  -0.1645  0.4658  0.0173  -1.6067   0.0000   0.0000   0.0000   0.7092
  -2.600   0.3765   0.01172   0.00491  -0.1657  0.4587  0.0167  -1.5924   0.0000   0.0000   0.0000   0.6924
  -2.500   0.3914   0.01139   0.00449  -0.1665  0.4523  0.0164  -1.5566   0.0000   0.0000   0.0000   0.6774
  -2.400   0.4061   0.01111   0.00415  -0.1672  0.4498  0.0161  -1.5143   0.0000   0.0000   0.0000   0.6635
  -2.300   0.4204   0.01089   0.00387  -0.1678  0.4467  0.0158  -1.4686   0.0000   0.0000   0.0000   0.6507
  -2.200   0.4343   0.01071   0.00362  -0.1683  0.4430  0.0156  -1.4208   0.0000   0.0000   0.0000   0.6389
  -2.100   0.4478   0.01057   0.00341  -0.1687  0.4390  0.0155  -1.3714   0.0000   0.0000   0.0000   0.6279
  -2.000   0.4610   0.01046   0.00323  -0.1691  0.4347  0.0153  -1.3207   0.0000   0.0000   0.0000   0.6176
  -1.900   0.4739   0.01039   0.00308  -0.1693  0.4302  0.0153  -1.2693   0.0000   0.0000   0.0000   0.6080
  -1.800   0.4866   0.01033   0.00295  -0.1695  0.4252  0.0153  -1.2173   0.0000   0.0000   0.0000   0.5990
  -1.700   0.4989   0.01030   0.00284  -0.1697  0.4192  0.0153  -1.1652   0.0000   0.0000   0.0000   0.5904
  -1.600   0.5113   0.01027   0.00275  -0.1698  0.4151  0.0154  -1.1127   0.0000   0.0000   0.0000   0.5823
  -1.500   0.5239   0.01021   0.00266  -0.1700  0.4137  0.0156  -1.0599   0.0000   0.0000   0.0000   0.5744
  -1.400   0.5362   0.01017   0.00259  -0.1701  0.4119  0.0160  -1.0080   0.0000   0.0000   0.0000   0.5670
  -1.300   0.5485   0.01013   0.00252  -0.1702  0.4096  0.0167  -0.9580   0.0000   0.0000   0.0000   0.5599
  -1.200   0.5608   0.01010   0.00246  -0.1703  0.4071  0.0201  -0.9695   0.0000   0.0000   0.0000   0.5531
  -1.100   0.5821   0.00933   0.00227  -0.1731  0.4035  0.2089  -0.9875   0.0000   0.0000   0.0000   0.5468
  -1.000   0.5945   0.00928   0.00234  -0.1734  0.4003  0.2524  -1.0004   0.0000   0.0000   0.0000   0.5409
  -0.900   0.6063   0.00930   0.00236  -0.1735  0.3968  0.2638  -1.0129   0.0000   0.0000   0.0000   0.5352
  -0.800   0.6179   0.00933   0.00240  -0.1735  0.3930  0.2731  -1.0253   0.0000   0.0000   0.0000   0.5297
  -0.700   0.6293   0.00938   0.00243  -0.1735  0.3886  0.2784  -1.0375   0.0000   0.0000   0.0000   0.5244
  -0.600   0.6407   0.00944   0.00241  -0.1734  0.3837  0.2759  -1.0495   0.0000   0.0000   0.0000   0.5193
  -0.500   0.6520   0.00951   0.00246  -0.1733  0.3793  0.2807  -1.0614   0.0000   0.0000   0.0000   0.5143
  -0.400   0.6637   0.00952   0.00248  -0.1733  0.3785  0.2841  -1.0739   0.0000   0.0000   0.0000   0.5095
  -0.300   0.6752   0.00954   0.00249  -0.1733  0.3775  0.2865  -1.0864   0.0000   0.0000   0.0000   0.5049
  -0.200   0.6867   0.00956   0.00251  -0.1732  0.3763  0.2882  -1.0989   0.0000   0.0000   0.0000   0.5004
  -0.100   0.6982   0.00959   0.00253  -0.1732  0.3749  0.2893  -1.1114   0.0000   0.0000   0.0000   0.4960
   0.000   0.7100   0.00960   0.00253  -0.1732  0.3733  0.2932  -1.1240   0.0000   0.0000   0.0000   0.4918
   0.100   0.7218   0.00960   0.00254  -0.1733  0.3715  0.2977  -1.1367   0.0000   0.0000   0.0000   0.4878
   0.200   0.7335   0.00962   0.00256  -0.1733  0.3697  0.3020  -1.1494   0.0000   0.0000   0.0000   0.4838
   0.300   0.7452   0.00964   0.00260  -0.1733  0.3677  0.3089  -1.1621   0.0000   0.0000   0.0000   0.4801
   0.400   0.7567   0.00968   0.00266  -0.1733  0.3656  0.3165  -1.1746   0.0000   0.0000   0.0000   0.4764
   0.500   0.7678   0.00974   0.00271  -0.1732  0.3635  0.3225  -1.1870   0.0000   0.0000   0.0000   0.4728
   0.600   0.7787   0.00982   0.00277  -0.1730  0.3613  0.3260  -1.1992   0.0000   0.0000   0.0000   0.4693
   0.700   0.7898   0.00988   0.00282  -0.1729  0.3589  0.3292  -1.2116   0.0000   0.0000   0.0000   0.4659
   0.800   0.8016   0.00990   0.00282  -0.1730  0.3564  0.3360  -1.2248   0.0000   0.0000   0.0000   0.4627
   0.900   0.8132   0.00994   0.00285  -0.1730  0.3535  0.3395  -1.2387   0.0000   0.0000   0.0000   0.4595
   1.000   0.8247   0.00999   0.00289  -0.1730  0.3504  0.3426  -1.2524   0.0000   0.0000   0.0000   0.4564
   1.100   0.8360   0.01006   0.00296  -0.1730  0.3473  0.3454  -1.2659   0.0000   0.0000   0.0000   0.4534
   1.200   0.8473   0.01015   0.00303  -0.1729  0.3442  0.3480  -1.2793   0.0000   0.0000   0.0000   0.4505
   1.300   0.8590   0.01016   0.00305  -0.1730  0.3438  0.3507  -1.2936   0.0000   0.0000   0.0000   0.4476
   1.400   0.8707   0.01017   0.00308  -0.1730  0.3433  0.3533  -1.3079   0.0000   0.0000   0.0000   0.4448
   1.500   0.8824   0.01018   0.00310  -0.1730  0.3427  0.3559  -1.3223   0.0000   0.0000   0.0000   0.4421
   1.600   0.8940   0.01020   0.00312  -0.1730  0.3420  0.3584  -1.3366   0.0000   0.0000   0.0000   0.4395
   1.700   0.9055   0.01022   0.00315  -0.1730  0.3411  0.3608  -1.3509   0.0000   0.0000   0.0000   0.4369
   1.800   0.9170   0.01024   0.00320  -0.1730  0.3402  0.3628  -1.3652   0.0000   0.0000   0.0000   0.4343
   1.900   0.9285   0.01027   0.00323  -0.1729  0.3393  0.3646  -1.3795   0.0000   0.0000   0.0000   0.4318
   2.000   0.9399   0.01030   0.00325  -0.1729  0.3383  0.3661  -1.3938   0.0000   0.0000   0.0000   0.4294
   2.100   0.9514   0.01033   0.00328  -0.1729  0.3373  0.3681  -1.4081   0.0000   0.0000   0.0000   0.4271
   2.200   0.9633   0.01034   0.00331  -0.1730  0.3363  0.3752  -1.4227   0.0000   0.0000   0.0000   0.4248
   2.300   0.9750   0.01036   0.00335  -0.1730  0.3352  0.3818  -1.4372   0.0000   0.0000   0.0000   0.4226
   2.400   0.9867   0.01039   0.00339  -0.1731  0.3341  0.3874  -1.4517   0.0000   0.0000   0.0000   0.4204
   2.500   0.9982   0.01042   0.00344  -0.1731  0.3329  0.3925  -1.4662   0.0000   0.0000   0.0000   0.4183
   2.600   1.0097   0.01045   0.00348  -0.1731  0.3317  0.3974  -1.4807   0.0000   0.0000   0.0000   0.4162
   2.700   1.0211   0.01049   0.00353  -0.1731  0.3306  0.4018  -1.4951   0.0000   0.0000   0.0000   0.4141
   2.800   1.0325   0.01054   0.00357  -0.1730  0.3294  0.4056  -1.5095   0.0000   0.0000   0.0000   0.4121
   2.900   1.0437   0.01059   0.00361  -0.1730  0.3281  0.4083  -1.5238   0.0000   0.0000   0.0000   0.4101
   3.000   1.0554   0.01063   0.00366  -0.1730  0.3268  0.4183  -1.5385   0.0000   0.0000   0.0000   0.4082
   3.100   1.0670   0.01067   0.00372  -0.1731  0.3255  0.4272  -1.5531   0.0000   0.0000   0.0000   0.4064
   3.200   1.0784   0.01071   0.00378  -0.1731  0.3241  0.4350  -1.5676   0.0000   0.0000   0.0000   0.4045
   3.300   1.0898   0.01077   0.00385  -0.1731  0.3226  0.4421  -1.5820   0.0000   0.0000   0.0000   0.4027
   3.400   1.1010   0.01084   0.00391  -0.1730  0.3209  0.4481  -1.5962   0.0000   0.0000   0.0000   0.4009
   3.600   1.1237   0.01098   0.00408  -0.1730  0.3173  0.4673  -1.6247   0.0000   0.0000   0.0000   0.3975
   3.700   1.1350   0.01107   0.00419  -0.1730  0.3154  0.4775  -1.6388   0.0000   0.0000   0.0000   0.3958
   3.800   1.1462   0.01117   0.00431  -0.1730  0.3135  0.4868  -1.6527   0.0000   0.0000   0.0000   0.3942
   3.900   1.1572   0.01130   0.00444  -0.1729  0.3116  0.4943  -1.6663   0.0000   0.0000   0.0000   0.3926
   4.000   1.1688   0.01137   0.00456  -0.1730  0.3104  0.5082  -1.6809   0.0000   0.0000   0.0000   0.3910
   4.100   1.1805   0.01139   0.00462  -0.1730  0.3101  0.5213  -1.6975   0.0000   0.0000   0.0000   0.3895
   4.200   1.1920   0.01141   0.00467  -0.1731  0.3098  0.5331  -1.7141   0.0000   0.0000   0.0000   0.3880
   4.300   1.2037   0.01143   0.00476  -0.1731  0.3095  0.5462  -1.7307   0.0000   0.0000   0.0000   0.3865
   4.400   1.2155   0.01144   0.00483  -0.1732  0.3091  0.5641  -1.7477   0.0000   0.0000   0.0000   0.3850
   4.500   1.2272   0.01145   0.00488  -0.1733  0.3086  0.5804  -1.7645   0.0000   0.0000   0.0000   0.3836
   4.600   1.2392   0.01145   0.00495  -0.1734  0.3080  0.6018  -1.7816   0.0000   0.0000   0.0000   0.3822
   4.700   1.2511   0.01146   0.00502  -0.1736  0.3073  0.6237  -1.7987   0.0000   0.0000   0.0000   0.3808
   4.900   1.2748   0.01144   0.00522  -0.1738  0.3060  0.7002  -1.8346   0.0000   0.0000   0.0000   0.3781
   5.000   1.2860   0.01146   0.00531  -0.1737  0.3054  0.7313  -1.8528   0.0000   0.0000   0.0000   0.3768
   5.100   1.2967   0.01145   0.00539  -0.1735  0.3046  0.7694  -1.8705   0.0000   0.0000   0.0000   0.3754
   5.200   1.3074   0.01149   0.00546  -0.1733  0.3038  0.7903  -1.8884   0.0000   0.0000   0.0000   0.3740
   5.300   1.3183   0.01153   0.00552  -0.1732  0.3028  0.8010  -1.9076   0.0000   0.0000   0.0000   0.3727
   5.400   1.3285   0.01154   0.00558  -0.1729  0.3019  0.8250  -1.9284   0.0000   0.0000   0.0000   0.3713
   5.500   1.3383   0.01155   0.00564  -0.1726  0.3009  0.8456  -1.9496   0.0000   0.0000   0.0000   0.3700
   5.600   1.3484   0.01158   0.00569  -0.1723  0.2999  0.8634  -1.9710   0.0000   0.0000   0.0000   0.3686
   5.700   1.3585   0.01161   0.00575  -0.1720  0.2988  0.8812  -1.9926   0.0000   0.0000   0.0000   0.3673
   5.800   1.3663   0.01160   0.00578  -0.1712  0.2978  0.9141  -2.0116   0.0000   0.0000   0.0000   0.3659
   5.900   1.3739   0.01160   0.00580  -0.1703  0.2967  0.9483  -2.0305   0.0000   0.0000   0.0000   0.3644
   6.000   1.3836   0.01162   0.00582  -0.1700  0.2953  1.0000  -2.0518   0.0000   0.0000   0.0000   0.3631
   6.100   1.3947   0.01169   0.00588  -0.1699  0.2937  1.0000  -2.0747   0.0000   0.0000   0.0000   0.3620
   6.200   1.4057   0.01177   0.00594  -0.1699  0.2921  1.0000  -2.0976   0.0000   0.0000   0.0000   0.3608
   6.300   1.4166   0.01185   0.00602  -0.1698  0.2905  1.0000  -2.1204   0.0000   0.0000   0.0000   0.3597
   6.400   1.4275   0.01195   0.00610  -0.1697  0.2888  1.0000  -2.1454   0.0000   0.0000   0.0000   0.3586
   6.500   1.4383   0.01207   0.00620  -0.1696  0.2871  1.0000  -2.1707   0.0000   0.0000   0.0000   0.3575
   6.600   1.4490   0.01219   0.00632  -0.1695  0.2854  1.0000  -2.1959   0.0000   0.0000   0.0000   0.3564
   6.700   1.4597   0.01233   0.00645  -0.1694  0.2836  1.0000  -2.2211   0.0000   0.0000   0.0000   0.3553
   6.800   1.4703   0.01249   0.00670  -0.1693  0.2817  1.0000  -2.2482   0.0000   0.0000   0.0000   0.3543
   6.900   1.4808   0.01268   0.00689  -0.1692  0.2795  1.0000  -2.2763   0.0000   0.0000   0.0000   0.3532
   7.000   1.4916   0.01281   0.00704  -0.1691  0.2782  1.0000  -2.3062   0.0000   0.0000   0.0000   0.3522
   7.100   1.5027   0.01284   0.00707  -0.1691  0.2778  1.0000  -2.3411   0.0000   0.0000   0.0000   0.3512
   7.200   1.5138   0.01286   0.00712  -0.1690  0.2774  1.0000  -2.3866   0.0000   0.0000   0.0000   0.3502
   7.300   1.5249   0.01289   0.00716  -0.1690  0.2769  1.0000  -2.4322   0.0000   0.0000   0.0000   0.3492
   7.400   1.5360   0.01293   0.00721  -0.1689  0.2764  1.0000  -2.4779   0.0000   0.0000   0.0000   0.3482
   7.500   1.5470   0.01297   0.00727  -0.1689  0.2757  1.0000  -2.5239   0.0000   0.0000   0.0000   0.3472
   7.600   1.5580   0.01300   0.00732  -0.1688  0.2749  1.0000  -2.5701   0.0000   0.0000   0.0000   0.3462
   7.700   1.5690   0.01304   0.00737  -0.1688  0.2738  1.0000  -2.6166   0.0000   0.0000   0.0000   0.3453
   7.800   1.5801   0.01306   0.00741  -0.1687  0.2725  1.0000  -2.6634   0.0000   0.0000   0.0000   0.3443
   7.900   1.5911   0.01309   0.00744  -0.1687  0.2707  1.0000  -2.7106   0.0000   0.0000   0.0000   0.3434
   8.000   1.6020   0.01311   0.00748  -0.1686  0.2687  1.0000  -2.7580   0.0000   0.0000   0.0000   0.3425
   8.100   1.6129   0.01315   0.00751  -0.1686  0.2664  1.0000  -2.8055   0.0000   0.0000   0.0000   0.3415
   8.200   1.6236   0.01321   0.00756  -0.1685  0.2640  1.0000  -2.8528   0.0000   0.0000   0.0000   0.3406
   8.300   1.6342   0.01328   0.00763  -0.1684  0.2618  1.0000  -2.9001   0.0000   0.0000   0.0000   0.3397
   8.400   1.6447   0.01337   0.00771  -0.1682  0.2596  1.0000  -2.9473   0.0000   0.0000   0.0000   0.3388
   8.500   1.6551   0.01347   0.00780  -0.1681  0.2572  1.0000  -2.9944   0.0000   0.0000   0.0000   0.3379
   8.600   1.6652   0.01360   0.00791  -0.1679  0.2544  1.0000  -3.0414   0.0000   0.0000   0.0000   0.3370
   8.700   1.6752   0.01375   0.00805  -0.1677  0.2512  1.0000  -3.0880   0.0000   0.0000   0.0000   0.3361
   8.800   1.6851   0.01393   0.00822  -0.1675  0.2482  1.0000  -3.1344   0.0000   0.0000   0.0000   0.3352
   8.900   1.6958   0.01399   0.00831  -0.1674  0.2473  1.0000  -3.1834   0.0000   0.0000   0.0000   0.3344
   9.000   1.7066   0.01403   0.00842  -0.1673  0.2466  1.0000  -3.2323   0.0000   0.0000   0.0000   0.3335
   9.100   1.7174   0.01408   0.00850  -0.1673  0.2457  1.0000  -3.2819   0.0000   0.0000   0.0000   0.3327
   9.200   1.7281   0.01414   0.00858  -0.1672  0.2445  1.0000  -3.3318   0.0000   0.0000   0.0000   0.3319
   9.300   1.7388   0.01420   0.00867  -0.1671  0.2431  1.0000  -3.3818   0.0000   0.0000   0.0000   0.3310
   9.400   1.7493   0.01427   0.00875  -0.1670  0.2413  1.0000  -3.4324   0.0000   0.0000   0.0000   0.3302
   9.500   1.7598   0.01435   0.00884  -0.1669  0.2391  1.0000  -3.4908   0.0000   0.0000   0.0000   0.3294
   9.600   1.7702   0.01443   0.00894  -0.1667  0.2366  1.0000  -3.5493   0.0000   0.0000   0.0000   0.3286
   9.700   1.7803   0.01453   0.00903  -0.1666  0.2337  1.0000  -3.6075   0.0000   0.0000   0.0000   0.3278
   9.800   1.7903   0.01466   0.00914  -0.1664  0.2305  1.0000  -3.6656   0.0000   0.0000   0.0000   0.3270
   9.900   1.8000   0.01480   0.00927  -0.1661  0.2268  1.0000  -3.7234   0.0000   0.0000   0.0000   0.3262
  10.000   1.8096   0.01497   0.00941  -0.1659  0.2224  1.0000  -3.7806   0.0000   0.0000   0.0000   0.3253
  10.100   1.8192   0.01513   0.00957  -0.1656  0.2186  1.0000  -3.8385   0.0000   0.0000   0.0000   0.3245
  10.200   1.8295   0.01522   0.00968  -0.1655  0.2165  1.0000  -3.8987   0.0000   0.0000   0.0000   0.3238
  10.300   1.8395   0.01533   0.00981  -0.1653  0.2133  1.0000  -3.9586   0.0000   0.0000   0.0000   0.3230
  10.400   1.8492   0.01547   0.00994  -0.1651  0.2085  1.0000  -4.0178   0.0000   0.0000   0.0000   0.3222
  10.500   1.8583   0.01568   0.01011  -0.1648  0.2026  1.0000  -4.0757   0.0000   0.0000   0.0000   0.3214
  10.600   1.8668   0.01594   0.01032  -0.1644  0.1956  1.0000  -4.1321   0.0000   0.0000   0.0000   0.3206
  10.700   1.8760   0.01615   0.01051  -0.1641  0.1905  1.0000  -4.1904   0.0000   0.0000   0.0000   0.3198
  10.800   1.8854   0.01631   0.01068  -0.1639  0.1865  1.0000  -4.2499   0.0000   0.0000   0.0000   0.3191
  10.900   1.8943   0.01654   0.01089  -0.1635  0.1805  1.0000  -4.3081   0.0000   0.0000   0.0000   0.3183
  11.000   1.9021   0.01686   0.01116  -0.1631  0.1730  1.0000  -4.3635   0.0000   0.0000   0.0000   0.3175
  11.100   1.9100   0.01720   0.01145  -0.1626  0.1654  1.0000  -4.4190   0.0000   0.0000   0.0000   0.3167
  11.200   1.9186   0.01744   0.01168  -0.1622  0.1603  1.0000  -4.4769   0.0000   0.0000   0.0000   0.3160
  11.300   1.9263   0.01776   0.01197  -0.1617  0.1537  1.0000  -4.5326   0.0000   0.0000   0.0000   0.3152
  11.400   1.9329   0.01821   0.01239  -0.1611  0.1458  1.0000  -4.5844   0.0000   0.0000   0.0000   0.3144
  11.500   1.9407   0.01852   0.01270  -0.1606  0.1400  1.0000  -4.6402   0.0000   0.0000   0.0000   0.3136
  11.600   1.9484   0.01882   0.01299  -0.1601  0.1350  1.0000  -4.7238   0.0000   0.0000   0.0000   0.3128
  11.700   1.9552   0.01921   0.01334  -0.1595  0.1291  1.0000  -4.8211   0.0000   0.0000   0.0000   0.3120
  11.800   1.9612   0.01968   0.01377  -0.1588  0.1222  1.0000  -4.9145   0.0000   0.0000   0.0000   0.3112
  11.900   1.9686   0.02000   0.01409  -0.1582  0.1177  1.0000  -5.0162   0.0000   0.0000   0.0000   0.3104
  12.000   1.9757   0.02033   0.01441  -0.1576  0.1135  1.0000  -5.1173   0.0000   0.0000   0.0000   0.3097
  12.100   1.9818   0.02074   0.01480  -0.1569  0.1086  1.0000  -5.2137   0.0000   0.0000   0.0000   0.3089
  12.200   1.9869   0.02124   0.01525  -0.1561  0.1029  1.0000  -5.3048   0.0000   0.0000   0.0000   0.3080
  12.300   1.9929   0.02163   0.01565  -0.1553  0.0978  1.0000  -5.4018   0.0000   0.0000   0.0000   0.3072
  12.400   1.9991   0.02200   0.01602  -0.1546  0.0937  1.0000  -5.5003   0.0000   0.0000   0.0000   0.3064
  12.500   2.0034   0.02251   0.01649  -0.1537  0.0885  1.0000  -5.5896   0.0000   0.0000   0.0000   0.3056
  12.600   2.0064   0.02311   0.01704  -0.1525  0.0824  1.0000  -5.6715   0.0000   0.0000   0.0000   0.3047
  12.700   2.0112   0.02354   0.01747  -0.1516  0.0781  1.0000  -5.7640   0.0000   0.0000   0.0000   0.3039
  12.800   2.0155   0.02399   0.01792  -0.1506  0.0744  1.0000  -5.8545   0.0000   0.0000   0.0000   0.3031
  12.900   2.0178   0.02454   0.01845  -0.1493  0.0705  1.0000  -5.9339   0.0000   0.0000   0.0000   0.3021
  13.000   2.0183   0.02514   0.01902  -0.1478  0.0666  1.0000  -6.0035   0.0000   0.0000   0.0000   0.3012
  13.100   2.0187   0.02568   0.01955  -0.1461  0.0626  1.0000  -6.0720   0.0000   0.0000   0.0000   0.3001
  13.200   2.0213   0.02607   0.01998  -0.1448  0.0611  1.0000  -6.1548   0.0000   0.0000   0.0000   0.2992
  13.300   2.0228   0.02652   0.02045  -0.1434  0.0593  1.0000  -6.2314   0.0000   0.0000   0.0000   0.2983
  13.400   2.0238   0.02703   0.02097  -0.1419  0.0575  1.0000  -6.3046   0.0000   0.0000   0.0000   0.2973
  13.500   2.0238   0.02760   0.02155  -0.1403  0.0557  1.0000  -6.3725   0.0000   0.0000   0.0000   0.2963
  13.600   2.0232   0.02823   0.02219  -0.1387  0.0539  1.0000  -6.4371   0.0000   0.0000   0.0000   0.2954
  13.700   2.0224   0.02890   0.02286  -0.1372  0.0519  1.0000  -6.4998   0.0000   0.0000   0.0000   0.2944
  13.800   2.0216   0.02958   0.02356  -0.1357  0.0497  1.0000  -6.5628   0.0000   0.0000   0.0000   0.2935
  13.900   2.0206   0.03030   0.02431  -0.1342  0.0475  1.0000  -6.6236   0.0000   0.0000   0.0000   0.2926
  14.000   2.0224   0.03084   0.02489  -0.1331  0.0470  1.0000  -6.7034   0.0000   0.0000   0.0000   0.2918
  14.100   2.0231   0.03145   0.02554  -0.1319  0.0464  1.0000  -6.7767   0.0000   0.0000   0.0000   0.2910
  14.200   2.0223   0.03215   0.02628  -0.1306  0.0458  1.0000  -6.8410   0.0000   0.0000   0.0000   0.2901
  14.300   2.0220   0.03287   0.02704  -0.1294  0.0451  1.0000  -6.9080   0.0000   0.0000   0.0000   0.2894
  14.400   2.0220   0.03361   0.02782  -0.1284  0.0443  1.0000  -6.9773   0.0000   0.0000   0.0000   0.2886
  14.500   2.0220   0.03441   0.02865  -0.1274  0.0435  1.0000  -7.0461   0.0000   0.0000   0.0000   0.2879
  14.600   2.0215   0.03528   0.02955  -0.1264  0.0426  1.0000  -7.1123   0.0000   0.0000   0.0000   0.2872
  14.700   2.0205   0.03623   0.03053  -0.1255  0.0417  1.0000  -7.1743   0.0000   0.0000   0.0000   0.2866
  14.800   2.0175   0.03738   0.03171  -0.1246  0.0409  1.0000  -7.2232   0.0000   0.0000   0.0000   0.2860
  14.900   2.0127   0.03874   0.03311  -0.1237  0.0402  1.0000  -7.2591   0.0000   0.0000   0.0000   0.2855
  15.000   2.0091   0.04008   0.03448  -0.1231  0.0394  1.0000  -7.3030   0.0000   0.0000   0.0000   0.2851
  15.100   2.0055   0.04150   0.03594  -0.1226  0.0386  1.0000  -7.3459   0.0000   0.0000   0.0000   0.2847
  15.200   1.9995   0.04331   0.03781  -0.1224  0.0379  1.0000  -7.3706   0.0000   0.0000   0.0000   0.2845
  15.300   1.9947   0.04507   0.03964  -0.1222  0.0369  1.0000  -7.4005   0.0000   0.0000   0.0000   0.2844
  15.400   1.9881   0.04722   0.04185  -0.1225  0.0362  1.0000  -7.4175   0.0000   0.0000   0.0000   0.2844
  15.500   1.9819   0.04937   0.04407  -0.1227  0.0355  1.0000  -7.4373   0.0000   0.0000   0.0000   0.2845
  15.600   1.9755   0.05162   0.04638  -0.1231  0.0349  1.0000  -7.4546   0.0000   0.0000   0.0000   0.2847
  15.700   1.9669   0.05434   0.04917  -0.1239  0.0345  1.0000  -7.4547   0.0000   0.0000   0.0000   0.2851
  15.800   1.9578   0.05719   0.05210  -0.1247  0.0342  1.0000  -7.4503   0.0000   0.0000   0.0000   0.2855
  15.900   1.9522   0.05950   0.05447  -0.1253  0.0341  1.0000  -7.4729   0.0000   0.0000   0.0000   0.2858
  16.000   1.9449   0.06212   0.05717  -0.1261  0.0340  1.0000  -7.4818   0.0000   0.0000   0.0000   0.2862
  16.100   1.9364   0.06493   0.06005  -0.1269  0.0340  1.0000  -7.4820   0.0000   0.0000   0.0000   0.2866
  16.200   1.9275   0.06772   0.06291  -0.1277  0.0339  1.0000  -7.4793   0.0000   0.0000   0.0000   0.2871
  16.300   1.9148   0.07110   0.06637  -0.1287  0.0339  1.0000  -7.4466   0.0000   0.0000   0.0000   0.2878
  16.400   1.9046   0.07402   0.06936  -0.1295  0.0339  1.0000  -7.4334   0.0000   0.0000   0.0000   0.2883
  16.500   1.8905   0.07770   0.07312  -0.1306  0.0339  1.0000  -7.3885   0.0000   0.0000   0.0000   0.2892
  16.600   1.8805   0.08067   0.07615  -0.1314  0.0338  1.0000  -7.3750   0.0000   0.0000   0.0000   0.2898
  16.700   1.8673   0.08423   0.07978  -0.1325  0.0338  1.0000  -7.3357   0.0000   0.0000   0.0000   0.2906
  16.800   1.8558   0.08750   0.08312  -0.1335  0.0338  1.0000  -7.3089   0.0000   0.0000   0.0000   0.2914
  16.900   1.8471   0.09028   0.08596  -0.1343  0.0337  1.0000  -7.3039   0.0000   0.0000   0.0000   0.2919
  17.000   1.8357   0.09358   0.08932  -0.1354  0.0337  1.0000  -7.2760   0.0000   0.0000   0.0000   0.2927
  17.100   1.8240   0.09698   0.09279  -0.1366  0.0337  1.0000  -7.2444   0.0000   0.0000   0.0000   0.2936
  17.200   1.8169   0.09957   0.09543  -0.1375  0.0336  1.0000  -7.2495   0.0000   0.0000   0.0000   0.2941
  17.300   1.8108   0.10202   0.09792  -0.1383  0.0335  1.0000  -7.2612   0.0000   0.0000   0.0000   0.2946
  17.400   1.8044   0.10451   0.10046  -0.1392  0.0334  1.0000  -7.2710   0.0000   0.0000   0.0000   0.2951
  17.500   1.7928   0.10804   0.10405  -0.1406  0.0333  1.0000  -7.2349   0.0000   0.0000   0.0000   0.2962
  17.600   1.7867   0.11053   0.10660  -0.1416  0.0332  1.0000  -7.2451   0.0000   0.0000   0.0000   0.2968
  17.700   1.7821   0.11275   0.10886  -0.1424  0.0331  1.0000  -7.2670   0.0000   0.0000   0.0000   0.2972
  17.800   1.7783   0.11486   0.11100  -0.1432  0.0329  1.0000  -7.2944   0.0000   0.0000   0.0000   0.2976
  17.900   1.7743   0.11697   0.11316  -0.1440  0.0327  1.0000  -7.3209   0.0000   0.0000   0.0000   0.2980
  18.000   1.7699   0.11915   0.11538  -0.1449  0.0325  1.0000  -7.3436   0.0000   0.0000   0.0000   0.2984
  18.100   1.7613   0.12220   0.11848  -0.1463  0.0324  1.0000  -7.3276   0.0000   0.0000   0.0000   0.2994
  18.200   1.7557   0.12466   0.12098  -0.1474  0.0322  1.0000  -7.3372   0.0000   0.0000   0.0000   0.3000
  18.300   1.7519   0.12674   0.12310  -0.1483  0.0320  1.0000  -7.3633   0.0000   0.0000   0.0000   0.3005
  18.400   1.7492   0.12865   0.12505  -0.1491  0.0317  1.0000  -7.3975   0.0000   0.0000   0.0000   0.3008
  18.500   1.7465   0.13054   0.12696  -0.1499  0.0314  1.0000  -7.4326   0.0000   0.0000   0.0000   0.3012
  18.600   1.7438   0.13243   0.12889  -0.1508  0.0311  1.0000  -7.4666   0.0000   0.0000   0.0000   0.3015
  18.700   1.7408   0.13437   0.13086  -0.1517  0.0308  1.0000  -7.4979   0.0000   0.0000   0.0000   0.3019
  18.800   1.7374   0.13632   0.13284  -0.1527  0.0306  1.0000  -7.5245   0.0000   0.0000   0.0000   0.3024
  18.900   1.7302   0.13892   0.13549  -0.1541  0.0304  1.0000  -7.5140   0.0000   0.0000   0.0000   0.3034
  19.000   1.7257   0.14100   0.13761  -0.1553  0.0302  1.0000  -7.5288   0.0000   0.0000   0.0000   0.3041
  19.100   1.7231   0.14277   0.13940  -0.1562  0.0299  1.0000  -7.5605   0.0000   0.0000   0.0000   0.3045
  19.200   1.7210   0.14445   0.14110  -0.1571  0.0295  1.0000  -7.5973   0.0000   0.0000   0.0000   0.3049
  19.300   1.7191   0.14612   0.14279  -0.1580  0.0292  1.0000  -7.6356   0.0000   0.0000   0.0000   0.3052
  19.400   1.7172   0.14781   0.14450  -0.1589  0.0288  1.0000  -7.6738   0.0000   0.0000   0.0000   0.3056
  19.500   1.7154   0.14951   0.14621  -0.1598  0.0284  1.0000  -7.7133   0.0000   0.0000   0.0000   0.3060
  19.600   1.7135   0.15126   0.14798  -0.1608  0.0280  1.0000  -7.7510   0.0000   0.0000   0.0000   0.3064
  19.700   1.7113   0.15311   0.14985  -0.1618  0.0277  1.0000  -7.7848   0.0000   0.0000   0.0000   0.3068
  19.800   1.7085   0.15508   0.15184  -0.1628  0.0273  1.0000  -7.8136   0.0000   0.0000   0.0000   0.3073
  19.900   1.7028   0.15773   0.15453  -0.1643  0.0270  1.0000  -7.8107   0.0000   0.0000   0.0000   0.3083
  20.000   1.6974   0.16033   0.15716  -0.1658  0.0267  1.0000  -7.8110   0.0000   0.0000   0.0000   0.3092
  20.100   1.6945   0.16240   0.15926  -0.1669  0.0263  1.0000  -7.8366   0.0000   0.0000   0.0000   0.3098
  20.200   1.6926   0.16430   0.16118  -0.1680  0.0258  1.0000  -7.8716   0.0000   0.0000   0.0000   0.3102
  20.300   1.6910   0.16615   0.16305  -0.1689  0.0253  1.0000  -7.9092   0.0000   0.0000   0.0000   0.3106
  20.400   1.6895   0.16799   0.16491  -0.1699  0.0248  1.0000  -7.9473   0.0000   0.0000   0.0000   0.3110
  20.500   1.6880   0.16984   0.16678  -0.1709  0.0243  1.0000  -7.9849   0.0000   0.0000   0.0000   0.3114
  20.600   1.6864   0.17171   0.16868  -0.1718  0.0238  1.0000  -8.0216   0.0000   0.0000   0.0000   0.3118
  20.700   1.6847   0.17362   0.17061  -0.1729  0.0233  1.0000  -8.0566   0.0000   0.0000   0.0000   0.3123
  20.800   1.6841   0.17532   0.17234  -0.1737  0.0230  1.0000  -8.1041   0.0000   0.0000   0.0000   0.3125
  20.900   1.6845   0.17684   0.17389  -0.1745  0.0229  1.0000  -8.1632   0.0000   0.0000   0.0000   0.3127
  21.000   1.6845   0.17846   0.17553  -0.1753  0.0228  1.0000  -8.2183   0.0000   0.0000   0.0000   0.3129
  21.100   1.6830   0.18042   0.17754  -0.1764  0.0227  1.0000  -8.2571   0.0000   0.0000   0.0000   0.3133
  21.200   1.6785   0.18314   0.18030  -0.1779  0.0227  1.0000  -8.2618   0.0000   0.0000   0.0000   0.3143
  21.300   1.6779   0.18495   0.18214  -0.1788  0.0226  1.0000  -8.3093   0.0000   0.0000   0.0000   0.3146
  21.400   1.6781   0.18656   0.18377  -0.1796  0.0224  1.0000  -8.3664   0.0000   0.0000   0.0000   0.3148
  21.500   1.6787   0.18807   0.18532  -0.1803  0.0221  1.0000  -8.4277   0.0000   0.0000   0.0000   0.3149
  21.600   1.6794   0.18957   0.18683  -0.1811  0.0218  1.0000  -8.4900   0.0000   0.0000   0.0000   0.3150
  21.700   1.6799   0.19109   0.18838  -0.1818  0.0215  1.0000  -8.5505   0.0000   0.0000   0.0000   0.3151
  21.800   1.6802   0.19268   0.18999  -0.1826  0.0211  1.0000  -8.6074   0.0000   0.0000   0.0000   0.3153
  21.900   1.6801   0.19437   0.19170  -0.1835  0.0206  1.0000  -8.6588   0.0000   0.0000   0.0000   0.3155
  22.000   1.6794   0.19621   0.19355  -0.1844  0.0199  1.0000  -8.7034   0.0000   0.0000   0.0000   0.3158
  22.100   1.6779   0.19827   0.19562  -0.1855  0.0192  1.0000  -8.7371   0.0000   0.0000   0.0000   0.3162
  22.200   1.6750   0.20069   0.19804  -0.1867  0.0184  1.0000  -8.7540   0.0000   0.0000   0.0000   0.3169
  22.300   1.6697   0.20375   0.20112  -0.1884  0.0176  1.0000  -8.7425   0.0000   0.0000   0.0000   0.3180
  22.400   1.6621   0.20749   0.20489  -0.1903  0.0171  1.0000  -8.7042   0.0000   0.0000   0.0000   0.3195
  22.500   1.6564   0.21075   0.20815  -0.1920  0.0160  1.0000  -8.6833   0.0000   0.0000   0.0000   0.3206
  22.600   1.6505   0.21408   0.21146  -0.1937  0.0140  1.0000  -8.6520   0.0000   0.0000   0.0000   0.3219
  22.700   1.6439   0.21759   0.21493  -0.1955  0.0107  1.0000  -8.5963   0.0000   0.0000   0.0000   0.3232
  22.800   1.6353   0.22172   0.21903  -0.1976  0.0087  1.0000  -8.5398   0.0000   0.0000   0.0000   0.3249
  22.900   1.6264   0.22604   0.22337  -0.1997  0.0077  1.0000  -8.4794   0.0000   0.0000   0.0000   0.3267
  23.000   1.6172   0.23055   0.22791  -0.2019  0.0070  1.0000  -8.4113   0.0000   0.0000   0.0000   0.3285
  23.100   1.6090   0.23478   0.23215  -0.2038  0.0058  1.0000  -8.3454   0.0000   0.0000   0.0000   0.3302
  23.200   1.6014   0.23885   0.23622  -0.2057  0.0049  1.0000  -8.2869   0.0000   0.0000   0.0000   0.3318
  23.300   1.5938   0.24298   0.24037  -0.2076  0.0041  1.0000  -8.2242   0.0000   0.0000   0.0000   0.3334
  23.400   1.5852   0.24752   0.24495  -0.2096  0.0032  1.0000  -8.1276   0.0000   0.0000   0.0000   0.3351
  23.500   1.5756   0.25243   0.24992  -0.2116  0.0031  1.0000  -8.0421   0.0000   0.0000   0.0000   0.3371


