xflr5 v6.61

 Calculated polar for: S1223

 1 1 Reynolds number fixed          Mach number fixed         

 xtrf =   1.000 (top)        1.000 (bottom)
 Mach =   0.000     Re =     0.450 e 6     Ncrit =   9.000

  alpha     CL        CD       CDp       Cm    Top Xtr Bot Xtr   Cpmin    Chinge    XCp    
 ------- -------- --------- --------- -------- ------- ------- -------- --------- ---------
 -10.000  -0.0612   0.13539   0.13283  -0.0591  0.9757  0.0169  -1.0935   0.0000   0.0000   0.0000  -0.8011
  -9.900  -0.0547   0.13406   0.13150  -0.0604  0.9749  0.0169  -1.0928   0.0000   0.0000   0.0000  -0.9497
  -9.800  -0.0479   0.13273   0.13016  -0.0617  0.9742  0.0169  -1.0921   0.0000   0.0000   0.0000  -1.1460
  -9.700  -0.0411   0.13139   0.12883  -0.0631  0.9735  0.0169  -1.0914   0.0000   0.0000   0.0000  -1.4121
  -9.600  -0.0340   0.13006   0.12749  -0.0645  0.9730  0.0169  -1.0907   0.0000   0.0000   0.0000  -1.7951
  -9.500  -0.0269   0.12872   0.12615  -0.0659  0.9725  0.0170  -1.0900   0.0000   0.0000   0.0000  -2.3955
  -9.400  -0.0195   0.12737   0.12480  -0.0674  0.9720  0.0170  -1.0892   0.0000   0.0000   0.0000  -3.4666
  -9.300  -0.0120   0.12603   0.12345  -0.0690  0.9716  0.0170  -1.0884   0.0000   0.0000   0.0000  -5.9154
  -9.200  -0.0043   0.12466   0.12209  -0.0705  0.9713  0.0170  -1.0875   0.0000   0.0000   0.0000  -17.3050
  -9.100  -0.0056   0.12390   0.12134  -0.0694  0.9678  0.0170  -1.0904   0.0000   0.0000   0.0000  -12.9950
  -9.000  -0.0005   0.12270   0.12015  -0.0702  0.9662  0.0170  -1.0906   0.0000   0.0000   0.0000  -139.2707
  -8.900   0.0055   0.12143   0.11888  -0.0713  0.9650  0.0170  -1.0903   0.0000   0.0000   0.0000  13.9902
  -8.800   0.0122   0.12012   0.11757  -0.0725  0.9640  0.0170  -1.0899   0.0000   0.0000   0.0000   6.6016
  -8.700   0.0192   0.11879   0.11624  -0.0738  0.9630  0.0170  -1.0893   0.0000   0.0000   0.0000   4.3445
  -8.600   0.0266   0.11743   0.11488  -0.0752  0.9622  0.0170  -1.0887   0.0000   0.0000   0.0000   3.2642
  -8.500   0.0342   0.11606   0.11351  -0.0767  0.9615  0.0170  -1.0879   0.0000   0.0000   0.0000   2.6347
  -8.400   0.0421   0.11467   0.11212  -0.0783  0.9609  0.0170  -1.0870   0.0000   0.0000   0.0000   2.2246
  -8.300   0.0501   0.11328   0.11073  -0.0799  0.9603  0.0170  -1.0861   0.0000   0.0000   0.0000   1.9393
  -8.200   0.0583   0.11188   0.10932  -0.0815  0.9598  0.0170  -1.0852   0.0000   0.0000   0.0000   1.7297
  -8.100   0.0666   0.11047   0.10792  -0.0831  0.9593  0.0170  -1.0843   0.0000   0.0000   0.0000   1.5688
  -8.000   0.0632   0.10993   0.10739  -0.0814  0.9546  0.0170  -1.0886   0.0000   0.0000   0.0000   1.6110
  -7.900   0.0674   0.10882   0.10629  -0.0819  0.9523  0.0171  -1.0895   0.0000   0.0000   0.0000   1.5312
  -7.800   0.0734   0.10758   0.10506  -0.0828  0.9506  0.0171  -1.0897   0.0000   0.0000   0.0000   1.4392
  -7.700   0.0802   0.10629   0.10377  -0.0840  0.9492  0.0171  -1.0896   0.0000   0.0000   0.0000   1.3526
  -7.600   0.0876   0.10496   0.10243  -0.0853  0.9481  0.0171  -1.0892   0.0000   0.0000   0.0000   1.2750
  -7.500   0.0953   0.10358   0.10106  -0.0868  0.9470  0.0171  -1.0885   0.0000   0.0000   0.0000   1.2061
  -7.400   0.1035   0.10218   0.09966  -0.0883  0.9461  0.0171  -1.0877   0.0000   0.0000   0.0000   1.1452
  -7.300   0.1120   0.10075   0.09823  -0.0899  0.9453  0.0171  -1.0868   0.0000   0.0000   0.0000   1.0913
  -7.200   0.1209   0.09930   0.09678  -0.0916  0.9445  0.0171  -1.0857   0.0000   0.0000   0.0000   1.0435
  -7.100   0.1152   0.09898   0.09648  -0.0892  0.9383  0.0171  -1.0913   0.0000   0.0000   0.0000   1.0605
  -7.000   0.1193   0.09790   0.09540  -0.0896  0.9352  0.0171  -1.0925   0.0000   0.0000   0.0000   1.0351
  -6.900   0.1256   0.09663   0.09414  -0.0905  0.9330  0.0171  -1.0927   0.0000   0.0000   0.0000   1.0028
  -6.800   0.1329   0.09530   0.09281  -0.0918  0.9312  0.0171  -1.0925   0.0000   0.0000   0.0000   0.9705
  -6.700   0.1408   0.09392   0.09143  -0.0931  0.9296  0.0171  -1.0922   0.0000   0.0000   0.0000   0.9396
  -6.600   0.1491   0.09251   0.09002  -0.0946  0.9281  0.0171  -1.0917   0.0000   0.0000   0.0000   0.9110
  -6.500   0.1577   0.09108   0.08859  -0.0962  0.9269  0.0171  -1.0912   0.0000   0.0000   0.0000   0.8845
  -6.400   0.1503   0.09095   0.08848  -0.0934  0.9185  0.0171  -1.0978   0.0000   0.0000   0.0000   0.8959
  -6.300   0.1542   0.08990   0.08743  -0.0936  0.9145  0.0171  -1.0995   0.0000   0.0000   0.0000   0.8807
  -6.200   0.1599   0.08870   0.08621  -0.0944  0.9114  0.0171  -1.1005   0.0000   0.0000   0.0000   0.8625
  -6.100   0.1664   0.08742   0.08494  -0.0953  0.9089  0.0171  -1.1012   0.0000   0.0000   0.0000   0.8439
  -6.000   0.1742   0.08605   0.08356  -0.0966  0.9068  0.0171  -1.1013   0.0000   0.0000   0.0000   0.8244
  -5.900   0.1688   0.08581   0.08334  -0.0943  0.8972  0.0171  -1.1074   0.0000   0.0000   0.0000   0.8290
  -5.800   0.1731   0.08473   0.08226  -0.0947  0.8920  0.0171  -1.1093   0.0000   0.0000   0.0000   0.8161
  -5.500   0.1938   0.08092   0.07843  -0.0978  0.8778  0.0171  -1.1121   0.0000   0.0000   0.0000   0.7711
  -5.400   0.2012   0.07963   0.07712  -0.0990  0.8704  0.0172  -1.1130   0.0000   0.0000   0.0000   0.7575
  -5.300   0.2145   0.07788   0.07534  -0.1018  0.8643  0.0172  -1.1116   0.0000   0.0000   0.0000   0.7388
  -5.200   0.2327   0.07579   0.07321  -0.1059  0.8582  0.0172  -1.1082   0.0000   0.0000   0.0000   0.7180
  -5.100   0.2485   0.07393   0.07129  -0.1093  0.8466  0.0172  -1.1058   0.0000   0.0000   0.0000   0.7019
  -5.000   0.2773   0.07114   0.06841  -0.1161  0.8340  0.0172  -1.0980   0.0000   0.0000   0.0000   0.6798
  -4.900   0.3053   0.06853   0.06568  -0.1228  0.8143  0.0172  -1.0909   0.0000   0.0000   0.0000   0.6623
  -4.800   0.3293   0.06630   0.06329  -0.1283  0.7881  0.0172  -1.0857   0.0000   0.0000   0.0000   0.6491
  -4.700   0.3283   0.06233   0.05924  -0.1307  0.7731  0.0178  -1.2657   0.0000   0.0000   0.0000   0.6574
  -4.600   0.3343   0.06097   0.05774  -0.1318  0.7456  0.0180  -1.2817   0.0000   0.0000   0.0000   0.6535
  -4.500   0.3368   0.06013   0.05677  -0.1318  0.7194  0.0182  -1.2861   0.0000   0.0000   0.0000   0.6502
  -4.400   0.3373   0.05951   0.05602  -0.1312  0.6960  0.0183  -1.2882   0.0000   0.0000   0.0000   0.6474
  -4.200   0.3370   0.05838   0.05471  -0.1296  0.6560  0.0185  -1.2893   0.0000   0.0000   0.0000   0.6423
  -4.000   0.3389   0.05719   0.05338  -0.1284  0.6256  0.0187  -1.2824   0.0000   0.0000   0.0000   0.6361
  -3.900   0.3408   0.05659   0.05271  -0.1280  0.6120  0.0188  -1.2732   0.0000   0.0000   0.0000   0.6324
  -3.800   0.3423   0.05602   0.05208  -0.1275  0.6002  0.0189  -1.2647   0.0000   0.0000   0.0000   0.6289
  -3.700   0.3463   0.05529   0.05132  -0.1276  0.5911  0.0190  -1.2529   0.0000   0.0000   0.0000   0.6245
  -3.600   0.3504   0.05457   0.05057  -0.1277  0.5818  0.0191  -1.2414   0.0000   0.0000   0.0000   0.6202
  -3.500   0.3542   0.05388   0.04982  -0.1278  0.5726  0.0192  -1.2310   0.0000   0.0000   0.0000   0.6162
  -3.400   0.3582   0.05318   0.04907  -0.1279  0.5640  0.0194  -1.2210   0.0000   0.0000   0.0000   0.6123
  -3.300   0.3645   0.05233   0.04821  -0.1286  0.5583  0.0195  -1.2075   0.0000   0.0000   0.0000   0.6076
  -3.200   0.3711   0.05148   0.04734  -0.1293  0.5522  0.0197  -1.1949   0.0000   0.0000   0.0000   0.6031
  -3.100   0.3778   0.05062   0.04645  -0.1302  0.5460  0.0199  -1.1831   0.0000   0.0000   0.0000   0.5987
  -3.000   0.3848   0.04975   0.04554  -0.1311  0.5398  0.0200  -1.1725   0.0000   0.0000   0.0000   0.5946
  -2.900   0.3920   0.04888   0.04462  -0.1321  0.5332  0.0202  -1.1629   0.0000   0.0000   0.0000   0.5905
  -2.800   0.4006   0.04791   0.04362  -0.1335  0.5269  0.0204  -1.1532   0.0000   0.0000   0.0000   0.5863
  -2.700   0.4118   0.04677   0.04248  -0.1355  0.5236  0.0206  -1.1426   0.0000   0.0000   0.0000   0.5819
  -2.600   0.4240   0.04558   0.04127  -0.1378  0.5197  0.0209  -1.1333   0.0000   0.0000   0.0000   0.5776
  -2.500   0.4377   0.04430   0.03997  -0.1405  0.5154  0.0212  -1.1253   0.0000   0.0000   0.0000   0.5733
  -2.400   0.4532   0.04293   0.03856  -0.1437  0.5108  0.0215  -1.1188   0.0000   0.0000   0.0000   0.5692
  -2.300   0.7584   0.01960   0.01354  -0.2327  0.4903  0.0182  -1.7197   0.0000   0.0000   0.0000   0.5584
  -2.200   0.7755   0.01935   0.01322  -0.2340  0.4879  0.0179  -1.6545   0.0000   0.0000   0.0000   0.5531
  -2.100   0.7936   0.01904   0.01284  -0.2356  0.4849  0.0177  -1.5887   0.0000   0.0000   0.0000   0.5480
  -2.000   0.8139   0.01862   0.01231  -0.2377  0.4813  0.0175  -1.5253   0.0000   0.0000   0.0000   0.5430
  -1.900   0.8408   0.01789   0.01139  -0.2415  0.4772  0.0174  -1.4780   0.0000   0.0000   0.0000   0.5379
  -1.800   0.9104   0.01523   0.00809  -0.2551  0.4705  0.0199  -1.5060   0.0000   0.0000   0.0000   0.5309
  -1.700   0.9253   0.01515   0.00796  -0.2560  0.4665  0.0213  -1.4302   0.0000   0.0000   0.0000   0.5271
  -1.600   0.9381   0.01517   0.00793  -0.2564  0.4621  0.0226  -1.3553   0.0000   0.0000   0.0000   0.5235
  -1.500   0.9508   0.01521   0.00792  -0.2567  0.4573  0.0240  -1.2902   0.0000   0.0000   0.0000   0.5200
  -1.400   0.9643   0.01522   0.00789  -0.2572  0.4532  0.0254  -1.3030   0.0000   0.0000   0.0000   0.5166
  -1.300   0.9780   0.01515   0.00780  -0.2576  0.4518  0.0265  -1.3164   0.0000   0.0000   0.0000   0.5131
  -1.200   0.9919   0.01508   0.00771  -0.2582  0.4501  0.0273  -1.3299   0.0000   0.0000   0.0000   0.5098
  -1.100   1.0058   0.01501   0.00762  -0.2587  0.4480  0.0280  -1.3434   0.0000   0.0000   0.0000   0.5065
  -1.000   1.0195   0.01496   0.00753  -0.2592  0.4457  0.0285  -1.3568   0.0000   0.0000   0.0000   0.5034
  -0.900   1.0332   0.01491   0.00745  -0.2596  0.4431  0.0289  -1.3703   0.0000   0.0000   0.0000   0.5003
  -0.800   1.0469   0.01488   0.00738  -0.2601  0.4405  0.0292  -1.3837   0.0000   0.0000   0.0000   0.4973
  -0.700   1.0597   0.01488   0.00734  -0.2604  0.4378  0.0296  -1.3966   0.0000   0.0000   0.0000   0.4944
  -0.600   1.0714   0.01492   0.00736  -0.2605  0.4352  0.0304  -1.4089   0.0000   0.0000   0.0000   0.4916
  -0.500   1.0947   0.01461   0.00694  -0.2632  0.4321  0.0332  -1.4285   0.0000   0.0000   0.0000   0.4887
  -0.400   1.1095   0.01459   0.00687  -0.2639  0.4293  0.0348  -1.4427   0.0000   0.0000   0.0000   0.4860
  -0.300   1.1235   0.01460   0.00683  -0.2645  0.4262  0.0348  -1.4563   0.0000   0.0000   0.0000   0.4834
  -0.200   1.1375   0.01465   0.00682  -0.2650  0.4228  0.0359  -1.4697   0.0000   0.0000   0.0000   0.4808
  -0.100   1.1518   0.01471   0.00683  -0.2657  0.4192  0.0362  -1.4832   0.0000   0.0000   0.0000   0.4783
   0.100   1.1795   0.01473   0.00677  -0.2666  0.4162  0.0370  -1.5102   0.0000   0.0000   0.0000   0.4733
   0.200   1.1927   0.01473   0.00674  -0.2669  0.4153  0.0379  -1.5235   0.0000   0.0000   0.0000   0.4709
   0.300   1.2057   0.01473   0.00671  -0.2672  0.4143  0.0395  -1.5367   0.0000   0.0000   0.0000   0.4686
   0.400   1.2189   0.01474   0.00670  -0.2675  0.4132  0.0429  -1.5500   0.0000   0.0000   0.0000   0.4663
   0.600   1.2555   0.01454   0.00700  -0.2708  0.4105  0.2621  -1.5860   0.0000   0.0000   0.0000   0.4622
   0.700   1.2661   0.01462   0.00708  -0.2706  0.4093  0.2707  -1.5989   0.0000   0.0000   0.0000   0.4600
   0.800   1.2762   0.01470   0.00714  -0.2703  0.4080  0.2757  -1.6115   0.0000   0.0000   0.0000   0.4579
   0.900   1.2878   0.01475   0.00720  -0.2703  0.4067  0.2845  -1.6253   0.0000   0.0000   0.0000   0.4559
   1.000   1.2993   0.01481   0.00730  -0.2704  0.4053  0.2951  -1.6391   0.0000   0.0000   0.0000   0.4539
   1.100   1.3100   0.01490   0.00739  -0.2702  0.4040  0.3045  -1.6522   0.0000   0.0000   0.0000   0.4519
   1.200   1.3203   0.01499   0.00747  -0.2700  0.4027  0.3112  -1.6650   0.0000   0.0000   0.0000   0.4499
   1.300   1.3306   0.01508   0.00754  -0.2697  0.4013  0.3152  -1.6779   0.0000   0.0000   0.0000   0.4480
   1.400   1.3412   0.01517   0.00761  -0.2695  0.4000  0.3173  -1.6910   0.0000   0.0000   0.0000   0.4461
   1.500   1.3533   0.01522   0.00765  -0.2697  0.3985  0.3245  -1.7052   0.0000   0.0000   0.0000   0.4443
   1.600   1.3650   0.01529   0.00772  -0.2698  0.3970  0.3315  -1.7191   0.0000   0.0000   0.0000   0.4424
   1.700   1.3763   0.01537   0.00781  -0.2698  0.3954  0.3374  -1.7328   0.0000   0.0000   0.0000   0.4406
   1.800   1.3873   0.01546   0.00789  -0.2697  0.3936  0.3431  -1.7462   0.0000   0.0000   0.0000   0.4389
   1.900   1.3985   0.01557   0.00801  -0.2697  0.3918  0.3486  -1.7597   0.0000   0.0000   0.0000   0.4371
   2.000   1.4094   0.01569   0.00811  -0.2695  0.3897  0.3544  -1.7729   0.0000   0.0000   0.0000   0.4354
   2.100   1.4205   0.01583   0.00821  -0.2695  0.3876  0.3587  -1.7863   0.0000   0.0000   0.0000   0.4337
   2.200   1.4329   0.01597   0.00834  -0.2697  0.3854  0.3668  -1.8004   0.0000   0.0000   0.0000   0.4320
   2.300   1.4462   0.01611   0.00850  -0.2702  0.3834  0.3783  -1.8151   0.0000   0.0000   0.0000   0.4305
   2.400   1.4590   0.01624   0.00865  -0.2705  0.3819  0.3882  -1.8295   0.0000   0.0000   0.0000   0.4289
   2.500   1.4699   0.01630   0.00872  -0.2704  0.3815  0.3969  -1.8430   0.0000   0.0000   0.0000   0.4273
   2.600   1.4805   0.01637   0.00879  -0.2702  0.3812  0.4040  -1.8563   0.0000   0.0000   0.0000   0.4257
   2.700   1.4920   0.01642   0.00888  -0.2703  0.3807  0.4178  -1.8703   0.0000   0.0000   0.0000   0.4241
   2.800   1.5033   0.01647   0.00898  -0.2703  0.3803  0.4312  -1.8842   0.0000   0.0000   0.0000   0.4226
   2.900   1.5142   0.01654   0.00907  -0.2702  0.3797  0.4434  -1.8978   0.0000   0.0000   0.0000   0.4211
   3.100   1.5366   0.01667   0.00927  -0.2701  0.3786  0.4728  -1.9254   0.0000   0.0000   0.0000   0.4181
   3.200   1.5476   0.01674   0.00938  -0.2701  0.3779  0.4887  -1.9391   0.0000   0.0000   0.0000   0.4166
   3.300   1.5586   0.01682   0.00948  -0.2700  0.3772  0.5036  -1.9527   0.0000   0.0000   0.0000   0.4152
   3.400   1.5701   0.01689   0.00960  -0.2701  0.3765  0.5240  -1.9668   0.0000   0.0000   0.0000   0.4138
   3.500   1.5811   0.01697   0.00971  -0.2700  0.3757  0.5428  -1.9805   0.0000   0.0000   0.0000   0.4123
   3.600   1.5925   0.01704   0.00984  -0.2700  0.3749  0.5657  -1.9946   0.0000   0.0000   0.0000   0.4110
   3.700   1.6036   0.01712   0.00996  -0.2700  0.3741  0.5895  -2.0084   0.0000   0.0000   0.0000   0.4096
   3.800   1.6151   0.01720   0.01010  -0.2701  0.3732  0.6164  -2.0226   0.0000   0.0000   0.0000   0.4083
   4.000   1.6378   0.01736   0.01037  -0.2701  0.3715  0.6768  -2.0506   0.0000   0.0000   0.0000   0.4056
   4.100   1.6491   0.01744   0.01051  -0.2701  0.3706  0.7117  -2.0647   0.0000   0.0000   0.0000   0.4043
   4.200   1.6600   0.01751   0.01065  -0.2700  0.3697  0.7516  -2.0792   0.0000   0.0000   0.0000   0.4030
   4.300   1.6702   0.01756   0.01078  -0.2697  0.3689  0.8020  -2.0938   0.0000   0.0000   0.0000   0.4017
   4.400   1.6760   0.01752   0.01089  -0.2685  0.3681  0.8788  -2.1046   0.0000   0.0000   0.0000   0.4002
   4.500   1.6786   0.01747   0.01088  -0.2666  0.3674  1.0000  -2.1126   0.0000   0.0000   0.0000   0.3987
   4.600   1.6888   0.01758   0.01098  -0.2664  0.3665  1.0000  -2.1272   0.0000   0.0000   0.0000   0.3974
   4.700   1.6988   0.01769   0.01108  -0.2662  0.3656  1.0000  -2.1417   0.0000   0.0000   0.0000   0.3961
   4.800   1.7087   0.01781   0.01119  -0.2659  0.3647  1.0000  -2.1561   0.0000   0.0000   0.0000   0.3949
   4.900   1.7184   0.01793   0.01129  -0.2656  0.3636  1.0000  -2.1705   0.0000   0.0000   0.0000   0.3937
   5.000   1.7281   0.01805   0.01140  -0.2653  0.3625  1.0000  -2.1849   0.0000   0.0000   0.0000   0.3924
   5.100   1.7377   0.01818   0.01151  -0.2650  0.3614  1.0000  -2.1992   0.0000   0.0000   0.0000   0.3912
   5.200   1.7473   0.01831   0.01163  -0.2646  0.3603  1.0000  -2.2149   0.0000   0.0000   0.0000   0.3900
   5.300   1.7570   0.01845   0.01176  -0.2643  0.3591  1.0000  -2.2306   0.0000   0.0000   0.0000   0.3888
   5.400   1.7669   0.01860   0.01189  -0.2641  0.3579  1.0000  -2.2465   0.0000   0.0000   0.0000   0.3876
   5.500   1.7771   0.01876   0.01204  -0.2639  0.3567  1.0000  -2.2626   0.0000   0.0000   0.0000   0.3865
   5.600   1.7875   0.01893   0.01220  -0.2638  0.3554  1.0000  -2.2789   0.0000   0.0000   0.0000   0.3854
   5.700   1.7983   0.01912   0.01237  -0.2637  0.3539  1.0000  -2.2955   0.0000   0.0000   0.0000   0.3843
   5.800   1.8098   0.01933   0.01257  -0.2638  0.3522  1.0000  -2.3134   0.0000   0.0000   0.0000   0.3832
   5.900   1.8223   0.01957   0.01280  -0.2642  0.3502  1.0000  -2.3338   0.0000   0.0000   0.0000   0.3822
   6.000   1.8367   0.01989   0.01311  -0.2649  0.3480  1.0000  -2.3572   0.0000   0.0000   0.0000   0.3813
   6.100   1.8457   0.01998   0.01322  -0.2645  0.3476  1.0000  -2.3760   0.0000   0.0000   0.0000   0.3802
   6.200   1.8544   0.02007   0.01332  -0.2640  0.3472  1.0000  -2.3945   0.0000   0.0000   0.0000   0.3791
   6.300   1.8631   0.02016   0.01342  -0.2635  0.3469  1.0000  -2.4131   0.0000   0.0000   0.0000   0.3779
   6.400   1.8718   0.02026   0.01353  -0.2630  0.3465  1.0000  -2.4317   0.0000   0.0000   0.0000   0.3768
   6.500   1.8805   0.02035   0.01365  -0.2625  0.3460  1.0000  -2.4503   0.0000   0.0000   0.0000   0.3757
   6.600   1.8890   0.02045   0.01376  -0.2619  0.3455  1.0000  -2.4688   0.0000   0.0000   0.0000   0.3746
   6.700   1.8973   0.02054   0.01387  -0.2613  0.3448  1.0000  -2.4871   0.0000   0.0000   0.0000   0.3735
   6.800   1.9055   0.02064   0.01398  -0.2607  0.3441  1.0000  -2.5054   0.0000   0.0000   0.0000   0.3724
   6.900   1.9135   0.02074   0.01410  -0.2601  0.3433  1.0000  -2.5235   0.0000   0.0000   0.0000   0.3713
   7.000   1.9216   0.02085   0.01422  -0.2595  0.3424  1.0000  -2.5420   0.0000   0.0000   0.0000   0.3702
   7.100   1.9297   0.02096   0.01434  -0.2589  0.3415  1.0000  -2.5622   0.0000   0.0000   0.0000   0.3691
   7.200   1.9379   0.02107   0.01458  -0.2583  0.3406  1.0000  -2.5830   0.0000   0.0000   0.0000   0.3681
   7.300   1.9461   0.02120   0.01472  -0.2577  0.3397  1.0000  -2.6056   0.0000   0.0000   0.0000   0.3670
   7.400   1.9543   0.02132   0.01486  -0.2571  0.3388  1.0000  -2.6283   0.0000   0.0000   0.0000   0.3660
   7.500   1.9627   0.02145   0.01501  -0.2566  0.3379  1.0000  -2.6513   0.0000   0.0000   0.0000   0.3649
   7.600   1.9712   0.02159   0.01516  -0.2561  0.3370  1.0000  -2.6743   0.0000   0.0000   0.0000   0.3639
   7.700   1.9797   0.02173   0.01531  -0.2556  0.3361  1.0000  -2.6974   0.0000   0.0000   0.0000   0.3629
   7.800   1.9879   0.02186   0.01546  -0.2550  0.3352  1.0000  -2.7294   0.0000   0.0000   0.0000   0.3619
   7.900   1.9960   0.02200   0.01561  -0.2544  0.3341  1.0000  -2.7618   0.0000   0.0000   0.0000   0.3609
   8.000   2.0039   0.02213   0.01576  -0.2538  0.3331  1.0000  -2.7941   0.0000   0.0000   0.0000   0.3598
   8.100   2.0117   0.02227   0.01590  -0.2532  0.3320  1.0000  -2.8262   0.0000   0.0000   0.0000   0.3588
   8.200   2.0192   0.02240   0.01605  -0.2525  0.3308  1.0000  -2.8581   0.0000   0.0000   0.0000   0.3578
   8.300   2.0265   0.02255   0.01620  -0.2517  0.3295  1.0000  -2.8898   0.0000   0.0000   0.0000   0.3568
   8.400   2.0337   0.02271   0.01635  -0.2510  0.3281  1.0000  -2.9214   0.0000   0.0000   0.0000   0.3558
   8.500   2.0408   0.02288   0.01652  -0.2502  0.3266  1.0000  -2.9530   0.0000   0.0000   0.0000   0.3548
   8.600   2.0480   0.02307   0.01671  -0.2495  0.3251  1.0000  -2.9847   0.0000   0.0000   0.0000   0.3538
   8.700   2.0553   0.02328   0.01692  -0.2488  0.3235  1.0000  -3.0167   0.0000   0.0000   0.0000   0.3528
   8.800   2.0631   0.02351   0.01714  -0.2482  0.3216  1.0000  -3.0496   0.0000   0.0000   0.0000   0.3519
   8.900   2.0720   0.02378   0.01740  -0.2479  0.3191  1.0000  -3.0843   0.0000   0.0000   0.0000   0.3510
   9.000   2.0832   0.02412   0.01773  -0.2481  0.3159  1.0000  -3.1229   0.0000   0.0000   0.0000   0.3502
   9.100   2.0908   0.02430   0.01793  -0.2474  0.3146  1.0000  -3.1560   0.0000   0.0000   0.0000   0.3493
   9.200   2.0963   0.02440   0.01807  -0.2464  0.3141  1.0000  -3.1858   0.0000   0.0000   0.0000   0.3482
   9.300   2.1019   0.02451   0.01821  -0.2453  0.3134  1.0000  -3.2158   0.0000   0.0000   0.0000   0.3472
   9.400   2.1077   0.02462   0.01836  -0.2443  0.3125  1.0000  -3.2463   0.0000   0.0000   0.0000   0.3462
   9.500   2.1138   0.02475   0.01852  -0.2434  0.3116  1.0000  -3.2773   0.0000   0.0000   0.0000   0.3452
   9.600   2.1202   0.02488   0.01868  -0.2425  0.3104  1.0000  -3.3088   0.0000   0.0000   0.0000   0.3442
   9.700   2.1267   0.02502   0.01885  -0.2417  0.3093  1.0000  -3.3408   0.0000   0.0000   0.0000   0.3433
   9.800   2.1334   0.02517   0.01904  -0.2409  0.3080  1.0000  -3.3730   0.0000   0.0000   0.0000   0.3423
   9.900   2.1399   0.02534   0.01931  -0.2401  0.3067  1.0000  -3.4050   0.0000   0.0000   0.0000   0.3414
  10.000   2.1464   0.02552   0.01951  -0.2393  0.3054  1.0000  -3.4371   0.0000   0.0000   0.0000   0.3405
  10.100   2.1529   0.02570   0.01972  -0.2385  0.3041  1.0000  -3.4693   0.0000   0.0000   0.0000   0.3395
  10.200   2.1594   0.02588   0.01993  -0.2377  0.3027  1.0000  -3.5015   0.0000   0.0000   0.0000   0.3386
  10.300   2.1658   0.02607   0.02014  -0.2368  0.3014  1.0000  -3.5337   0.0000   0.0000   0.0000   0.3377
  10.400   2.1721   0.02626   0.02036  -0.2360  0.3000  1.0000  -3.5657   0.0000   0.0000   0.0000   0.3368
  10.500   2.1781   0.02647   0.02058  -0.2351  0.2985  1.0000  -3.5975   0.0000   0.0000   0.0000   0.3359
  10.600   2.1840   0.02669   0.02081  -0.2343  0.2970  1.0000  -3.6290   0.0000   0.0000   0.0000   0.3349
  10.700   2.1897   0.02692   0.02106  -0.2333  0.2955  1.0000  -3.6602   0.0000   0.0000   0.0000   0.3340
  10.800   2.1948   0.02719   0.02134  -0.2323  0.2939  1.0000  -3.6905   0.0000   0.0000   0.0000   0.3331
  10.900   2.1995   0.02748   0.02164  -0.2313  0.2921  1.0000  -3.7200   0.0000   0.0000   0.0000   0.3322
  11.000   2.2040   0.02781   0.02197  -0.2302  0.2903  1.0000  -3.7491   0.0000   0.0000   0.0000   0.3312
  11.100   2.2085   0.02817   0.02233  -0.2291  0.2881  1.0000  -3.7804   0.0000   0.0000   0.0000   0.3303
  11.200   2.2134   0.02854   0.02271  -0.2282  0.2857  1.0000  -3.8145   0.0000   0.0000   0.0000   0.3294
  11.300   2.2193   0.02889   0.02307  -0.2274  0.2834  1.0000  -3.8506   0.0000   0.0000   0.0000   0.3286
  11.400   2.2255   0.02909   0.02332  -0.2266  0.2827  1.0000  -3.8878   0.0000   0.0000   0.0000   0.3277
  11.500   2.2318   0.02930   0.02358  -0.2258  0.2819  1.0000  -3.9252   0.0000   0.0000   0.0000   0.3269
  11.600   2.2380   0.02952   0.02385  -0.2251  0.2809  1.0000  -3.9627   0.0000   0.0000   0.0000   0.3260
  11.700   2.2441   0.02975   0.02413  -0.2243  0.2796  1.0000  -3.9998   0.0000   0.0000   0.0000   0.3252
  11.800   2.2499   0.02999   0.02442  -0.2235  0.2781  1.0000  -4.0367   0.0000   0.0000   0.0000   0.3243
  11.900   2.2557   0.03025   0.02471  -0.2227  0.2765  1.0000  -4.0734   0.0000   0.0000   0.0000   0.3235
  12.000   2.2612   0.03053   0.02502  -0.2219  0.2745  1.0000  -4.1098   0.0000   0.0000   0.0000   0.3226
  12.100   2.2663   0.03082   0.02534  -0.2210  0.2721  1.0000  -4.1453   0.0000   0.0000   0.0000   0.3218
  12.200   2.2707   0.03115   0.02568  -0.2200  0.2692  1.0000  -4.1797   0.0000   0.0000   0.0000   0.3209
  12.300   2.2743   0.03153   0.02605  -0.2189  0.2659  1.0000  -4.2123   0.0000   0.0000   0.0000   0.3200
  12.400   2.2761   0.03203   0.02653  -0.2176  0.2622  1.0000  -4.2412   0.0000   0.0000   0.0000   0.3191
  12.500   2.2762   0.03265   0.02714  -0.2160  0.2581  1.0000  -4.2663   0.0000   0.0000   0.0000   0.3182
  12.600   2.2766   0.03330   0.02778  -0.2146  0.2535  1.0000  -4.2917   0.0000   0.0000   0.0000   0.3173
  12.700   2.2825   0.03359   0.02810  -0.2139  0.2504  1.0000  -4.3296   0.0000   0.0000   0.0000   0.3165
  12.800   2.2826   0.03425   0.02874  -0.2125  0.2392  1.0000  -4.3555   0.0000   0.0000   0.0000   0.3157
  12.900   2.2799   0.03517   0.02959  -0.2107  0.2319  1.0000  -4.3742   0.0000   0.0000   0.0000   0.3148
  13.000   2.2768   0.03616   0.03055  -0.2090  0.2250  1.0000  -4.3919   0.0000   0.0000   0.0000   0.3139
  13.100   2.2789   0.03678   0.03118  -0.2079  0.2185  1.0000  -4.4214   0.0000   0.0000   0.0000   0.3131
  13.200   2.2777   0.03769   0.03205  -0.2065  0.2107  1.0000  -4.4433   0.0000   0.0000   0.0000   0.3122
  13.300   2.2733   0.03887   0.03318  -0.2047  0.2037  1.0000  -4.4575   0.0000   0.0000   0.0000   0.3114
  13.400   2.2696   0.04003   0.03432  -0.2031  0.1972  1.0000  -4.4733   0.0000   0.0000   0.0000   0.3106
  13.500   2.2689   0.04096   0.03524  -0.2018  0.1912  1.0000  -4.4959   0.0000   0.0000   0.0000   0.3098
  13.600   2.2657   0.04211   0.03638  -0.2004  0.1852  1.0000  -4.5128   0.0000   0.0000   0.0000   0.3091
  13.700   2.2610   0.04343   0.03768  -0.1989  0.1798  1.0000  -4.5257   0.0000   0.0000   0.0000   0.3083
  13.800   2.2562   0.04479   0.03902  -0.1974  0.1745  1.0000  -4.5382   0.0000   0.0000   0.0000   0.3076
  13.900   2.2544   0.04590   0.04014  -0.1962  0.1705  1.0000  -4.5577   0.0000   0.0000   0.0000   0.3069
  14.000   2.2526   0.04700   0.04127  -0.1951  0.1667  1.0000  -4.5773   0.0000   0.0000   0.0000   0.3062
  14.100   2.2504   0.04817   0.04246  -0.1940  0.1630  1.0000  -4.5956   0.0000   0.0000   0.0000   0.3056
  14.200   2.2469   0.04947   0.04377  -0.1929  0.1594  1.0000  -4.6108   0.0000   0.0000   0.0000   0.3049
  14.300   2.2415   0.05100   0.04531  -0.1917  0.1561  1.0000  -4.6211   0.0000   0.0000   0.0000   0.3043
  14.400   2.2361   0.05258   0.04690  -0.1906  0.1526  1.0000  -4.6311   0.0000   0.0000   0.0000   0.3038
  14.500   2.2310   0.05418   0.04851  -0.1896  0.1491  1.0000  -4.6417   0.0000   0.0000   0.0000   0.3032
  14.600   2.2285   0.05553   0.04990  -0.1888  0.1468  1.0000  -4.6586   0.0000   0.0000   0.0000   0.3027
  14.700   2.2262   0.05688   0.05129  -0.1881  0.1443  1.0000  -4.6758   0.0000   0.0000   0.0000   0.3022
  14.800   2.2230   0.05836   0.05280  -0.1873  0.1416  1.0000  -4.6907   0.0000   0.0000   0.0000   0.3017
  14.900   2.2179   0.06012   0.05460  -0.1867  0.1390  1.0000  -4.7005   0.0000   0.0000   0.0000   0.3013
  15.000   2.2126   0.06193   0.05644  -0.1860  0.1363  1.0000  -4.7095   0.0000   0.0000   0.0000   0.3010
  15.100   2.2058   0.06398   0.05852  -0.1854  0.1338  1.0000  -4.7144   0.0000   0.0000   0.0000   0.3007
  15.200   2.1982   0.06620   0.06076  -0.1849  0.1314  1.0000  -4.7166   0.0000   0.0000   0.0000   0.3005
  15.300   2.1907   0.06843   0.06302  -0.1845  0.1288  1.0000  -4.7192   0.0000   0.0000   0.0000   0.3003
  15.400   2.1828   0.07080   0.06543  -0.1842  0.1265  1.0000  -4.7197   0.0000   0.0000   0.0000   0.3002
  15.500   2.1788   0.07262   0.06730  -0.1840  0.1247  1.0000  -4.7308   0.0000   0.0000   0.0000   0.2999
  15.600   2.1738   0.07462   0.06936  -0.1838  0.1231  1.0000  -4.7390   0.0000   0.0000   0.0000   0.2997
  15.700   2.1679   0.07678   0.07157  -0.1837  0.1213  1.0000  -4.7443   0.0000   0.0000   0.0000   0.2996
  15.800   2.1621   0.07893   0.07376  -0.1837  0.1194  1.0000  -4.7498   0.0000   0.0000   0.0000   0.2995
  15.900   2.1538   0.08151   0.07639  -0.1838  0.1177  1.0000  -4.7479   0.0000   0.0000   0.0000   0.2996
  16.000   2.1460   0.08398   0.07891  -0.1838  0.1158  1.0000  -4.7473   0.0000   0.0000   0.0000   0.2997
  16.100   2.1367   0.08675   0.08173  -0.1841  0.1142  1.0000  -4.7417   0.0000   0.0000   0.0000   0.2999
  16.200   2.1268   0.08959   0.08462  -0.1844  0.1125  1.0000  -4.7343   0.0000   0.0000   0.0000   0.3001
  16.300   2.1170   0.09242   0.08748  -0.1847  0.1108  1.0000  -4.7266   0.0000   0.0000   0.0000   0.3004
  16.400   2.1056   0.09555   0.09067  -0.1852  0.1094  1.0000  -4.7135   0.0000   0.0000   0.0000   0.3008
  16.500   2.0958   0.09838   0.09353  -0.1856  0.1076  1.0000  -4.7050   0.0000   0.0000   0.0000   0.3011
  16.600   2.0849   0.10143   0.09663  -0.1862  0.1061  1.0000  -4.6925   0.0000   0.0000   0.0000   0.3016
  16.700   2.0760   0.10414   0.09940  -0.1867  0.1046  1.0000  -4.6855   0.0000   0.0000   0.0000   0.3019
  16.800   2.0708   0.10625   0.10156  -0.1871  0.1035  1.0000  -4.6895   0.0000   0.0000   0.0000   0.3020
  16.900   2.0650   0.10842   0.10377  -0.1875  0.1022  1.0000  -4.6918   0.0000   0.0000   0.0000   0.3022
  17.000   2.0563   0.11115   0.10655  -0.1881  0.1012  1.0000  -4.6841   0.0000   0.0000   0.0000   0.3026


