xflr5 v6.61

 Calculated polar for: S1223

 1 1 Reynolds number fixed          Mach number fixed         

 xtrf =   1.000 (top)        1.000 (bottom)
 Mach =   0.000     Re =     0.300 e 6     Ncrit =   9.000

  alpha     CL        CD       CDp       Cm    Top Xtr Bot Xtr   Cpmin    Chinge    XCp    
 ------- -------- --------- --------- -------- ------- ------- -------- --------- ---------
 -10.000  -0.1303   0.14529   0.14232  -0.0432  0.9853  0.0171  -1.2018   0.0000   0.0000   0.0000  -0.1175
  -9.900  -0.1238   0.14393   0.14093  -0.0444  0.9842  0.0172  -1.2013   0.0000   0.0000   0.0000  -0.1471
  -9.800  -0.1169   0.14254   0.13954  -0.0458  0.9832  0.0172  -1.2006   0.0000   0.0000   0.0000  -0.1823
  -9.700  -0.1097   0.14114   0.13814  -0.0473  0.9824  0.0172  -1.1999   0.0000   0.0000   0.0000  -0.2242
  -9.600  -0.1023   0.13973   0.13673  -0.0489  0.9817  0.0172  -1.1990   0.0000   0.0000   0.0000  -0.2741
  -9.500  -0.0945   0.13832   0.13532  -0.0505  0.9811  0.0172  -1.1982   0.0000   0.0000   0.0000  -0.3341
  -8.500  -0.0365   0.12244   0.11948  -0.0620  0.9676  0.0175  -1.2914   0.0000   0.0000   0.0000  -1.5745
  -8.400  -0.0323   0.12011   0.11715  -0.0629  0.9660  0.0177  -1.3183   0.0000   0.0000   0.0000  -1.8330
  -8.300  -0.0263   0.11821   0.11526  -0.0639  0.9646  0.0179  -1.3238   0.0000   0.0000   0.0000  -2.3457
  -8.200  -0.0190   0.11645   0.11350  -0.0651  0.9634  0.0180  -1.3158   0.0000   0.0000   0.0000  -3.3996
  -8.100  -0.0105   0.11474   0.11179  -0.0661  0.9625  0.0181  -1.2941   0.0000   0.0000   0.0000  -6.4627
  -8.000  -0.0017   0.11312   0.11017  -0.0673  0.9616  0.0182  -1.2714   0.0000   0.0000   0.0000  -41.7362
  -7.900   0.0073   0.11157   0.10862  -0.0686  0.9608  0.0184  -1.2491   0.0000   0.0000   0.0000  10.2561
  -7.800   0.0165   0.11006   0.10711  -0.0701  0.9601  0.0185  -1.2274   0.0000   0.0000   0.0000   4.7613
  -7.700   0.0259   0.10858   0.10563  -0.0716  0.9595  0.0186  -1.2063   0.0000   0.0000   0.0000   3.1834
  -7.600   0.0354   0.10713   0.10418  -0.0732  0.9590  0.0188  -1.1860   0.0000   0.0000   0.0000   2.4365
  -7.500   0.0328   0.10646   0.10353  -0.0716  0.9535  0.0188  -1.1827   0.0000   0.0000   0.0000   2.5567
  -7.400   0.0394   0.10522   0.10230  -0.0724  0.9514  0.0189  -1.1678   0.0000   0.0000   0.0000   2.1946
  -7.300   0.0470   0.10392   0.10100  -0.0736  0.9498  0.0191  -1.1523   0.0000   0.0000   0.0000   1.9036
  -7.200   0.0552   0.10259   0.09967  -0.0749  0.9484  0.0192  -1.1368   0.0000   0.0000   0.0000   1.6809
  -7.100   0.0637   0.10125   0.09833  -0.0763  0.9472  0.0194  -1.1217   0.0000   0.0000   0.0000   1.5101
  -7.000   0.0727   0.09989   0.09697  -0.0778  0.9461  0.0195  -1.1071   0.0000   0.0000   0.0000   1.3756
  -6.900   0.0819   0.09852   0.09560  -0.0795  0.9452  0.0197  -1.0929   0.0000   0.0000   0.0000   1.2679
  -6.800   0.0915   0.09714   0.09422  -0.0812  0.9444  0.0198  -1.0792   0.0000   0.0000   0.0000   1.1801
  -6.700   0.0870   0.09669   0.09380  -0.0791  0.9378  0.0199  -1.0806   0.0000   0.0000   0.0000   1.2033
  -6.600   0.0925   0.09558   0.09269  -0.0798  0.9348  0.0200  -1.0720   0.0000   0.0000   0.0000   1.1528
  -6.500   0.0998   0.09434   0.09146  -0.0809  0.9327  0.0202  -1.0621   0.0000   0.0000   0.0000   1.0974
  -6.400   0.1080   0.09304   0.09016  -0.0822  0.9309  0.0204  -1.0519   0.0000   0.0000   0.0000   1.0453
  -6.300   0.1167   0.09171   0.08883  -0.0837  0.9294  0.0206  -1.0417   0.0000   0.0000   0.0000   0.9982
  -6.200   0.1260   0.09034   0.08746  -0.0854  0.9281  0.0208  -1.0319   0.0000   0.0000   0.0000   0.9560
  -6.100   0.1356   0.08895   0.08605  -0.0871  0.9269  0.0210  -1.0223   0.0000   0.0000   0.0000   0.9184
  -6.000   0.1290   0.08870   0.08583  -0.0845  0.9185  0.0210  -1.0268   0.0000   0.0000   0.0000   0.9316
  -5.900   0.1344   0.08761   0.08474  -0.0851  0.9149  0.0212  -1.0212   0.0000   0.0000   0.0000   0.9083
  -5.800   0.1416   0.08638   0.08351  -0.0862  0.9121  0.0214  -1.0146   0.0000   0.0000   0.0000   0.8820
  -5.700   0.1497   0.08508   0.08222  -0.0875  0.9099  0.0216  -1.0077   0.0000   0.0000   0.0000   0.8562
  -5.600   0.1584   0.08375   0.08089  -0.0890  0.9079  0.0218  -1.0008   0.0000   0.0000   0.0000   0.8320
  -5.500   0.1566   0.08319   0.08035  -0.0877  0.9009  0.0219  -1.0022   0.0000   0.0000   0.0000   0.8298
  -5.400   0.1573   0.08244   0.07960  -0.0871  0.8942  0.0221  -1.0018   0.0000   0.0000   0.0000   0.8226
  -5.300   0.1624   0.08134   0.07851  -0.0876  0.8899  0.0223  -0.9986   0.0000   0.0000   0.0000   0.8073
  -5.200   0.1697   0.08010   0.07726  -0.0887  0.8866  0.0225  -0.9941   0.0000   0.0000   0.0000   0.7895
  -5.100   0.1747   0.07904   0.07620  -0.0892  0.8818  0.0227  -0.9916   0.0000   0.0000   0.0000   0.7765
  -5.000   0.1722   0.07856   0.07573  -0.0878  0.8719  0.0229  -0.9945   0.0000   0.0000   0.0000   0.7754
  -4.900   0.1786   0.07738   0.07455  -0.0887  0.8663  0.0231  -0.9917   0.0000   0.0000   0.0000   0.7610
  -4.800   0.1884   0.07597   0.07311  -0.0904  0.8618  0.0234  -0.9872   0.0000   0.0000   0.0000   0.7435
  -4.700   0.1943   0.07486   0.07200  -0.0912  0.8544  0.0237  -0.9856   0.0000   0.0000   0.0000   0.7322
  -4.600   0.2016   0.07365   0.07078  -0.0923  0.8453  0.0240  -0.9835   0.0000   0.0000   0.0000   0.7200
  -4.500   0.2180   0.07178   0.06887  -0.0958  0.8380  0.0245  -0.9768   0.0000   0.0000   0.0000   0.7004
  -4.400   0.2390   0.06963   0.06666  -0.1005  0.8301  0.0250  -0.9690   0.0000   0.0000   0.0000   0.6804
  -4.300   0.2577   0.06769   0.06466  -0.1046  0.8167  0.0256  -0.9647   0.0000   0.0000   0.0000   0.6651
  -4.200   0.2884   0.06503   0.06188  -0.1120  0.8029  0.0266  -0.9605   0.0000   0.0000   0.0000   0.6467
  -4.100   0.3147   0.06282   0.05954  -0.1186  0.7818  0.0275  -0.9677   0.0000   0.0000   0.0000   0.6343
  -4.000   0.3401   0.06100   0.05757  -0.1252  0.7573  0.0286  -0.9865   0.0000   0.0000   0.0000   0.6250
  -3.900   0.3600   0.05984   0.05622  -0.1298  0.7303  0.0293  -0.9927   0.0000   0.0000   0.0000   0.6170
  -3.800   0.3712   0.05900   0.05522  -0.1319  0.7050  0.0295  -0.9927   0.0000   0.0000   0.0000   0.6114
  -3.700   0.3774   0.05828   0.05438  -0.1327  0.6824  0.0296  -0.9953   0.0000   0.0000   0.0000   0.6074
  -3.600   0.3823   0.05757   0.05356  -0.1333  0.6640  0.0297  -0.9987   0.0000   0.0000   0.0000   0.6039
  -3.500   0.3867   0.05685   0.05274  -0.1337  0.6470  0.0298  -1.0027   0.0000   0.0000   0.0000   0.6007
  -3.400   0.3913   0.05609   0.05190  -0.1341  0.6331  0.0298  -1.0071   0.0000   0.0000   0.0000   0.5975
  -3.300   0.3973   0.05521   0.05095  -0.1350  0.6207  0.0299  -1.0115   0.0000   0.0000   0.0000   0.5941
  -3.200   0.4030   0.05434   0.05001  -0.1357  0.6089  0.0299  -1.0165   0.0000   0.0000   0.0000   0.5909
  -3.100   0.4097   0.05339   0.04899  -0.1368  0.5990  0.0299  -1.0216   0.0000   0.0000   0.0000   0.5877
  -3.000   0.4186   0.05227   0.04783  -0.1384  0.5907  0.0300  -1.0268   0.0000   0.0000   0.0000   0.5842
  -2.900   0.4277   0.05112   0.04664  -0.1401  0.5824  0.0300  -1.0327   0.0000   0.0000   0.0000   0.5807
  -2.800   0.4375   0.04995   0.04539  -0.1419  0.5744  0.0300  -1.0393   0.0000   0.0000   0.0000   0.5774
  -2.700   0.4520   0.04561   0.04101  -0.1486  0.5689  0.0308  -1.1603   0.0000   0.0000   0.0000   0.5814
  -2.600   0.4623   0.04364   0.03900  -0.1512  0.5627  0.0317  -1.1657   0.0000   0.0000   0.0000   0.5797
  -2.500   0.4711   0.04282   0.03817  -0.1520  0.5572  0.0323  -1.1310   0.0000   0.0000   0.0000   0.5749
  -2.400   0.4797   0.04219   0.03751  -0.1525  0.5514  0.0328  -1.0918   0.0000   0.0000   0.0000   0.5699
  -2.300   0.4898   0.04151   0.03679  -0.1534  0.5454  0.0333  -1.0549   0.0000   0.0000   0.0000   0.5650
  -2.200   0.5016   0.04074   0.03597  -0.1549  0.5395  0.0340  -1.0255   0.0000   0.0000   0.0000   0.5604
  -2.100   0.5152   0.03991   0.03507  -0.1569  0.5331  0.0348  -1.0353   0.0000   0.0000   0.0000   0.5558
  -2.000   0.5333   0.03883   0.03390  -0.1602  0.5269  0.0360  -1.0471   0.0000   0.0000   0.0000   0.5514
  -1.900   0.8381   0.01900   0.01214  -0.2418  0.5109  0.0250  -1.3846   0.0000   0.0000   0.0000   0.5393
  -1.800   0.8683   0.01817   0.01101  -0.2461  0.5053  0.0252  -1.3669   0.0000   0.0000   0.0000   0.5340
  -1.700   0.8908   0.01775   0.01037  -0.2486  0.5001  0.0262  -1.3351   0.0000   0.0000   0.0000   0.5295
  -1.600   0.9089   0.01757   0.01003  -0.2500  0.4948  0.0275  -1.2913   0.0000   0.0000   0.0000   0.5253
  -1.500   0.9243   0.01757   0.00992  -0.2508  0.4898  0.0288  -1.2688   0.0000   0.0000   0.0000   0.5215
  -1.400   0.9353   0.01764   0.00998  -0.2507  0.4878  0.0297  -1.2802   0.0000   0.0000   0.0000   0.5179
  -1.300   0.9627   0.01690   0.00907  -0.2543  0.4848  0.0316  -1.3012   0.0000   0.0000   0.0000   0.5139
  -1.200   0.9829   0.01653   0.00863  -0.2564  0.4817  0.0330  -1.3183   0.0000   0.0000   0.0000   0.5104
  -1.100   0.9992   0.01638   0.00844  -0.2575  0.4786  0.0339  -1.3330   0.0000   0.0000   0.0000   0.5071
  -1.000   1.0140   0.01631   0.00834  -0.2582  0.4754  0.0353  -1.3468   0.0000   0.0000   0.0000   0.5039
  -0.900   1.0264   0.01635   0.00837  -0.2585  0.4723  0.0378  -1.3594   0.0000   0.0000   0.0000   0.5009
  -0.800   1.0383   0.01642   0.00841  -0.2587  0.4692  0.0406  -1.3716   0.0000   0.0000   0.0000   0.4980
  -0.700   1.0507   0.01647   0.00842  -0.2589  0.4660  0.0428  -1.3840   0.0000   0.0000   0.0000   0.4951
  -0.600   1.0642   0.01650   0.00838  -0.2594  0.4625  0.0440  -1.3971   0.0000   0.0000   0.0000   0.4922
  -0.500   1.0805   0.01649   0.00829  -0.2604  0.4583  0.0442  -1.4118   0.0000   0.0000   0.0000   0.4893
  -0.400   1.1001   0.01650   0.00820  -0.2621  0.4534  0.0441  -1.4283   0.0000   0.0000   0.0000   0.4865
  -0.300   1.1151   0.01640   0.00809  -0.2629  0.4521  0.0442  -1.4424   0.0000   0.0000   0.0000   0.4838
  -0.200   1.1302   0.01633   0.00799  -0.2636  0.4506  0.0444  -1.4566   0.0000   0.0000   0.0000   0.4811
  -0.100   1.1452   0.01629   0.00792  -0.2643  0.4490  0.0448  -1.4707   0.0000   0.0000   0.0000   0.4785
   0.000   1.1597   0.01627   0.00787  -0.2650  0.4473  0.0454  -1.4845   0.0000   0.0000   0.0000   0.4760
   0.100   1.1737   0.01627   0.00783  -0.2655  0.4455  0.0461  -1.4980   0.0000   0.0000   0.0000   0.4735
   0.200   1.1901   0.01623   0.00770  -0.2664  0.4435  0.0512  -1.5129   0.0000   0.0000   0.0000   0.4711
   0.300   1.2168   0.01597   0.00792  -0.2700  0.4412  0.2534  -1.5351   0.0000   0.0000   0.0000   0.4689
   0.400   1.2266   0.01610   0.00805  -0.2696  0.4394  0.2732  -1.5469   0.0000   0.0000   0.0000   0.4667
   0.500   1.2378   0.01619   0.00815  -0.2696  0.4375  0.2872  -1.5602   0.0000   0.0000   0.0000   0.4645
   0.600   1.2490   0.01629   0.00826  -0.2695  0.4357  0.2973  -1.5734   0.0000   0.0000   0.0000   0.4623
   0.700   1.2596   0.01640   0.00836  -0.2693  0.4339  0.3056  -1.5862   0.0000   0.0000   0.0000   0.4602
   0.800   1.2693   0.01656   0.00849  -0.2689  0.4322  0.3149  -1.5985   0.0000   0.0000   0.0000   0.4581
   0.900   1.2810   0.01665   0.00858  -0.2690  0.4304  0.3268  -1.6121   0.0000   0.0000   0.0000   0.4560
   1.000   1.2927   0.01675   0.00869  -0.2691  0.4285  0.3358  -1.6258   0.0000   0.0000   0.0000   0.4540
   1.100   1.3046   0.01687   0.00878  -0.2692  0.4266  0.3406  -1.6395   0.0000   0.0000   0.0000   0.4521
   1.200   1.3171   0.01701   0.00888  -0.2694  0.4245  0.3453  -1.6535   0.0000   0.0000   0.0000   0.4501
   1.300   1.3306   0.01717   0.00900  -0.2699  0.4222  0.3502  -1.6682   0.0000   0.0000   0.0000   0.4482
   1.400   1.3456   0.01737   0.00915  -0.2707  0.4196  0.3548  -1.6837   0.0000   0.0000   0.0000   0.4464
   1.500   1.3614   0.01759   0.00933  -0.2717  0.4172  0.3586  -1.6998   0.0000   0.0000   0.0000   0.4446
   1.600   1.3729   0.01763   0.00938  -0.2717  0.4166  0.3633  -1.7133   0.0000   0.0000   0.0000   0.4428
   1.700   1.3851   0.01765   0.00943  -0.2719  0.4160  0.3720  -1.7274   0.0000   0.0000   0.0000   0.4410
   1.800   1.3966   0.01770   0.00951  -0.2719  0.4152  0.3793  -1.7410   0.0000   0.0000   0.0000   0.4392
   1.900   1.4078   0.01775   0.00962  -0.2719  0.4144  0.3869  -1.7545   0.0000   0.0000   0.0000   0.4375
   2.000   1.4187   0.01781   0.00970  -0.2718  0.4134  0.3938  -1.7677   0.0000   0.0000   0.0000   0.4358
   2.100   1.4295   0.01788   0.00977  -0.2716  0.4124  0.4004  -1.7808   0.0000   0.0000   0.0000   0.4341
   2.200   1.4402   0.01796   0.00984  -0.2715  0.4112  0.4066  -1.7940   0.0000   0.0000   0.0000   0.4324
   2.300   1.4523   0.01800   0.00993  -0.2716  0.4100  0.4196  -1.8082   0.0000   0.0000   0.0000   0.4308
   2.400   1.4637   0.01807   0.01004  -0.2717  0.4088  0.4306  -1.8218   0.0000   0.0000   0.0000   0.4291
   2.500   1.4749   0.01815   0.01013  -0.2716  0.4076  0.4417  -1.8354   0.0000   0.0000   0.0000   0.4275
   2.600   1.4859   0.01825   0.01022  -0.2715  0.4064  0.4511  -1.8487   0.0000   0.0000   0.0000   0.4260
   2.700   1.4982   0.01832   0.01035  -0.2718  0.4053  0.4678  -1.8631   0.0000   0.0000   0.0000   0.4244
   2.800   1.5100   0.01841   0.01047  -0.2719  0.4041  0.4833  -1.8770   0.0000   0.0000   0.0000   0.4229
   2.900   1.5212   0.01851   0.01058  -0.2719  0.4030  0.4974  -1.8906   0.0000   0.0000   0.0000   0.4214
   3.000   1.5333   0.01860   0.01072  -0.2721  0.4018  0.5175  -1.9049   0.0000   0.0000   0.0000   0.4199
   3.100   1.5449   0.01869   0.01084  -0.2721  0.4007  0.5378  -1.9187   0.0000   0.0000   0.0000   0.4185
   3.200   1.5566   0.01879   0.01098  -0.2722  0.3996  0.5595  -1.9327   0.0000   0.0000   0.0000   0.4170
   3.300   1.5682   0.01888   0.01112  -0.2723  0.3985  0.5847  -1.9467   0.0000   0.0000   0.0000   0.4156
   3.400   1.5799   0.01898   0.01126  -0.2724  0.3973  0.6109  -1.9608   0.0000   0.0000   0.0000   0.4142
   3.500   1.5915   0.01909   0.01140  -0.2724  0.3962  0.6400  -1.9747   0.0000   0.0000   0.0000   0.4128
   3.600   1.6031   0.01918   0.01156  -0.2725  0.3950  0.6731  -1.9888   0.0000   0.0000   0.0000   0.4114
   3.700   1.6144   0.01928   0.01172  -0.2725  0.3939  0.7089  -2.0025   0.0000   0.0000   0.0000   0.4101
   3.800   1.6250   0.01938   0.01187  -0.2723  0.3927  0.7511  -2.0157   0.0000   0.0000   0.0000   0.4087
   3.900   1.6339   0.01944   0.01199  -0.2718  0.3916  0.8040  -2.0282   0.0000   0.0000   0.0000   0.4073
   4.100   1.6436   0.01945   0.01208  -0.2690  0.3893  1.0000  -2.0474   0.0000   0.0000   0.0000   0.4042
   4.200   1.6562   0.01966   0.01226  -0.2693  0.3879  1.0000  -2.0633   0.0000   0.0000   0.0000   0.4030
   4.300   1.6692   0.01991   0.01247  -0.2697  0.3863  1.0000  -2.0796   0.0000   0.0000   0.0000   0.4018
   4.400   1.6831   0.02019   0.01280  -0.2703  0.3845  1.0000  -2.0962   0.0000   0.0000   0.0000   0.4007
   4.500   1.6978   0.02056   0.01314  -0.2712  0.3827  1.0000  -2.1133   0.0000   0.0000   0.0000   0.3996
   4.600   1.7098   0.02077   0.01336  -0.2714  0.3818  1.0000  -2.1287   0.0000   0.0000   0.0000   0.3984
   4.700   1.7198   0.02088   0.01347  -0.2711  0.3814  1.0000  -2.1430   0.0000   0.0000   0.0000   0.3972
   4.800   1.7297   0.02098   0.01358  -0.2708  0.3809  1.0000  -2.1572   0.0000   0.0000   0.0000   0.3960
   4.900   1.7394   0.02108   0.01369  -0.2705  0.3804  1.0000  -2.1727   0.0000   0.0000   0.0000   0.3947
   5.000   1.7489   0.02118   0.01380  -0.2702  0.3798  1.0000  -2.1882   0.0000   0.0000   0.0000   0.3935
   5.100   1.7584   0.02128   0.01391  -0.2698  0.3791  1.0000  -2.2037   0.0000   0.0000   0.0000   0.3923
   5.200   1.7678   0.02139   0.01403  -0.2694  0.3784  1.0000  -2.2191   0.0000   0.0000   0.0000   0.3911
   5.300   1.7772   0.02150   0.01415  -0.2691  0.3776  1.0000  -2.2346   0.0000   0.0000   0.0000   0.3899
   5.400   1.7867   0.02162   0.01428  -0.2687  0.3768  1.0000  -2.2501   0.0000   0.0000   0.0000   0.3887
   5.500   1.7964   0.02175   0.01442  -0.2684  0.3760  1.0000  -2.2658   0.0000   0.0000   0.0000   0.3875
   5.600   1.8062   0.02189   0.01457  -0.2682  0.3752  1.0000  -2.2822   0.0000   0.0000   0.0000   0.3864
   5.700   1.8160   0.02203   0.01472  -0.2679  0.3743  1.0000  -2.2996   0.0000   0.0000   0.0000   0.3852
   5.800   1.8257   0.02217   0.01487  -0.2676  0.3735  1.0000  -2.3173   0.0000   0.0000   0.0000   0.3841
   5.900   1.8353   0.02231   0.01502  -0.2673  0.3725  1.0000  -2.3364   0.0000   0.0000   0.0000   0.3830
   6.000   1.8446   0.02244   0.01517  -0.2669  0.3715  1.0000  -2.3553   0.0000   0.0000   0.0000   0.3819
   6.100   1.8538   0.02257   0.01530  -0.2665  0.3704  1.0000  -2.3741   0.0000   0.0000   0.0000   0.3808
   6.200   1.8628   0.02270   0.01544  -0.2661  0.3693  1.0000  -2.3929   0.0000   0.0000   0.0000   0.3796
   6.300   1.8718   0.02283   0.01557  -0.2656  0.3682  1.0000  -2.4116   0.0000   0.0000   0.0000   0.3785
   6.400   1.8807   0.02296   0.01571  -0.2652  0.3671  1.0000  -2.4303   0.0000   0.0000   0.0000   0.3774
   6.500   1.8896   0.02309   0.01585  -0.2648  0.3660  1.0000  -2.4491   0.0000   0.0000   0.0000   0.3763
   6.600   1.8985   0.02323   0.01599  -0.2643  0.3649  1.0000  -2.4678   0.0000   0.0000   0.0000   0.3752
   6.700   1.9074   0.02337   0.01614  -0.2638  0.3639  1.0000  -2.4865   0.0000   0.0000   0.0000   0.3742
   6.800   1.9160   0.02351   0.01628  -0.2633  0.3628  1.0000  -2.5051   0.0000   0.0000   0.0000   0.3731
   6.900   1.9244   0.02365   0.01642  -0.2628  0.3617  1.0000  -2.5240   0.0000   0.0000   0.0000   0.3720
   7.000   1.9326   0.02379   0.01656  -0.2622  0.3606  1.0000  -2.5442   0.0000   0.0000   0.0000   0.3709
   7.100   1.9406   0.02393   0.01682  -0.2616  0.3593  1.0000  -2.5643   0.0000   0.0000   0.0000   0.3699
   7.200   1.9488   0.02408   0.01697  -0.2610  0.3580  1.0000  -2.5865   0.0000   0.0000   0.0000   0.3688
   7.300   1.9575   0.02425   0.01714  -0.2606  0.3566  1.0000  -2.6097   0.0000   0.0000   0.0000   0.3678
   7.400   1.9671   0.02446   0.01733  -0.2603  0.3550  1.0000  -2.6339   0.0000   0.0000   0.0000   0.3668
   7.500   1.9782   0.02473   0.01759  -0.2604  0.3531  1.0000  -2.6600   0.0000   0.0000   0.0000   0.3659
   7.600   1.9921   0.02511   0.01795  -0.2611  0.3509  1.0000  -2.6893   0.0000   0.0000   0.0000   0.3651
   7.700   2.0093   0.02576   0.01861  -0.2626  0.3478  1.0000  -2.7325   0.0000   0.0000   0.0000   0.3646
   7.800   2.0166   0.02585   0.01873  -0.2619  0.3474  1.0000  -2.7634   0.0000   0.0000   0.0000   0.3635
   7.900   2.0238   0.02596   0.01888  -0.2611  0.3470  1.0000  -2.7944   0.0000   0.0000   0.0000   0.3625
   8.000   2.0306   0.02609   0.01904  -0.2602  0.3465  1.0000  -2.8248   0.0000   0.0000   0.0000   0.3614
   8.100   2.0370   0.02621   0.01920  -0.2593  0.3459  1.0000  -2.8546   0.0000   0.0000   0.0000   0.3603
   8.200   2.0432   0.02634   0.01937  -0.2583  0.3452  1.0000  -2.8841   0.0000   0.0000   0.0000   0.3593
   8.300   2.0492   0.02647   0.01953  -0.2573  0.3445  1.0000  -2.9135   0.0000   0.0000   0.0000   0.3582
   8.400   2.0551   0.02660   0.01970  -0.2562  0.3436  1.0000  -2.9429   0.0000   0.0000   0.0000   0.3572
   8.500   2.0610   0.02673   0.01987  -0.2552  0.3427  1.0000  -2.9722   0.0000   0.0000   0.0000   0.3561
   8.600   2.0666   0.02686   0.02003  -0.2541  0.3416  1.0000  -3.0013   0.0000   0.0000   0.0000   0.3550
   8.700   2.0722   0.02699   0.02020  -0.2531  0.3404  1.0000  -3.0305   0.0000   0.0000   0.0000   0.3540
   8.800   2.0778   0.02712   0.02036  -0.2520  0.3392  1.0000  -3.0597   0.0000   0.0000   0.0000   0.3529
   8.900   2.0835   0.02726   0.02052  -0.2509  0.3379  1.0000  -3.0893   0.0000   0.0000   0.0000   0.3519
   9.000   2.0894   0.02740   0.02069  -0.2499  0.3366  1.0000  -3.1192   0.0000   0.0000   0.0000   0.3509
   9.100   2.0954   0.02755   0.02086  -0.2489  0.3353  1.0000  -3.1495   0.0000   0.0000   0.0000   0.3498
   9.200   2.1013   0.02770   0.02104  -0.2480  0.3340  1.0000  -3.1797   0.0000   0.0000   0.0000   0.3488
   9.300   2.1072   0.02785   0.02121  -0.2470  0.3326  1.0000  -3.2100   0.0000   0.0000   0.0000   0.3478
   9.400   2.1129   0.02800   0.02138  -0.2460  0.3313  1.0000  -3.2402   0.0000   0.0000   0.0000   0.3468
   9.500   2.1185   0.02815   0.02154  -0.2449  0.3299  1.0000  -3.2703   0.0000   0.0000   0.0000   0.3458
   9.600   2.1238   0.02830   0.02170  -0.2438  0.3284  1.0000  -3.3000   0.0000   0.0000   0.0000   0.3448
   9.700   2.1288   0.02845   0.02185  -0.2427  0.3269  1.0000  -3.3293   0.0000   0.0000   0.0000   0.3438
   9.800   2.1339   0.02862   0.02201  -0.2416  0.3252  1.0000  -3.3589   0.0000   0.0000   0.0000   0.3428
   9.900   2.1392   0.02881   0.02229  -0.2405  0.3232  1.0000  -3.3889   0.0000   0.0000   0.0000   0.3418
  10.000   2.1453   0.02906   0.02252  -0.2397  0.3209  1.0000  -3.4204   0.0000   0.0000   0.0000   0.3408
  10.100   2.1542   0.02940   0.02283  -0.2394  0.3178  1.0000  -3.4567   0.0000   0.0000   0.0000   0.3400
  10.200   2.1650   0.02983   0.02326  -0.2395  0.3147  1.0000  -3.4959   0.0000   0.0000   0.0000   0.3393
  10.300   2.1677   0.02998   0.02347  -0.2380  0.3141  1.0000  -3.5215   0.0000   0.0000   0.0000   0.3382
  10.400   2.1705   0.03015   0.02369  -0.2365  0.3133  1.0000  -3.5473   0.0000   0.0000   0.0000   0.3372
  10.500   2.1737   0.03033   0.02393  -0.2350  0.3123  1.0000  -3.5739   0.0000   0.0000   0.0000   0.3362
  10.600   2.1773   0.03053   0.02419  -0.2337  0.3113  1.0000  -3.6012   0.0000   0.0000   0.0000   0.3351
  10.700   2.1814   0.03075   0.02446  -0.2325  0.3102  1.0000  -3.6293   0.0000   0.0000   0.0000   0.3342
  10.800   2.1856   0.03098   0.02474  -0.2313  0.3090  1.0000  -3.6576   0.0000   0.0000   0.0000   0.3332
  10.900   2.1897   0.03122   0.02503  -0.2301  0.3077  1.0000  -3.6858   0.0000   0.0000   0.0000   0.3322
  11.000   2.1938   0.03146   0.02532  -0.2289  0.3063  1.0000  -3.7141   0.0000   0.0000   0.0000   0.3313
  11.100   2.1980   0.03172   0.02562  -0.2277  0.3049  1.0000  -3.7427   0.0000   0.0000   0.0000   0.3303
  11.200   2.2023   0.03197   0.02591  -0.2266  0.3034  1.0000  -3.7724   0.0000   0.0000   0.0000   0.3294
  11.300   2.2067   0.03222   0.02620  -0.2255  0.3018  1.0000  -3.8054   0.0000   0.0000   0.0000   0.3285
  11.400   2.2108   0.03249   0.02650  -0.2244  0.3003  1.0000  -3.8381   0.0000   0.0000   0.0000   0.3275
  11.500   2.2147   0.03276   0.02681  -0.2232  0.2987  1.0000  -3.8703   0.0000   0.0000   0.0000   0.3266
  11.600   2.2184   0.03305   0.02713  -0.2220  0.2971  1.0000  -3.9023   0.0000   0.0000   0.0000   0.3257
  11.700   2.2222   0.03335   0.02745  -0.2209  0.2954  1.0000  -3.9345   0.0000   0.0000   0.0000   0.3247
  11.800   2.2259   0.03367   0.02778  -0.2197  0.2937  1.0000  -3.9666   0.0000   0.0000   0.0000   0.3238
  11.900   2.2294   0.03400   0.02812  -0.2186  0.2920  1.0000  -3.9984   0.0000   0.0000   0.0000   0.3229
  12.000   2.2326   0.03438   0.02851  -0.2174  0.2901  1.0000  -4.0294   0.0000   0.0000   0.0000   0.3220
  12.100   2.2355   0.03481   0.02894  -0.2162  0.2880  1.0000  -4.0599   0.0000   0.0000   0.0000   0.3211
  12.200   2.2393   0.03527   0.02939  -0.2151  0.2854  1.0000  -4.0923   0.0000   0.0000   0.0000   0.3202
  12.300   2.2439   0.03570   0.02985  -0.2142  0.2832  1.0000  -4.1262   0.0000   0.0000   0.0000   0.3194
  12.400   2.2466   0.03607   0.03029  -0.2130  0.2823  1.0000  -4.1563   0.0000   0.0000   0.0000   0.3185
  12.500   2.2496   0.03644   0.03074  -0.2119  0.2811  1.0000  -4.1871   0.0000   0.0000   0.0000   0.3176
  12.600   2.2525   0.03684   0.03120  -0.2107  0.2796  1.0000  -4.2177   0.0000   0.0000   0.0000   0.3168
  12.700   2.2553   0.03725   0.03168  -0.2096  0.2779  1.0000  -4.2481   0.0000   0.0000   0.0000   0.3159
  12.800   2.2581   0.03767   0.03216  -0.2085  0.2760  1.0000  -4.2787   0.0000   0.0000   0.0000   0.3151
  12.900   2.2611   0.03809   0.03263  -0.2074  0.2739  1.0000  -4.3095   0.0000   0.0000   0.0000   0.3142
  13.000   2.2639   0.03852   0.03316  -0.2063  0.2717  1.0000  -4.3404   0.0000   0.0000   0.0000   0.3134
  13.100   2.2662   0.03899   0.03367  -0.2052  0.2693  1.0000  -4.3699   0.0000   0.0000   0.0000   0.3126
  13.200   2.2676   0.03952   0.03423  -0.2039  0.2669  1.0000  -4.3976   0.0000   0.0000   0.0000   0.3117
  13.300   2.2684   0.04009   0.03481  -0.2027  0.2642  1.0000  -4.4240   0.0000   0.0000   0.0000   0.3109
  13.400   2.2683   0.04073   0.03544  -0.2013  0.2612  1.0000  -4.4485   0.0000   0.0000   0.0000   0.3100
  13.500   2.2670   0.04150   0.03619  -0.1999  0.2579  1.0000  -4.4701   0.0000   0.0000   0.0000   0.3092
  13.600   2.2643   0.04242   0.03709  -0.1983  0.2543  1.0000  -4.4883   0.0000   0.0000   0.0000   0.3083
  13.700   2.2665   0.04301   0.03776  -0.1974  0.2515  1.0000  -4.5176   0.0000   0.0000   0.0000   0.3076
  13.800   2.2684   0.04362   0.03844  -0.1965  0.2480  1.0000  -4.5463   0.0000   0.0000   0.0000   0.3069
  13.900   2.2687   0.04438   0.03923  -0.1954  0.2437  1.0000  -4.5714   0.0000   0.0000   0.0000   0.3061
  14.000   2.2669   0.04532   0.04018  -0.1941  0.2392  1.0000  -4.5914   0.0000   0.0000   0.0000   0.3054
  14.100   2.2637   0.04638   0.04123  -0.1928  0.2346  1.0000  -4.6082   0.0000   0.0000   0.0000   0.3046
  14.200   2.2588   0.04763   0.04244  -0.1914  0.2302  1.0000  -4.6209   0.0000   0.0000   0.0000   0.3039
  14.300   2.2526   0.04906   0.04386  -0.1899  0.2258  1.0000  -4.6297   0.0000   0.0000   0.0000   0.3033
  14.400   2.2530   0.04995   0.04480  -0.1891  0.2215  1.0000  -4.6543   0.0000   0.0000   0.0000   0.3026
  14.500   2.2512   0.05105   0.04594  -0.1881  0.2163  1.0000  -4.6739   0.0000   0.0000   0.0000   0.3020
  14.600   2.2465   0.05249   0.04739  -0.1871  0.2113  1.0000  -4.6859   0.0000   0.0000   0.0000   0.3014
  14.700   2.2402   0.05413   0.04902  -0.1859  0.2065  1.0000  -4.6939   0.0000   0.0000   0.0000   0.3009
  14.800   2.2323   0.05600   0.05088  -0.1849  0.2022  1.0000  -4.6975   0.0000   0.0000   0.0000   0.3004
  14.900   2.2246   0.05792   0.05280  -0.1839  0.1980  1.0000  -4.7011   0.0000   0.0000   0.0000   0.3000
  15.000   2.2220   0.05930   0.05422  -0.1832  0.1936  1.0000  -4.7174   0.0000   0.0000   0.0000   0.2995
  15.100   2.2166   0.06106   0.05600  -0.1825  0.1892  1.0000  -4.7263   0.0000   0.0000   0.0000   0.2991
  15.200   2.2097   0.06303   0.05799  -0.1818  0.1850  1.0000  -4.7312   0.0000   0.0000   0.0000   0.2987
  15.300   2.2012   0.06524   0.06022  -0.1812  0.1812  1.0000  -4.7316   0.0000   0.0000   0.0000   0.2985
  15.400   2.1913   0.06771   0.06270  -0.1807  0.1778  1.0000  -4.7277   0.0000   0.0000   0.0000   0.2984
  15.500   2.1812   0.07024   0.06525  -0.1803  0.1745  1.0000  -4.7231   0.0000   0.0000   0.0000   0.2983
  15.600   2.1739   0.07247   0.06752  -0.1801  0.1713  1.0000  -4.7252   0.0000   0.0000   0.0000   0.2981
  15.700   2.1688   0.07442   0.06951  -0.1799  0.1679  1.0000  -4.7329   0.0000   0.0000   0.0000   0.2979
  15.800   2.1613   0.07674   0.07188  -0.1798  0.1646  1.0000  -4.7339   0.0000   0.0000   0.0000   0.2979
  15.900   2.1529   0.07922   0.07439  -0.1797  0.1615  1.0000  -4.7320   0.0000   0.0000   0.0000   0.2979
  16.000   2.1434   0.08187   0.07707  -0.1798  0.1586  1.0000  -4.7269   0.0000   0.0000   0.0000   0.2980
  16.100   2.1325   0.08478   0.08001  -0.1800  0.1561  1.0000  -4.7171   0.0000   0.0000   0.0000   0.2982
  16.200   2.1214   0.08771   0.08297  -0.1803  0.1535  1.0000  -4.7065   0.0000   0.0000   0.0000   0.2985
  16.300   2.1093   0.09086   0.08616  -0.1807  0.1513  1.0000  -4.6921   0.0000   0.0000   0.0000   0.2989
  16.400   2.0984   0.09378   0.08911  -0.1811  0.1488  1.0000  -4.6807   0.0000   0.0000   0.0000   0.2992
  16.500   2.0918   0.09612   0.09151  -0.1814  0.1466  1.0000  -4.6814   0.0000   0.0000   0.0000   0.2994
  16.600   2.0847   0.09851   0.09396  -0.1818  0.1442  1.0000  -4.6803   0.0000   0.0000   0.0000   0.2995
  16.700   2.0773   0.10091   0.09640  -0.1822  0.1416  1.0000  -4.6784   0.0000   0.0000   0.0000   0.2997
  16.800   2.0683   0.10361   0.09914  -0.1827  0.1393  1.0000  -4.6709   0.0000   0.0000   0.0000   0.3001
  16.900   2.0585   0.10643   0.10199  -0.1834  0.1371  1.0000  -4.6608   0.0000   0.0000   0.0000   0.3005
  17.000   2.0492   0.10913   0.10472  -0.1840  0.1347  1.0000  -4.6519   0.0000   0.0000   0.0000   0.3010
  17.100   2.0392   0.11197   0.10758  -0.1847  0.1326  1.0000  -4.6402   0.0000   0.0000   0.0000   0.3015


