xflr5 v6.61

 Calculated polar for: S1223

 1 1 Reynolds number fixed          Mach number fixed         

 xtrf =   1.000 (top)        1.000 (bottom)
 Mach =   0.000     Re =     0.688 e 6     Ncrit =   9.000

  alpha     CL        CD       CDp       Cm    Top Xtr Bot Xtr   Cpmin    Chinge    XCp    
 ------- -------- --------- --------- -------- ------- ------- -------- --------- ---------
 -10.000  -0.0016   0.12580   0.12363  -0.0743  0.9723  0.0162  -1.0298   0.0000   0.0000   0.0000  -48.2755
  -9.900   0.0062   0.12445   0.12228  -0.0759  0.9720  0.0162  -1.0283   0.0000   0.0000   0.0000  13.4067
  -9.800   0.0142   0.12310   0.12092  -0.0775  0.9717  0.0163  -1.0267   0.0000   0.0000   0.0000   6.1214
  -9.700   0.0222   0.12175   0.11957  -0.0792  0.9714  0.0163  -1.0252   0.0000   0.0000   0.0000   4.0694
  -9.600   0.0202   0.12108   0.11891  -0.0778  0.9680  0.0163  -1.0281   0.0000   0.0000   0.0000   4.3684
  -9.500   0.0245   0.12001   0.11784  -0.0783  0.9666  0.0163  -1.0283   0.0000   0.0000   0.0000   3.6690
  -9.400   0.0298   0.11888   0.11672  -0.0792  0.9655  0.0164  -1.0281   0.0000   0.0000   0.0000   3.0866
  -9.300   0.0357   0.11771   0.11555  -0.0802  0.9647  0.0164  -1.0277   0.0000   0.0000   0.0000   2.6476
  -9.200   0.0420   0.11652   0.11436  -0.0813  0.9639  0.0164  -1.0271   0.0000   0.0000   0.0000   2.3155
  -9.100   0.0486   0.11529   0.11313  -0.0825  0.9631  0.0164  -1.0264   0.0000   0.0000   0.0000   2.0591
  -9.000   0.0553   0.11404   0.11188  -0.0837  0.9625  0.0165  -1.0257   0.0000   0.0000   0.0000   1.8591
  -8.900   0.0624   0.11278   0.11062  -0.0850  0.9618  0.0165  -1.0249   0.0000   0.0000   0.0000   1.6985
  -8.800   0.0696   0.11150   0.10934  -0.0864  0.9613  0.0165  -1.0240   0.0000   0.0000   0.0000   1.5671
  -8.700   0.0771   0.11021   0.10805  -0.0878  0.9607  0.0165  -1.0232   0.0000   0.0000   0.0000   1.4575
  -8.600   0.0848   0.10890   0.10674  -0.0893  0.9602  0.0166  -1.0222   0.0000   0.0000   0.0000   1.3651
  -8.500   0.0927   0.10757   0.10542  -0.0909  0.9598  0.0166  -1.0213   0.0000   0.0000   0.0000   1.2864
  -8.400   0.1009   0.10624   0.10408  -0.0925  0.9593  0.0166  -1.0204   0.0000   0.0000   0.0000   1.2186
  -8.300   0.0947   0.10599   0.10385  -0.0899  0.9545  0.0166  -1.0258   0.0000   0.0000   0.0000   1.2527
  -8.200   0.0982   0.10500   0.10286  -0.0901  0.9522  0.0166  -1.0270   0.0000   0.0000   0.0000   1.2182
  -8.100   0.1039   0.10385   0.10171  -0.0910  0.9506  0.0166  -1.0273   0.0000   0.0000   0.0000   1.1736
  -8.000   0.1103   0.10264   0.10051  -0.0921  0.9492  0.0167  -1.0275   0.0000   0.0000   0.0000   1.1291
  -7.900   0.1173   0.10139   0.09926  -0.0934  0.9480  0.0167  -1.0272   0.0000   0.0000   0.0000   1.0871
  -7.800   0.1247   0.10012   0.09799  -0.0947  0.9470  0.0167  -1.0260   0.0000   0.0000   0.0000   1.0477
  -7.700   0.1324   0.09882   0.09669  -0.0961  0.9460  0.0167  -1.0248   0.0000   0.0000   0.0000   1.0117
  -7.600   0.1404   0.09752   0.09539  -0.0976  0.9451  0.0167  -1.0236   0.0000   0.0000   0.0000   0.9790
  -7.500   0.1485   0.09621   0.09407  -0.0991  0.9443  0.0168  -1.0221   0.0000   0.0000   0.0000   0.9491
  -7.400   0.1397   0.09622   0.09411  -0.0958  0.9372  0.0168  -1.0287   0.0000   0.0000   0.0000   0.9678
  -7.300   0.1437   0.09524   0.09313  -0.0961  0.9341  0.0168  -1.0292   0.0000   0.0000   0.0000   0.9498
  -7.200   0.1492   0.09411   0.09201  -0.0968  0.9318  0.0168  -1.0289   0.0000   0.0000   0.0000   0.9284
  -7.100   0.1555   0.09293   0.09083  -0.0978  0.9298  0.0168  -1.0284   0.0000   0.0000   0.0000   0.9068
  -7.000   0.1622   0.09172   0.08962  -0.0989  0.9280  0.0168  -1.0277   0.0000   0.0000   0.0000   0.8860
  -6.800   0.1630   0.09036   0.08827  -0.0975  0.9180  0.0168  -1.0324   0.0000   0.0000   0.0000   0.8730
  -6.700   0.1666   0.08939   0.08731  -0.0976  0.9137  0.0168  -1.0333   0.0000   0.0000   0.0000   0.8602
  -6.600   0.1732   0.08817   0.08607  -0.0986  0.9106  0.0168  -1.0330   0.0000   0.0000   0.0000   0.8424
  -6.500   0.1818   0.08681   0.08470  -0.1002  0.9079  0.0169  -1.0315   0.0000   0.0000   0.0000   0.8228
  -6.400   0.1880   0.08567   0.08356  -0.1011  0.9035  0.0169  -1.0313   0.0000   0.0000   0.0000   0.8084
  -6.300   0.1936   0.08457   0.08245  -0.1018  0.8969  0.0169  -1.0314   0.0000   0.0000   0.0000   0.7955
  -6.200   0.2052   0.08300   0.08086  -0.1042  0.8912  0.0169  -1.0287   0.0000   0.0000   0.0000   0.7761
  -6.100   0.2230   0.08098   0.07880  -0.1082  0.8862  0.0169  -1.0232   0.0000   0.0000   0.0000   0.7525
  -6.000   0.2416   0.07895   0.07673  -0.1125  0.8777  0.0169  -1.0175   0.0000   0.0000   0.0000   0.7316
  -5.900   0.2692   0.07635   0.07404  -0.1193  0.8647  0.0170  -1.0077   0.0000   0.0000   0.0000   0.7078
  -5.800   0.3053   0.07330   0.07084  -0.1285  0.8434  0.0170  -0.9943   0.0000   0.0000   0.0000   0.6840
  -5.700   0.3313   0.07114   0.06846  -0.1348  0.8086  0.0170  -0.9857   0.0000   0.0000   0.0000   0.6691
  -5.600   0.3397   0.07021   0.06732  -0.1361  0.7716  0.0170  -0.9851   0.0000   0.0000   0.0000   0.6627
  -5.500   0.3383   0.06989   0.06684  -0.1348  0.7381  0.0170  -0.9891   0.0000   0.0000   0.0000   0.6601
  -5.400   0.3341   0.06973   0.06654  -0.1328  0.7089  0.0170  -0.9944   0.0000   0.0000   0.0000   0.6587
  -5.300   0.3307   0.06949   0.06620  -0.1310  0.6842  0.0170  -0.9996   0.0000   0.0000   0.0000   0.6571
  -5.200   0.3267   0.06927   0.06589  -0.1291  0.6635  0.0170  -1.0051   0.0000   0.0000   0.0000   0.6557
  -5.100   0.3234   0.06899   0.06553  -0.1273  0.6443  0.0170  -1.0105   0.0000   0.0000   0.0000   0.6542
  -5.000   0.3215   0.06858   0.06505  -0.1260  0.6295  0.0170  -1.0153   0.0000   0.0000   0.0000   0.6521
  -4.900   0.3215   0.06800   0.06442  -0.1252  0.6151  0.0171  -1.0193   0.0000   0.0000   0.0000   0.6491
  -4.800   0.3212   0.06745   0.06380  -0.1243  0.6013  0.0171  -1.0235   0.0000   0.0000   0.0000   0.6464
  -4.700   0.3231   0.06669   0.06303  -0.1240  0.5922  0.0171  -1.0269   0.0000   0.0000   0.0000   0.6427
  -4.600   0.3249   0.06595   0.06225  -0.1236  0.5826  0.0171  -1.0304   0.0000   0.0000   0.0000   0.6392
  -4.500   0.3263   0.06526   0.06151  -0.1232  0.5728  0.0171  -1.0343   0.0000   0.0000   0.0000   0.6359
  -4.400   0.3279   0.06454   0.06076  -0.1228  0.5637  0.0171  -1.0382   0.0000   0.0000   0.0000   0.6326
  -4.300   0.3310   0.06371   0.05992  -0.1229  0.5582  0.0171  -1.0417   0.0000   0.0000   0.0000   0.6289
  -4.200   0.3342   0.06289   0.05908  -0.1229  0.5522  0.0171  -1.0454   0.0000   0.0000   0.0000   0.6253
  -4.100   0.3373   0.06207   0.05824  -0.1230  0.5461  0.0171  -1.0492   0.0000   0.0000   0.0000   0.6217
  -4.000   0.3404   0.06127   0.05741  -0.1231  0.5398  0.0171  -1.0532   0.0000   0.0000   0.0000   0.6183
  -3.900   0.3434   0.06047   0.05658  -0.1231  0.5330  0.0171  -1.0574   0.0000   0.0000   0.0000   0.6149
  -3.800   0.3472   0.05961   0.05570  -0.1234  0.5269  0.0171  -1.0615   0.0000   0.0000   0.0000   0.6114
  -3.700   0.3522   0.05865   0.05473  -0.1239  0.5237  0.0171  -1.0654   0.0000   0.0000   0.0000   0.6077
  -3.600   0.3573   0.05768   0.05376  -0.1245  0.5201  0.0171  -1.0696   0.0000   0.0000   0.0000   0.6040
  -3.500   0.3627   0.05670   0.05277  -0.1252  0.5162  0.0171  -1.0739   0.0000   0.0000   0.0000   0.6003
  -3.400   0.3682   0.05571   0.05177  -0.1259  0.5121  0.0171  -1.0784   0.0000   0.0000   0.0000   0.5968
  -3.300   0.3738   0.05473   0.05077  -0.1267  0.5078  0.0171  -1.0832   0.0000   0.0000   0.0000   0.5933
  -3.200   0.3796   0.05373   0.04975  -0.1275  0.5034  0.0171  -1.0883   0.0000   0.0000   0.0000   0.5899
  -3.100   0.3860   0.05271   0.04870  -0.1284  0.4984  0.0171  -1.0936   0.0000   0.0000   0.0000   0.5865
  -3.000   0.3932   0.05163   0.04760  -0.1296  0.4929  0.0171  -1.0991   0.0000   0.0000   0.0000   0.5831
  -2.900   0.4019   0.05044   0.04639  -0.1311  0.4894  0.0171  -1.1048   0.0000   0.0000   0.0000   0.5795
  -2.800   0.4122   0.04914   0.04509  -0.1331  0.4875  0.0171  -1.1109   0.0000   0.0000   0.0000   0.5758
  -2.700   0.4235   0.04778   0.04372  -0.1353  0.4851  0.0171  -1.1177   0.0000   0.0000   0.0000   0.5722
  -2.600   0.4360   0.04635   0.04228  -0.1378  0.4824  0.0171  -1.1254   0.0000   0.0000   0.0000   0.5686
  -2.400   0.8190   0.01546   0.00930  -0.2497  0.4594  0.0138  -1.9215   0.0000   0.0000   0.0000   0.5567
  -2.300   0.8506   0.01463   0.00822  -0.2543  0.4532  0.0139  -1.8739   0.0000   0.0000   0.0000   0.5506
  -2.200   0.8752   0.01409   0.00755  -0.2573  0.4515  0.0142  -1.8266   0.0000   0.0000   0.0000   0.5454
  -2.100   0.8949   0.01379   0.00716  -0.2591  0.4495  0.0148  -1.7687   0.0000   0.0000   0.0000   0.5407
  -2.000   0.9100   0.01368   0.00700  -0.2599  0.4472  0.0154  -1.6985   0.0000   0.0000   0.0000   0.5366
  -1.900   0.9220   0.01369   0.00700  -0.2599  0.4448  0.0160  -1.6194   0.0000   0.0000   0.0000   0.5328
  -1.800   0.9322   0.01377   0.00707  -0.2597  0.4422  0.0164  -1.5367   0.0000   0.0000   0.0000   0.5292
  -1.700   0.9413   0.01390   0.00719  -0.2591  0.4394  0.0168  -1.4531   0.0000   0.0000   0.0000   0.5257
  -1.600   0.9494   0.01408   0.00737  -0.2583  0.4365  0.0170  -1.3698   0.0000   0.0000   0.0000   0.5224
  -1.500   0.9821   0.01333   0.00643  -0.2633  0.4319  0.0207  -1.3143   0.0000   0.0000   0.0000   0.5182
  -1.400   0.9948   0.01334   0.00641  -0.2637  0.4278  0.0217  -1.3272   0.0000   0.0000   0.0000   0.5150
  -1.300   1.0073   0.01337   0.00640  -0.2640  0.4232  0.0225  -1.3398   0.0000   0.0000   0.0000   0.5117
  -1.200   1.0200   0.01340   0.00639  -0.2643  0.4184  0.0233  -1.3524   0.0000   0.0000   0.0000   0.5086
  -1.100   1.0335   0.01337   0.00634  -0.2647  0.4167  0.0239  -1.3659   0.0000   0.0000   0.0000   0.5055
  -1.000   1.0473   0.01331   0.00627  -0.2652  0.4157  0.0245  -1.3796   0.0000   0.0000   0.0000   0.5024
  -0.900   1.0613   0.01325   0.00620  -0.2658  0.4146  0.0249  -1.3935   0.0000   0.0000   0.0000   0.4994
  -0.800   1.0753   0.01321   0.00613  -0.2663  0.4133  0.0253  -1.4073   0.0000   0.0000   0.0000   0.4965
  -0.700   1.0893   0.01316   0.00606  -0.2668  0.4119  0.0257  -1.4212   0.0000   0.0000   0.0000   0.4936
  -0.600   1.1032   0.01313   0.00600  -0.2674  0.4102  0.0259  -1.4350   0.0000   0.0000   0.0000   0.4908
  -0.500   1.1170   0.01310   0.00594  -0.2678  0.4085  0.0262  -1.4488   0.0000   0.0000   0.0000   0.4881
  -0.400   1.1303   0.01310   0.00591  -0.2682  0.4067  0.0266  -1.4623   0.0000   0.0000   0.0000   0.4854
  -0.300   1.1441   0.01308   0.00585  -0.2687  0.4048  0.0267  -1.4761   0.0000   0.0000   0.0000   0.4828
  -0.200   1.1563   0.01311   0.00586  -0.2689  0.4029  0.0278  -1.4889   0.0000   0.0000   0.0000   0.4803
  -0.100   1.1683   0.01314   0.00587  -0.2690  0.4009  0.0286  -1.5016   0.0000   0.0000   0.0000   0.4779
   0.000   1.1803   0.01318   0.00588  -0.2691  0.3989  0.0293  -1.5143   0.0000   0.0000   0.0000   0.4755
   0.100   1.1926   0.01322   0.00588  -0.2693  0.3967  0.0296  -1.5271   0.0000   0.0000   0.0000   0.4731
   0.200   1.2053   0.01326   0.00587  -0.2696  0.3943  0.0298  -1.5402   0.0000   0.0000   0.0000   0.4708
   0.300   1.2181   0.01330   0.00585  -0.2699  0.3918  0.0299  -1.5533   0.0000   0.0000   0.0000   0.4685
   0.400   1.2305   0.01335   0.00585  -0.2700  0.3890  0.0300  -1.5660   0.0000   0.0000   0.0000   0.4662
   0.500   1.2431   0.01342   0.00585  -0.2702  0.3863  0.0308  -1.5787   0.0000   0.0000   0.0000   0.4640
   0.700   1.2812   0.01327   0.00610  -0.2738  0.3818  0.2375  -1.6157   0.0000   0.0000   0.0000   0.4600
   0.800   1.2926   0.01331   0.00615  -0.2738  0.3814  0.2478  -1.6295   0.0000   0.0000   0.0000   0.4579
   0.900   1.3042   0.01334   0.00622  -0.2738  0.3810  0.2590  -1.6435   0.0000   0.0000   0.0000   0.4559
   1.000   1.3153   0.01338   0.00629  -0.2738  0.3805  0.2670  -1.6571   0.0000   0.0000   0.0000   0.4539
   1.100   1.3260   0.01343   0.00634  -0.2736  0.3799  0.2723  -1.6704   0.0000   0.0000   0.0000   0.4519
   1.200   1.3364   0.01349   0.00639  -0.2734  0.3793  0.2755  -1.6836   0.0000   0.0000   0.0000   0.4500
   1.300   1.3476   0.01353   0.00644  -0.2733  0.3786  0.2824  -1.6973   0.0000   0.0000   0.0000   0.4481
   1.400   1.3593   0.01356   0.00650  -0.2734  0.3778  0.2936  -1.7115   0.0000   0.0000   0.0000   0.4462
   1.500   1.3706   0.01361   0.00657  -0.2733  0.3769  0.3009  -1.7253   0.0000   0.0000   0.0000   0.4444
   1.600   1.3816   0.01366   0.00663  -0.2732  0.3760  0.3062  -1.7390   0.0000   0.0000   0.0000   0.4425
   1.700   1.3926   0.01371   0.00669  -0.2731  0.3751  0.3101  -1.7527   0.0000   0.0000   0.0000   0.4407
   1.800   1.4039   0.01376   0.00671  -0.2731  0.3742  0.2987  -1.7665   0.0000   0.0000   0.0000   0.4389
   1.900   1.4149   0.01382   0.00679  -0.2730  0.3734  0.3074  -1.7802   0.0000   0.0000   0.0000   0.4372
   2.000   1.4255   0.01388   0.00685  -0.2728  0.3725  0.3145  -1.7936   0.0000   0.0000   0.0000   0.4355
   2.100   1.4362   0.01395   0.00692  -0.2727  0.3716  0.3222  -1.8070   0.0000   0.0000   0.0000   0.4338
   2.200   1.4477   0.01400   0.00701  -0.2727  0.3706  0.3370  -1.8211   0.0000   0.0000   0.0000   0.4321
   2.300   1.4588   0.01407   0.00709  -0.2727  0.3696  0.3471  -1.8349   0.0000   0.0000   0.0000   0.4305
   2.400   1.4695   0.01414   0.00717  -0.2725  0.3687  0.3544  -1.8484   0.0000   0.0000   0.0000   0.4289
   2.500   1.4799   0.01422   0.00724  -0.2723  0.3677  0.3592  -1.8617   0.0000   0.0000   0.0000   0.4273
   2.600   1.4909   0.01429   0.00732  -0.2722  0.3667  0.3696  -1.8755   0.0000   0.0000   0.0000   0.4257
   2.700   1.5019   0.01436   0.00741  -0.2722  0.3657  0.3817  -1.8893   0.0000   0.0000   0.0000   0.4241
   2.800   1.5127   0.01444   0.00750  -0.2721  0.3646  0.3920  -1.9030   0.0000   0.0000   0.0000   0.4226
   2.900   1.5232   0.01453   0.00759  -0.2719  0.3635  0.4006  -1.9163   0.0000   0.0000   0.0000   0.4211
   3.000   1.5336   0.01461   0.00768  -0.2717  0.3624  0.4097  -1.9297   0.0000   0.0000   0.0000   0.4196
   3.100   1.5446   0.01470   0.00779  -0.2716  0.3612  0.4250  -1.9434   0.0000   0.0000   0.0000   0.4181
   3.200   1.5552   0.01480   0.00790  -0.2715  0.3599  0.4378  -1.9569   0.0000   0.0000   0.0000   0.4166
   3.300   1.5655   0.01490   0.00800  -0.2713  0.3586  0.4484  -1.9701   0.0000   0.0000   0.0000   0.4152
   3.400   1.5762   0.01501   0.00812  -0.2712  0.3572  0.4629  -1.9835   0.0000   0.0000   0.0000   0.4137
   3.500   1.5871   0.01512   0.00826  -0.2711  0.3557  0.4790  -1.9970   0.0000   0.0000   0.0000   0.4124
   3.600   1.5977   0.01524   0.00839  -0.2710  0.3541  0.4927  -2.0103   0.0000   0.0000   0.0000   0.4110
   3.700   1.6085   0.01537   0.00853  -0.2709  0.3526  0.5079  -2.0236   0.0000   0.0000   0.0000   0.4096
   3.800   1.6198   0.01550   0.00870  -0.2709  0.3510  0.5267  -2.0373   0.0000   0.0000   0.0000   0.4083
   3.900   1.6308   0.01565   0.00886  -0.2709  0.3494  0.5430  -2.0507   0.0000   0.0000   0.0000   0.4069
   4.000   1.6427   0.01580   0.00906  -0.2710  0.3478  0.5649  -2.0646   0.0000   0.0000   0.0000   0.4057
   4.100   1.6536   0.01586   0.00916  -0.2710  0.3476  0.5872  -2.0786   0.0000   0.0000   0.0000   0.4043
   4.200   1.6648   0.01592   0.00927  -0.2709  0.3474  0.6120  -2.0928   0.0000   0.0000   0.0000   0.4031
   4.300   1.6757   0.01598   0.00938  -0.2709  0.3472  0.6382  -2.1069   0.0000   0.0000   0.0000   0.4018
   4.400   1.6869   0.01603   0.00954  -0.2709  0.3469  0.6688  -2.1217   0.0000   0.0000   0.0000   0.4005
   4.500   1.6979   0.01609   0.00965  -0.2708  0.3465  0.6995  -2.1374   0.0000   0.0000   0.0000   0.3993
   4.800   1.7302   0.01621   0.01000  -0.2705  0.3453  0.8349  -2.1838   0.0000   0.0000   0.0000   0.3955
   4.900   1.7311   0.01607   0.00998  -0.2682  0.3449  1.0000  -2.1905   0.0000   0.0000   0.0000   0.3940
   5.000   1.7410   0.01616   0.01007  -0.2679  0.3444  1.0000  -2.2051   0.0000   0.0000   0.0000   0.3927
   5.100   1.7508   0.01625   0.01016  -0.2676  0.3439  1.0000  -2.2197   0.0000   0.0000   0.0000   0.3915
   5.200   1.7607   0.01634   0.01025  -0.2673  0.3433  1.0000  -2.2344   0.0000   0.0000   0.0000   0.3903
   5.300   1.7704   0.01643   0.01035  -0.2670  0.3427  1.0000  -2.2503   0.0000   0.0000   0.0000   0.3891
   5.400   1.7801   0.01652   0.01044  -0.2667  0.3421  1.0000  -2.2663   0.0000   0.0000   0.0000   0.3880
   5.500   1.7898   0.01662   0.01054  -0.2664  0.3414  1.0000  -2.2823   0.0000   0.0000   0.0000   0.3868
   5.600   1.7994   0.01671   0.01063  -0.2661  0.3406  1.0000  -2.2983   0.0000   0.0000   0.0000   0.3856
   5.700   1.8090   0.01680   0.01073  -0.2657  0.3398  1.0000  -2.3143   0.0000   0.0000   0.0000   0.3845
   5.800   1.8185   0.01690   0.01083  -0.2654  0.3390  1.0000  -2.3303   0.0000   0.0000   0.0000   0.3833
   5.900   1.8280   0.01700   0.01093  -0.2650  0.3382  1.0000  -2.3475   0.0000   0.0000   0.0000   0.3822
   6.000   1.8374   0.01710   0.01103  -0.2647  0.3374  1.0000  -2.3668   0.0000   0.0000   0.0000   0.3811
   6.100   1.8468   0.01720   0.01113  -0.2643  0.3366  1.0000  -2.3860   0.0000   0.0000   0.0000   0.3799
   6.200   1.8560   0.01730   0.01123  -0.2639  0.3356  1.0000  -2.4052   0.0000   0.0000   0.0000   0.3788
   6.300   1.8652   0.01740   0.01133  -0.2635  0.3346  1.0000  -2.4243   0.0000   0.0000   0.0000   0.3777
   6.400   1.8742   0.01751   0.01144  -0.2631  0.3334  1.0000  -2.4434   0.0000   0.0000   0.0000   0.3766
   6.500   1.8831   0.01762   0.01154  -0.2626  0.3322  1.0000  -2.4623   0.0000   0.0000   0.0000   0.3755
   6.600   1.8919   0.01774   0.01166  -0.2622  0.3311  1.0000  -2.4813   0.0000   0.0000   0.0000   0.3744
   6.700   1.9007   0.01787   0.01178  -0.2617  0.3299  1.0000  -2.5001   0.0000   0.0000   0.0000   0.3733
   6.800   1.9095   0.01800   0.01191  -0.2612  0.3288  1.0000  -2.5190   0.0000   0.0000   0.0000   0.3723
   6.900   1.9182   0.01814   0.01205  -0.2607  0.3276  1.0000  -2.5378   0.0000   0.0000   0.0000   0.3712
   7.000   1.9269   0.01829   0.01219  -0.2603  0.3265  1.0000  -2.5566   0.0000   0.0000   0.0000   0.3702
   7.100   1.9357   0.01845   0.01243  -0.2598  0.3253  1.0000  -2.5769   0.0000   0.0000   0.0000   0.3691
   7.200   1.9444   0.01861   0.01259  -0.2593  0.3240  1.0000  -2.5985   0.0000   0.0000   0.0000   0.3681
   7.300   1.9531   0.01879   0.01277  -0.2589  0.3226  1.0000  -2.6217   0.0000   0.0000   0.0000   0.3670
   7.400   1.9619   0.01897   0.01295  -0.2584  0.3209  1.0000  -2.6449   0.0000   0.0000   0.0000   0.3660
   7.500   1.9709   0.01917   0.01315  -0.2580  0.3191  1.0000  -2.6684   0.0000   0.0000   0.0000   0.3650
   7.600   1.9802   0.01940   0.01338  -0.2577  0.3171  1.0000  -2.6922   0.0000   0.0000   0.0000   0.3641
   7.700   1.9898   0.01964   0.01363  -0.2575  0.3149  1.0000  -2.7210   0.0000   0.0000   0.0000   0.3631
   7.800   1.9981   0.01972   0.01372  -0.2569  0.3147  1.0000  -2.7539   0.0000   0.0000   0.0000   0.3621
   7.900   2.0064   0.01980   0.01381  -0.2564  0.3143  1.0000  -2.7869   0.0000   0.0000   0.0000   0.3611
   8.000   2.0147   0.01988   0.01392  -0.2558  0.3139  1.0000  -2.8200   0.0000   0.0000   0.0000   0.3601
   8.100   2.0230   0.01998   0.01403  -0.2552  0.3135  1.0000  -2.8532   0.0000   0.0000   0.0000   0.3591
   8.200   2.0312   0.02006   0.01414  -0.2547  0.3130  1.0000  -2.8865   0.0000   0.0000   0.0000   0.3581
   8.300   2.0394   0.02015   0.01425  -0.2541  0.3123  1.0000  -2.9200   0.0000   0.0000   0.0000   0.3571
   8.400   2.0477   0.02024   0.01435  -0.2536  0.3115  1.0000  -2.9536   0.0000   0.0000   0.0000   0.3561
   8.500   2.0560   0.02033   0.01446  -0.2531  0.3105  1.0000  -2.9874   0.0000   0.0000   0.0000   0.3552
   8.600   2.0643   0.02042   0.01457  -0.2525  0.3093  1.0000  -3.0214   0.0000   0.0000   0.0000   0.3542
   8.700   2.0727   0.02052   0.01468  -0.2520  0.3080  1.0000  -3.0555   0.0000   0.0000   0.0000   0.3532
   8.800   2.0810   0.02062   0.01480  -0.2515  0.3067  1.0000  -3.0898   0.0000   0.0000   0.0000   0.3523
   8.900   2.0893   0.02073   0.01492  -0.2510  0.3053  1.0000  -3.1241   0.0000   0.0000   0.0000   0.3514
   9.000   2.0976   0.02085   0.01506  -0.2504  0.3040  1.0000  -3.1584   0.0000   0.0000   0.0000   0.3504
   9.100   2.1057   0.02099   0.01520  -0.2499  0.3027  1.0000  -3.1926   0.0000   0.0000   0.0000   0.3495
   9.200   2.1137   0.02113   0.01536  -0.2493  0.3013  1.0000  -3.2267   0.0000   0.0000   0.0000   0.3486
   9.300   2.1215   0.02129   0.01551  -0.2487  0.2998  1.0000  -3.2605   0.0000   0.0000   0.0000   0.3476
   9.400   2.1290   0.02145   0.01568  -0.2481  0.2982  1.0000  -3.2940   0.0000   0.0000   0.0000   0.3467
   9.500   2.1361   0.02163   0.01587  -0.2474  0.2966  1.0000  -3.3269   0.0000   0.0000   0.0000   0.3458
   9.600   2.1431   0.02183   0.01607  -0.2466  0.2951  1.0000  -3.3595   0.0000   0.0000   0.0000   0.3448
   9.700   2.1498   0.02205   0.01628  -0.2459  0.2934  1.0000  -3.3918   0.0000   0.0000   0.0000   0.3439
   9.800   2.1562   0.02228   0.01658  -0.2450  0.2915  1.0000  -3.4236   0.0000   0.0000   0.0000   0.3430
   9.900   2.1625   0.02253   0.01683  -0.2442  0.2895  1.0000  -3.4553   0.0000   0.0000   0.0000   0.3420
  10.000   2.1688   0.02280   0.01710  -0.2433  0.2873  1.0000  -3.4869   0.0000   0.0000   0.0000   0.3411
  10.100   2.1750   0.02308   0.01739  -0.2425  0.2850  1.0000  -3.5187   0.0000   0.0000   0.0000   0.3402
  10.200   2.1820   0.02332   0.01763  -0.2418  0.2834  1.0000  -3.5519   0.0000   0.0000   0.0000   0.3393
  10.300   2.1901   0.02344   0.01779  -0.2413  0.2829  1.0000  -3.5874   0.0000   0.0000   0.0000   0.3384
  10.400   2.1982   0.02357   0.01795  -0.2408  0.2824  1.0000  -3.6229   0.0000   0.0000   0.0000   0.3376
  10.500   2.2062   0.02370   0.01811  -0.2403  0.2817  1.0000  -3.6585   0.0000   0.0000   0.0000   0.3367
  10.600   2.2142   0.02383   0.01828  -0.2397  0.2808  1.0000  -3.6940   0.0000   0.0000   0.0000   0.3358
  10.700   2.2219   0.02398   0.01845  -0.2392  0.2798  1.0000  -3.7293   0.0000   0.0000   0.0000   0.3350
  10.800   2.2294   0.02413   0.01863  -0.2386  0.2784  1.0000  -3.7644   0.0000   0.0000   0.0000   0.3341
  10.900   2.2365   0.02429   0.01882  -0.2379  0.2765  1.0000  -3.8035   0.0000   0.0000   0.0000   0.3333
  11.000   2.2432   0.02448   0.01901  -0.2372  0.2739  1.0000  -3.8417   0.0000   0.0000   0.0000   0.3324
  11.100   2.2491   0.02471   0.01924  -0.2363  0.2705  1.0000  -3.8786   0.0000   0.0000   0.0000   0.3315
  11.200   2.2540   0.02500   0.01950  -0.2353  0.2664  1.0000  -3.9135   0.0000   0.0000   0.0000   0.3306
  11.300   2.2577   0.02538   0.01984  -0.2341  0.2614  1.0000  -3.9458   0.0000   0.0000   0.0000   0.3297
  11.400   2.2605   0.02584   0.02026  -0.2328  0.2553  1.0000  -3.9762   0.0000   0.0000   0.0000   0.3287
  11.500   2.2667   0.02610   0.02053  -0.2320  0.2516  1.0000  -4.0141   0.0000   0.0000   0.0000   0.3279
  11.600   2.2727   0.02637   0.02080  -0.2312  0.2467  1.0000  -4.0515   0.0000   0.0000   0.0000   0.3270
  11.700   2.2761   0.02681   0.02120  -0.2301  0.2399  1.0000  -4.0836   0.0000   0.0000   0.0000   0.3261
  11.800   2.2767   0.02745   0.02177  -0.2285  0.2322  1.0000  -4.1098   0.0000   0.0000   0.0000   0.3252
  11.900   2.2780   0.02807   0.02234  -0.2270  0.2246  1.0000  -4.1373   0.0000   0.0000   0.0000   0.3243
  12.000   2.2819   0.02851   0.02278  -0.2259  0.2185  1.0000  -4.1704   0.0000   0.0000   0.0000   0.3234
  12.100   2.2829   0.02918   0.02339  -0.2245  0.2100  1.0000  -4.1975   0.0000   0.0000   0.0000   0.3225
  12.200   2.2814   0.03005   0.02419  -0.2227  0.2010  1.0000  -4.2188   0.0000   0.0000   0.0000   0.3215
  12.300   2.2824   0.03072   0.02484  -0.2212  0.1946  1.0000  -4.2456   0.0000   0.0000   0.0000   0.3206
  12.400   2.2832   0.03142   0.02551  -0.2198  0.1883  1.0000  -4.2719   0.0000   0.0000   0.0000   0.3197
  12.500   2.2826   0.03224   0.02629  -0.2182  0.1820  1.0000  -4.2952   0.0000   0.0000   0.0000   0.3188
  12.600   2.2818   0.03311   0.02713  -0.2166  0.1758  1.0000  -4.3178   0.0000   0.0000   0.0000   0.3179
  12.700   2.2812   0.03395   0.02798  -0.2151  0.1690  1.0000  -4.3411   0.0000   0.0000   0.0000   0.3171
  12.800   2.2802   0.03482   0.02884  -0.2136  0.1631  1.0000  -4.3633   0.0000   0.0000   0.0000   0.3162
  12.900   2.2787   0.03576   0.02975  -0.2120  0.1577  1.0000  -4.3843   0.0000   0.0000   0.0000   0.3153
  13.000   2.2766   0.03678   0.03074  -0.2104  0.1524  1.0000  -4.4040   0.0000   0.0000   0.0000   0.3145
  13.100   2.2764   0.03764   0.03161  -0.2091  0.1478  1.0000  -4.4277   0.0000   0.0000   0.0000   0.3137
  13.200   2.2770   0.03843   0.03241  -0.2079  0.1448  1.0000  -4.4533   0.0000   0.0000   0.0000   0.3129
  13.300   2.2769   0.03928   0.03327  -0.2066  0.1413  1.0000  -4.4775   0.0000   0.0000   0.0000   0.3121
  13.400   2.2761   0.04023   0.03421  -0.2053  0.1375  1.0000  -4.4999   0.0000   0.0000   0.0000   0.3113
  13.500   2.2740   0.04129   0.03527  -0.2039  0.1337  1.0000  -4.5194   0.0000   0.0000   0.0000   0.3105
  13.600   2.2705   0.04251   0.03649  -0.2024  0.1300  1.0000  -4.5351   0.0000   0.0000   0.0000   0.3097
  13.700   2.2685   0.04360   0.03759  -0.2012  0.1260  1.0000  -4.5545   0.0000   0.0000   0.0000   0.3090
  13.800   2.2692   0.04446   0.03847  -0.2002  0.1238  1.0000  -4.5802   0.0000   0.0000   0.0000   0.3083
  13.900   2.2687   0.04544   0.03947  -0.1991  0.1213  1.0000  -4.6030   0.0000   0.0000   0.0000   0.3076
  14.000   2.2666   0.04658   0.04063  -0.1980  0.1187  1.0000  -4.6221   0.0000   0.0000   0.0000   0.3069
  14.100   2.2641   0.04779   0.04185  -0.1969  0.1157  1.0000  -4.6399   0.0000   0.0000   0.0000   0.3062
  14.200   2.2607   0.04910   0.04317  -0.1957  0.1127  1.0000  -4.6554   0.0000   0.0000   0.0000   0.3056
  14.300   2.2554   0.05063   0.04471  -0.1945  0.1100  1.0000  -4.6661   0.0000   0.0000   0.0000   0.3050
  14.400   2.2508   0.05212   0.04622  -0.1934  0.1069  1.0000  -4.6784   0.0000   0.0000   0.0000   0.3044
  14.500   2.2485   0.05341   0.04753  -0.1925  0.1043  1.0000  -4.6963   0.0000   0.0000   0.0000   0.3039
  14.600   2.2459   0.05476   0.04893  -0.1917  0.1027  1.0000  -4.7132   0.0000   0.0000   0.0000   0.3033
  14.700   2.2433   0.05615   0.05035  -0.1909  0.1009  1.0000  -4.7299   0.0000   0.0000   0.0000   0.3028
  14.800   2.2404   0.05759   0.05181  -0.1902  0.0988  1.0000  -4.7460   0.0000   0.0000   0.0000   0.3023
  14.900   2.2355   0.05933   0.05358  -0.1895  0.0970  1.0000  -4.7566   0.0000   0.0000   0.0000   0.3019
  15.000   2.2305   0.06110   0.05538  -0.1888  0.0950  1.0000  -4.7668   0.0000   0.0000   0.0000   0.3015
  15.100   2.2252   0.06297   0.05727  -0.1882  0.0930  1.0000  -4.7758   0.0000   0.0000   0.0000   0.3012
  15.200   2.2182   0.06511   0.05945  -0.1877  0.0913  1.0000  -4.7800   0.0000   0.0000   0.0000   0.3009
  15.300   2.2122   0.06714   0.06151  -0.1873  0.0892  1.0000  -4.7867   0.0000   0.0000   0.0000   0.3007
  15.400   2.2051   0.06940   0.06381  -0.1869  0.0873  1.0000  -4.7900   0.0000   0.0000   0.0000   0.3005
  15.500   2.1994   0.07146   0.06592  -0.1867  0.0855  1.0000  -4.7969   0.0000   0.0000   0.0000   0.3003
  15.600   2.1958   0.07327   0.06777  -0.1865  0.0845  1.0000  -4.8092   0.0000   0.0000   0.0000   0.3001
  15.700   2.1897   0.07548   0.07004  -0.1864  0.0836  1.0000  -4.8146   0.0000   0.0000   0.0000   0.3000
  15.800   2.1848   0.07752   0.07212  -0.1863  0.0826  1.0000  -4.8229   0.0000   0.0000   0.0000   0.2998
  15.900   2.1786   0.07979   0.07444  -0.1863  0.0815  1.0000  -4.8272   0.0000   0.0000   0.0000   0.2998
  16.000   2.1712   0.08225   0.07696  -0.1864  0.0805  1.0000  -4.8281   0.0000   0.0000   0.0000   0.2998
  16.100   2.1648   0.08455   0.07930  -0.1864  0.0793  1.0000  -4.8314   0.0000   0.0000   0.0000   0.2998
  16.200   2.1555   0.08737   0.08218  -0.1867  0.0785  1.0000  -4.8260   0.0000   0.0000   0.0000   0.3000
  16.300   2.1477   0.08990   0.08476  -0.1869  0.0774  1.0000  -4.8247   0.0000   0.0000   0.0000   0.3001
  16.400   2.1386   0.09268   0.08759  -0.1873  0.0765  1.0000  -4.8191   0.0000   0.0000   0.0000   0.3004
  16.500   2.1289   0.09556   0.09052  -0.1877  0.0756  1.0000  -4.8114   0.0000   0.0000   0.0000   0.3007


