xflr5 v6.61

 Calculated polar for: S1221

 1 1 Reynolds number fixed          Mach number fixed         

 xtrf =   1.000 (top)        1.000 (bottom)
 Mach =   0.000     Re =     0.200 e 6     Ncrit =   9.000

  alpha     CL        CD       CDp       Cm    Top Xtr Bot Xtr   Cpmin    Chinge    XCp    
 ------- -------- --------- --------- -------- ------- ------- -------- --------- ---------
 -10.000  -0.3000   0.12953   0.12574  -0.0165  1.0000  0.0383  -1.2039   0.0000   0.0000   0.0000   0.1833
  -9.900  -0.2976   0.12839   0.12461  -0.0168  1.0000  0.0387  -1.2051   0.0000   0.0000   0.0000   0.1819
  -9.800  -0.2953   0.12724   0.12347  -0.0172  1.0000  0.0391  -1.2067   0.0000   0.0000   0.0000   0.1804
  -9.700  -0.2930   0.12610   0.12234  -0.0175  1.0000  0.0394  -1.2090   0.0000   0.0000   0.0000   0.1788
  -9.600  -0.2908   0.12496   0.12121  -0.0178  1.0000  0.0398  -1.2119   0.0000   0.0000   0.0000   0.1772
  -9.500  -0.2886   0.12382   0.12008  -0.0182  1.0000  0.0403  -1.2156   0.0000   0.0000   0.0000   0.1756
  -9.400  -0.2865   0.12268   0.11896  -0.0185  1.0000  0.0407  -1.2202   0.0000   0.0000   0.0000   0.1739
  -9.300  -0.2845   0.12155   0.11784  -0.0189  1.0000  0.0411  -1.2260   0.0000   0.0000   0.0000   0.1722
  -9.200  -0.2826   0.12044   0.11674  -0.0193  1.0000  0.0416  -1.2333   0.0000   0.0000   0.0000   0.1703
  -9.100  -0.2809   0.11935   0.11566  -0.0198  1.0000  0.0421  -1.2427   0.0000   0.0000   0.0000   0.1683
  -9.000  -0.2794   0.11829   0.11462  -0.0203  1.0000  0.0426  -1.2549   0.0000   0.0000   0.0000   0.1662
  -8.900  -0.2784   0.11730   0.11365  -0.0209  1.0000  0.0431  -1.2710   0.0000   0.0000   0.0000   0.1638
  -8.800  -0.2781   0.11642   0.11278  -0.0217  1.0000  0.0436  -1.2921   0.0000   0.0000   0.0000   0.1612
  -8.700  -0.2779   0.11560   0.11199  -0.0225  1.0000  0.0441  -1.3163   0.0000   0.0000   0.0000   0.1583
  -8.600  -0.2774   0.11483   0.11123  -0.0233  1.0000  0.0445  -1.3396   0.0000   0.0000   0.0000   0.1552
  -8.500  -0.2767   0.11404   0.11047  -0.0241  1.0000  0.0448  -1.3600   0.0000   0.0000   0.0000   0.1524
  -8.400  -0.2759   0.11320   0.10964  -0.0247  1.0000  0.0450  -1.3767   0.0000   0.0000   0.0000   0.1499
  -8.300  -0.2742   0.11230   0.10876  -0.0252  1.0000  0.0451  -1.3862   0.0000   0.0000   0.0000   0.1477
  -8.200  -0.2727   0.11135   0.10782  -0.0256  1.0000  0.0453  -1.3954   0.0000   0.0000   0.0000   0.1458
  -8.100  -0.2713   0.11036   0.10685  -0.0260  1.0000  0.0454  -1.4044   0.0000   0.0000   0.0000   0.1440
  -8.000  -0.2700   0.10934   0.10586  -0.0263  1.0000  0.0454  -1.4135   0.0000   0.0000   0.0000   0.1423
  -7.900  -0.2688   0.10830   0.10484  -0.0266  1.0000  0.0455  -1.4226   0.0000   0.0000   0.0000   0.1408
  -7.800  -0.2677   0.10725   0.10381  -0.0269  1.0000  0.0455  -1.4320   0.0000   0.0000   0.0000   0.1394
  -7.700  -0.2668   0.10619   0.10277  -0.0272  1.0000  0.0456  -1.4415   0.0000   0.0000   0.0000   0.1381
  -7.600  -0.2660   0.10513   0.10172  -0.0274  1.0000  0.0456  -1.4512   0.0000   0.0000   0.0000   0.1370
  -7.500  -0.2653   0.10406   0.10068  -0.0276  1.0000  0.0457  -1.4613   0.0000   0.0000   0.0000   0.1361
  -7.400  -0.2649   0.10299   0.09964  -0.0278  1.0000  0.0457  -1.4716   0.0000   0.0000   0.0000   0.1353
  -7.300  -0.2646   0.10193   0.09860  -0.0279  1.0000  0.0457  -1.4823   0.0000   0.0000   0.0000   0.1348
  -7.200  -0.2646   0.10088   0.09757  -0.0280  1.0000  0.0457  -1.4933   0.0000   0.0000   0.0000   0.1346
  -7.100  -0.2747   0.09580   0.09254  -0.0283  1.0000  0.0469  -1.5824   0.0000   0.0000   0.0000   0.1377
  -7.000  -0.2716   0.09441   0.09117  -0.0275  1.0000  0.0474  -1.5540   0.0000   0.0000   0.0000   0.1395
  -6.900  -0.2684   0.09339   0.09016  -0.0268  1.0000  0.0478  -1.5241   0.0000   0.0000   0.0000   0.1411
  -6.800  -0.2658   0.09249   0.08928  -0.0261  1.0000  0.0482  -1.4989   0.0000   0.0000   0.0000   0.1427
  -6.700  -0.2634   0.09165   0.08847  -0.0255  1.0000  0.0486  -1.4752   0.0000   0.0000   0.0000   0.1443
  -6.600  -0.2613   0.09086   0.08770  -0.0249  1.0000  0.0490  -1.4535   0.0000   0.0000   0.0000   0.1460
  -6.500  -0.2597   0.09010   0.08696  -0.0243  1.0000  0.0494  -1.4359   0.0000   0.0000   0.0000   0.1479
  -6.400  -0.2588   0.08934   0.08623  -0.0237  1.0000  0.0498  -1.4220   0.0000   0.0000   0.0000   0.1499
  -6.300  -0.2582   0.08860   0.08551  -0.0231  1.0000  0.0502  -1.4100   0.0000   0.0000   0.0000   0.1521
  -6.200  -0.2583   0.08786   0.08476  -0.0225  1.0000  0.0507  -1.4007   0.0000   0.0000   0.0000   0.1546
  -6.100  -0.2586   0.08715   0.08407  -0.0219  1.0000  0.0511  -1.3939   0.0000   0.0000   0.0000   0.1572
  -6.000  -0.2595   0.08644   0.08339  -0.0213  1.0000  0.0515  -1.3894   0.0000   0.0000   0.0000   0.1601
  -5.900  -0.2608   0.08575   0.08273  -0.0206  1.0000  0.0520  -1.3869   0.0000   0.0000   0.0000   0.1632
  -5.800  -0.2627   0.08507   0.08208  -0.0200  1.0000  0.0524  -1.3864   0.0000   0.0000   0.0000   0.1665
  -5.700  -0.2650   0.08440   0.08145  -0.0192  1.0000  0.0528  -1.3876   0.0000   0.0000   0.0000   0.1701
  -5.600  -0.2679   0.08376   0.08084  -0.0185  1.0000  0.0533  -1.3904   0.0000   0.0000   0.0000   0.1740
  -5.500  -0.2713   0.08315   0.08026  -0.0176  1.0000  0.0537  -1.3949   0.0000   0.0000   0.0000   0.1782
  -5.400  -0.2675   0.08199   0.07913  -0.0188  0.9988  0.0545  -1.3932   0.0000   0.0000   0.0000   0.1732
  -5.300  -0.2547   0.08005   0.07719  -0.0224  0.9960  0.0559  -1.3881   0.0000   0.0000   0.0000   0.1550
  -5.200  -0.2403   0.07782   0.07496  -0.0270  0.9931  0.0577  -1.3921   0.0000   0.0000   0.0000   0.1303
  -5.100  -0.2247   0.07513   0.07228  -0.0332  0.9886  0.0602  -1.4191   0.0000   0.0000   0.0000   0.0945
  -5.000  -0.1965   0.07139   0.06851  -0.0485  0.9810  0.0635  -1.5251   0.0000   0.0000   0.0000  -0.0057
  -4.900  -0.1746   0.06654   0.06361  -0.0606  0.9759  0.0639  -1.6069   0.0000   0.0000   0.0000  -0.1073
  -4.800  -0.1796   0.06057   0.05770  -0.0636  0.9713  0.0661  -1.6798   0.0000   0.0000   0.0000  -0.1138
  -4.600  -0.1573   0.06012   0.05727  -0.0609  0.9650  0.0679  -1.5293   0.0000   0.0000   0.0000  -0.1478
  -4.500  -0.1480   0.05932   0.05649  -0.0610  0.9585  0.0689  -1.4846   0.0000   0.0000   0.0000  -0.1732
  -4.400  -0.1339   0.05821   0.05538  -0.0625  0.9538  0.0703  -1.4386   0.0000   0.0000   0.0000  -0.2287
  -4.300  -0.1188   0.05675   0.05392  -0.0651  0.9488  0.0721  -1.4042   0.0000   0.0000   0.0000  -0.3107
  -4.200  -0.1068   0.05500   0.05217  -0.0680  0.9428  0.0741  -1.3908   0.0000   0.0000   0.0000  -0.4000
  -4.100  -0.0594   0.04131   0.03804  -0.1011  0.9341  0.0880  -1.6297   0.0000   0.0000   0.0000  -1.4769
  -4.000  -0.0540   0.04097   0.03778  -0.0990  0.9233  0.0890  -1.5816   0.0000   0.0000   0.0000  -1.6091
  -3.900  -0.0450   0.04068   0.03757  -0.0978  0.9117  0.0902  -1.5264   0.0000   0.0000   0.0000  -1.9527
  -3.800  -0.0310   0.04027   0.03720  -0.0978  0.8997  0.0921  -1.4657   0.0000   0.0000   0.0000  -2.9462
  -3.700   0.0175   0.03530   0.03175  -0.1141  0.8883  0.1108  -1.4628   0.0000   0.0000   0.0000   6.8606
  -3.600   0.0381   0.03413   0.03070  -0.1153  0.8758  0.1136  -1.3910   0.0000   0.0000   0.0000   3.3057
  -3.500   0.1218   0.02120   0.01585  -0.1353  0.8766  0.0397  -1.9139   0.0000   0.0000   0.0000   1.3727
  -3.400   0.1686   0.01854   0.01256  -0.1422  0.8571  0.0331  -1.9751   0.0000   0.0000   0.0000   1.1021
  -3.300   0.2365   0.01778   0.01137  -0.1530  0.8038  0.0309  -1.8271   0.0000   0.0000   0.0000   0.9028
  -3.000   0.3006   0.01609   0.00898  -0.1589  0.7052  0.0296  -1.6886   0.0000   0.0000   0.0000   0.7828
  -2.900   0.3138   0.01571   0.00844  -0.1593  0.6832  0.0294  -1.6571   0.0000   0.0000   0.0000   0.7613
  -2.800   0.3263   0.01546   0.00801  -0.1594  0.6600  0.0293  -1.6253   0.0000   0.0000   0.0000   0.7420
  -2.700   0.3389   0.01519   0.00758  -0.1596  0.6402  0.0293  -1.5955   0.0000   0.0000   0.0000   0.7241
  -2.600   0.3516   0.01493   0.00722  -0.1599  0.6261  0.0293  -1.5581   0.0000   0.0000   0.0000   0.7075
  -2.500   0.3643   0.01474   0.00691  -0.1601  0.6125  0.0294  -1.5197   0.0000   0.0000   0.0000   0.6921
  -2.400   0.3771   0.01460   0.00662  -0.1605  0.6007  0.0295  -1.4799   0.0000   0.0000   0.0000   0.6777
  -2.300   0.3904   0.01443   0.00635  -0.1609  0.5894  0.0298  -1.4385   0.0000   0.0000   0.0000   0.6640
  -2.200   0.4034   0.01432   0.00610  -0.1612  0.5784  0.0301  -1.3969   0.0000   0.0000   0.0000   0.6513
  -2.000   0.4320   0.01397   0.00540  -0.1625  0.5597  0.0325  -1.3358   0.0000   0.0000   0.0000   0.6273
  -1.900   0.4462   0.01379   0.00509  -0.1630  0.5514  0.0363  -1.3099   0.0000   0.0000   0.0000   0.6163
  -1.800   0.4603   0.01364   0.00484  -0.1635  0.5434  0.0453  -1.2920   0.0000   0.0000   0.0000   0.6060
  -1.700   0.4810   0.01299   0.00492  -0.1664  0.5348  0.2879  -1.2834   0.0000   0.0000   0.0000   0.5965
  -1.600   0.4921   0.01320   0.00516  -0.1663  0.5275  0.3085  -1.2259   0.0000   0.0000   0.0000   0.5882
  -1.500   0.5028   0.01348   0.00541  -0.1659  0.5225  0.3246  -1.1623   0.0000   0.0000   0.0000   0.5802
  -1.400   0.5141   0.01354   0.00548  -0.1659  0.5169  0.3343  -1.0973   0.0000   0.0000   0.0000   0.5726
  -1.300   0.5253   0.01360   0.00555  -0.1658  0.5114  0.3401  -1.0322   0.0000   0.0000   0.0000   0.5654
  -1.200   0.5360   0.01376   0.00569  -0.1655  0.5060  0.3475  -0.9668   0.0000   0.0000   0.0000   0.5584
  -1.100   0.5461   0.01405   0.00594  -0.1651  0.5008  0.3588  -0.9516   0.0000   0.0000   0.0000   0.5518
  -1.000   0.5561   0.01446   0.00626  -0.1646  0.4954  0.3677  -0.9625   0.0000   0.0000   0.0000   0.5453
  -0.900   0.5671   0.01450   0.00634  -0.1645  0.4899  0.3803  -0.9737   0.0000   0.0000   0.0000   0.5394
  -0.800   0.5773   0.01463   0.00654  -0.1641  0.4868  0.3882  -0.9847   0.0000   0.0000   0.0000   0.5334
  -0.700   0.5885   0.01471   0.00662  -0.1640  0.4833  0.3932  -0.9961   0.0000   0.0000   0.0000   0.5276
  -0.600   0.6002   0.01473   0.00661  -0.1640  0.4796  0.3959  -1.0079   0.0000   0.0000   0.0000   0.5221
  -0.500   0.6120   0.01475   0.00659  -0.1641  0.4758  0.3983  -1.0197   0.0000   0.0000   0.0000   0.5167
  -0.400   0.6239   0.01478   0.00653  -0.1641  0.4721  0.4003  -1.0315   0.0000   0.0000   0.0000   0.5116
  -0.300   0.6356   0.01482   0.00650  -0.1642  0.4684  0.4020  -1.0434   0.0000   0.0000   0.0000   0.5067
  -0.200   0.6474   0.01488   0.00649  -0.1642  0.4648  0.4036  -1.0552   0.0000   0.0000   0.0000   0.5020
  -0.100   0.6591   0.01496   0.00650  -0.1643  0.4611  0.4052  -1.0669   0.0000   0.0000   0.0000   0.4974
   0.000   0.6708   0.01511   0.00655  -0.1644  0.4569  0.4067  -1.0786   0.0000   0.0000   0.0000   0.4930
   0.100   0.6828   0.01530   0.00667  -0.1645  0.4525  0.4082  -1.0899   0.0000   0.0000   0.0000   0.4888
   0.200   0.6951   0.01518   0.00654  -0.1647  0.4505  0.4117  -1.1021   0.0000   0.0000   0.0000   0.4848
   0.300   0.7071   0.01509   0.00648  -0.1649  0.4481  0.4151  -1.1141   0.0000   0.0000   0.0000   0.4808
   0.400   0.7189   0.01506   0.00645  -0.1649  0.4455  0.4179  -1.1261   0.0000   0.0000   0.0000   0.4770
   0.500   0.7306   0.01505   0.00645  -0.1650  0.4427  0.4204  -1.1379   0.0000   0.0000   0.0000   0.4732
   0.600   0.7422   0.01507   0.00646  -0.1650  0.4399  0.4229  -1.1505   0.0000   0.0000   0.0000   0.4696
   0.700   0.7538   0.01510   0.00648  -0.1650  0.4372  0.4255  -1.1638   0.0000   0.0000   0.0000   0.4661
   0.800   0.7655   0.01513   0.00651  -0.1651  0.4347  0.4282  -1.1772   0.0000   0.0000   0.0000   0.4627
   0.900   0.7771   0.01518   0.00654  -0.1651  0.4322  0.4310  -1.1906   0.0000   0.0000   0.0000   0.4594
   1.000   0.7887   0.01524   0.00657  -0.1651  0.4298  0.4340  -1.2039   0.0000   0.0000   0.0000   0.4562
   1.100   0.8003   0.01532   0.00661  -0.1651  0.4274  0.4371  -1.2173   0.0000   0.0000   0.0000   0.4531
   1.200   0.8119   0.01541   0.00667  -0.1652  0.4250  0.4402  -1.2307   0.0000   0.0000   0.0000   0.4500
   1.300   0.8236   0.01554   0.00675  -0.1652  0.4224  0.4434  -1.2440   0.0000   0.0000   0.0000   0.4471
   1.400   0.8354   0.01571   0.00687  -0.1653  0.4196  0.4464  -1.2572   0.0000   0.0000   0.0000   0.4443
   1.500   0.8473   0.01597   0.00708  -0.1655  0.4165  0.4492  -1.2701   0.0000   0.0000   0.0000   0.4416
   1.600   0.8592   0.01607   0.00717  -0.1656  0.4148  0.4521  -1.2833   0.0000   0.0000   0.0000   0.4389
   1.700   0.8710   0.01602   0.00717  -0.1657  0.4137  0.4580  -1.2968   0.0000   0.0000   0.0000   0.4363
   1.800   0.8826   0.01602   0.00723  -0.1658  0.4124  0.4631  -1.3102   0.0000   0.0000   0.0000   0.4337
   1.900   0.8942   0.01605   0.00730  -0.1658  0.4110  0.4681  -1.3236   0.0000   0.0000   0.0000   0.4312
   2.000   0.9058   0.01610   0.00742  -0.1658  0.4096  0.4731  -1.3369   0.0000   0.0000   0.0000   0.4287
   2.100   0.9173   0.01615   0.00750  -0.1658  0.4080  0.4784  -1.3503   0.0000   0.0000   0.0000   0.4263
   2.200   0.9289   0.01622   0.00758  -0.1658  0.4064  0.4840  -1.3637   0.0000   0.0000   0.0000   0.4240
   2.300   0.9405   0.01630   0.00765  -0.1659  0.4047  0.4895  -1.3771   0.0000   0.0000   0.0000   0.4217
   2.400   0.9521   0.01638   0.00773  -0.1659  0.4030  0.4945  -1.3906   0.0000   0.0000   0.0000   0.4195
   2.500   0.9638   0.01639   0.00779  -0.1660  0.4012  0.5033  -1.4043   0.0000   0.0000   0.0000   0.4173
   2.600   0.9754   0.01642   0.00787  -0.1660  0.3993  0.5115  -1.4180   0.0000   0.0000   0.0000   0.4152
   2.700   0.9869   0.01647   0.00795  -0.1660  0.3975  0.5201  -1.4317   0.0000   0.0000   0.0000   0.4131
   2.800   0.9984   0.01654   0.00802  -0.1661  0.3956  0.5294  -1.4455   0.0000   0.0000   0.0000   0.4111
   2.900   1.0099   0.01662   0.00809  -0.1661  0.3938  0.5383  -1.4594   0.0000   0.0000   0.0000   0.4091
   3.000   1.0214   0.01665   0.00818  -0.1661  0.3921  0.5509  -1.4733   0.0000   0.0000   0.0000   0.4072
   3.100   1.0329   0.01672   0.00829  -0.1661  0.3903  0.5639  -1.4872   0.0000   0.0000   0.0000   0.4053
   3.200   1.0444   0.01683   0.00841  -0.1662  0.3887  0.5779  -1.5009   0.0000   0.0000   0.0000   0.4034
   3.300   1.0559   0.01693   0.00856  -0.1662  0.3870  0.5933  -1.5145   0.0000   0.0000   0.0000   0.4016
   3.400   1.0673   0.01707   0.00876  -0.1662  0.3852  0.6110  -1.5278   0.0000   0.0000   0.0000   0.3998
   3.600   1.0898   0.01755   0.00936  -0.1663  0.3811  0.6532  -1.5562   0.0000   0.0000   0.0000   0.3964
   3.700   1.0997   0.01784   0.00977  -0.1660  0.3792  0.6871  -1.5691   0.0000   0.0000   0.0000   0.3946
   3.800   1.1098   0.01786   0.00989  -0.1656  0.3785  0.7214  -1.5834   0.0000   0.0000   0.0000   0.3928
   3.900   1.1176   0.01785   0.01000  -0.1647  0.3778  0.7617  -1.5958   0.0000   0.0000   0.0000   0.3908
   4.000   1.1268   0.01789   0.01011  -0.1642  0.3770  0.7994  -1.6092   0.0000   0.0000   0.0000   0.3890
   4.100   1.1322   0.01785   0.01017  -0.1627  0.3763  0.8393  -1.6195   0.0000   0.0000   0.0000   0.3869
   4.300   1.1412   0.01777   0.01022  -0.1596  0.3746  0.9552  -1.6385   0.0000   0.0000   0.0000   0.3828
   4.400   1.1531   0.01788   0.01033  -0.1597  0.3735  1.0000  -1.6540   0.0000   0.0000   0.0000   0.3814
   4.500   1.1648   0.01802   0.01047  -0.1599  0.3724  1.0000  -1.6694   0.0000   0.0000   0.0000   0.3800
   4.600   1.1765   0.01816   0.01069  -0.1600  0.3711  1.0000  -1.6866   0.0000   0.0000   0.0000   0.3786
   4.700   1.1881   0.01832   0.01085  -0.1600  0.3699  1.0000  -1.7038   0.0000   0.0000   0.0000   0.3772
   4.800   1.1995   0.01847   0.01100  -0.1601  0.3686  1.0000  -1.7210   0.0000   0.0000   0.0000   0.3758
   4.900   1.2110   0.01862   0.01116  -0.1602  0.3673  1.0000  -1.7383   0.0000   0.0000   0.0000   0.3745
   5.000   1.2223   0.01877   0.01130  -0.1602  0.3659  1.0000  -1.7556   0.0000   0.0000   0.0000   0.3732
   5.100   1.2336   0.01890   0.01143  -0.1602  0.3644  1.0000  -1.7730   0.0000   0.0000   0.0000   0.3718
   5.200   1.2449   0.01903   0.01155  -0.1602  0.3629  1.0000  -1.7919   0.0000   0.0000   0.0000   0.3705
   5.300   1.2561   0.01915   0.01167  -0.1602  0.3613  1.0000  -1.8114   0.0000   0.0000   0.0000   0.3693
   5.400   1.2673   0.01928   0.01179  -0.1602  0.3598  1.0000  -1.8311   0.0000   0.0000   0.0000   0.3680
   5.500   1.2785   0.01941   0.01191  -0.1602  0.3583  1.0000  -1.8517   0.0000   0.0000   0.0000   0.3667
   5.600   1.2896   0.01956   0.01204  -0.1602  0.3570  1.0000  -1.8735   0.0000   0.0000   0.0000   0.3655
   5.700   1.3008   0.01972   0.01220  -0.1602  0.3557  1.0000  -1.8954   0.0000   0.0000   0.0000   0.3643
   5.800   1.3119   0.01989   0.01236  -0.1602  0.3544  1.0000  -1.9172   0.0000   0.0000   0.0000   0.3631
   5.900   1.3229   0.02008   0.01254  -0.1602  0.3532  1.0000  -1.9390   0.0000   0.0000   0.0000   0.3619
   6.000   1.3339   0.02029   0.01274  -0.1602  0.3518  1.0000  -1.9609   0.0000   0.0000   0.0000   0.3608
   6.100   1.3449   0.02054   0.01297  -0.1602  0.3503  1.0000  -1.9826   0.0000   0.0000   0.0000   0.3597
   6.200   1.3557   0.02088   0.01330  -0.1602  0.3484  1.0000  -2.0040   0.0000   0.0000   0.0000   0.3586
   6.300   1.3660   0.02146   0.01388  -0.1602  0.3460  1.0000  -2.0241   0.0000   0.0000   0.0000   0.3576
   6.400   1.3760   0.02203   0.01449  -0.1602  0.3439  1.0000  -2.0439   0.0000   0.0000   0.0000   0.3565
   6.500   1.3868   0.02208   0.01457  -0.1601  0.3431  1.0000  -2.0687   0.0000   0.0000   0.0000   0.3554
   6.600   1.3975   0.02216   0.01468  -0.1600  0.3422  1.0000  -2.0933   0.0000   0.0000   0.0000   0.3543
   6.700   1.4081   0.02227   0.01483  -0.1599  0.3412  1.0000  -2.1178   0.0000   0.0000   0.0000   0.3532
   6.800   1.4187   0.02240   0.01499  -0.1597  0.3402  1.0000  -2.1422   0.0000   0.0000   0.0000   0.3522
   6.900   1.4293   0.02252   0.01515  -0.1596  0.3389  1.0000  -2.1677   0.0000   0.0000   0.0000   0.3511
   7.000   1.4397   0.02264   0.01530  -0.1595  0.3375  1.0000  -2.1954   0.0000   0.0000   0.0000   0.3500
   7.100   1.4501   0.02277   0.01562  -0.1593  0.3359  1.0000  -2.2231   0.0000   0.0000   0.0000   0.3490
   7.200   1.4605   0.02290   0.01578  -0.1592  0.3343  1.0000  -2.2520   0.0000   0.0000   0.0000   0.3480
   7.300   1.4709   0.02301   0.01592  -0.1591  0.3325  1.0000  -2.2840   0.0000   0.0000   0.0000   0.3469
   7.400   1.4813   0.02312   0.01606  -0.1589  0.3308  1.0000  -2.3184   0.0000   0.0000   0.0000   0.3459
   7.500   1.4917   0.02323   0.01619  -0.1588  0.3291  1.0000  -2.3618   0.0000   0.0000   0.0000   0.3449
   7.600   1.5022   0.02333   0.01631  -0.1586  0.3273  1.0000  -2.4056   0.0000   0.0000   0.0000   0.3439
   7.700   1.5127   0.02343   0.01642  -0.1585  0.3256  1.0000  -2.4499   0.0000   0.0000   0.0000   0.3429
   7.800   1.5232   0.02352   0.01651  -0.1584  0.3239  1.0000  -2.4945   0.0000   0.0000   0.0000   0.3420
   7.900   1.5337   0.02362   0.01661  -0.1582  0.3223  1.0000  -2.5393   0.0000   0.0000   0.0000   0.3410
   8.000   1.5442   0.02374   0.01673  -0.1581  0.3208  1.0000  -2.5843   0.0000   0.0000   0.0000   0.3400
   8.100   1.5547   0.02389   0.01689  -0.1580  0.3193  1.0000  -2.6294   0.0000   0.0000   0.0000   0.3391
   8.200   1.5651   0.02407   0.01706  -0.1578  0.3177  1.0000  -2.6745   0.0000   0.0000   0.0000   0.3382
   8.300   1.5754   0.02431   0.01729  -0.1577  0.3159  1.0000  -2.7196   0.0000   0.0000   0.0000   0.3373
   8.400   1.5854   0.02475   0.01772  -0.1576  0.3136  1.0000  -2.7637   0.0000   0.0000   0.0000   0.3364
   8.500   1.5938   0.02570   0.01871  -0.1575  0.3104  1.0000  -2.8028   0.0000   0.0000   0.0000   0.3357
   8.600   1.6039   0.02568   0.01875  -0.1572  0.3095  1.0000  -2.8483   0.0000   0.0000   0.0000   0.3347
   8.700   1.6138   0.02568   0.01881  -0.1570  0.3083  1.0000  -2.8937   0.0000   0.0000   0.0000   0.3338
   8.800   1.6235   0.02571   0.01889  -0.1567  0.3069  1.0000  -2.9390   0.0000   0.0000   0.0000   0.3329
   8.900   1.6331   0.02576   0.01901  -0.1564  0.3052  1.0000  -2.9840   0.0000   0.0000   0.0000   0.3320
   9.000   1.6426   0.02584   0.01914  -0.1561  0.3034  1.0000  -3.0293   0.0000   0.0000   0.0000   0.3310
   9.100   1.6522   0.02589   0.01924  -0.1558  0.3014  1.0000  -3.0750   0.0000   0.0000   0.0000   0.3301
   9.200   1.6619   0.02592   0.01931  -0.1556  0.2992  1.0000  -3.1214   0.0000   0.0000   0.0000   0.3292
   9.300   1.6717   0.02593   0.01942  -0.1553  0.2969  1.0000  -3.1682   0.0000   0.0000   0.0000   0.3284
   9.400   1.6815   0.02591   0.01942  -0.1550  0.2946  1.0000  -3.2159   0.0000   0.0000   0.0000   0.3275
   9.500   1.6915   0.02590   0.01942  -0.1548  0.2924  1.0000  -3.2642   0.0000   0.0000   0.0000   0.3266
   9.600   1.7015   0.02587   0.01938  -0.1545  0.2902  1.0000  -3.3131   0.0000   0.0000   0.0000   0.3257
   9.700   1.7114   0.02581   0.01931  -0.1543  0.2879  1.0000  -3.3624   0.0000   0.0000   0.0000   0.3248
   9.800   1.7212   0.02579   0.01926  -0.1540  0.2854  1.0000  -3.4118   0.0000   0.0000   0.0000   0.3240
   9.900   1.7310   0.02592   0.01934  -0.1538  0.2825  1.0000  -3.4648   0.0000   0.0000   0.0000   0.3231
  10.000   1.7403   0.02658   0.01995  -0.1537  0.2783  1.0000  -3.5188   0.0000   0.0000   0.0000   0.3224
  10.100   1.7489   0.02644   0.01990  -0.1532  0.2768  1.0000  -3.5729   0.0000   0.0000   0.0000   0.3215
  10.200   1.7574   0.02635   0.01989  -0.1527  0.2748  1.0000  -3.6270   0.0000   0.0000   0.0000   0.3206
  10.300   1.7660   0.02630   0.01992  -0.1522  0.2723  1.0000  -3.6815   0.0000   0.0000   0.0000   0.3197
  10.400   1.7747   0.02629   0.01997  -0.1517  0.2697  1.0000  -3.7364   0.0000   0.0000   0.0000   0.3189
  10.500   1.7835   0.02629   0.02002  -0.1513  0.2669  1.0000  -3.7920   0.0000   0.0000   0.0000   0.3180
  10.600   1.7923   0.02629   0.02006  -0.1509  0.2642  1.0000  -3.8481   0.0000   0.0000   0.0000   0.3172
  10.700   1.8011   0.02628   0.02009  -0.1505  0.2615  1.0000  -3.9045   0.0000   0.0000   0.0000   0.3163
  10.800   1.8099   0.02629   0.02012  -0.1500  0.2589  1.0000  -3.9610   0.0000   0.0000   0.0000   0.3155
  10.900   1.8185   0.02632   0.02014  -0.1496  0.2563  1.0000  -4.0177   0.0000   0.0000   0.0000   0.3147
  11.000   1.8270   0.02639   0.02019  -0.1492  0.2535  1.0000  -4.0739   0.0000   0.0000   0.0000   0.3138
  11.100   1.8351   0.02658   0.02034  -0.1487  0.2504  1.0000  -4.1292   0.0000   0.0000   0.0000   0.3130
  11.200   1.8431   0.02687   0.02063  -0.1482  0.2472  1.0000  -4.1833   0.0000   0.0000   0.0000   0.3122
  11.300   1.8507   0.02693   0.02080  -0.1477  0.2451  1.0000  -4.2368   0.0000   0.0000   0.0000   0.3114
  11.400   1.8584   0.02701   0.02098  -0.1471  0.2422  1.0000  -4.2907   0.0000   0.0000   0.0000   0.3106
  11.500   1.8660   0.02709   0.02115  -0.1465  0.2389  1.0000  -4.3449   0.0000   0.0000   0.0000   0.3097
  11.600   1.8736   0.02716   0.02129  -0.1459  0.2353  1.0000  -4.3994   0.0000   0.0000   0.0000   0.3089
  11.700   1.8810   0.02724   0.02139  -0.1453  0.2315  1.0000  -4.4536   0.0000   0.0000   0.0000   0.3081
  11.800   1.8878   0.02733   0.02148  -0.1446  0.2277  1.0000  -4.5067   0.0000   0.0000   0.0000   0.3072
  11.900   1.8936   0.02748   0.02167  -0.1438  0.2237  1.0000  -4.5568   0.0000   0.0000   0.0000   0.3063
  12.000   1.8985   0.02776   0.02190  -0.1428  0.2194  1.0000  -4.6041   0.0000   0.0000   0.0000   0.3054
  12.100   1.9052   0.02795   0.02221  -0.1422  0.2157  1.0000  -4.6990   0.0000   0.0000   0.0000   0.3046
  12.200   1.9116   0.02815   0.02250  -0.1415  0.2111  1.0000  -4.7930   0.0000   0.0000   0.0000   0.3038
  12.300   1.9169   0.02838   0.02276  -0.1406  0.2059  1.0000  -4.8824   0.0000   0.0000   0.0000   0.3030
  12.400   1.9207   0.02865   0.02302  -0.1395  0.2006  1.0000  -4.9652   0.0000   0.0000   0.0000   0.3020
  12.500   1.9227   0.02902   0.02334  -0.1382  0.1954  1.0000  -5.0386   0.0000   0.0000   0.0000   0.3011
  12.600   1.9244   0.02945   0.02378  -0.1369  0.1905  1.0000  -5.1093   0.0000   0.0000   0.0000   0.3001
  12.700   1.9275   0.02981   0.02421  -0.1357  0.1853  1.0000  -5.1876   0.0000   0.0000   0.0000   0.2992
  12.800   1.9284   0.03024   0.02467  -0.1342  0.1797  1.0000  -5.2548   0.0000   0.0000   0.0000   0.2982
  12.900   1.9273   0.03077   0.02519  -0.1325  0.1744  1.0000  -5.3112   0.0000   0.0000   0.0000   0.2972
  13.000   1.9243   0.03143   0.02581  -0.1307  0.1695  1.0000  -5.3570   0.0000   0.0000   0.0000   0.2961
  13.100   1.9225   0.03210   0.02649  -0.1290  0.1647  1.0000  -5.4087   0.0000   0.0000   0.0000   0.2952
  13.200   1.9229   0.03271   0.02715  -0.1277  0.1595  1.0000  -5.4727   0.0000   0.0000   0.0000   0.2943
  13.300   1.9211   0.03345   0.02791  -0.1262  0.1544  1.0000  -5.5244   0.0000   0.0000   0.0000   0.2934
  13.400   1.9171   0.03434   0.02879  -0.1246  0.1499  1.0000  -5.5642   0.0000   0.0000   0.0000   0.2924
  13.500   1.9113   0.03539   0.02982  -0.1229  0.1460  1.0000  -5.5923   0.0000   0.0000   0.0000   0.2915
  13.600   1.9046   0.03655   0.03097  -0.1212  0.1421  1.0000  -5.6145   0.0000   0.0000   0.0000   0.2907
  13.700   1.9041   0.03738   0.03188  -0.1202  0.1382  1.0000  -5.6724   0.0000   0.0000   0.0000   0.2900
  13.800   1.9016   0.03840   0.03294  -0.1191  0.1341  1.0000  -5.7180   0.0000   0.0000   0.0000   0.2893
  13.900   1.8974   0.03959   0.03416  -0.1180  0.1303  1.0000  -5.7537   0.0000   0.0000   0.0000   0.2886
  14.000   1.8912   0.04101   0.03559  -0.1170  0.1271  1.0000  -5.7767   0.0000   0.0000   0.0000   0.2881
  14.100   1.8830   0.04269   0.03728  -0.1161  0.1244  1.0000  -5.7864   0.0000   0.0000   0.0000   0.2877
  14.200   1.8743   0.04453   0.03914  -0.1155  0.1216  1.0000  -5.7922   0.0000   0.0000   0.0000   0.2874
  14.300   1.8668   0.04639   0.04103  -0.1151  0.1191  1.0000  -5.8027   0.0000   0.0000   0.0000   0.2872
  14.400   1.8635   0.04791   0.04265  -0.1149  0.1166  1.0000  -5.8391   0.0000   0.0000   0.0000   0.2870
  14.500   1.8586   0.04966   0.04447  -0.1148  0.1140  1.0000  -5.8654   0.0000   0.0000   0.0000   0.2869
  14.600   1.8517   0.05176   0.04663  -0.1150  0.1118  1.0000  -5.8773   0.0000   0.0000   0.0000   0.2870
  14.700   1.8445   0.05394   0.04884  -0.1152  0.1096  1.0000  -5.8871   0.0000   0.0000   0.0000   0.2871
  14.800   1.8363   0.05631   0.05126  -0.1157  0.1076  1.0000  -5.8892   0.0000   0.0000   0.0000   0.2874
  14.900   1.8269   0.05893   0.05391  -0.1162  0.1060  1.0000  -5.8827   0.0000   0.0000   0.0000   0.2878
  15.000   1.8167   0.06170   0.05671  -0.1169  0.1044  1.0000  -5.8703   0.0000   0.0000   0.0000   0.2883
  15.100   1.8059   0.06452   0.05956  -0.1176  0.1029  1.0000  -5.8532   0.0000   0.0000   0.0000   0.2888
  15.200   1.7947   0.06739   0.06246  -0.1183  0.1013  1.0000  -5.8324   0.0000   0.0000   0.0000   0.2894
  15.300   1.7837   0.07017   0.06525  -0.1188  0.0994  1.0000  -5.8130   0.0000   0.0000   0.0000   0.2899
  15.400   1.7766   0.07259   0.06773  -0.1195  0.0981  1.0000  -5.8183   0.0000   0.0000   0.0000   0.2902
  15.500   1.7704   0.07494   0.07016  -0.1201  0.0968  1.0000  -5.8289   0.0000   0.0000   0.0000   0.2906
  15.600   1.7632   0.07747   0.07277  -0.1209  0.0955  1.0000  -5.8320   0.0000   0.0000   0.0000   0.2911
  15.700   1.7561   0.07996   0.07532  -0.1216  0.0941  1.0000  -5.8362   0.0000   0.0000   0.0000   0.2916
  15.800   1.7492   0.08243   0.07785  -0.1223  0.0927  1.0000  -5.8409   0.0000   0.0000   0.0000   0.2920
  15.900   1.7414   0.08507   0.08054  -0.1232  0.0914  1.0000  -5.8391   0.0000   0.0000   0.0000   0.2926
  16.000   1.7339   0.08764   0.08315  -0.1240  0.0900  1.0000  -5.8394   0.0000   0.0000   0.0000   0.2932
  16.100   1.7268   0.09013   0.08567  -0.1248  0.0887  1.0000  -5.8422   0.0000   0.0000   0.0000   0.2937
  16.200   1.7196   0.09266   0.08822  -0.1257  0.0874  1.0000  -5.8430   0.0000   0.0000   0.0000   0.2943
  16.300   1.7119   0.09527   0.09085  -0.1266  0.0862  1.0000  -5.8405   0.0000   0.0000   0.0000   0.2949
  16.400   1.7052   0.09772   0.09330  -0.1274  0.0848  1.0000  -5.8438   0.0000   0.0000   0.0000   0.2954
  16.500   1.6994   0.09993   0.09549  -0.1281  0.0832  1.0000  -5.8537   0.0000   0.0000   0.0000   0.2959
  16.600   1.6958   0.10155   0.09706  -0.1282  0.0808  1.0000  -5.8798   0.0000   0.0000   0.0000   0.2958
  16.700   1.6933   0.10321   0.09874  -0.1285  0.0794  1.0000  -5.9124   0.0000   0.0000   0.0000   0.2959
  16.800   1.6898   0.10527   0.10087  -0.1293  0.0787  1.0000  -5.9360   0.0000   0.0000   0.0000   0.2963
  16.900   1.6860   0.10736   0.10303  -0.1302  0.0779  1.0000  -5.9570   0.0000   0.0000   0.0000   0.2968
  17.000   1.6820   0.10950   0.10524  -0.1310  0.0770  1.0000  -5.9760   0.0000   0.0000   0.0000   0.2972
  17.100   1.6785   0.11154   0.10733  -0.1319  0.0761  1.0000  -5.9983   0.0000   0.0000   0.0000   0.2977
  17.200   1.6753   0.11349   0.10933  -0.1327  0.0751  1.0000  -6.0234   0.0000   0.0000   0.0000   0.2980
  17.300   1.6726   0.11537   0.11126  -0.1334  0.0741  1.0000  -6.0516   0.0000   0.0000   0.0000   0.2984
  17.400   1.6701   0.11718   0.11311  -0.1342  0.0731  1.0000  -6.0816   0.0000   0.0000   0.0000   0.2987
  17.500   1.6678   0.11895   0.11492  -0.1349  0.0722  1.0000  -6.1130   0.0000   0.0000   0.0000   0.2990
  17.600   1.6656   0.12070   0.11670  -0.1356  0.0712  1.0000  -6.1457   0.0000   0.0000   0.0000   0.2993
  17.700   1.6633   0.12249   0.11852  -0.1364  0.0704  1.0000  -6.1765   0.0000   0.0000   0.0000   0.2997
  17.800   1.6609   0.12426   0.12032  -0.1372  0.0695  1.0000  -6.2068   0.0000   0.0000   0.0000   0.3000
  17.900   1.6588   0.12590   0.12198  -0.1380  0.0687  1.0000  -6.2389   0.0000   0.0000   0.0000   0.3004
  18.000   1.6571   0.12740   0.12349  -0.1387  0.0678  1.0000  -6.2746   0.0000   0.0000   0.0000   0.3006
  18.100   1.6561   0.12875   0.12484  -0.1393  0.0669  1.0000  -6.3151   0.0000   0.0000   0.0000   0.3008
  18.200   1.6562   0.12983   0.12591  -0.1396  0.0658  1.0000  -6.3653   0.0000   0.0000   0.0000   0.3007
  18.300   1.6583   0.13038   0.12645  -0.1394  0.0646  1.0000  -6.4320   0.0000   0.0000   0.0000   0.3002
  18.400   1.6618   0.13043   0.12650  -0.1386  0.0630  1.0000  -6.5078   0.0000   0.0000   0.0000   0.2993
  18.500   1.6598   0.13203   0.12816  -0.1393  0.0625  1.0000  -6.5360   0.0000   0.0000   0.0000   0.2996
  18.600   1.6572   0.13396   0.13016  -0.1404  0.0622  1.0000  -6.5599   0.0000   0.0000   0.0000   0.3001
  18.700   1.6547   0.13587   0.13214  -0.1414  0.0620  1.0000  -6.5847   0.0000   0.0000   0.0000   0.3007
  18.800   1.6524   0.13781   0.13415  -0.1425  0.0616  1.0000  -6.6095   0.0000   0.0000   0.0000   0.3012
  18.900   1.6497   0.13981   0.13622  -0.1436  0.0613  1.0000  -6.6318   0.0000   0.0000   0.0000   0.3017
  19.000   1.6466   0.14193   0.13841  -0.1448  0.0609  1.0000  -6.6493   0.0000   0.0000   0.0000   0.3024
  19.100   1.6432   0.14415   0.14070  -0.1461  0.0605  1.0000  -6.6629   0.0000   0.0000   0.0000   0.3031
  19.200   1.6385   0.14667   0.14330  -0.1475  0.0601  1.0000  -6.6648   0.0000   0.0000   0.0000   0.3040
  19.300   1.6340   0.14921   0.14591  -0.1490  0.0597  1.0000  -6.6673   0.0000   0.0000   0.0000   0.3050
  19.400   1.6299   0.15170   0.14846  -0.1504  0.0592  1.0000  -6.6725   0.0000   0.0000   0.0000   0.3058
  19.500   1.6258   0.15417   0.15100  -0.1519  0.0587  1.0000  -6.6787   0.0000   0.0000   0.0000   0.3067
  19.600   1.6220   0.15663   0.15357  -0.1533  0.0581  1.0000  -6.6845   0.0000   0.0000   0.0000   0.3076
  19.700   1.6181   0.15914   0.15613  -0.1548  0.0575  1.0000  -6.6908   0.0000   0.0000   0.0000   0.3085
  19.800   1.6138   0.16179   0.15884  -0.1563  0.0569  1.0000  -6.6929   0.0000   0.0000   0.0000   0.3095
  19.900   1.6077   0.16488   0.16200  -0.1581  0.0565  1.0000  -6.6765   0.0000   0.0000   0.0000   0.3108
  20.000   1.6027   0.16776   0.16493  -0.1598  0.0559  1.0000  -6.6700   0.0000   0.0000   0.0000   0.3119
  20.100   1.5988   0.17038   0.16759  -0.1613  0.0553  1.0000  -6.6755   0.0000   0.0000   0.0000   0.3129
  20.200   1.5962   0.17272   0.16997  -0.1626  0.0546  1.0000  -6.6943   0.0000   0.0000   0.0000   0.3136
  20.300   1.5951   0.17470   0.17197  -0.1637  0.0538  1.0000  -6.7302   0.0000   0.0000   0.0000   0.3141
  20.400   1.5957   0.17623   0.17349  -0.1646  0.0529  1.0000  -6.7868   0.0000   0.0000   0.0000   0.3143
  20.500   1.5973   0.17748   0.17473  -0.1653  0.0519  1.0000  -6.8558   0.0000   0.0000   0.0000   0.3144
  20.600   1.5982   0.17885   0.17609  -0.1660  0.0510  1.0000  -6.9182   0.0000   0.0000   0.0000   0.3145
  20.700   1.6004   0.17979   0.17699  -0.1664  0.0498  1.0000  -6.9936   0.0000   0.0000   0.0000   0.3143
  20.800   1.5971   0.18214   0.17937  -0.1675  0.0490  1.0000  -7.0030   0.0000   0.0000   0.0000   0.3150
  20.900   1.5892   0.18581   0.18311  -0.1694  0.0485  1.0000  -6.9579   0.0000   0.0000   0.0000   0.3165
  21.000   1.5779   0.19061   0.18800  -0.1720  0.0483  1.0000  -6.8721   0.0000   0.0000   0.0000   0.3188
  21.100   1.5661   0.19567   0.19316  -0.1747  0.0483  1.0000  -6.7771   0.0000   0.0000   0.0000   0.3212
  21.200   1.5529   0.20128   0.19887  -0.1776  0.0483  1.0000  -6.6639   0.0000   0.0000   0.0000   0.3239


