xflr5 v6.61

 Calculated polar for: S1223

 1 1 Reynolds number fixed          Mach number fixed         

 xtrf =   1.000 (top)        1.000 (bottom)
 Mach =   0.000     Re =     0.500 e 6     Ncrit =   9.000

  alpha     CL        CD       CDp       Cm    Top Xtr Bot Xtr   Cpmin    Chinge    XCp    
 ------- -------- --------- --------- -------- ------- ------- -------- --------- ---------
 -10.000  -0.0452   0.13300   0.13054  -0.0630  0.9743  0.0168  -1.0728   0.0000   0.0000   0.0000  -1.2634
  -9.900  -0.0381   0.13164   0.12918  -0.0645  0.9737  0.0168  -1.0720   0.0000   0.0000   0.0000  -1.5800
  -9.800  -0.0310   0.13029   0.12783  -0.0659  0.9731  0.0168  -1.0712   0.0000   0.0000   0.0000  -2.0461
  -9.700  -0.0238   0.12895   0.12648  -0.0673  0.9726  0.0169  -1.0703   0.0000   0.0000   0.0000  -2.8004
  -9.600  -0.0166   0.12761   0.12514  -0.0688  0.9722  0.0169  -1.0696   0.0000   0.0000   0.0000  -4.2179
  -9.500  -0.0093   0.12628   0.12381  -0.0703  0.9718  0.0169  -1.0688   0.0000   0.0000   0.0000  -7.8823
  -9.400  -0.0019   0.12495   0.12248  -0.0718  0.9715  0.0169  -1.0681   0.0000   0.0000   0.0000  -41.0404
  -9.300  -0.0001   0.12400   0.12154  -0.0716  0.9694  0.0169  -1.0695   0.0000   0.0000   0.0000  -628.2483
  -9.200   0.0027   0.12298   0.12052  -0.0717  0.9672  0.0169  -1.0705   0.0000   0.0000   0.0000  28.9736
  -9.100   0.0080   0.12178   0.11933  -0.0725  0.9659  0.0169  -1.0704   0.0000   0.0000   0.0000   9.9902
  -9.000   0.0141   0.12053   0.11808  -0.0736  0.9648  0.0169  -1.0701   0.0000   0.0000   0.0000   5.8387
  -8.900   0.0207   0.11923   0.11679  -0.0748  0.9638  0.0169  -1.0695   0.0000   0.0000   0.0000   4.1127
  -8.800   0.0276   0.11792   0.11547  -0.0761  0.9630  0.0169  -1.0689   0.0000   0.0000   0.0000   3.1869
  -8.700   0.0348   0.11658   0.11414  -0.0775  0.9623  0.0169  -1.0681   0.0000   0.0000   0.0000   2.6158
  -8.600   0.0423   0.11523   0.11279  -0.0789  0.9616  0.0169  -1.0673   0.0000   0.0000   0.0000   2.2308
  -8.500   0.0500   0.11387   0.11142  -0.0804  0.9610  0.0169  -1.0662   0.0000   0.0000   0.0000   1.9558
  -8.400   0.0579   0.11250   0.11005  -0.0819  0.9604  0.0170  -1.0652   0.0000   0.0000   0.0000   1.7509
  -8.300   0.0659   0.11112   0.10867  -0.0835  0.9599  0.0170  -1.0641   0.0000   0.0000   0.0000   1.5916
  -8.200   0.0741   0.10973   0.10728  -0.0851  0.9594  0.0170  -1.0630   0.0000   0.0000   0.0000   1.4646
  -8.100   0.0722   0.10910   0.10666  -0.0838  0.9556  0.0170  -1.0664   0.0000   0.0000   0.0000   1.4765
  -8.000   0.0747   0.10813   0.10571  -0.0838  0.9528  0.0170  -1.0679   0.0000   0.0000   0.0000   1.4333
  -7.900   0.0803   0.10694   0.10452  -0.0846  0.9510  0.0170  -1.0680   0.0000   0.0000   0.0000   1.3612
  -7.800   0.0868   0.10568   0.10326  -0.0857  0.9496  0.0170  -1.0678   0.0000   0.0000   0.0000   1.2899
  -7.700   0.0940   0.10438   0.10196  -0.0870  0.9484  0.0170  -1.0673   0.0000   0.0000   0.0000   1.2240
  -7.600   0.1016   0.10305   0.10063  -0.0884  0.9474  0.0170  -1.0667   0.0000   0.0000   0.0000   1.1646
  -7.500   0.1095   0.10169   0.09927  -0.0899  0.9464  0.0170  -1.0659   0.0000   0.0000   0.0000   1.1113
  -7.400   0.1179   0.10030   0.09788  -0.0915  0.9455  0.0170  -1.0651   0.0000   0.0000   0.0000   1.0636
  -7.300   0.1265   0.09889   0.09647  -0.0931  0.9448  0.0170  -1.0641   0.0000   0.0000   0.0000   1.0208
  -7.200   0.1235   0.09839   0.09599  -0.0915  0.9398  0.0170  -1.0684   0.0000   0.0000   0.0000   1.0255
  -7.100   0.1255   0.09750   0.09510  -0.0912  0.9359  0.0170  -1.0706   0.0000   0.0000   0.0000   1.0107
  -7.000   0.1312   0.09631   0.09392  -0.0920  0.9335  0.0171  -1.0711   0.0000   0.0000   0.0000   0.9832
  -6.900   0.1381   0.09503   0.09264  -0.0932  0.9315  0.0171  -1.0711   0.0000   0.0000   0.0000   0.9545
  -6.800   0.1456   0.09370   0.09131  -0.0945  0.9298  0.0171  -1.0710   0.0000   0.0000   0.0000   0.9268
  -6.700   0.1535   0.09234   0.08995  -0.0959  0.9283  0.0171  -1.0707   0.0000   0.0000   0.0000   0.9006
  -6.600   0.1618   0.09094   0.08855  -0.0973  0.9269  0.0171  -1.0701   0.0000   0.0000   0.0000   0.8762
  -6.500   0.1550   0.09079   0.08842  -0.0947  0.9188  0.0171  -1.0764   0.0000   0.0000   0.0000   0.8853
  -6.400   0.1583   0.08980   0.08743  -0.0948  0.9145  0.0171  -1.0782   0.0000   0.0000   0.0000   0.8723
  -6.300   0.1635   0.08865   0.08626  -0.0953  0.9113  0.0171  -1.0793   0.0000   0.0000   0.0000   0.8559
  -6.200   0.1700   0.08738   0.08500  -0.0963  0.9086  0.0171  -1.0798   0.0000   0.0000   0.0000   0.8379
  -6.000   0.1739   0.08568   0.08330  -0.0958  0.8974  0.0171  -1.0850   0.0000   0.0000   0.0000   0.8207
  -5.600   0.2048   0.08037   0.07796  -0.1009  0.8775  0.0171  -1.0861   0.0000   0.0000   0.0000   0.7584
  -5.500   0.2160   0.07881   0.07637  -0.1031  0.8700  0.0171  -1.0852   0.0000   0.0000   0.0000   0.7421
  -5.400   0.2343   0.07672   0.07424  -0.1072  0.8631  0.0171  -1.0813   0.0000   0.0000   0.0000   0.7213
  -5.300   0.2537   0.07462   0.07208  -0.1116  0.8533  0.0171  -1.0770   0.0000   0.0000   0.0000   0.7027
  -5.200   0.2789   0.07217   0.06953  -0.1176  0.8386  0.0171  -1.0705   0.0000   0.0000   0.0000   0.6834
  -5.100   0.3075   0.06957   0.06680  -0.1245  0.8179  0.0171  -1.0626   0.0000   0.0000   0.0000   0.6656
  -5.000   0.3297   0.06752   0.06456  -0.1296  0.7892  0.0172  -1.0574   0.0000   0.0000   0.0000   0.6531
  -4.900   0.3404   0.06629   0.06316  -0.1315  0.7576  0.0172  -1.0572   0.0000   0.0000   0.0000   0.6460
  -4.800   0.3432   0.06558   0.06230  -0.1313  0.7282  0.0172  -1.0604   0.0000   0.0000   0.0000   0.6420
  -3.500   0.3605   0.05376   0.04973  -0.1294  0.5573  0.0177  -1.3024   0.0000   0.0000   0.0000   0.6144
  -3.400   0.3655   0.05196   0.04791  -0.1311  0.5522  0.0179  -1.3497   0.0000   0.0000   0.0000   0.6138
  -3.300   0.3717   0.05060   0.04652  -0.1325  0.5464  0.0181  -1.3665   0.0000   0.0000   0.0000   0.6112
  -3.200   0.3784   0.04941   0.04530  -0.1337  0.5403  0.0183  -1.3727   0.0000   0.0000   0.0000   0.6080
  -3.100   0.3856   0.04830   0.04414  -0.1350  0.5338  0.0185  -1.3735   0.0000   0.0000   0.0000   0.6044
  -3.000   0.3942   0.04716   0.04297  -0.1366  0.5272  0.0186  -1.3706   0.0000   0.0000   0.0000   0.6005
  -2.900   0.4057   0.04587   0.04167  -0.1389  0.5238  0.0188  -1.3637   0.0000   0.0000   0.0000   0.5960
  -2.800   0.4183   0.04456   0.04034  -0.1414  0.5198  0.0190  -1.3556   0.0000   0.0000   0.0000   0.5914
  -2.700   0.4310   0.04338   0.03914  -0.1438  0.5153  0.0192  -1.3385   0.0000   0.0000   0.0000   0.5865
  -2.600   0.4450   0.04215   0.03787  -0.1464  0.5107  0.0194  -1.3221   0.0000   0.0000   0.0000   0.5817
  -2.500   0.4607   0.04082   0.03650  -0.1496  0.5058  0.0196  -1.3073   0.0000   0.0000   0.0000   0.5771
  -2.400   0.4788   0.03935   0.03496  -0.1534  0.5004  0.0198  -1.2951   0.0000   0.0000   0.0000   0.5725
  -2.200   0.8017   0.01770   0.01153  -0.2403  0.4804  0.0161  -1.7070   0.0000   0.0000   0.0000   0.5511
  -2.100   0.8365   0.01665   0.01019  -0.2458  0.4756  0.0161  -1.6652   0.0000   0.0000   0.0000   0.5451
  -2.000   0.8590   0.01620   0.00957  -0.2484  0.4712  0.0163  -1.6130   0.0000   0.0000   0.0000   0.5402
  -1.700   0.9324   0.01474   0.00757  -0.2575  0.4550  0.0204  -1.4497   0.0000   0.0000   0.0000   0.5267
  -1.600   0.9460   0.01471   0.00753  -0.2581  0.4526  0.0218  -1.3675   0.0000   0.0000   0.0000   0.5231
  -1.500   0.9590   0.01468   0.00750  -0.2584  0.4510  0.0231  -1.2963   0.0000   0.0000   0.0000   0.5196
  -1.400   0.9722   0.01464   0.00746  -0.2588  0.4492  0.0244  -1.3094   0.0000   0.0000   0.0000   0.5161
  -1.300   0.9857   0.01459   0.00739  -0.2593  0.4470  0.0254  -1.3227   0.0000   0.0000   0.0000   0.5128
  -1.200   0.9994   0.01454   0.00731  -0.2598  0.4445  0.0263  -1.3361   0.0000   0.0000   0.0000   0.5095
  -1.100   1.0132   0.01449   0.00722  -0.2603  0.4418  0.0270  -1.3497   0.0000   0.0000   0.0000   0.5062
  -1.000   1.0270   0.01445   0.00714  -0.2608  0.4390  0.0275  -1.3632   0.0000   0.0000   0.0000   0.5031
  -0.900   1.0407   0.01442   0.00706  -0.2613  0.4361  0.0280  -1.3767   0.0000   0.0000   0.0000   0.5001
  -0.800   1.0544   0.01439   0.00698  -0.2618  0.4331  0.0283  -1.3902   0.0000   0.0000   0.0000   0.4971
  -0.700   1.0680   0.01439   0.00692  -0.2622  0.4300  0.0286  -1.4035   0.0000   0.0000   0.0000   0.4942
  -0.600   1.0797   0.01444   0.00694  -0.2623  0.4267  0.0292  -1.4157   0.0000   0.0000   0.0000   0.4914
  -0.500   1.0894   0.01458   0.00705  -0.2619  0.4234  0.0299  -1.4265   0.0000   0.0000   0.0000   0.4887
  -0.400   1.1078   0.01448   0.00687  -0.2635  0.4192  0.0314  -1.4426   0.0000   0.0000   0.0000   0.4860
  -0.300   1.1229   0.01446   0.00681  -0.2643  0.4169  0.0314  -1.4568   0.0000   0.0000   0.0000   0.4833
  -0.200   1.1401   0.01434   0.00665  -0.2655  0.4161  0.0331  -1.4728   0.0000   0.0000   0.0000   0.4807
  -0.100   1.1547   0.01429   0.00658  -0.2662  0.4151  0.0339  -1.4870   0.0000   0.0000   0.0000   0.4782
   0.000   1.1686   0.01427   0.00653  -0.2667  0.4140  0.0342  -1.5008   0.0000   0.0000   0.0000   0.4757
   0.100   1.1821   0.01426   0.00649  -0.2671  0.4128  0.0345  -1.5144   0.0000   0.0000   0.0000   0.4733
   0.200   1.1954   0.01427   0.00646  -0.2675  0.4115  0.0351  -1.5278   0.0000   0.0000   0.0000   0.4709
   0.300   1.2084   0.01428   0.00643  -0.2677  0.4102  0.0363  -1.5410   0.0000   0.0000   0.0000   0.4685
   0.400   1.2215   0.01429   0.00641  -0.2680  0.4088  0.0390  -1.5543   0.0000   0.0000   0.0000   0.4662
   0.600   1.2590   0.01408   0.00667  -0.2715  0.4054  0.2530  -1.5905   0.0000   0.0000   0.0000   0.4621
   0.700   1.2700   0.01415   0.00676  -0.2714  0.4040  0.2637  -1.6038   0.0000   0.0000   0.0000   0.4600
   0.800   1.2804   0.01424   0.00683  -0.2712  0.4025  0.2713  -1.6167   0.0000   0.0000   0.0000   0.4579
   0.900   1.2904   0.01433   0.00690  -0.2709  0.4011  0.2757  -1.6294   0.0000   0.0000   0.0000   0.4559
   1.000   1.3017   0.01440   0.00696  -0.2708  0.3996  0.2834  -1.6429   0.0000   0.0000   0.0000   0.4539
   1.100   1.3132   0.01447   0.00705  -0.2709  0.3981  0.2948  -1.6567   0.0000   0.0000   0.0000   0.4519
   1.200   1.3238   0.01456   0.00715  -0.2707  0.3965  0.3037  -1.6698   0.0000   0.0000   0.0000   0.4500
   1.300   1.3341   0.01466   0.00724  -0.2705  0.3949  0.3099  -1.6826   0.0000   0.0000   0.0000   0.4480
   1.400   1.3444   0.01477   0.00732  -0.2702  0.3932  0.3139  -1.6955   0.0000   0.0000   0.0000   0.4461
   1.500   1.3549   0.01488   0.00740  -0.2700  0.3912  0.3162  -1.7085   0.0000   0.0000   0.0000   0.4443
   1.600   1.3660   0.01499   0.00748  -0.2700  0.3890  0.3192  -1.7217   0.0000   0.0000   0.0000   0.4424
   1.700   1.3785   0.01510   0.00758  -0.2702  0.3866  0.3280  -1.7359   0.0000   0.0000   0.0000   0.4407
   1.800   1.3909   0.01523   0.00772  -0.2705  0.3842  0.3354  -1.7500   0.0000   0.0000   0.0000   0.4389
   1.900   1.4035   0.01537   0.00787  -0.2708  0.3820  0.3392  -1.7642   0.0000   0.0000   0.0000   0.4372
   2.000   1.4144   0.01541   0.00794  -0.2707  0.3816  0.3477  -1.7778   0.0000   0.0000   0.0000   0.4355
   2.100   1.4252   0.01546   0.00800  -0.2705  0.3812  0.3540  -1.7913   0.0000   0.0000   0.0000   0.4338
   2.200   1.4359   0.01552   0.00806  -0.2703  0.3807  0.3585  -1.8046   0.0000   0.0000   0.0000   0.4321
   2.300   1.4471   0.01558   0.00813  -0.2703  0.3803  0.3663  -1.8184   0.0000   0.0000   0.0000   0.4304
   2.400   1.4588   0.01563   0.00821  -0.2704  0.3798  0.3782  -1.8325   0.0000   0.0000   0.0000   0.4288
   2.500   1.4700   0.01568   0.00830  -0.2704  0.3792  0.3880  -1.8463   0.0000   0.0000   0.0000   0.4272
   2.600   1.4810   0.01575   0.00838  -0.2703  0.3786  0.3971  -1.8599   0.0000   0.0000   0.0000   0.4256
   2.700   1.4916   0.01582   0.00845  -0.2701  0.3779  0.4042  -1.8733   0.0000   0.0000   0.0000   0.4240
   2.800   1.5030   0.01588   0.00855  -0.2701  0.3773  0.4187  -1.8873   0.0000   0.0000   0.0000   0.4225
   2.900   1.5144   0.01594   0.00865  -0.2702  0.3765  0.4323  -1.9012   0.0000   0.0000   0.0000   0.4210
   3.000   1.5253   0.01601   0.00874  -0.2701  0.3758  0.4445  -1.9148   0.0000   0.0000   0.0000   0.4195
   3.100   1.5361   0.01609   0.00883  -0.2700  0.3750  0.4568  -1.9284   0.0000   0.0000   0.0000   0.4180
   3.200   1.5476   0.01616   0.00895  -0.2700  0.3742  0.4743  -1.9425   0.0000   0.0000   0.0000   0.4165
   3.300   1.5585   0.01623   0.00905  -0.2699  0.3733  0.4899  -1.9562   0.0000   0.0000   0.0000   0.4151
   3.400   1.5694   0.01631   0.00915  -0.2698  0.3725  0.5050  -1.9698   0.0000   0.0000   0.0000   0.4137
   3.500   1.5808   0.01639   0.00927  -0.2699  0.3716  0.5249  -1.9839   0.0000   0.0000   0.0000   0.4123
   3.600   1.5916   0.01647   0.00938  -0.2698  0.3707  0.5430  -1.9976   0.0000   0.0000   0.0000   0.4109
   3.700   1.6030   0.01654   0.00950  -0.2698  0.3698  0.5657  -2.0117   0.0000   0.0000   0.0000   0.4095
   3.800   1.6140   0.01663   0.00962  -0.2698  0.3690  0.5890  -2.0256   0.0000   0.0000   0.0000   0.4082
   3.900   1.6254   0.01671   0.00975  -0.2698  0.3681  0.6155  -2.0397   0.0000   0.0000   0.0000   0.4068
   4.100   1.6477   0.01687   0.01002  -0.2697  0.3662  0.6750  -2.0678   0.0000   0.0000   0.0000   0.4042
   4.200   1.6589   0.01696   0.01016  -0.2697  0.3653  0.7089  -2.0818   0.0000   0.0000   0.0000   0.4029
   4.300   1.6699   0.01704   0.01030  -0.2696  0.3643  0.7477  -2.0966   0.0000   0.0000   0.0000   0.4016
   4.400   1.6803   0.01710   0.01049  -0.2694  0.3634  0.7962  -2.1115   0.0000   0.0000   0.0000   0.4003
   4.500   1.6878   0.01711   0.01059  -0.2686  0.3625  0.8664  -2.1239   0.0000   0.0000   0.0000   0.3989
   4.700   1.6989   0.01717   0.01067  -0.2662  0.3606  1.0000  -2.1451   0.0000   0.0000   0.0000   0.3961
   4.800   1.7088   0.01730   0.01079  -0.2659  0.3593  1.0000  -2.1594   0.0000   0.0000   0.0000   0.3949
   4.900   1.7186   0.01745   0.01092  -0.2656  0.3580  1.0000  -2.1738   0.0000   0.0000   0.0000   0.3936
   5.000   1.7286   0.01760   0.01105  -0.2654  0.3565  1.0000  -2.1882   0.0000   0.0000   0.0000   0.3924
   5.100   1.7390   0.01777   0.01120  -0.2652  0.3549  1.0000  -2.2028   0.0000   0.0000   0.0000   0.3912
   5.200   1.7498   0.01795   0.01136  -0.2652  0.3532  1.0000  -2.2187   0.0000   0.0000   0.0000   0.3901
   5.300   1.7611   0.01814   0.01154  -0.2652  0.3516  1.0000  -2.2356   0.0000   0.0000   0.0000   0.3890
   5.400   1.7730   0.01835   0.01174  -0.2654  0.3500  1.0000  -2.2529   0.0000   0.0000   0.0000   0.3879
   5.500   1.7857   0.01859   0.01198  -0.2658  0.3483  1.0000  -2.2708   0.0000   0.0000   0.0000   0.3868
   5.600   1.7960   0.01873   0.01211  -0.2656  0.3476  1.0000  -2.2871   0.0000   0.0000   0.0000   0.3857
   5.700   1.8052   0.01881   0.01221  -0.2652  0.3474  1.0000  -2.3028   0.0000   0.0000   0.0000   0.3845
   5.800   1.8143   0.01889   0.01230  -0.2648  0.3470  1.0000  -2.3190   0.0000   0.0000   0.0000   0.3834
   5.900   1.8234   0.01898   0.01239  -0.2643  0.3466  1.0000  -2.3366   0.0000   0.0000   0.0000   0.3822
   6.000   1.8324   0.01906   0.01249  -0.2639  0.3462  1.0000  -2.3554   0.0000   0.0000   0.0000   0.3811
   6.100   1.8414   0.01916   0.01260  -0.2634  0.3457  1.0000  -2.3742   0.0000   0.0000   0.0000   0.3799
   6.200   1.8504   0.01925   0.01271  -0.2630  0.3452  1.0000  -2.3931   0.0000   0.0000   0.0000   0.3788
   6.300   1.8594   0.01936   0.01282  -0.2626  0.3447  1.0000  -2.4119   0.0000   0.0000   0.0000   0.3777
   6.400   1.8684   0.01946   0.01294  -0.2621  0.3441  1.0000  -2.4307   0.0000   0.0000   0.0000   0.3766
   6.500   1.8771   0.01956   0.01305  -0.2616  0.3434  1.0000  -2.4494   0.0000   0.0000   0.0000   0.3755
   6.600   1.8857   0.01966   0.01317  -0.2611  0.3426  1.0000  -2.4680   0.0000   0.0000   0.0000   0.3744
   6.700   1.8941   0.01977   0.01328  -0.2605  0.3417  1.0000  -2.4865   0.0000   0.0000   0.0000   0.3733
   6.800   1.9025   0.01987   0.01340  -0.2600  0.3408  1.0000  -2.5050   0.0000   0.0000   0.0000   0.3722
   6.900   1.9109   0.01998   0.01351  -0.2594  0.3398  1.0000  -2.5235   0.0000   0.0000   0.0000   0.3711
   7.000   1.9194   0.02009   0.01364  -0.2589  0.3388  1.0000  -2.5421   0.0000   0.0000   0.0000   0.3700
   7.100   1.9279   0.02021   0.01376  -0.2584  0.3378  1.0000  -2.5627   0.0000   0.0000   0.0000   0.3690
   7.200   1.9365   0.02033   0.01399  -0.2578  0.3369  1.0000  -2.5837   0.0000   0.0000   0.0000   0.3679
   7.300   1.9451   0.02045   0.01413  -0.2573  0.3359  1.0000  -2.6067   0.0000   0.0000   0.0000   0.3669
   7.400   1.9537   0.02058   0.01427  -0.2569  0.3351  1.0000  -2.6299   0.0000   0.0000   0.0000   0.3658
   7.500   1.9624   0.02071   0.01441  -0.2564  0.3342  1.0000  -2.6532   0.0000   0.0000   0.0000   0.3648
   7.600   1.9709   0.02085   0.01455  -0.2559  0.3333  1.0000  -2.6764   0.0000   0.0000   0.0000   0.3638
   7.700   1.9793   0.02098   0.01470  -0.2554  0.3324  1.0000  -2.6994   0.0000   0.0000   0.0000   0.3628
   7.800   1.9875   0.02111   0.01484  -0.2548  0.3314  1.0000  -2.7315   0.0000   0.0000   0.0000   0.3618
   7.900   1.9956   0.02126   0.01499  -0.2542  0.3303  1.0000  -2.7639   0.0000   0.0000   0.0000   0.3608
   8.000   2.0035   0.02141   0.01514  -0.2536  0.3291  1.0000  -2.7961   0.0000   0.0000   0.0000   0.3597
   8.100   2.0111   0.02156   0.01530  -0.2529  0.3277  1.0000  -2.8281   0.0000   0.0000   0.0000   0.3587
   8.200   2.0185   0.02174   0.01547  -0.2522  0.3262  1.0000  -2.8597   0.0000   0.0000   0.0000   0.3577
   8.300   2.0258   0.02193   0.01566  -0.2515  0.3245  1.0000  -2.8913   0.0000   0.0000   0.0000   0.3567
   8.400   2.0335   0.02214   0.01586  -0.2509  0.3226  1.0000  -2.9236   0.0000   0.0000   0.0000   0.3557
   8.500   2.0419   0.02238   0.01609  -0.2504  0.3206  1.0000  -2.9571   0.0000   0.0000   0.0000   0.3548
   8.600   2.0513   0.02264   0.01634  -0.2502  0.3183  1.0000  -2.9923   0.0000   0.0000   0.0000   0.3539
   8.700   2.0625   0.02296   0.01666  -0.2503  0.3153  1.0000  -3.0305   0.0000   0.0000   0.0000   0.3531
   8.800   2.0697   0.02309   0.01681  -0.2496  0.3146  1.0000  -3.0626   0.0000   0.0000   0.0000   0.3521
   8.900   2.0761   0.02319   0.01694  -0.2487  0.3141  1.0000  -3.0935   0.0000   0.0000   0.0000   0.3511
   9.000   2.0824   0.02329   0.01707  -0.2478  0.3135  1.0000  -3.1246   0.0000   0.0000   0.0000   0.3501
   9.100   2.0889   0.02339   0.01720  -0.2469  0.3127  1.0000  -3.1559   0.0000   0.0000   0.0000   0.3491
   9.200   2.0955   0.02350   0.01734  -0.2460  0.3118  1.0000  -3.1876   0.0000   0.0000   0.0000   0.3481
   9.300   2.1023   0.02361   0.01748  -0.2452  0.3107  1.0000  -3.2197   0.0000   0.0000   0.0000   0.3471
   9.400   2.1093   0.02374   0.01763  -0.2445  0.3095  1.0000  -3.2522   0.0000   0.0000   0.0000   0.3462
   9.500   2.1165   0.02387   0.01779  -0.2438  0.3083  1.0000  -3.2851   0.0000   0.0000   0.0000   0.3452
   9.600   2.1237   0.02401   0.01796  -0.2431  0.3071  1.0000  -3.3181   0.0000   0.0000   0.0000   0.3443
   9.700   2.1308   0.02417   0.01814  -0.2423  0.3058  1.0000  -3.3510   0.0000   0.0000   0.0000   0.3434
   9.800   2.1377   0.02433   0.01832  -0.2416  0.3044  1.0000  -3.3837   0.0000   0.0000   0.0000   0.3424
   9.900   2.1446   0.02450   0.01859  -0.2408  0.3030  1.0000  -3.4163   0.0000   0.0000   0.0000   0.3415
  10.000   2.1514   0.02467   0.01878  -0.2401  0.3017  1.0000  -3.4491   0.0000   0.0000   0.0000   0.3406
  10.100   2.1582   0.02486   0.01899  -0.2393  0.3003  1.0000  -3.4818   0.0000   0.0000   0.0000   0.3397
  10.200   2.1648   0.02505   0.01920  -0.2386  0.2989  1.0000  -3.5142   0.0000   0.0000   0.0000   0.3387
  10.300   2.1711   0.02526   0.01941  -0.2377  0.2974  1.0000  -3.5464   0.0000   0.0000   0.0000   0.3378
  10.400   2.1772   0.02548   0.01964  -0.2369  0.2959  1.0000  -3.5781   0.0000   0.0000   0.0000   0.3369
  10.500   2.1830   0.02571   0.01988  -0.2360  0.2943  1.0000  -3.6094   0.0000   0.0000   0.0000   0.3360
  10.600   2.1884   0.02597   0.02015  -0.2350  0.2926  1.0000  -3.6401   0.0000   0.0000   0.0000   0.3350
  10.700   2.1934   0.02626   0.02045  -0.2340  0.2908  1.0000  -3.6700   0.0000   0.0000   0.0000   0.3341
  10.800   2.1981   0.02659   0.02078  -0.2329  0.2887  1.0000  -3.6994   0.0000   0.0000   0.0000   0.3332
  10.900   2.2031   0.02694   0.02114  -0.2319  0.2863  1.0000  -3.7291   0.0000   0.0000   0.0000   0.3323
  11.000   2.2086   0.02731   0.02151  -0.2311  0.2838  1.0000  -3.7601   0.0000   0.0000   0.0000   0.3314
  11.100   2.2152   0.02751   0.02174  -0.2303  0.2830  1.0000  -3.7978   0.0000   0.0000   0.0000   0.3305
  11.200   2.2220   0.02769   0.02197  -0.2296  0.2823  1.0000  -3.8359   0.0000   0.0000   0.0000   0.3297
  11.300   2.2288   0.02787   0.02220  -0.2290  0.2814  1.0000  -3.8743   0.0000   0.0000   0.0000   0.3288
  11.400   2.2356   0.02807   0.02244  -0.2283  0.2803  1.0000  -3.9128   0.0000   0.0000   0.0000   0.3280
  11.500   2.2423   0.02827   0.02268  -0.2276  0.2790  1.0000  -3.9513   0.0000   0.0000   0.0000   0.3271
  11.600   2.2489   0.02848   0.02293  -0.2269  0.2775  1.0000  -3.9897   0.0000   0.0000   0.0000   0.3263
  11.700   2.2551   0.02871   0.02319  -0.2262  0.2757  1.0000  -4.0273   0.0000   0.0000   0.0000   0.3255
  11.800   2.2607   0.02897   0.02348  -0.2253  0.2734  1.0000  -4.0637   0.0000   0.0000   0.0000   0.3246
  11.900   2.2656   0.02926   0.02378  -0.2244  0.2705  1.0000  -4.0989   0.0000   0.0000   0.0000   0.3237
  12.000   2.2696   0.02961   0.02412  -0.2233  0.2671  1.0000  -4.1325   0.0000   0.0000   0.0000   0.3228
  12.100   2.2724   0.03004   0.02453  -0.2221  0.2631  1.0000  -4.1635   0.0000   0.0000   0.0000   0.3219
  12.200   2.2740   0.03057   0.02504  -0.2207  0.2586  1.0000  -4.1916   0.0000   0.0000   0.0000   0.3210
  12.300   2.2747   0.03120   0.02564  -0.2192  0.2536  1.0000  -4.2177   0.0000   0.0000   0.0000   0.3201
  12.400   2.2808   0.03146   0.02594  -0.2185  0.2505  1.0000  -4.2560   0.0000   0.0000   0.0000   0.3193
  12.500   2.2850   0.03186   0.02634  -0.2175  0.2456  1.0000  -4.2901   0.0000   0.0000   0.0000   0.3185
  12.600   2.2870   0.03242   0.02687  -0.2163  0.2395  1.0000  -4.3195   0.0000   0.0000   0.0000   0.3176
  12.800   2.2815   0.03429   0.02863  -0.2127  0.2192  1.0000  -4.3573   0.0000   0.0000   0.0000   0.3158
  12.900   2.2797   0.03520   0.02950  -0.2111  0.2103  1.0000  -4.3781   0.0000   0.0000   0.0000   0.3149
  13.000   2.2755   0.03634   0.03057  -0.2092  0.2021  1.0000  -4.3932   0.0000   0.0000   0.0000   0.3140
  13.100   2.2741   0.03728   0.03149  -0.2077  0.1951  1.0000  -4.4144   0.0000   0.0000   0.0000   0.3132
  13.200   2.2726   0.03823   0.03243  -0.2063  0.1887  1.0000  -4.4354   0.0000   0.0000   0.0000   0.3124
  13.300   2.2696   0.03934   0.03351  -0.2047  0.1826  1.0000  -4.4526   0.0000   0.0000   0.0000   0.3115
  13.400   2.2659   0.04053   0.03467  -0.2031  0.1768  1.0000  -4.4682   0.0000   0.0000   0.0000   0.3107
  13.500   2.2638   0.04160   0.03574  -0.2018  0.1720  1.0000  -4.4875   0.0000   0.0000   0.0000   0.3100
  13.600   2.2637   0.04249   0.03665  -0.2006  0.1687  1.0000  -4.5113   0.0000   0.0000   0.0000   0.3092
  13.700   2.2629   0.04346   0.03764  -0.1995  0.1649  1.0000  -4.5333   0.0000   0.0000   0.0000   0.3085
  13.800   2.2611   0.04454   0.03873  -0.1983  0.1610  1.0000  -4.5531   0.0000   0.0000   0.0000   0.3078
  13.900   2.2577   0.04580   0.03998  -0.1970  0.1571  1.0000  -4.5688   0.0000   0.0000   0.0000   0.3071
  14.000   2.2532   0.04719   0.04137  -0.1957  0.1534  1.0000  -4.5818   0.0000   0.0000   0.0000   0.3064
  14.100   2.2493   0.04853   0.04272  -0.1944  0.1495  1.0000  -4.5960   0.0000   0.0000   0.0000   0.3058
  14.200   2.2479   0.04963   0.04386  -0.1935  0.1468  1.0000  -4.6162   0.0000   0.0000   0.0000   0.3051
  14.300   2.2458   0.05083   0.04509  -0.1925  0.1443  1.0000  -4.6346   0.0000   0.0000   0.0000   0.3045
  14.400   2.2434   0.05209   0.04638  -0.1916  0.1414  1.0000  -4.6522   0.0000   0.0000   0.0000   0.3039
  14.500   2.2401   0.05347   0.04778  -0.1906  0.1384  1.0000  -4.6675   0.0000   0.0000   0.0000   0.3034
  14.600   2.2349   0.05512   0.04946  -0.1897  0.1357  1.0000  -4.6776   0.0000   0.0000   0.0000   0.3029
  14.700   2.2294   0.05684   0.05118  -0.1888  0.1329  1.0000  -4.6869   0.0000   0.0000   0.0000   0.3024
  14.800   2.2233   0.05868   0.05304  -0.1880  0.1301  1.0000  -4.6944   0.0000   0.0000   0.0000   0.3020
  14.900   2.2171   0.06060   0.05499  -0.1873  0.1273  1.0000  -4.7012   0.0000   0.0000   0.0000   0.3016
  15.000   2.2137   0.06218   0.05661  -0.1867  0.1251  1.0000  -4.7150   0.0000   0.0000   0.0000   0.3012
  15.100   2.2103   0.06381   0.05829  -0.1862  0.1233  1.0000  -4.7288   0.0000   0.0000   0.0000   0.3008
  15.200   2.2059   0.06559   0.06012  -0.1857  0.1214  1.0000  -4.7399   0.0000   0.0000   0.0000   0.3005
  15.300   2.2016   0.06739   0.06195  -0.1853  0.1192  1.0000  -4.7508   0.0000   0.0000   0.0000   0.3002
  15.400   2.1952   0.06953   0.06414  -0.1850  0.1172  1.0000  -4.7559   0.0000   0.0000   0.0000   0.3000
  15.500   2.1884   0.07173   0.06638  -0.1847  0.1152  1.0000  -4.7598   0.0000   0.0000   0.0000   0.2999
  15.600   2.1807   0.07412   0.06880  -0.1846  0.1132  1.0000  -4.7607   0.0000   0.0000   0.0000   0.2998
  15.700   2.1717   0.07673   0.07146  -0.1845  0.1114  1.0000  -4.7578   0.0000   0.0000   0.0000   0.2998
  15.800   2.1631   0.07932   0.07408  -0.1845  0.1094  1.0000  -4.7553   0.0000   0.0000   0.0000   0.2999
  15.900   2.1531   0.08216   0.07697  -0.1846  0.1077  1.0000  -4.7486   0.0000   0.0000   0.0000   0.3000
  16.000   2.1449   0.08472   0.07957  -0.1847  0.1057  1.0000  -4.7467   0.0000   0.0000   0.0000   0.3001
  16.100   2.1366   0.08737   0.08228  -0.1850  0.1044  1.0000  -4.7436   0.0000   0.0000   0.0000   0.3003
  16.200   2.1306   0.08963   0.08459  -0.1852  0.1032  1.0000  -4.7473   0.0000   0.0000   0.0000   0.3003
  16.300   2.1242   0.09193   0.08695  -0.1854  0.1020  1.0000  -4.7495   0.0000   0.0000   0.0000   0.3004
  16.400   2.1152   0.09469   0.08976  -0.1858  0.1009  1.0000  -4.7439   0.0000   0.0000   0.0000   0.3006
  16.500   2.1079   0.09714   0.09226  -0.1861  0.0996  1.0000  -4.7428   0.0000   0.0000   0.0000   0.3008
  16.600   2.1002   0.09965   0.09482  -0.1864  0.0983  1.0000  -4.7403   0.0000   0.0000   0.0000   0.3010
  16.700   2.0899   0.10262   0.09785  -0.1870  0.0972  1.0000  -4.7296   0.0000   0.0000   0.0000   0.3014
  16.800   2.0816   0.10521   0.10048  -0.1875  0.0958  1.0000  -4.7247   0.0000   0.0000   0.0000   0.3017
  16.900   2.0734   0.10778   0.10309  -0.1880  0.0945  1.0000  -4.7196   0.0000   0.0000   0.0000   0.3020


