xflr5 v6.61

 Calculated polar for: S1221

 1 1 Reynolds number fixed          Mach number fixed         

 xtrf =   1.000 (top)        1.000 (bottom)
 Mach =   0.000     Re =     0.160 e 6     Ncrit =   9.000

  alpha     CL        CD       CDp       Cm    Top Xtr Bot Xtr   Cpmin    Chinge    XCp    
 ------- -------- --------- --------- -------- ------- ------- -------- --------- ---------
 -10.000  -0.3158   0.13603   0.13182  -0.0225  1.0000  0.0457  -1.3762   0.0000   0.0000   0.0000   0.1677
  -9.900  -0.3138   0.13486   0.13067  -0.0230  1.0000  0.0457  -1.3826   0.0000   0.0000   0.0000   0.1659
  -9.800  -0.3117   0.13369   0.12951  -0.0234  1.0000  0.0457  -1.3892   0.0000   0.0000   0.0000   0.1641
  -9.700  -0.3098   0.13250   0.12834  -0.0238  1.0000  0.0457  -1.3958   0.0000   0.0000   0.0000   0.1624
  -9.600  -0.3117   0.12704   0.12291  -0.0237  1.0000  0.0467  -1.4384   0.0000   0.0000   0.0000   0.1631
  -9.500  -0.3069   0.12506   0.12094  -0.0231  1.0000  0.0472  -1.4076   0.0000   0.0000   0.0000   0.1639
  -9.400  -0.3017   0.12353   0.11942  -0.0226  1.0000  0.0476  -1.3758   0.0000   0.0000   0.0000   0.1643
  -9.300  -0.2966   0.12215   0.11805  -0.0221  1.0000  0.0480  -1.3455   0.0000   0.0000   0.0000   0.1644
  -9.200  -0.2915   0.12086   0.11677  -0.0218  1.0000  0.0484  -1.3175   0.0000   0.0000   0.0000   0.1643
  -9.100  -0.2871   0.11966   0.11558  -0.0215  1.0000  0.0488  -1.2946   0.0000   0.0000   0.0000   0.1639
  -9.000  -0.2832   0.11853   0.11446  -0.0214  1.0000  0.0493  -1.2759   0.0000   0.0000   0.0000   0.1634
  -8.900  -0.2796   0.11743   0.11338  -0.0213  1.0000  0.0497  -1.2602   0.0000   0.0000   0.0000   0.1628
  -8.800  -0.2764   0.11636   0.11232  -0.0213  1.0000  0.0502  -1.2472   0.0000   0.0000   0.0000   0.1620
  -8.700  -0.2734   0.11530   0.11128  -0.0213  1.0000  0.0507  -1.2363   0.0000   0.0000   0.0000   0.1612
  -8.600  -0.2706   0.11425   0.11025  -0.0213  1.0000  0.0512  -1.2272   0.0000   0.0000   0.0000   0.1603
  -8.500  -0.2679   0.11321   0.10922  -0.0214  1.0000  0.0517  -1.2198   0.0000   0.0000   0.0000   0.1593
  -8.400  -0.2655   0.11218   0.10820  -0.0215  1.0000  0.0522  -1.2139   0.0000   0.0000   0.0000   0.1582
  -8.300  -0.2631   0.11115   0.10719  -0.0216  1.0000  0.0528  -1.2094   0.0000   0.0000   0.0000   0.1572
  -8.200  -0.2610   0.11012   0.10618  -0.0217  1.0000  0.0534  -1.2062   0.0000   0.0000   0.0000   0.1561
  -8.100  -0.2590   0.10909   0.10517  -0.0219  1.0000  0.0540  -1.2042   0.0000   0.0000   0.0000   0.1549
  -8.000  -0.2571   0.10806   0.10416  -0.0220  1.0000  0.0546  -1.2034   0.0000   0.0000   0.0000   0.1538
  -7.900  -0.2553   0.10704   0.10315  -0.0222  1.0000  0.0553  -1.2038   0.0000   0.0000   0.0000   0.1526
  -7.800  -0.2537   0.10601   0.10214  -0.0224  1.0000  0.0560  -1.2056   0.0000   0.0000   0.0000   0.1514
  -7.700  -0.2524   0.10498   0.10114  -0.0226  1.0000  0.0567  -1.2088   0.0000   0.0000   0.0000   0.1501
  -7.600  -0.2512   0.10397   0.10015  -0.0228  1.0000  0.0574  -1.2139   0.0000   0.0000   0.0000   0.1489
  -7.500  -0.2504   0.10298   0.09918  -0.0231  1.0000  0.0582  -1.2214   0.0000   0.0000   0.0000   0.1476
  -7.400  -0.2501   0.10202   0.09825  -0.0234  1.0000  0.0591  -1.2321   0.0000   0.0000   0.0000   0.1463
  -7.300  -0.2503   0.10111   0.09736  -0.0239  1.0000  0.0599  -1.2474   0.0000   0.0000   0.0000   0.1448
  -7.200  -0.2514   0.10029   0.09657  -0.0245  1.0000  0.0609  -1.2698   0.0000   0.0000   0.0000   0.1430
  -7.100  -0.2538   0.09968   0.09600  -0.0253  1.0000  0.0618  -1.3019   0.0000   0.0000   0.0000   0.1409
  -7.000  -0.2569   0.09930   0.09565  -0.0261  1.0000  0.0625  -1.3365   0.0000   0.0000   0.0000   0.1392
  -6.900  -0.2604   0.09890   0.09529  -0.0266  1.0000  0.0630  -1.3672   0.0000   0.0000   0.0000   0.1387
  -6.800  -0.2625   0.09841   0.09484  -0.0268  1.0000  0.0632  -1.3854   0.0000   0.0000   0.0000   0.1392
  -6.700  -0.2646   0.09784   0.09431  -0.0267  1.0000  0.0634  -1.4002   0.0000   0.0000   0.0000   0.1405
  -6.600  -0.2671   0.09724   0.09374  -0.0265  1.0000  0.0635  -1.4145   0.0000   0.0000   0.0000   0.1425
  -6.500  -0.2701   0.09661   0.09315  -0.0262  1.0000  0.0636  -1.4285   0.0000   0.0000   0.0000   0.1451
  -6.400  -0.2735   0.09598   0.09256  -0.0257  1.0000  0.0637  -1.4425   0.0000   0.0000   0.0000   0.1482
  -6.300  -0.2771   0.09533   0.09195  -0.0252  1.0000  0.0638  -1.4567   0.0000   0.0000   0.0000   0.1515
  -6.200  -0.2805   0.09462   0.09127  -0.0248  1.0000  0.0638  -1.4710   0.0000   0.0000   0.0000   0.1542
  -6.100  -0.2824   0.09371   0.09040  -0.0249  1.0000  0.0639  -1.4855   0.0000   0.0000   0.0000   0.1547
  -6.000  -0.2835   0.09267   0.08939  -0.0252  1.0000  0.0639  -1.5005   0.0000   0.0000   0.0000   0.1540
  -5.900  -0.2937   0.08772   0.08450  -0.0246  1.0000  0.0653  -1.5552   0.0000   0.0000   0.0000   0.1594
  -5.800  -0.2895   0.08655   0.08335  -0.0229  1.0000  0.0660  -1.5124   0.0000   0.0000   0.0000   0.1642
  -5.700  -0.2865   0.08566   0.08248  -0.0217  1.0000  0.0666  -1.4797   0.0000   0.0000   0.0000   0.1676
  -5.600  -0.2843   0.08487   0.08166  -0.0207  1.0000  0.0672  -1.4527   0.0000   0.0000   0.0000   0.1706
  -5.500  -0.2819   0.08416   0.08098  -0.0197  1.0000  0.0678  -1.4270   0.0000   0.0000   0.0000   0.1736
  -5.400  -0.2806   0.08347   0.08032  -0.0189  1.0000  0.0684  -1.4075   0.0000   0.0000   0.0000   0.1764
  -5.300  -0.2800   0.08279   0.07968  -0.0181  1.0000  0.0689  -1.3928   0.0000   0.0000   0.0000   0.1790
  -5.200  -0.2801   0.08212   0.07905  -0.0175  1.0000  0.0696  -1.3818   0.0000   0.0000   0.0000   0.1815
  -5.100  -0.2693   0.08085   0.07779  -0.0191  0.9984  0.0708  -1.3536   0.0000   0.0000   0.0000   0.1730
  -5.000  -0.2538   0.07914   0.07608  -0.0221  0.9956  0.0726  -1.3270   0.0000   0.0000   0.0000   0.1563
  -4.900  -0.2381   0.07721   0.07414  -0.0260  0.9924  0.0748  -1.3110   0.0000   0.0000   0.0000   0.1339
  -4.800  -0.2217   0.07494   0.07188  -0.0310  0.9881  0.0775  -1.3091   0.0000   0.0000   0.0000   0.1029
  -4.700  -0.1768   0.06886   0.06571  -0.0592  0.9778  0.0846  -1.4828   0.0000   0.0000   0.0000  -0.0939
  -4.600  -0.1806   0.06369   0.06060  -0.0606  0.9731  0.0867  -1.5220   0.0000   0.0000   0.0000  -0.0943
  -4.500  -0.1719   0.06333   0.06027  -0.0579  0.9695  0.0877  -1.4545   0.0000   0.0000   0.0000  -0.0958
  -4.400  -0.1596   0.06275   0.05970  -0.0568  0.9664  0.0890  -1.3908   0.0000   0.0000   0.0000  -0.1153
  -4.300  -0.1493   0.06201   0.05896  -0.0564  0.9602  0.0904  -1.3441   0.0000   0.0000   0.0000  -0.1373
  -4.200  -0.1357   0.06104   0.05801  -0.0571  0.9550  0.0923  -1.2986   0.0000   0.0000   0.0000  -0.1813
  -4.100  -0.1187   0.05958   0.05654  -0.0598  0.9506  0.0952  -1.2638   0.0000   0.0000   0.0000  -0.2652
  -4.000  -0.0806   0.05009   0.04689  -0.0858  0.9421  0.1110  -1.4118   0.0000   0.0000   0.0000  -0.8321
  -3.900  -0.0777   0.04997   0.04682  -0.0829  0.9318  0.1117  -1.3719   0.0000   0.0000   0.0000  -0.8334
  -3.800  -0.0713   0.04976   0.04665  -0.0808  0.9200  0.1128  -1.3271   0.0000   0.0000   0.0000  -0.9014
  -3.700  -0.0612   0.04929   0.04621  -0.0798  0.9077  0.1143  -1.2821   0.0000   0.0000   0.0000  -1.0739
  -3.600   0.0571   0.02616   0.02076  -0.1250  0.9191  0.0473  -1.9698   0.0000   0.0000   0.0000   2.4640
  -3.500   0.0733   0.02555   0.02018  -0.1253  0.9058  0.0444  -1.9288   0.0000   0.0000   0.0000   1.9791
  -3.400   0.1027   0.02283   0.01717  -0.1300  0.8956  0.0416  -1.9315   0.0000   0.0000   0.0000   1.5299
  -3.300   0.1348   0.02092   0.01498  -0.1343  0.8825  0.0391  -1.9146   0.0000   0.0000   0.0000   1.2568
  -3.200   0.1709   0.01923   0.01297  -0.1391  0.8666  0.0368  -1.8930   0.0000   0.0000   0.0000   1.0718
  -3.100   0.2128   0.01778   0.01121  -0.1448  0.8401  0.0350  -1.8500   0.0000   0.0000   0.0000   0.9366
  -3.000   0.2685   0.01647   0.00952  -0.1532  0.7949  0.0338  -1.7642   0.0000   0.0000   0.0000   0.8253
  -2.900   0.2976   0.01595   0.00876  -0.1566  0.7573  0.0335  -1.7034   0.0000   0.0000   0.0000   0.7802
  -2.800   0.3186   0.01568   0.00824  -0.1584  0.7224  0.0336  -1.6537   0.0000   0.0000   0.0000   0.7507
  -2.700   0.3329   0.01541   0.00784  -0.1589  0.7022  0.0338  -1.6210   0.0000   0.0000   0.0000   0.7307
  -2.600   0.3478   0.01523   0.00752  -0.1596  0.6803  0.0342  -1.5787   0.0000   0.0000   0.0000   0.7118
  -2.500   0.3618   0.01515   0.00723  -0.1601  0.6577  0.0347  -1.5375   0.0000   0.0000   0.0000   0.6951
  -2.400   0.3758   0.01503   0.00697  -0.1606  0.6399  0.0355  -1.4963   0.0000   0.0000   0.0000   0.6797
  -2.300   0.3895   0.01489   0.00671  -0.1611  0.6269  0.0366  -1.4561   0.0000   0.0000   0.0000   0.6656
  -2.200   0.4028   0.01480   0.00645  -0.1615  0.6147  0.0381  -1.4181   0.0000   0.0000   0.0000   0.6526
  -2.100   0.4161   0.01476   0.00619  -0.1618  0.6041  0.0402  -1.3836   0.0000   0.0000   0.0000   0.6403
  -2.000   0.4297   0.01463   0.00594  -0.1622  0.5943  0.0437  -1.3556   0.0000   0.0000   0.0000   0.6286
  -1.900   0.4544   0.01353   0.00558  -0.1659  0.5832  0.2664  -1.3917   0.0000   0.0000   0.0000   0.6161
  -1.800   0.4650   0.01391   0.00594  -0.1655  0.5743  0.3073  -1.3490   0.0000   0.0000   0.0000   0.6068
  -1.700   0.4753   0.01439   0.00624  -0.1651  0.5660  0.3262  -1.2904   0.0000   0.0000   0.0000   0.5979
  -1.600   0.4855   0.01455   0.00654  -0.1647  0.5592  0.3429  -1.2270   0.0000   0.0000   0.0000   0.5896
  -1.500   0.4959   0.01476   0.00673  -0.1643  0.5522  0.3520  -1.1629   0.0000   0.0000   0.0000   0.5816
  -1.400   0.5061   0.01509   0.00700  -0.1639  0.5454  0.3631  -1.0975   0.0000   0.0000   0.0000   0.5738
  -1.300   0.5160   0.01527   0.00718  -0.1634  0.5391  0.3765  -1.0321   0.0000   0.0000   0.0000   0.5666
  -1.200   0.5241   0.01567   0.00762  -0.1624  0.5330  0.3890  -0.9691   0.0000   0.0000   0.0000   0.5597
  -1.100   0.5339   0.01605   0.00795  -0.1619  0.5272  0.3997  -0.9410   0.0000   0.0000   0.0000   0.5528
  -1.000   0.5447   0.01623   0.00810  -0.1616  0.5227  0.4054  -0.9520   0.0000   0.0000   0.0000   0.5461
  -0.900   0.5566   0.01628   0.00811  -0.1616  0.5178  0.4074  -0.9635   0.0000   0.0000   0.0000   0.5397
  -0.800   0.5690   0.01622   0.00798  -0.1619  0.5130  0.4099  -0.9753   0.0000   0.0000   0.0000   0.5337
  -0.700   0.5815   0.01606   0.00777  -0.1622  0.5083  0.4137  -0.9873   0.0000   0.0000   0.0000   0.5280
  -0.600   0.5932   0.01605   0.00770  -0.1623  0.5038  0.4168  -0.9989   0.0000   0.0000   0.0000   0.5225
  -0.500   0.6048   0.01609   0.00767  -0.1624  0.4993  0.4193  -1.0105   0.0000   0.0000   0.0000   0.5172
  -0.400   0.6166   0.01618   0.00764  -0.1625  0.4947  0.4215  -1.0220   0.0000   0.0000   0.0000   0.5121
  -0.300   0.6288   0.01632   0.00770  -0.1626  0.4899  0.4237  -1.0333   0.0000   0.0000   0.0000   0.5071
  -0.200   0.6405   0.01630   0.00768  -0.1627  0.4872  0.4259  -1.0448   0.0000   0.0000   0.0000   0.5023
  -0.100   0.6523   0.01630   0.00768  -0.1628  0.4841  0.4282  -1.0562   0.0000   0.0000   0.0000   0.4977
   0.000   0.6641   0.01632   0.00768  -0.1628  0.4809  0.4309  -1.0677   0.0000   0.0000   0.0000   0.4933
   0.100   0.6759   0.01636   0.00770  -0.1629  0.4776  0.4339  -1.0792   0.0000   0.0000   0.0000   0.4890
   0.200   0.6876   0.01640   0.00771  -0.1629  0.4742  0.4369  -1.0908   0.0000   0.0000   0.0000   0.4848
   0.300   0.6994   0.01644   0.00771  -0.1630  0.4709  0.4398  -1.1026   0.0000   0.0000   0.0000   0.4808
   0.400   0.7112   0.01649   0.00771  -0.1631  0.4676  0.4424  -1.1144   0.0000   0.0000   0.0000   0.4769
   0.500   0.7230   0.01656   0.00771  -0.1631  0.4643  0.4447  -1.1263   0.0000   0.0000   0.0000   0.4731
   0.600   0.7349   0.01666   0.00773  -0.1632  0.4610  0.4468  -1.1396   0.0000   0.0000   0.0000   0.4695
   0.700   0.7469   0.01682   0.00780  -0.1634  0.4573  0.4489  -1.1528   0.0000   0.0000   0.0000   0.4660
   0.800   0.7591   0.01709   0.00799  -0.1636  0.4531  0.4507  -1.1658   0.0000   0.0000   0.0000   0.4627
   0.900   0.7713   0.01703   0.00794  -0.1638  0.4512  0.4542  -1.1790   0.0000   0.0000   0.0000   0.4595
   1.000   0.7832   0.01697   0.00792  -0.1640  0.4493  0.4581  -1.1922   0.0000   0.0000   0.0000   0.4563
   1.100   0.7948   0.01697   0.00795  -0.1640  0.4473  0.4617  -1.2051   0.0000   0.0000   0.0000   0.4532
   1.200   0.8064   0.01700   0.00800  -0.1641  0.4451  0.4652  -1.2181   0.0000   0.0000   0.0000   0.4501
   1.300   0.8179   0.01704   0.00806  -0.1641  0.4429  0.4689  -1.2311   0.0000   0.0000   0.0000   0.4472
   1.400   0.8295   0.01710   0.00813  -0.1641  0.4407  0.4728  -1.2441   0.0000   0.0000   0.0000   0.4443
   1.500   0.8411   0.01716   0.00820  -0.1641  0.4385  0.4769  -1.2572   0.0000   0.0000   0.0000   0.4415
   1.600   0.8528   0.01723   0.00826  -0.1642  0.4363  0.4813  -1.2704   0.0000   0.0000   0.0000   0.4388
   1.700   0.8645   0.01731   0.00833  -0.1642  0.4342  0.4857  -1.2836   0.0000   0.0000   0.0000   0.4361
   1.800   0.8762   0.01740   0.00840  -0.1643  0.4321  0.4901  -1.2969   0.0000   0.0000   0.0000   0.4335
   1.900   0.8879   0.01750   0.00847  -0.1644  0.4301  0.4940  -1.3103   0.0000   0.0000   0.0000   0.4310
   2.000   0.8997   0.01752   0.00856  -0.1645  0.4282  0.5000  -1.3237   0.0000   0.0000   0.0000   0.4286
   2.100   0.9112   0.01758   0.00864  -0.1645  0.4263  0.5064  -1.3370   0.0000   0.0000   0.0000   0.4262
   2.200   0.9227   0.01768   0.00875  -0.1646  0.4244  0.5127  -1.3502   0.0000   0.0000   0.0000   0.4239
   2.300   0.9343   0.01783   0.00889  -0.1646  0.4224  0.5194  -1.3634   0.0000   0.0000   0.0000   0.4216
   2.400   0.9460   0.01803   0.00907  -0.1647  0.4202  0.5267  -1.3765   0.0000   0.0000   0.0000   0.4194
   2.500   0.9578   0.01833   0.00934  -0.1649  0.4178  0.5343  -1.3892   0.0000   0.0000   0.0000   0.4173
   2.600   0.9696   0.01867   0.00969  -0.1651  0.4153  0.5425  -1.4014   0.0000   0.0000   0.0000   0.4153
   2.700   0.9809   0.01865   0.00977  -0.1650  0.4143  0.5528  -1.4145   0.0000   0.0000   0.0000   0.4132
   2.800   0.9921   0.01867   0.00987  -0.1650  0.4130  0.5634  -1.4275   0.0000   0.0000   0.0000   0.4112
   2.900   1.0035   0.01872   0.00996  -0.1650  0.4115  0.5751  -1.4407   0.0000   0.0000   0.0000   0.4092
   3.000   1.0151   0.01877   0.01006  -0.1650  0.4099  0.5873  -1.4539   0.0000   0.0000   0.0000   0.4072
   3.100   1.0261   0.01878   0.01018  -0.1649  0.4083  0.6012  -1.4668   0.0000   0.0000   0.0000   0.4053
   3.200   1.0372   0.01883   0.01031  -0.1649  0.4065  0.6167  -1.4797   0.0000   0.0000   0.0000   0.4034
   3.300   1.0484   0.01891   0.01045  -0.1648  0.4049  0.6323  -1.4934   0.0000   0.0000   0.0000   0.4015
   3.400   1.0591   0.01898   0.01060  -0.1647  0.4033  0.6526  -1.5077   0.0000   0.0000   0.0000   0.3996
   3.500   1.0687   0.01902   0.01077  -0.1642  0.4018  0.6820  -1.5211   0.0000   0.0000   0.0000   0.3977
   3.600   1.0783   0.01909   0.01093  -0.1638  0.4003  0.7122  -1.5345   0.0000   0.0000   0.0000   0.3958
   3.700   1.0866   0.01913   0.01107  -0.1630  0.3988  0.7462  -1.5470   0.0000   0.0000   0.0000   0.3938
   3.800   1.0944   0.01918   0.01119  -0.1621  0.3975  0.7875  -1.5590   0.0000   0.0000   0.0000   0.3918
   3.900   1.1002   0.01919   0.01128  -0.1608  0.3962  0.8280  -1.5695   0.0000   0.0000   0.0000   0.3897
   4.200   1.1202   0.01925   0.01142  -0.1576  0.3924  1.0000  -1.6030   0.0000   0.0000   0.0000   0.3839
   4.300   1.1324   0.01944   0.01157  -0.1578  0.3909  1.0000  -1.6187   0.0000   0.0000   0.0000   0.3825
   4.400   1.1443   0.01963   0.01173  -0.1580  0.3895  1.0000  -1.6343   0.0000   0.0000   0.0000   0.3811
   4.500   1.1561   0.01984   0.01190  -0.1582  0.3881  1.0000  -1.6513   0.0000   0.0000   0.0000   0.3796
   4.600   1.1678   0.02007   0.01219  -0.1583  0.3867  1.0000  -1.6686   0.0000   0.0000   0.0000   0.3783
   4.700   1.1794   0.02034   0.01243  -0.1584  0.3852  1.0000  -1.6855   0.0000   0.0000   0.0000   0.3769
   4.800   1.1907   0.02069   0.01275  -0.1586  0.3836  1.0000  -1.7021   0.0000   0.0000   0.0000   0.3756
   4.900   1.2018   0.02116   0.01321  -0.1587  0.3818  1.0000  -1.7180   0.0000   0.0000   0.0000   0.3744
   5.000   1.2122   0.02191   0.01398  -0.1588  0.3795  1.0000  -1.7320   0.0000   0.0000   0.0000   0.3732
   5.100   1.2233   0.02206   0.01415  -0.1588  0.3786  1.0000  -1.7493   0.0000   0.0000   0.0000   0.3719
   5.200   1.2345   0.02216   0.01427  -0.1588  0.3776  1.0000  -1.7682   0.0000   0.0000   0.0000   0.3706
   5.300   1.2455   0.02228   0.01441  -0.1588  0.3765  1.0000  -1.7871   0.0000   0.0000   0.0000   0.3693
   5.400   1.2565   0.02241   0.01456  -0.1587  0.3753  1.0000  -1.8059   0.0000   0.0000   0.0000   0.3680
   5.500   1.2674   0.02255   0.01474  -0.1587  0.3739  1.0000  -1.8258   0.0000   0.0000   0.0000   0.3668
   5.600   1.2783   0.02272   0.01493  -0.1587  0.3725  1.0000  -1.8467   0.0000   0.0000   0.0000   0.3655
   5.700   1.2890   0.02292   0.01515  -0.1586  0.3711  1.0000  -1.8675   0.0000   0.0000   0.0000   0.3643
   5.800   1.2998   0.02313   0.01540  -0.1586  0.3698  1.0000  -1.8882   0.0000   0.0000   0.0000   0.3631
   5.900   1.3104   0.02335   0.01564  -0.1585  0.3684  1.0000  -1.9089   0.0000   0.0000   0.0000   0.3620
   6.000   1.3211   0.02357   0.01589  -0.1584  0.3670  1.0000  -1.9297   0.0000   0.0000   0.0000   0.3608
   6.100   1.3317   0.02379   0.01612  -0.1584  0.3655  1.0000  -1.9506   0.0000   0.0000   0.0000   0.3597
   6.200   1.3424   0.02398   0.01634  -0.1583  0.3639  1.0000  -1.9717   0.0000   0.0000   0.0000   0.3585
   6.300   1.3530   0.02416   0.01652  -0.1582  0.3622  1.0000  -1.9931   0.0000   0.0000   0.0000   0.3574
   6.400   1.3637   0.02432   0.01669  -0.1581  0.3605  1.0000  -2.0150   0.0000   0.0000   0.0000   0.3563
   6.500   1.3744   0.02446   0.01684  -0.1581  0.3589  1.0000  -2.0395   0.0000   0.0000   0.0000   0.3552
   6.600   1.3852   0.02461   0.01698  -0.1580  0.3572  1.0000  -2.0642   0.0000   0.0000   0.0000   0.3541
   6.700   1.3960   0.02476   0.01713  -0.1579  0.3556  1.0000  -2.0891   0.0000   0.0000   0.0000   0.3530
   6.800   1.4068   0.02494   0.01730  -0.1578  0.3541  1.0000  -2.1139   0.0000   0.0000   0.0000   0.3519
   6.900   1.4175   0.02515   0.01750  -0.1578  0.3527  1.0000  -2.1388   0.0000   0.0000   0.0000   0.3509
   7.000   1.4282   0.02539   0.01773  -0.1577  0.3512  1.0000  -2.1668   0.0000   0.0000   0.0000   0.3498
   7.100   1.4388   0.02571   0.01819  -0.1576  0.3495  1.0000  -2.1945   0.0000   0.0000   0.0000   0.3488
   7.200   1.4488   0.02620   0.01868  -0.1576  0.3474  1.0000  -2.2212   0.0000   0.0000   0.0000   0.3479
   7.300   1.4568   0.02731   0.01985  -0.1574  0.3445  1.0000  -2.2461   0.0000   0.0000   0.0000   0.3470
   7.400   1.4666   0.02751   0.02010  -0.1572  0.3434  1.0000  -2.2765   0.0000   0.0000   0.0000   0.3460
   7.500   1.4767   0.02757   0.02022  -0.1570  0.3423  1.0000  -2.3116   0.0000   0.0000   0.0000   0.3450
   7.600   1.4867   0.02767   0.02038  -0.1568  0.3409  1.0000  -2.3536   0.0000   0.0000   0.0000   0.3440
   7.700   1.4966   0.02781   0.02058  -0.1566  0.3394  1.0000  -2.3955   0.0000   0.0000   0.0000   0.3430
   7.800   1.5064   0.02796   0.02079  -0.1564  0.3378  1.0000  -2.4374   0.0000   0.0000   0.0000   0.3420
   7.900   1.5162   0.02812   0.02100  -0.1561  0.3360  1.0000  -2.4797   0.0000   0.0000   0.0000   0.3410
   8.000   1.5259   0.02828   0.02120  -0.1559  0.3340  1.0000  -2.5220   0.0000   0.0000   0.0000   0.3400
   8.100   1.5356   0.02843   0.02141  -0.1557  0.3321  1.0000  -2.5647   0.0000   0.0000   0.0000   0.3391
   8.200   1.5454   0.02859   0.02161  -0.1554  0.3301  1.0000  -2.6078   0.0000   0.0000   0.0000   0.3381
   8.300   1.5553   0.02876   0.02181  -0.1552  0.3283  1.0000  -2.6513   0.0000   0.0000   0.0000   0.3372
   8.400   1.5652   0.02893   0.02201  -0.1550  0.3265  1.0000  -2.6952   0.0000   0.0000   0.0000   0.3363
   8.500   1.5753   0.02905   0.02215  -0.1548  0.3247  1.0000  -2.7401   0.0000   0.0000   0.0000   0.3353
   8.600   1.5856   0.02914   0.02225  -0.1547  0.3229  1.0000  -2.7860   0.0000   0.0000   0.0000   0.3344
   8.700   1.5962   0.02920   0.02230  -0.1545  0.3211  1.0000  -2.8330   0.0000   0.0000   0.0000   0.3335
   8.800   1.6069   0.02925   0.02233  -0.1544  0.3192  1.0000  -2.8807   0.0000   0.0000   0.0000   0.3326
   8.900   1.6176   0.02933   0.02240  -0.1543  0.3173  1.0000  -2.9287   0.0000   0.0000   0.0000   0.3317
   9.000   1.6280   0.02954   0.02258  -0.1541  0.3152  1.0000  -2.9761   0.0000   0.0000   0.0000   0.3308
   9.100   1.6372   0.03014   0.02317  -0.1540  0.3126  1.0000  -3.0196   0.0000   0.0000   0.0000   0.3300
   9.200   1.6444   0.03099   0.02409  -0.1536  0.3100  1.0000  -3.0575   0.0000   0.0000   0.0000   0.3293
   9.300   1.6536   0.03098   0.02416  -0.1532  0.3086  1.0000  -3.1020   0.0000   0.0000   0.0000   0.3283
   9.400   1.6625   0.03101   0.02426  -0.1529  0.3070  1.0000  -3.1463   0.0000   0.0000   0.0000   0.3274
   9.500   1.6714   0.03104   0.02445  -0.1525  0.3049  1.0000  -3.1905   0.0000   0.0000   0.0000   0.3265
   9.600   1.6800   0.03109   0.02458  -0.1520  0.3025  1.0000  -3.2347   0.0000   0.0000   0.0000   0.3256
   9.700   1.6889   0.03113   0.02467  -0.1516  0.3000  1.0000  -3.2799   0.0000   0.0000   0.0000   0.3247
   9.800   1.6981   0.03113   0.02472  -0.1513  0.2974  1.0000  -3.3263   0.0000   0.0000   0.0000   0.3238
   9.900   1.7076   0.03111   0.02472  -0.1509  0.2949  1.0000  -3.3741   0.0000   0.0000   0.0000   0.3230
  10.000   1.7175   0.03101   0.02463  -0.1506  0.2924  1.0000  -3.4237   0.0000   0.0000   0.0000   0.3221
  10.100   1.7278   0.03085   0.02446  -0.1504  0.2898  1.0000  -3.4829   0.0000   0.0000   0.0000   0.3212
  10.200   1.7384   0.03066   0.02424  -0.1502  0.2873  1.0000  -3.5436   0.0000   0.0000   0.0000   0.3203
  10.300   1.7488   0.03051   0.02405  -0.1499  0.2847  1.0000  -3.6044   0.0000   0.0000   0.0000   0.3195
  10.400   1.7591   0.03058   0.02405  -0.1498  0.2817  1.0000  -3.6644   0.0000   0.0000   0.0000   0.3187
  10.500   1.7681   0.03116   0.02460  -0.1496  0.2780  1.0000  -3.7190   0.0000   0.0000   0.0000   0.3180
  10.600   1.7753   0.03105   0.02460  -0.1489  0.2760  1.0000  -3.7697   0.0000   0.0000   0.0000   0.3170
  10.700   1.7825   0.03101   0.02467  -0.1482  0.2735  1.0000  -3.8207   0.0000   0.0000   0.0000   0.3161
  10.800   1.7900   0.03099   0.02474  -0.1476  0.2706  1.0000  -3.8728   0.0000   0.0000   0.0000   0.3152
  10.900   1.7978   0.03098   0.02479  -0.1470  0.2675  1.0000  -3.9263   0.0000   0.0000   0.0000   0.3144
  11.000   1.8060   0.03092   0.02478  -0.1465  0.2644  1.0000  -3.9815   0.0000   0.0000   0.0000   0.3135
  11.100   1.8146   0.03084   0.02472  -0.1460  0.2613  1.0000  -4.0382   0.0000   0.0000   0.0000   0.3126
  11.200   1.8231   0.03073   0.02463  -0.1455  0.2583  1.0000  -4.0954   0.0000   0.0000   0.0000   0.3118
  11.300   1.8316   0.03066   0.02454  -0.1450  0.2555  1.0000  -4.1528   0.0000   0.0000   0.0000   0.3109
  11.400   1.8402   0.03065   0.02449  -0.1445  0.2526  1.0000  -4.2107   0.0000   0.0000   0.0000   0.3101
  11.500   1.8488   0.03081   0.02459  -0.1441  0.2493  1.0000  -4.2683   0.0000   0.0000   0.0000   0.3093
  11.600   1.8555   0.03105   0.02489  -0.1435  0.2464  1.0000  -4.3187   0.0000   0.0000   0.0000   0.3085
  11.700   1.8611   0.03118   0.02516  -0.1426  0.2436  1.0000  -4.3664   0.0000   0.0000   0.0000   0.3076
  11.800   1.8670   0.03131   0.02540  -0.1418  0.2402  1.0000  -4.4150   0.0000   0.0000   0.0000   0.3067
  11.900   1.8731   0.03141   0.02558  -0.1410  0.2365  1.0000  -4.4649   0.0000   0.0000   0.0000   0.3058
  12.000   1.8791   0.03147   0.02578  -0.1402  0.2326  1.0000  -4.5151   0.0000   0.0000   0.0000   0.3050
  12.100   1.8851   0.03151   0.02583  -0.1394  0.2287  1.0000  -4.5660   0.0000   0.0000   0.0000   0.3041
  12.200   1.8907   0.03157   0.02586  -0.1385  0.2249  1.0000  -4.6447   0.0000   0.0000   0.0000   0.3032
  12.300   1.8954   0.03174   0.02597  -0.1375  0.2209  1.0000  -4.7317   0.0000   0.0000   0.0000   0.3023
  12.400   1.8993   0.03205   0.02634  -0.1364  0.2170  1.0000  -4.8127   0.0000   0.0000   0.0000   0.3014
  12.500   1.9031   0.03234   0.02677  -0.1354  0.2128  1.0000  -4.8922   0.0000   0.0000   0.0000   0.3005
  12.600   1.9064   0.03262   0.02713  -0.1343  0.2080  1.0000  -4.9706   0.0000   0.0000   0.0000   0.2996
  12.700   1.9082   0.03291   0.02743  -0.1329  0.2033  1.0000  -5.0422   0.0000   0.0000   0.0000   0.2986
  12.800   1.9078   0.03323   0.02774  -0.1312  0.1990  1.0000  -5.1029   0.0000   0.0000   0.0000   0.2975
  12.900   1.9062   0.03367   0.02813  -0.1294  0.1950  1.0000  -5.1564   0.0000   0.0000   0.0000   0.2964
  13.000   1.9046   0.03422   0.02868  -0.1277  0.1908  1.0000  -5.2088   0.0000   0.0000   0.0000   0.2954
  13.100   1.9051   0.03475   0.02932  -0.1264  0.1860  1.0000  -5.2716   0.0000   0.0000   0.0000   0.2945
  13.200   1.9041   0.03534   0.02997  -0.1249  0.1810  1.0000  -5.3270   0.0000   0.0000   0.0000   0.2936
  13.300   1.9017   0.03601   0.03065  -0.1234  0.1762  1.0000  -5.3750   0.0000   0.0000   0.0000   0.2926
  13.400   1.8977   0.03682   0.03143  -0.1217  0.1719  1.0000  -5.4143   0.0000   0.0000   0.0000   0.2917
  13.500   1.8917   0.03780   0.03237  -0.1200  0.1680  1.0000  -5.4415   0.0000   0.0000   0.0000   0.2908
  13.600   1.8881   0.03875   0.03337  -0.1186  0.1640  1.0000  -5.4803   0.0000   0.0000   0.0000   0.2900
  13.700   1.8857   0.03968   0.03439  -0.1175  0.1595  1.0000  -5.5257   0.0000   0.0000   0.0000   0.2893
  13.800   1.8819   0.04076   0.03549  -0.1164  0.1551  1.0000  -5.5634   0.0000   0.0000   0.0000   0.2886
  13.900   1.8767   0.04199   0.03673  -0.1154  0.1511  1.0000  -5.5927   0.0000   0.0000   0.0000   0.2880
  14.000   1.8694   0.04347   0.03820  -0.1144  0.1479  1.0000  -5.6087   0.0000   0.0000   0.0000   0.2875
  14.100   1.8608   0.04515   0.03987  -0.1135  0.1448  1.0000  -5.6162   0.0000   0.0000   0.0000   0.2871
  14.200   1.8537   0.04683   0.04155  -0.1129  0.1415  1.0000  -5.6302   0.0000   0.0000   0.0000   0.2867
  14.300   1.8490   0.04842   0.04325  -0.1126  0.1385  1.0000  -5.6571   0.0000   0.0000   0.0000   0.2865
  14.400   1.8431   0.05019   0.04509  -0.1124  0.1354  1.0000  -5.6767   0.0000   0.0000   0.0000   0.2864
  14.500   1.8363   0.05211   0.04707  -0.1124  0.1325  1.0000  -5.6904   0.0000   0.0000   0.0000   0.2864
  14.600   1.8282   0.05430   0.04930  -0.1126  0.1300  1.0000  -5.6943   0.0000   0.0000   0.0000   0.2865
  14.700   1.8199   0.05655   0.05156  -0.1128  0.1275  1.0000  -5.6969   0.0000   0.0000   0.0000   0.2867
  14.800   1.8105   0.05900   0.05402  -0.1132  0.1254  1.0000  -5.6915   0.0000   0.0000   0.0000   0.2870
  14.900   1.8004   0.06158   0.05661  -0.1137  0.1233  1.0000  -5.6805   0.0000   0.0000   0.0000   0.2874
  15.000   1.7904   0.06407   0.05907  -0.1140  0.1208  1.0000  -5.6701   0.0000   0.0000   0.0000   0.2877
  15.100   1.7829   0.06637   0.06142  -0.1145  0.1187  1.0000  -5.6737   0.0000   0.0000   0.0000   0.2880
  15.200   1.7753   0.06883   0.06398  -0.1152  0.1170  1.0000  -5.6756   0.0000   0.0000   0.0000   0.2884
  15.300   1.7676   0.07132   0.06656  -0.1159  0.1152  1.0000  -5.6762   0.0000   0.0000   0.0000   0.2889
  15.400   1.7595   0.07390   0.06920  -0.1166  0.1133  1.0000  -5.6741   0.0000   0.0000   0.0000   0.2894
  15.500   1.7515   0.07648   0.07185  -0.1174  0.1115  1.0000  -5.6721   0.0000   0.0000   0.0000   0.2899
  15.600   1.7437   0.07904   0.07444  -0.1182  0.1097  1.0000  -5.6710   0.0000   0.0000   0.0000   0.2904
  15.700   1.7354   0.08168   0.07711  -0.1190  0.1080  1.0000  -5.6664   0.0000   0.0000   0.0000   0.2910
  15.800   1.7274   0.08425   0.07970  -0.1198  0.1063  1.0000  -5.6641   0.0000   0.0000   0.0000   0.2915
  15.900   1.7199   0.08673   0.08217  -0.1206  0.1045  1.0000  -5.6643   0.0000   0.0000   0.0000   0.2920
  16.000   1.7130   0.08905   0.08446  -0.1212  0.1025  1.0000  -5.6688   0.0000   0.0000   0.0000   0.2924
  16.100   1.7123   0.08996   0.08524  -0.1204  0.0988  1.0000  -5.7192   0.0000   0.0000   0.0000   0.2918
  16.200   1.7056   0.09251   0.08789  -0.1215  0.0980  1.0000  -5.7209   0.0000   0.0000   0.0000   0.2925
  16.300   1.6997   0.09494   0.09040  -0.1224  0.0969  1.0000  -5.7274   0.0000   0.0000   0.0000   0.2931
  16.400   1.6942   0.09726   0.09280  -0.1233  0.0956  1.0000  -5.7369   0.0000   0.0000   0.0000   0.2936
  16.500   1.6885   0.09964   0.09524  -0.1242  0.0943  1.0000  -5.7442   0.0000   0.0000   0.0000   0.2942
  16.600   1.6830   0.10200   0.09766  -0.1252  0.0929  1.0000  -5.7526   0.0000   0.0000   0.0000   0.2947
  16.700   1.6782   0.10421   0.09992  -0.1261  0.0916  1.0000  -5.7659   0.0000   0.0000   0.0000   0.2952
  16.800   1.6739   0.10630   0.10206  -0.1269  0.0902  1.0000  -5.7833   0.0000   0.0000   0.0000   0.2957
  16.900   1.6702   0.10833   0.10411  -0.1277  0.0888  1.0000  -5.8042   0.0000   0.0000   0.0000   0.2961
  17.000   1.6666   0.11028   0.10610  -0.1285  0.0875  1.0000  -5.8272   0.0000   0.0000   0.0000   0.2965
  17.100   1.6634   0.11215   0.10797  -0.1292  0.0862  1.0000  -5.8528   0.0000   0.0000   0.0000   0.2969
  17.200   1.6612   0.11381   0.10962  -0.1298  0.0848  1.0000  -5.8859   0.0000   0.0000   0.0000   0.2971
  17.300   1.6617   0.11481   0.11058  -0.1298  0.0830  1.0000  -5.9416   0.0000   0.0000   0.0000   0.2968
  17.400   1.6705   0.11378   0.10941  -0.1278  0.0799  1.0000  -6.0617   0.0000   0.0000   0.0000   0.2949
  17.500   1.6662   0.11597   0.11169  -0.1289  0.0794  1.0000  -6.0748   0.0000   0.0000   0.0000   0.2956
  17.600   1.6614   0.11828   0.11409  -0.1301  0.0789  1.0000  -6.0823   0.0000   0.0000   0.0000   0.2963
  17.700   1.6568   0.12048   0.11637  -0.1313  0.0783  1.0000  -6.0906   0.0000   0.0000   0.0000   0.2970
  17.800   1.6526   0.12256   0.11853  -0.1324  0.0777  1.0000  -6.1016   0.0000   0.0000   0.0000   0.2976
  17.900   1.6488   0.12459   0.12064  -0.1335  0.0771  1.0000  -6.1148   0.0000   0.0000   0.0000   0.2983
  18.000   1.6451   0.12661   0.12273  -0.1346  0.0764  1.0000  -6.1285   0.0000   0.0000   0.0000   0.2989
  18.100   1.6414   0.12865   0.12483  -0.1357  0.0757  1.0000  -6.1418   0.0000   0.0000   0.0000   0.2995
  18.200   1.6371   0.13084   0.12710  -0.1369  0.0750  1.0000  -6.1493   0.0000   0.0000   0.0000   0.3002
  18.300   1.6325   0.13315   0.12948  -0.1382  0.0744  1.0000  -6.1534   0.0000   0.0000   0.0000   0.3010
  18.400   1.6282   0.13543   0.13182  -0.1395  0.0737  1.0000  -6.1594   0.0000   0.0000   0.0000   0.3018
  18.500   1.6242   0.13766   0.13412  -0.1407  0.0730  1.0000  -6.1676   0.0000   0.0000   0.0000   0.3026
  18.600   1.6204   0.13989   0.13640  -0.1419  0.0724  1.0000  -6.1770   0.0000   0.0000   0.0000   0.3033
  18.700   1.6167   0.14212   0.13869  -0.1432  0.0717  1.0000  -6.1873   0.0000   0.0000   0.0000   0.3040
  18.800   1.6130   0.14440   0.14102  -0.1444  0.0711  1.0000  -6.1966   0.0000   0.0000   0.0000   0.3048
  18.900   1.6083   0.14693   0.14362  -0.1459  0.0705  1.0000  -6.1959   0.0000   0.0000   0.0000   0.3057
  19.000   1.6036   0.14950   0.14624  -0.1473  0.0700  1.0000  -6.1945   0.0000   0.0000   0.0000   0.3067
  19.100   1.5997   0.15191   0.14870  -0.1486  0.0694  1.0000  -6.2004   0.0000   0.0000   0.0000   0.3075
  19.200   1.5963   0.15424   0.15107  -0.1499  0.0688  1.0000  -6.2105   0.0000   0.0000   0.0000   0.3083
  19.300   1.5928   0.15661   0.15349  -0.1512  0.0683  1.0000  -6.2190   0.0000   0.0000   0.0000   0.3091
  19.400   1.5890   0.15908   0.15600  -0.1525  0.0677  1.0000  -6.2242   0.0000   0.0000   0.0000   0.3099
  19.500   1.5851   0.16158   0.15855  -0.1539  0.0672  1.0000  -6.2280   0.0000   0.0000   0.0000   0.3108
  19.600   1.5793   0.16459   0.16161  -0.1555  0.0667  1.0000  -6.2115   0.0000   0.0000   0.0000   0.3120
  19.700   1.5690   0.16881   0.16590  -0.1580  0.0664  1.0000  -6.1485   0.0000   0.0000   0.0000   0.3141
  19.800   1.5589   0.17306   0.17022  -0.1604  0.0660  1.0000  -6.0846   0.0000   0.0000   0.0000   0.3161
  19.900   1.5446   0.17855   0.17580  -0.1636  0.0658  1.0000  -5.9730   0.0000   0.0000   0.0000   0.3190
  20.000   1.2590   0.28599   0.28326  -0.2094  0.0766  1.0000  -2.4451   0.0000   0.0000   0.0000   0.3858


