xflr5 v6.61

 Calculated polar for: S1221

 1 1 Reynolds number fixed          Mach number fixed         

 xtrf =   1.000 (top)        1.000 (bottom)
 Mach =   0.000     Re =     0.130 e 6     Ncrit =   9.000

  alpha     CL        CD       CDp       Cm    Top Xtr Bot Xtr   Cpmin    Chinge    XCp    
 ------- -------- --------- --------- -------- ------- ------- -------- --------- ---------
 -10.000  -0.2964   0.13194   0.12726  -0.0171  1.0000  0.0572  -1.1292   0.0000   0.0000   0.0000   0.1806
  -9.900  -0.2943   0.13086   0.12620  -0.0175  1.0000  0.0579  -1.1326   0.0000   0.0000   0.0000   0.1790
  -9.800  -0.2923   0.12981   0.12516  -0.0179  1.0000  0.0587  -1.1377   0.0000   0.0000   0.0000   0.1772
  -9.700  -0.2906   0.12880   0.12417  -0.0184  1.0000  0.0594  -1.1452   0.0000   0.0000   0.0000   0.1752
  -9.600  -0.2893   0.12788   0.12326  -0.0190  1.0000  0.0602  -1.1562   0.0000   0.0000   0.0000   0.1730
  -9.500  -0.2887   0.12712   0.12252  -0.0197  1.0000  0.0610  -1.1729   0.0000   0.0000   0.0000   0.1704
  -9.400  -0.2894   0.12661   0.12204  -0.0207  1.0000  0.0617  -1.1970   0.0000   0.0000   0.0000   0.1675
  -9.300  -0.2913   0.12634   0.12179  -0.0217  1.0000  0.0623  -1.2264   0.0000   0.0000   0.0000   0.1645
  -9.200  -0.2925   0.12601   0.12148  -0.0228  1.0000  0.0627  -1.2548   0.0000   0.0000   0.0000   0.1613
  -9.100  -0.2929   0.12554   0.12104  -0.0237  1.0000  0.0631  -1.2774   0.0000   0.0000   0.0000   0.1584
  -9.000  -0.2931   0.12496   0.12048  -0.0245  1.0000  0.0633  -1.2970   0.0000   0.0000   0.0000   0.1559
  -8.900  -0.2931   0.12427   0.11981  -0.0253  1.0000  0.0634  -1.3148   0.0000   0.0000   0.0000   0.1535
  -8.800  -0.2920   0.12344   0.11901  -0.0258  1.0000  0.0636  -1.3255   0.0000   0.0000   0.0000   0.1515
  -8.700  -0.2909   0.12256   0.11815  -0.0263  1.0000  0.0637  -1.3353   0.0000   0.0000   0.0000   0.1496
  -8.600  -0.2897   0.12163   0.11724  -0.0267  1.0000  0.0637  -1.3449   0.0000   0.0000   0.0000   0.1478
  -8.500  -0.2887   0.12066   0.11630  -0.0271  1.0000  0.0638  -1.3543   0.0000   0.0000   0.0000   0.1460
  -8.400  -0.2876   0.11967   0.11533  -0.0275  1.0000  0.0639  -1.3638   0.0000   0.0000   0.0000   0.1444
  -8.300  -0.2867   0.11866   0.11434  -0.0279  1.0000  0.0639  -1.3733   0.0000   0.0000   0.0000   0.1429
  -8.200  -0.2856   0.11297   0.10869  -0.0273  1.0000  0.0652  -1.3830   0.0000   0.0000   0.0000   0.1447
  -8.100  -0.2788   0.11097   0.10669  -0.0262  1.0000  0.0659  -1.3405   0.0000   0.0000   0.0000   0.1461
  -8.000  -0.2725   0.10952   0.10525  -0.0254  1.0000  0.0666  -1.3031   0.0000   0.0000   0.0000   0.1469
  -7.900  -0.2670   0.10827   0.10402  -0.0247  1.0000  0.0672  -1.2720   0.0000   0.0000   0.0000   0.1474
  -7.800  -0.2621   0.10713   0.10289  -0.0242  1.0000  0.0679  -1.2463   0.0000   0.0000   0.0000   0.1475
  -7.700  -0.2578   0.10604   0.10182  -0.0238  1.0000  0.0686  -1.2251   0.0000   0.0000   0.0000   0.1474
  -7.600  -0.2541   0.10501   0.10081  -0.0236  1.0000  0.0694  -1.2088   0.0000   0.0000   0.0000   0.1471
  -7.500  -0.2510   0.10401   0.09983  -0.0234  1.0000  0.0701  -1.1961   0.0000   0.0000   0.0000   0.1468
  -7.400  -0.2484   0.10303   0.09887  -0.0232  1.0000  0.0709  -1.1865   0.0000   0.0000   0.0000   0.1464
  -7.300  -0.2461   0.10207   0.09793  -0.0231  1.0000  0.0718  -1.1794   0.0000   0.0000   0.0000   0.1460
  -7.200  -0.2442   0.10112   0.09701  -0.0231  1.0000  0.0727  -1.1745   0.0000   0.0000   0.0000   0.1456
  -7.100  -0.2427   0.10018   0.09609  -0.0231  1.0000  0.0736  -1.1716   0.0000   0.0000   0.0000   0.1452
  -7.000  -0.2415   0.09924   0.09513  -0.0231  1.0000  0.0745  -1.1703   0.0000   0.0000   0.0000   0.1449
  -6.900  -0.2407   0.09833   0.09425  -0.0231  1.0000  0.0755  -1.1717   0.0000   0.0000   0.0000   0.1447
  -6.800  -0.2403   0.09744   0.09339  -0.0231  1.0000  0.0765  -1.1753   0.0000   0.0000   0.0000   0.1445
  -6.700  -0.2405   0.09658   0.09256  -0.0232  1.0000  0.0776  -1.1816   0.0000   0.0000   0.0000   0.1445
  -6.600  -0.2414   0.09578   0.09179  -0.0233  1.0000  0.0787  -1.1916   0.0000   0.0000   0.0000   0.1446
  -6.500  -0.2434   0.09505   0.09110  -0.0234  1.0000  0.0799  -1.2068   0.0000   0.0000   0.0000   0.1450
  -6.400  -0.2472   0.09453   0.09062  -0.0237  1.0000  0.0812  -1.2306   0.0000   0.0000   0.0000   0.1457
  -6.300  -0.2540   0.09436   0.09050  -0.0239  1.0000  0.0823  -1.2653   0.0000   0.0000   0.0000   0.1476
  -6.200  -0.2624   0.09447   0.09068  -0.0239  1.0000  0.0831  -1.3014   0.0000   0.0000   0.0000   0.1512
  -6.100  -0.2711   0.09454   0.09080  -0.0235  1.0000  0.0836  -1.3328   0.0000   0.0000   0.0000   0.1560
  -5.800  -0.2823   0.09316   0.08956  -0.0248  1.0000  0.0844  -1.3993   0.0000   0.0000   0.0000   0.1555
  -5.700  -0.2832   0.09226   0.08871  -0.0257  1.0000  0.0845  -1.4166   0.0000   0.0000   0.0000   0.1527
  -5.600  -0.2839   0.09126   0.08774  -0.0267  1.0000  0.0846  -1.4339   0.0000   0.0000   0.0000   0.1496
  -5.500  -0.2928   0.08712   0.08373  -0.0267  1.0000  0.0857  -1.4819   0.0000   0.0000   0.0000   0.1527
  -5.400  -0.2899   0.08550   0.08207  -0.0238  1.0000  0.0867  -1.4391   0.0000   0.0000   0.0000   0.1619
  -5.300  -0.2868   0.08452   0.08112  -0.0219  1.0000  0.0874  -1.4036   0.0000   0.0000   0.0000   0.1678
  -5.200  -0.2840   0.08375   0.08038  -0.0203  1.0000  0.0882  -1.3731   0.0000   0.0000   0.0000   0.1726
  -5.100  -0.2817   0.08307   0.07973  -0.0189  1.0000  0.0890  -1.3466   0.0000   0.0000   0.0000   0.1770
  -5.000  -0.2805   0.08245   0.07914  -0.0178  1.0000  0.0898  -1.3269   0.0000   0.0000   0.0000   0.1808
  -4.900  -0.2803   0.08186   0.07860  -0.0168  1.0000  0.0906  -1.3122   0.0000   0.0000   0.0000   0.1844
  -4.800  -0.2638   0.08043   0.07716  -0.0188  0.9975  0.0927  -1.2704   0.0000   0.0000   0.0000   0.1730
  -4.700  -0.2464   0.07872   0.07546  -0.0220  0.9942  0.0956  -1.2416   0.0000   0.0000   0.0000   0.1544
  -4.600  -0.2287   0.07666   0.07340  -0.0268  0.9897  0.0994  -1.2300   0.0000   0.0000   0.0000   0.1262
  -4.500  -0.1972   0.06943   0.06614  -0.0528  0.9789  0.1096  -1.3944   0.0000   0.0000   0.0000  -0.0250
  -4.400  -0.1891   0.06848   0.06522  -0.0498  0.9755  0.1108  -1.3386   0.0000   0.0000   0.0000  -0.0212
  -4.300  -0.1784   0.06756   0.06431  -0.0484  0.9709  0.1121  -1.2874   0.0000   0.0000   0.0000  -0.0291
  -4.200  -0.1644   0.06661   0.06336  -0.0480  0.9672  0.1139  -1.2367   0.0000   0.0000   0.0000  -0.0503
  -4.100  -0.1514   0.06550   0.06226  -0.0485  0.9611  0.1161  -1.1994   0.0000   0.0000   0.0000  -0.0792
  -4.000  -0.1359   0.06408   0.06084  -0.0506  0.9550  0.1191  -1.1698   0.0000   0.0000   0.0000  -0.1320
  -3.900  -0.1160   0.06200   0.05875  -0.0559  0.9490  0.1247  -1.1575   0.0000   0.0000   0.0000  -0.2425
  -3.600   0.0477   0.02690   0.02120  -0.1250  0.9446  0.0490  -2.0028   0.0000   0.0000   0.0000   2.9032
  -3.500   0.0609   0.02679   0.02090  -0.1247  0.9327  0.0469  -1.9818   0.0000   0.0000   0.0000   2.3228
  -3.400   0.0755   0.02684   0.02093  -0.1246  0.9177  0.0461  -1.9239   0.0000   0.0000   0.0000   1.9186
  -3.300   0.0987   0.02445   0.01836  -0.1277  0.9072  0.0442  -1.9201   0.0000   0.0000   0.0000   1.5579
  -3.200   0.1254   0.02266   0.01637  -0.1311  0.8953  0.0429  -1.8959   0.0000   0.0000   0.0000   1.3056
  -3.100   0.1555   0.02114   0.01464  -0.1347  0.8822  0.0418  -1.8591   0.0000   0.0000   0.0000   1.1248
  -3.000   0.1874   0.01981   0.01313  -0.1385  0.8665  0.0409  -1.8143   0.0000   0.0000   0.0000   0.9960
  -2.900   0.2214   0.01864   0.01178  -0.1426  0.8430  0.0402  -1.7613   0.0000   0.0000   0.0000   0.8996
  -2.700   0.3033   0.01671   0.00936  -0.1536  0.7731  0.0402  -1.6213   0.0000   0.0000   0.0000   0.7601
  -2.600   0.3300   0.01634   0.00869  -0.1564  0.7394  0.0410  -1.5745   0.0000   0.0000   0.0000   0.7272
  -2.500   0.3487   0.01613   0.00831  -0.1578  0.7145  0.0418  -1.5319   0.0000   0.0000   0.0000   0.7054
  -2.400   0.3636   0.01597   0.00800  -0.1585  0.6952  0.0428  -1.4958   0.0000   0.0000   0.0000   0.6884
  -2.300   0.3793   0.01586   0.00768  -0.1593  0.6756  0.0442  -1.4597   0.0000   0.0000   0.0000   0.6720
  -2.200   0.3958   0.01581   0.00738  -0.1602  0.6547  0.0461  -1.4265   0.0000   0.0000   0.0000   0.6567
  -2.100   0.4130   0.01543   0.00681  -0.1615  0.6402  0.0533  -1.4153   0.0000   0.0000   0.0000   0.6427
  -2.000   0.4375   0.01444   0.00657  -0.1651  0.6272  0.2860  -1.4622   0.0000   0.0000   0.0000   0.6287
  -1.900   0.4480   0.01500   0.00710  -0.1646  0.6166  0.3226  -1.4147   0.0000   0.0000   0.0000   0.6185
  -1.800   0.4571   0.01548   0.00759  -0.1638  0.6077  0.3444  -1.3550   0.0000   0.0000   0.0000   0.6092
  -1.700   0.4663   0.01604   0.00811  -0.1629  0.5993  0.3630  -1.2915   0.0000   0.0000   0.0000   0.6001
  -1.600   0.4749   0.01628   0.00844  -0.1621  0.5911  0.3783  -1.2283   0.0000   0.0000   0.0000   0.5918
  -1.500   0.4818   0.01677   0.00900  -0.1607  0.5835  0.3932  -1.1666   0.0000   0.0000   0.0000   0.5838
  -1.400   0.4908   0.01734   0.00947  -0.1597  0.5763  0.4062  -1.1021   0.0000   0.0000   0.0000   0.5757
  -1.300   0.5012   0.01737   0.00942  -0.1595  0.5695  0.4165  -1.0375   0.0000   0.0000   0.0000   0.5682
  -1.200   0.5114   0.01747   0.00950  -0.1591  0.5632  0.4215  -0.9747   0.0000   0.0000   0.0000   0.5609
  -1.100   0.5228   0.01747   0.00948  -0.1590  0.5572  0.4248  -0.9302   0.0000   0.0000   0.0000   0.5539
  -1.000   0.5344   0.01748   0.00945  -0.1590  0.5512  0.4278  -0.9414   0.0000   0.0000   0.0000   0.5472
  -0.900   0.5461   0.01751   0.00939  -0.1591  0.5455  0.4309  -0.9528   0.0000   0.0000   0.0000   0.5407
  -0.800   0.5580   0.01757   0.00935  -0.1592  0.5401  0.4341  -0.9642   0.0000   0.0000   0.0000   0.5345
  -0.700   0.5701   0.01767   0.00933  -0.1593  0.5349  0.4375  -0.9759   0.0000   0.0000   0.0000   0.5285
  -0.500   0.5949   0.01785   0.00932  -0.1598  0.5252  0.4434  -0.9988   0.0000   0.0000   0.0000   0.5174
  -0.400   0.6073   0.01784   0.00923  -0.1600  0.5211  0.4456  -1.0103   0.0000   0.0000   0.0000   0.5122
  -0.300   0.6197   0.01786   0.00920  -0.1602  0.5168  0.4475  -1.0218   0.0000   0.0000   0.0000   0.5072
  -0.200   0.6320   0.01789   0.00917  -0.1605  0.5126  0.4493  -1.0333   0.0000   0.0000   0.0000   0.5023
  -0.100   0.6442   0.01795   0.00915  -0.1606  0.5086  0.4509  -1.0449   0.0000   0.0000   0.0000   0.4977
   0.000   0.6569   0.01783   0.00898  -0.1610  0.5047  0.4544  -1.0569   0.0000   0.0000   0.0000   0.4933
   0.100   0.6689   0.01780   0.00890  -0.1612  0.5011  0.4580  -1.0685   0.0000   0.0000   0.0000   0.4891
   0.200   0.6807   0.01787   0.00892  -0.1613  0.4974  0.4612  -1.0799   0.0000   0.0000   0.0000   0.4849
   0.300   0.6926   0.01803   0.00901  -0.1614  0.4935  0.4642  -1.0912   0.0000   0.0000   0.0000   0.4809
   0.400   0.7046   0.01820   0.00913  -0.1616  0.4898  0.4671  -1.1022   0.0000   0.0000   0.0000   0.4771
   0.500   0.7163   0.01820   0.00914  -0.1617  0.4872  0.4698  -1.1143   0.0000   0.0000   0.0000   0.4733
   0.600   0.7279   0.01821   0.00916  -0.1617  0.4843  0.4727  -1.1270   0.0000   0.0000   0.0000   0.4696
   0.700   0.7396   0.01823   0.00919  -0.1618  0.4812  0.4757  -1.1398   0.0000   0.0000   0.0000   0.4661
   0.800   0.7514   0.01827   0.00921  -0.1619  0.4780  0.4789  -1.1526   0.0000   0.0000   0.0000   0.4627
   0.900   0.7633   0.01832   0.00923  -0.1620  0.4748  0.4822  -1.1656   0.0000   0.0000   0.0000   0.4594
   1.000   0.7752   0.01838   0.00925  -0.1621  0.4717  0.4856  -1.1788   0.0000   0.0000   0.0000   0.4561
   1.100   0.7871   0.01845   0.00928  -0.1622  0.4688  0.4889  -1.1920   0.0000   0.0000   0.0000   0.4530
   1.200   0.7991   0.01854   0.00932  -0.1624  0.4661  0.4920  -1.2052   0.0000   0.0000   0.0000   0.4500
   1.300   0.8111   0.01865   0.00938  -0.1625  0.4636  0.4949  -1.2185   0.0000   0.0000   0.0000   0.4470
   1.400   0.8231   0.01865   0.00938  -0.1627  0.4612  0.4999  -1.2317   0.0000   0.0000   0.0000   0.4442
   1.500   0.8347   0.01876   0.00948  -0.1628  0.4586  0.5046  -1.2446   0.0000   0.0000   0.0000   0.4415
   1.600   0.8464   0.01897   0.00967  -0.1629  0.4560  0.5092  -1.2572   0.0000   0.0000   0.0000   0.4388
   1.700   0.8582   0.01932   0.01000  -0.1631  0.4530  0.5141  -1.2694   0.0000   0.0000   0.0000   0.4362
   1.800   0.8697   0.01939   0.01011  -0.1631  0.4515  0.5194  -1.2819   0.0000   0.0000   0.0000   0.4337
   1.900   0.8812   0.01945   0.01020  -0.1632  0.4500  0.5250  -1.2945   0.0000   0.0000   0.0000   0.4311
   2.000   0.8929   0.01952   0.01036  -0.1632  0.4483  0.5307  -1.3072   0.0000   0.0000   0.0000   0.4287
   2.100   0.9048   0.01962   0.01046  -0.1634  0.4465  0.5364  -1.3199   0.0000   0.0000   0.0000   0.4263
   2.200   0.9165   0.01968   0.01056  -0.1635  0.4446  0.5431  -1.3326   0.0000   0.0000   0.0000   0.4240
   2.300   0.9276   0.01972   0.01068  -0.1634  0.4427  0.5509  -1.3449   0.0000   0.0000   0.0000   0.4217
   2.400   0.9388   0.01980   0.01082  -0.1634  0.4408  0.5590  -1.3572   0.0000   0.0000   0.0000   0.4195
   2.500   0.9502   0.01991   0.01096  -0.1634  0.4389  0.5681  -1.3698   0.0000   0.0000   0.0000   0.4173
   2.600   0.9618   0.02003   0.01109  -0.1635  0.4369  0.5779  -1.3826   0.0000   0.0000   0.0000   0.4152
   2.700   0.9734   0.02012   0.01121  -0.1635  0.4349  0.5881  -1.3954   0.0000   0.0000   0.0000   0.4131
   2.800   0.9842   0.02016   0.01133  -0.1634  0.4329  0.5991  -1.4079   0.0000   0.0000   0.0000   0.4110
   2.900   0.9952   0.02024   0.01145  -0.1633  0.4309  0.6115  -1.4207   0.0000   0.0000   0.0000   0.4090
   3.000   1.0068   0.02034   0.01155  -0.1633  0.4288  0.6253  -1.4340   0.0000   0.0000   0.0000   0.4070
   3.100   1.0172   0.02042   0.01168  -0.1631  0.4269  0.6376  -1.4466   0.0000   0.0000   0.0000   0.4049
   3.200   1.0279   0.02051   0.01180  -0.1629  0.4250  0.6562  -1.4607   0.0000   0.0000   0.0000   0.4030
   3.300   1.0372   0.02060   0.01197  -0.1624  0.4231  0.6796  -1.4740   0.0000   0.0000   0.0000   0.4009
   3.400   1.0467   0.02077   0.01218  -0.1620  0.4213  0.7045  -1.4873   0.0000   0.0000   0.0000   0.3990
   3.500   1.0564   0.02102   0.01247  -0.1616  0.4193  0.7315  -1.5003   0.0000   0.0000   0.0000   0.3971
   3.600   1.0628   0.02130   0.01285  -0.1605  0.4175  0.7657  -1.5103   0.0000   0.0000   0.0000   0.3950
   3.700   1.0707   0.02177   0.01338  -0.1599  0.4155  0.8028  -1.5207   0.0000   0.0000   0.0000   0.3932
   3.800   1.0735   0.02168   0.01342  -0.1579  0.4148  0.8495  -1.5282   0.0000   0.0000   0.0000   0.3909
   3.900   1.0749   0.02156   0.01339  -0.1556  0.4140  0.9208  -1.5344   0.0000   0.0000   0.0000   0.3885
   4.000   1.0857   0.02164   0.01349  -0.1556  0.4129  1.0000  -1.5481   0.0000   0.0000   0.0000   0.3869
   4.100   1.0983   0.02184   0.01368  -0.1560  0.4117  1.0000  -1.5631   0.0000   0.0000   0.0000   0.3855
   4.200   1.1104   0.02205   0.01389  -0.1563  0.4104  1.0000  -1.5778   0.0000   0.0000   0.0000   0.3841
   4.300   1.1222   0.02227   0.01412  -0.1565  0.4090  1.0000  -1.5922   0.0000   0.0000   0.0000   0.3827
   4.400   1.1338   0.02249   0.01435  -0.1566  0.4076  1.0000  -1.6085   0.0000   0.0000   0.0000   0.3813
   4.500   1.1452   0.02273   0.01460  -0.1568  0.4061  1.0000  -1.6246   0.0000   0.0000   0.0000   0.3799
   4.600   1.1565   0.02297   0.01485  -0.1568  0.4046  1.0000  -1.6407   0.0000   0.0000   0.0000   0.3785
   4.700   1.1677   0.02321   0.01519  -0.1569  0.4030  1.0000  -1.6567   0.0000   0.0000   0.0000   0.3771
   4.800   1.1789   0.02346   0.01545  -0.1570  0.4015  1.0000  -1.6727   0.0000   0.0000   0.0000   0.3758
   4.900   1.1900   0.02371   0.01571  -0.1570  0.4000  1.0000  -1.6887   0.0000   0.0000   0.0000   0.3745
   5.000   1.2010   0.02395   0.01595  -0.1570  0.3984  1.0000  -1.7049   0.0000   0.0000   0.0000   0.3731
   5.100   1.2120   0.02417   0.01618  -0.1571  0.3968  1.0000  -1.7232   0.0000   0.0000   0.0000   0.3718
   5.200   1.2231   0.02438   0.01638  -0.1571  0.3950  1.0000  -1.7418   0.0000   0.0000   0.0000   0.3705
   5.300   1.2341   0.02458   0.01657  -0.1571  0.3933  1.0000  -1.7607   0.0000   0.0000   0.0000   0.3692
   5.400   1.2452   0.02477   0.01674  -0.1570  0.3916  1.0000  -1.7798   0.0000   0.0000   0.0000   0.3680
   5.500   1.2563   0.02497   0.01692  -0.1570  0.3899  1.0000  -1.8001   0.0000   0.0000   0.0000   0.3667
   5.600   1.2673   0.02518   0.01711  -0.1570  0.3882  1.0000  -1.8216   0.0000   0.0000   0.0000   0.3655
   5.700   1.2783   0.02544   0.01735  -0.1570  0.3866  1.0000  -1.8429   0.0000   0.0000   0.0000   0.3643
   5.800   1.2892   0.02577   0.01766  -0.1570  0.3851  1.0000  -1.8639   0.0000   0.0000   0.0000   0.3631
   5.900   1.2998   0.02619   0.01807  -0.1570  0.3836  1.0000  -1.8843   0.0000   0.0000   0.0000   0.3620
   6.000   1.3099   0.02679   0.01866  -0.1570  0.3819  1.0000  -1.9037   0.0000   0.0000   0.0000   0.3609
   6.100   1.3186   0.02779   0.01970  -0.1569  0.3798  1.0000  -1.9201   0.0000   0.0000   0.0000   0.3599
   6.200   1.3283   0.02820   0.02016  -0.1568  0.3786  1.0000  -1.9389   0.0000   0.0000   0.0000   0.3588
   6.300   1.3385   0.02837   0.02039  -0.1567  0.3776  1.0000  -1.9589   0.0000   0.0000   0.0000   0.3577
   6.400   1.3486   0.02856   0.02064  -0.1565  0.3763  1.0000  -1.9788   0.0000   0.0000   0.0000   0.3566
   6.500   1.3586   0.02877   0.02089  -0.1564  0.3748  1.0000  -2.0012   0.0000   0.0000   0.0000   0.3554
   6.600   1.3685   0.02899   0.02117  -0.1562  0.3732  1.0000  -2.0236   0.0000   0.0000   0.0000   0.3544
   6.700   1.3783   0.02923   0.02146  -0.1560  0.3714  1.0000  -2.0460   0.0000   0.0000   0.0000   0.3533
   6.800   1.3881   0.02949   0.02177  -0.1559  0.3695  1.0000  -2.0685   0.0000   0.0000   0.0000   0.3522
   6.900   1.3979   0.02978   0.02210  -0.1557  0.3678  1.0000  -2.0909   0.0000   0.0000   0.0000   0.3512
   7.000   1.4077   0.03009   0.02245  -0.1555  0.3661  1.0000  -2.1151   0.0000   0.0000   0.0000   0.3501
   7.100   1.4174   0.03039   0.02279  -0.1554  0.3643  1.0000  -2.1407   0.0000   0.0000   0.0000   0.3491
   7.200   1.4271   0.03065   0.02309  -0.1552  0.3625  1.0000  -2.1667   0.0000   0.0000   0.0000   0.3481
   7.300   1.4369   0.03090   0.02355  -0.1550  0.3606  1.0000  -2.1933   0.0000   0.0000   0.0000   0.3471
   7.400   1.4470   0.03109   0.02377  -0.1548  0.3587  1.0000  -2.2244   0.0000   0.0000   0.0000   0.3460
   7.500   1.4573   0.03125   0.02394  -0.1546  0.3568  1.0000  -2.2562   0.0000   0.0000   0.0000   0.3450
   7.600   1.4678   0.03139   0.02408  -0.1545  0.3550  1.0000  -2.2927   0.0000   0.0000   0.0000   0.3440
   7.700   1.4785   0.03154   0.02422  -0.1544  0.3532  1.0000  -2.3358   0.0000   0.0000   0.0000   0.3430
   7.800   1.4893   0.03171   0.02438  -0.1543  0.3515  1.0000  -2.3803   0.0000   0.0000   0.0000   0.3420
   7.900   1.4999   0.03197   0.02461  -0.1542  0.3497  1.0000  -2.4247   0.0000   0.0000   0.0000   0.3410
   8.000   1.5101   0.03241   0.02503  -0.1541  0.3478  1.0000  -2.4679   0.0000   0.0000   0.0000   0.3401
   8.100   1.5181   0.03346   0.02610  -0.1539  0.3452  1.0000  -2.5048   0.0000   0.0000   0.0000   0.3393
   8.200   1.5254   0.03415   0.02687  -0.1535  0.3434  1.0000  -2.5403   0.0000   0.0000   0.0000   0.3384
   8.300   1.5342   0.03426   0.02707  -0.1532  0.3419  1.0000  -2.5805   0.0000   0.0000   0.0000   0.3375
   8.400   1.5428   0.03445   0.02735  -0.1528  0.3402  1.0000  -2.6200   0.0000   0.0000   0.0000   0.3365
   8.500   1.5511   0.03471   0.02770  -0.1524  0.3383  1.0000  -2.6592   0.0000   0.0000   0.0000   0.3356
   8.600   1.5594   0.03503   0.02810  -0.1521  0.3363  1.0000  -2.6983   0.0000   0.0000   0.0000   0.3347
   8.700   1.5678   0.03536   0.02850  -0.1517  0.3342  1.0000  -2.7378   0.0000   0.0000   0.0000   0.3338
   8.800   1.5764   0.03564   0.02885  -0.1514  0.3321  1.0000  -2.7785   0.0000   0.0000   0.0000   0.3329
   8.900   1.5852   0.03587   0.02913  -0.1510  0.3298  1.0000  -2.8202   0.0000   0.0000   0.0000   0.3319
   9.000   1.5942   0.03604   0.02935  -0.1507  0.3275  1.0000  -2.8629   0.0000   0.0000   0.0000   0.3310
   9.100   1.6036   0.03614   0.02948  -0.1504  0.3253  1.0000  -2.9074   0.0000   0.0000   0.0000   0.3301
   9.200   1.6137   0.03616   0.02951  -0.1501  0.3231  1.0000  -2.9542   0.0000   0.0000   0.0000   0.3292
   9.300   1.6245   0.03611   0.02945  -0.1500  0.3210  1.0000  -3.0033   0.0000   0.0000   0.0000   0.3282
   9.400   1.6359   0.03602   0.02934  -0.1498  0.3190  1.0000  -3.0544   0.0000   0.0000   0.0000   0.3273
   9.500   1.6475   0.03596   0.02924  -0.1498  0.3169  1.0000  -3.1066   0.0000   0.0000   0.0000   0.3264
   9.600   1.6589   0.03606   0.02938  -0.1497  0.3148  1.0000  -3.1577   0.0000   0.0000   0.0000   0.3256
   9.700   1.6683   0.03670   0.03000  -0.1496  0.3121  1.0000  -3.2032   0.0000   0.0000   0.0000   0.3248
   9.800   1.6740   0.03753   0.03091  -0.1490  0.3096  1.0000  -3.2381   0.0000   0.0000   0.0000   0.3240
   9.900   1.6812   0.03755   0.03105  -0.1484  0.3076  1.0000  -3.2784   0.0000   0.0000   0.0000   0.3231
  10.000   1.6882   0.03766   0.03126  -0.1478  0.3052  1.0000  -3.3183   0.0000   0.0000   0.0000   0.3222
  10.100   1.6954   0.03778   0.03147  -0.1472  0.3024  1.0000  -3.3592   0.0000   0.0000   0.0000   0.3213
  10.200   1.7026   0.03790   0.03168  -0.1466  0.2995  1.0000  -3.4005   0.0000   0.0000   0.0000   0.3204
  10.300   1.7106   0.03794   0.03178  -0.1461  0.2967  1.0000  -3.4516   0.0000   0.0000   0.0000   0.3195
  10.400   1.7201   0.03782   0.03168  -0.1457  0.2938  1.0000  -3.5080   0.0000   0.0000   0.0000   0.3186
  10.500   1.7308   0.03753   0.03139  -0.1454  0.2910  1.0000  -3.5693   0.0000   0.0000   0.0000   0.3177
  10.600   1.7425   0.03714   0.03097  -0.1452  0.2882  1.0000  -3.6347   0.0000   0.0000   0.0000   0.3168
  10.700   1.7549   0.03672   0.03048  -0.1451  0.2856  1.0000  -3.7028   0.0000   0.0000   0.0000   0.3160
  10.800   1.7672   0.03641   0.03009  -0.1451  0.2828  1.0000  -3.7711   0.0000   0.0000   0.0000   0.3151
  10.900   1.7784   0.03670   0.03029  -0.1451  0.2791  1.0000  -3.8343   0.0000   0.0000   0.0000   0.3144
  11.000   1.7840   0.03692   0.03061  -0.1443  0.2766  1.0000  -3.8799   0.0000   0.0000   0.0000   0.3135
  11.100   1.7884   0.03699   0.03083  -0.1433  0.2738  1.0000  -3.9225   0.0000   0.0000   0.0000   0.3126
  11.200   1.7936   0.03707   0.03103  -0.1424  0.2706  1.0000  -3.9676   0.0000   0.0000   0.0000   0.3116
  11.300   1.8000   0.03707   0.03111  -0.1416  0.2672  1.0000  -4.0170   0.0000   0.0000   0.0000   0.3107
  11.400   1.8076   0.03696   0.03104  -0.1410  0.2637  1.0000  -4.0712   0.0000   0.0000   0.0000   0.3098
  11.500   1.8164   0.03671   0.03080  -0.1405  0.2604  1.0000  -4.1299   0.0000   0.0000   0.0000   0.3090
  11.600   1.8259   0.03638   0.03046  -0.1400  0.2571  1.0000  -4.1917   0.0000   0.0000   0.0000   0.3081
  11.700   1.8353   0.03607   0.03011  -0.1396  0.2541  1.0000  -4.2538   0.0000   0.0000   0.0000   0.3072
  11.800   1.8455   0.03586   0.02981  -0.1392  0.2508  1.0000  -4.3183   0.0000   0.0000   0.0000   0.3064
  11.900   1.8540   0.03607   0.02997  -0.1388  0.2471  1.0000  -4.3753   0.0000   0.0000   0.0000   0.3056
  12.000   1.8561   0.03636   0.03043  -0.1376  0.2444  1.0000  -4.4115   0.0000   0.0000   0.0000   0.3047
  12.100   1.8590   0.03662   0.03084  -0.1364  0.2410  1.0000  -4.4503   0.0000   0.0000   0.0000   0.3037
  12.200   1.8627   0.03680   0.03120  -0.1353  0.2371  1.0000  -4.4922   0.0000   0.0000   0.0000   0.3028
  12.300   1.8673   0.03686   0.03133  -0.1343  0.2332  1.0000  -4.5381   0.0000   0.0000   0.0000   0.3019
  12.400   1.8723   0.03684   0.03134  -0.1333  0.2294  1.0000  -4.6178   0.0000   0.0000   0.0000   0.3009
  12.500   1.8779   0.03676   0.03124  -0.1324  0.2257  1.0000  -4.7101   0.0000   0.0000   0.0000   0.3000
  12.600   1.8833   0.03675   0.03114  -0.1315  0.2219  1.0000  -4.8024   0.0000   0.0000   0.0000   0.2991
  12.700   1.8864   0.03706   0.03143  -0.1303  0.2179  1.0000  -4.8797   0.0000   0.0000   0.0000   0.2982
  12.800   1.8845   0.03757   0.03209  -0.1286  0.2145  1.0000  -4.9278   0.0000   0.0000   0.0000   0.2971
  12.900   1.8825   0.03803   0.03267  -0.1268  0.2106  1.0000  -4.9760   0.0000   0.0000   0.0000   0.2961
  13.000   1.8811   0.03845   0.03317  -0.1251  0.2067  1.0000  -5.0281   0.0000   0.0000   0.0000   0.2950
  13.100   1.8801   0.03883   0.03357  -0.1235  0.2027  1.0000  -5.0839   0.0000   0.0000   0.0000   0.2940
  13.200   1.8792   0.03921   0.03392  -0.1220  0.1988  1.0000  -5.1410   0.0000   0.0000   0.0000   0.2930
  13.300   1.8777   0.03968   0.03433  -0.1205  0.1949  1.0000  -5.1953   0.0000   0.0000   0.0000   0.2921
  13.400   1.8753   0.04039   0.03501  -0.1190  0.1909  1.0000  -5.2423   0.0000   0.0000   0.0000   0.2911
  13.500   1.8708   0.04132   0.03608  -0.1175  0.1872  1.0000  -5.2743   0.0000   0.0000   0.0000   0.2903
  13.600   1.8662   0.04227   0.03714  -0.1161  0.1833  1.0000  -5.3059   0.0000   0.0000   0.0000   0.2895
  13.700   1.8621   0.04322   0.03814  -0.1149  0.1792  1.0000  -5.3412   0.0000   0.0000   0.0000   0.2888
  13.800   1.8580   0.04420   0.03911  -0.1138  0.1752  1.0000  -5.3775   0.0000   0.0000   0.0000   0.2881
  13.900   1.8532   0.04529   0.04017  -0.1127  0.1715  1.0000  -5.4094   0.0000   0.0000   0.0000   0.2875
  14.000   1.8471   0.04658   0.04139  -0.1117  0.1679  1.0000  -5.4329   0.0000   0.0000   0.0000   0.2869
  14.100   1.8409   0.04806   0.04291  -0.1110  0.1645  1.0000  -5.4522   0.0000   0.0000   0.0000   0.2865
  14.200   1.8346   0.04966   0.04463  -0.1105  0.1612  1.0000  -5.4692   0.0000   0.0000   0.0000   0.2862
  14.300   1.8276   0.05140   0.04646  -0.1101  0.1580  1.0000  -5.4816   0.0000   0.0000   0.0000   0.2860
  14.400   1.8202   0.05324   0.04836  -0.1100  0.1549  1.0000  -5.4917   0.0000   0.0000   0.0000   0.2859
  14.500   1.8130   0.05513   0.05026  -0.1099  0.1519  1.0000  -5.5023   0.0000   0.0000   0.0000   0.2859
  14.600   1.8049   0.05719   0.05231  -0.1100  0.1491  1.0000  -5.5076   0.0000   0.0000   0.0000   0.2860
  14.700   1.7974   0.05919   0.05427  -0.1101  0.1462  1.0000  -5.5162   0.0000   0.0000   0.0000   0.2860
  14.800   1.7914   0.06092   0.05588  -0.1098  0.1422  1.0000  -5.5346   0.0000   0.0000   0.0000   0.2858
  14.900   1.7823   0.06337   0.05846  -0.1103  0.1404  1.0000  -5.5274   0.0000   0.0000   0.0000   0.2862
  15.000   1.7732   0.06590   0.06110  -0.1109  0.1383  1.0000  -5.5189   0.0000   0.0000   0.0000   0.2867
  15.100   1.7639   0.06850   0.06379  -0.1116  0.1362  1.0000  -5.5093   0.0000   0.0000   0.0000   0.2872
  15.200   1.7549   0.07110   0.06646  -0.1124  0.1340  1.0000  -5.5016   0.0000   0.0000   0.0000   0.2877
  15.300   1.7459   0.07375   0.06917  -0.1132  0.1319  1.0000  -5.4931   0.0000   0.0000   0.0000   0.2883
  15.400   1.7377   0.07626   0.07171  -0.1139  0.1296  1.0000  -5.4904   0.0000   0.0000   0.0000   0.2888
  15.500   1.7301   0.07868   0.07414  -0.1146  0.1274  1.0000  -5.4919   0.0000   0.0000   0.0000   0.2892
  15.600   1.7241   0.08080   0.07620  -0.1151  0.1248  1.0000  -5.5050   0.0000   0.0000   0.0000   0.2895
  15.700   1.7229   0.08189   0.07715  -0.1146  0.1207  1.0000  -5.5536   0.0000   0.0000   0.0000   0.2890
  15.800   1.7165   0.08421   0.07951  -0.1152  0.1187  1.0000  -5.5591   0.0000   0.0000   0.0000   0.2894
  15.900   1.7073   0.08712   0.08252  -0.1164  0.1174  1.0000  -5.5433   0.0000   0.0000   0.0000   0.2902
  16.000   1.6987   0.08993   0.08542  -0.1175  0.1159  1.0000  -5.5308   0.0000   0.0000   0.0000   0.2910
  16.100   1.6907   0.09261   0.08819  -0.1186  0.1142  1.0000  -5.5227   0.0000   0.0000   0.0000   0.2918
  16.200   1.6830   0.09527   0.09091  -0.1197  0.1125  1.0000  -5.5163   0.0000   0.0000   0.0000   0.2925
  16.300   1.6764   0.09774   0.09343  -0.1207  0.1107  1.0000  -5.5173   0.0000   0.0000   0.0000   0.2932
  16.400   1.6709   0.10000   0.09572  -0.1216  0.1089  1.0000  -5.5269   0.0000   0.0000   0.0000   0.2937
  16.500   1.6663   0.10210   0.09784  -0.1224  0.1071  1.0000  -5.5429   0.0000   0.0000   0.0000   0.2942
  16.600   1.6623   0.10407   0.09981  -0.1231  0.1053  1.0000  -5.5637   0.0000   0.0000   0.0000   0.2945
  16.700   1.6619   0.10528   0.10096  -0.1233  0.1030  1.0000  -5.6130   0.0000   0.0000   0.0000   0.2944
  16.800   1.6732   0.10398   0.09947  -0.1210  0.0987  1.0000  -5.7514   0.0000   0.0000   0.0000   0.2923
  16.900   1.6661   0.10666   0.10225  -0.1223  0.0980  1.0000  -5.7428   0.0000   0.0000   0.0000   0.2932
  17.000   1.6585   0.10943   0.10512  -0.1237  0.0973  1.0000  -5.7303   0.0000   0.0000   0.0000   0.2941
  17.100   1.6515   0.11211   0.10789  -0.1251  0.0964  1.0000  -5.7205   0.0000   0.0000   0.0000   0.2951
  17.200   1.6450   0.11467   0.11054  -0.1264  0.0954  1.0000  -5.7143   0.0000   0.0000   0.0000   0.2959
  17.300   1.6388   0.11720   0.11315  -0.1277  0.0944  1.0000  -5.7096   0.0000   0.0000   0.0000   0.2968
  17.400   1.6317   0.11985   0.11588  -0.1291  0.0935  1.0000  -5.6967   0.0000   0.0000   0.0000   0.2978
  17.500   1.6251   0.12239   0.11849  -0.1305  0.0925  1.0000  -5.6860   0.0000   0.0000   0.0000   0.2988
  17.600   1.6193   0.12478   0.12095  -0.1319  0.0915  1.0000  -5.6815   0.0000   0.0000   0.0000   0.2997
  17.700   1.6141   0.12707   0.12330  -0.1331  0.0904  1.0000  -5.6818   0.0000   0.0000   0.0000   0.3005
  17.800   1.6097   0.12928   0.12555  -0.1343  0.0894  1.0000  -5.6872   0.0000   0.0000   0.0000   0.3013
  17.900   1.6054   0.13148   0.12781  -0.1355  0.0884  1.0000  -5.6938   0.0000   0.0000   0.0000   0.3020
  18.000   1.6019   0.13355   0.12991  -0.1367  0.0874  1.0000  -5.7075   0.0000   0.0000   0.0000   0.3027
  18.100   1.5995   0.13542   0.13180  -0.1376  0.0863  1.0000  -5.7299   0.0000   0.0000   0.0000   0.3032
  18.200   1.5988   0.13692   0.13332  -0.1383  0.0853  1.0000  -5.7684   0.0000   0.0000   0.0000   0.3034
  18.300   1.5998   0.13805   0.13446  -0.1387  0.0841  1.0000  -5.8221   0.0000   0.0000   0.0000   0.3034
  18.400   1.6041   0.13840   0.13478  -0.1384  0.0828  1.0000  -5.9058   0.0000   0.0000   0.0000   0.3027
  18.500   1.6057   0.13932   0.13569  -0.1383  0.0814  1.0000  -5.9618   0.0000   0.0000   0.0000   0.3023
  18.600   1.5981   0.14227   0.13871  -0.1398  0.0806  1.0000  -5.9331   0.0000   0.0000   0.0000   0.3034
  18.700   1.5849   0.14662   0.14316  -0.1423  0.0801  1.0000  -5.8510   0.0000   0.0000   0.0000   0.3056
  18.800   1.5686   0.15188   0.14850  -0.1455  0.0798  1.0000  -5.7374   0.0000   0.0000   0.0000   0.3084
  18.900   1.5476   0.15852   0.15526  -0.1497  0.0798  1.0000  -5.5764   0.0000   0.0000   0.0000   0.3124
  19.100   1.2461   0.26779   0.26459  -0.2040  0.0909  1.0000  -2.1655   0.0000   0.0000   0.0000   0.3853
  19.200   1.2435   0.27161   0.26842  -0.2050  0.0925  1.0000  -2.1424   0.0000   0.0000   0.0000   0.3864
  19.300   1.2428   0.27479   0.27162  -0.2056  0.0940  1.0000  -2.1417   0.0000   0.0000   0.0000   0.3868
  19.400   1.2442   0.27733   0.27418  -0.2056  0.0955  1.0000  -2.1669   0.0000   0.0000   0.0000   0.3864
  19.500   1.2487   0.27924   0.27612  -0.2049  0.0968  1.0000  -2.2259   0.0000   0.0000   0.0000   0.3850
  19.600   1.2171   0.29439   0.29127  -0.2115  0.1151  1.0000  -1.8423   0.0000   0.0000   0.0000   0.3955
  19.700   1.2138   0.29706   0.29394  -0.2128  0.1125  1.0000  -1.8248   0.0000   0.0000   0.0000   0.3969
  19.800   1.2125   0.29944   0.29634  -0.2135  0.1109  1.0000  -1.8292   0.0000   0.0000   0.0000   0.3975
  19.900   1.2117   0.30171   0.29862  -0.2139  0.1095  1.0000  -1.8392   0.0000   0.0000   0.0000   0.3978
  20.000   1.2110   0.30388   0.30081  -0.2143  0.1084  1.0000  -1.8526   0.0000   0.0000   0.0000   0.3980
  20.100   1.2104   0.30598   0.30293  -0.2146  0.1074  1.0000  -1.8684   0.0000   0.0000   0.0000   0.3981
  20.200   1.2099   0.30800   0.30496  -0.2147  0.1065  1.0000  -1.8865   0.0000   0.0000   0.0000   0.3981
  20.300   1.2093   0.30994   0.30692  -0.2148  0.1056  1.0000  -1.9067   0.0000   0.0000   0.0000   0.3981
  20.400   1.2091   0.31173   0.30874  -0.2147  0.1048  1.0000  -1.9315   0.0000   0.0000   0.0000   0.3978
  20.500   1.2095   0.31329   0.31032  -0.2145  0.1039  1.0000  -1.9651   0.0000   0.0000   0.0000   0.3973
  20.600   1.2110   0.31460   0.31165  -0.2140  0.1030  1.0000  -2.0107   0.0000   0.0000   0.0000   0.3965
  20.700   1.2145   0.31565   0.31273  -0.2132  0.1020  1.0000  -2.0752   0.0000   0.0000   0.0000   0.3950
  20.800   1.2220   0.31653   0.31364  -0.2119  0.1010  1.0000  -2.1738   0.0000   0.0000   0.0000   0.3925
  20.900   1.2399   0.31824   0.31540  -0.2095  0.0998  1.0000  -2.3528   0.0000   0.0000   0.0000   0.3875
  21.100   1.2329   0.32749   0.32466  -0.2089  0.0988  1.0000  -2.3508   0.0000   0.0000   0.0000   0.3877
  21.200   1.2266   0.32969   0.32688  -0.2090  0.0987  1.0000  -2.3310   0.0000   0.0000   0.0000   0.3886
  21.300   1.2158   0.33144   0.32866  -0.2089  0.0986  1.0000  -2.2905   0.0000   0.0000   0.0000   0.3900


