xflr5 v6.61

 Calculated polar for: S1223

 1 1 Reynolds number fixed          Mach number fixed         

 xtrf =   1.000 (top)        1.000 (bottom)
 Mach =   0.000     Re =     0.400 e 6     Ncrit =   9.000

  alpha     CL        CD       CDp       Cm    Top Xtr Bot Xtr   Cpmin    Chinge    XCp    
 ------- -------- --------- --------- -------- ------- ------- -------- --------- ---------
 -10.000  -0.0783   0.13808   0.13539  -0.0552  0.9786  0.0170  -1.1199   0.0000   0.0000   0.0000  -0.5199
  -9.900  -0.0731   0.13683   0.13414  -0.0561  0.9772  0.0170  -1.1199   0.0000   0.0000   0.0000  -0.5861
  -9.800  -0.0673   0.13554   0.13286  -0.0572  0.9761  0.0170  -1.1197   0.0000   0.0000   0.0000  -0.6748
  -9.700  -0.0609   0.13423   0.13155  -0.0584  0.9751  0.0170  -1.1193   0.0000   0.0000   0.0000  -0.7900
  -9.600  -0.0543   0.13291   0.13022  -0.0597  0.9743  0.0170  -1.1189   0.0000   0.0000   0.0000  -0.9409
  -9.500  -0.0474   0.13157   0.12888  -0.0610  0.9736  0.0170  -1.1184   0.0000   0.0000   0.0000  -1.1433
  -9.400  -0.0403   0.13022   0.12753  -0.0625  0.9730  0.0170  -1.1178   0.0000   0.0000   0.0000  -1.4257
  -9.300  -0.0329   0.12886   0.12617  -0.0640  0.9724  0.0170  -1.1172   0.0000   0.0000   0.0000  -1.8447
  -9.200  -0.0253   0.12749   0.12480  -0.0655  0.9719  0.0171  -1.1165   0.0000   0.0000   0.0000  -2.5302
  -9.100  -0.0175   0.12610   0.12341  -0.0671  0.9715  0.0171  -1.1157   0.0000   0.0000   0.0000  -3.8629
  -9.000  -0.0155   0.12509   0.12241  -0.0670  0.9690  0.0171  -1.1173   0.0000   0.0000   0.0000  -4.3960
  -8.900  -0.0115   0.12395   0.12127  -0.0675  0.9670  0.0171  -1.1181   0.0000   0.0000   0.0000  -6.0472
  -8.800  -0.0056   0.12267   0.12000  -0.0685  0.9655  0.0171  -1.1180   0.0000   0.0000   0.0000  -12.7174
  -8.700   0.0009   0.12134   0.11867  -0.0697  0.9643  0.0171  -1.1177   0.0000   0.0000   0.0000  80.7361
  -8.600   0.0080   0.11998   0.11731  -0.0710  0.9633  0.0171  -1.1171   0.0000   0.0000   0.0000   9.7381
  -8.500   0.0154   0.11859   0.11592  -0.0724  0.9624  0.0171  -1.1163   0.0000   0.0000   0.0000   5.2534
  -8.400   0.0232   0.11718   0.11451  -0.0740  0.9616  0.0171  -1.1155   0.0000   0.0000   0.0000   3.6445
  -8.300   0.0312   0.11575   0.11308  -0.0755  0.9609  0.0171  -1.1145   0.0000   0.0000   0.0000   2.8225
  -8.200   0.0394   0.11432   0.11165  -0.0772  0.9603  0.0171  -1.1135   0.0000   0.0000   0.0000   2.3254
  -8.100   0.0478   0.11287   0.11020  -0.0788  0.9597  0.0171  -1.1124   0.0000   0.0000   0.0000   1.9948
  -8.000   0.0564   0.11142   0.10875  -0.0805  0.9592  0.0171  -1.1113   0.0000   0.0000   0.0000   1.7601
  -7.900   0.0531   0.11084   0.10819  -0.0788  0.9544  0.0171  -1.1155   0.0000   0.0000   0.0000   1.8194
  -7.800   0.0580   0.10966   0.10701  -0.0795  0.9521  0.0171  -1.1161   0.0000   0.0000   0.0000   1.6974
  -7.700   0.0643   0.10837   0.10573  -0.0805  0.9504  0.0171  -1.1161   0.0000   0.0000   0.0000   1.5707
  -7.600   0.0713   0.10704   0.10439  -0.0818  0.9490  0.0171  -1.1158   0.0000   0.0000   0.0000   1.4570
  -7.500   0.0789   0.10566   0.10302  -0.0831  0.9479  0.0171  -1.1153   0.0000   0.0000   0.0000   1.3582
  -7.400   0.0869   0.10426   0.10162  -0.0846  0.9468  0.0171  -1.1147   0.0000   0.0000   0.0000   1.2731
  -7.300   0.0953   0.10284   0.10019  -0.0862  0.9459  0.0171  -1.1139   0.0000   0.0000   0.0000   1.1996
  -7.200   0.1040   0.10138   0.09874  -0.0879  0.9451  0.0171  -1.1130   0.0000   0.0000   0.0000   1.1359
  -7.100   0.1130   0.09991   0.09727  -0.0896  0.9443  0.0171  -1.1120   0.0000   0.0000   0.0000   1.0805
  -7.000   0.1061   0.09967   0.09705  -0.0869  0.9374  0.0171  -1.1183   0.0000   0.0000   0.0000   1.1075
  -6.900   0.1112   0.09849   0.09588  -0.0875  0.9346  0.0171  -1.1192   0.0000   0.0000   0.0000   1.0733
  -6.800   0.1180   0.09718   0.09457  -0.0886  0.9326  0.0171  -1.1194   0.0000   0.0000   0.0000   1.0349
  -6.700   0.1256   0.09581   0.09320  -0.0900  0.9308  0.0171  -1.1192   0.0000   0.0000   0.0000   0.9974
  -6.600   0.1338   0.09440   0.09179  -0.0914  0.9293  0.0172  -1.1189   0.0000   0.0000   0.0000   0.9622
  -6.500   0.1424   0.09296   0.09035  -0.0930  0.9280  0.0172  -1.1185   0.0000   0.0000   0.0000   0.9299
  -6.400   0.1513   0.09149   0.08888  -0.0946  0.9268  0.0172  -1.1180   0.0000   0.0000   0.0000   0.9004
  -6.300   0.1434   0.09138   0.08879  -0.0917  0.9182  0.0172  -1.1250   0.0000   0.0000   0.0000   0.9146
  -6.200   0.1480   0.09026   0.08768  -0.0921  0.9145  0.0172  -1.1266   0.0000   0.0000   0.0000   0.8966
  -6.100   0.1542   0.08900   0.08640  -0.0930  0.9116  0.0172  -1.1276   0.0000   0.0000   0.0000   0.8758
  -6.000   0.1612   0.08768   0.08507  -0.0941  0.9092  0.0172  -1.1283   0.0000   0.0000   0.0000   0.8551
  -5.900   0.1686   0.08632   0.08371  -0.0953  0.9071  0.0172  -1.1289   0.0000   0.0000   0.0000   0.8351
  -5.800   0.1631   0.08606   0.08348  -0.0930  0.8979  0.0172  -1.1352   0.0000   0.0000   0.0000   0.8405
  -5.700   0.1658   0.08510   0.08251  -0.0929  0.8923  0.0172  -1.1380   0.0000   0.0000   0.0000   0.8298
  -5.600   0.1724   0.08382   0.08123  -0.0939  0.8884  0.0172  -1.1393   0.0000   0.0000   0.0000   0.8130
  -5.400   0.1821   0.08159   0.07899  -0.0949  0.8780  0.0172  -1.1437   0.0000   0.0000   0.0000   0.7879
  -5.200   0.1838   0.07653   0.07394  -0.0968  0.8663  0.0177  -1.3076   0.0000   0.0000   0.0000   0.7925
  -5.100   0.1949   0.07423   0.07162  -0.0994  0.8618  0.0180  -1.3233   0.0000   0.0000   0.0000   0.7749
  -5.000   0.2068   0.07236   0.06972  -0.1018  0.8548  0.0182  -1.3176   0.0000   0.0000   0.0000   0.7563
  -4.900   0.2223   0.07046   0.06778  -0.1049  0.8454  0.0184  -1.2966   0.0000   0.0000   0.0000   0.7348
  -4.800   0.2480   0.06813   0.06538  -0.1102  0.8357  0.0187  -1.2478   0.0000   0.0000   0.0000   0.7059
  -4.700   0.2736   0.06600   0.06316  -0.1154  0.8206  0.0190  -1.1967   0.0000   0.0000   0.0000   0.6821
  -4.600   0.3067   0.06358   0.06059  -0.1224  0.7996  0.0194  -1.1369   0.0000   0.0000   0.0000   0.6585
  -4.500   0.3285   0.06191   0.05874  -0.1268  0.7714  0.0197  -1.1001   0.0000   0.0000   0.0000   0.6447
  -4.400   0.3392   0.06091   0.05757  -0.1285  0.7416  0.0199  -1.0813   0.0000   0.0000   0.0000   0.6371
  -4.300   0.3429   0.06028   0.05680  -0.1285  0.7143  0.0201  -1.0727   0.0000   0.0000   0.0000   0.6326
  -4.200   0.3445   0.05977   0.05617  -0.1279  0.6907  0.0202  -1.0676   0.0000   0.0000   0.0000   0.6290
  -4.100   0.3443   0.05934   0.05563  -0.1270  0.6698  0.0203  -1.0650   0.0000   0.0000   0.0000   0.6262
  -4.000   0.3449   0.05883   0.05504  -0.1263  0.6517  0.0204  -1.0621   0.0000   0.0000   0.0000   0.6232
  -3.900   0.3450   0.05836   0.05447  -0.1255  0.6358  0.0205  -1.0603   0.0000   0.0000   0.0000   0.6204
  -3.800   0.3472   0.05772   0.05380  -0.1252  0.6227  0.0207  -1.0567   0.0000   0.0000   0.0000   0.6171
  -3.700   0.3488   0.05714   0.05314  -0.1249  0.6098  0.0208  -1.0542   0.0000   0.0000   0.0000   0.6140
  -3.600   0.3510   0.05651   0.05246  -0.1247  0.5990  0.0210  -1.0516   0.0000   0.0000   0.0000   0.6108
  -3.500   0.3551   0.05574   0.05166  -0.1249  0.5902  0.0212  -1.0479   0.0000   0.0000   0.0000   0.6072
  -3.400   0.3591   0.05499   0.05087  -0.1252  0.5813  0.0214  -1.0449   0.0000   0.0000   0.0000   0.6037
  -3.300   0.3633   0.05423   0.05006  -0.1255  0.5725  0.0216  -1.0423   0.0000   0.0000   0.0000   0.6003
  -3.200   0.3677   0.05346   0.04923  -0.1259  0.5642  0.0218  -1.0401   0.0000   0.0000   0.0000   0.5969
  -3.100   0.3747   0.05250   0.04827  -0.1270  0.5588  0.0220  -1.0369   0.0000   0.0000   0.0000   0.5930
  -3.000   0.3820   0.05153   0.04728  -0.1282  0.5530  0.0223  -1.0343   0.0000   0.0000   0.0000   0.5893
  -2.900   0.3898   0.05054   0.04626  -0.1294  0.5470  0.0225  -1.0323   0.0000   0.0000   0.0000   0.5856
  -2.800   0.3980   0.04952   0.04520  -0.1309  0.5411  0.0228  -1.0311   0.0000   0.0000   0.0000   0.5820
  -2.700   0.4070   0.04847   0.04410  -0.1325  0.5349  0.0232  -1.0306   0.0000   0.0000   0.0000   0.5784
  -2.500   0.4308   0.04599   0.04156  -0.1373  0.5247  0.0240  -1.0316   0.0000   0.0000   0.0000   0.5710
  -2.400   0.4464   0.04451   0.04006  -0.1407  0.5210  0.0245  -1.0342   0.0000   0.0000   0.0000   0.5672
  -2.300   0.4646   0.04287   0.03839  -0.1448  0.5168  0.0251  -1.0400   0.0000   0.0000   0.0000   0.5634
  -2.200   0.8043   0.01806   0.01149  -0.2413  0.4959  0.0189  -1.6746   0.0000   0.0000   0.0000   0.5514
  -2.100   0.8309   0.01742   0.01062  -0.2449  0.4897  0.0187  -1.6357   0.0000   0.0000   0.0000   0.5459
  -2.000   0.8594   0.01663   0.00964  -0.2488  0.4868  0.0191  -1.5942   0.0000   0.0000   0.0000   0.5406
  -1.900   0.8829   0.01611   0.00901  -0.2516  0.4834  0.0200  -1.5392   0.0000   0.0000   0.0000   0.5358
  -1.800   0.9005   0.01589   0.00872  -0.2531  0.4799  0.0211  -1.4720   0.0000   0.0000   0.0000   0.5317
  -1.700   0.9158   0.01578   0.00856  -0.2540  0.4764  0.0223  -1.4037   0.0000   0.0000   0.0000   0.5278
  -1.600   0.9300   0.01573   0.00845  -0.2546  0.4728  0.0238  -1.3364   0.0000   0.0000   0.0000   0.5240
  -1.500   0.9436   0.01570   0.00837  -0.2551  0.4692  0.0253  -1.2846   0.0000   0.0000   0.0000   0.5204
  -1.400   0.9569   0.01569   0.00829  -0.2555  0.4654  0.0267  -1.2975   0.0000   0.0000   0.0000   0.5169
  -1.300   0.9699   0.01570   0.00824  -0.2559  0.4613  0.0277  -1.3101   0.0000   0.0000   0.0000   0.5135
  -1.200   0.9830   0.01574   0.00820  -0.2562  0.4566  0.0285  -1.3228   0.0000   0.0000   0.0000   0.5102
  -1.100   0.9965   0.01576   0.00817  -0.2567  0.4530  0.0291  -1.3357   0.0000   0.0000   0.0000   0.5069
  -1.000   1.0095   0.01572   0.00812  -0.2570  0.4516  0.0295  -1.3485   0.0000   0.0000   0.0000   0.5037
  -0.900   1.0221   0.01569   0.00808  -0.2572  0.4499  0.0299  -1.3613   0.0000   0.0000   0.0000   0.5006
  -0.800   1.0359   0.01563   0.00800  -0.2577  0.4479  0.0302  -1.3747   0.0000   0.0000   0.0000   0.4976
  -0.700   1.0621   0.01512   0.00738  -0.2611  0.4451  0.0326  -1.3960   0.0000   0.0000   0.0000   0.4945
  -0.600   1.0781   0.01502   0.00727  -0.2621  0.4426  0.0353  -1.4110   0.0000   0.0000   0.0000   0.4916
  -0.500   1.0917   0.01501   0.00725  -0.2626  0.4401  0.0371  -1.4244   0.0000   0.0000   0.0000   0.4889
  -0.400   1.1056   0.01500   0.00721  -0.2632  0.4377  0.0381  -1.4381   0.0000   0.0000   0.0000   0.4862
  -0.300   1.1202   0.01498   0.00713  -0.2638  0.4353  0.0381  -1.4521   0.0000   0.0000   0.0000   0.4835
  -0.200   1.1345   0.01498   0.00707  -0.2644  0.4329  0.0385  -1.4659   0.0000   0.0000   0.0000   0.4809
  -0.100   1.1485   0.01500   0.00703  -0.2649  0.4304  0.0387  -1.4796   0.0000   0.0000   0.0000   0.4783
   0.000   1.1622   0.01503   0.00700  -0.2654  0.4278  0.0390  -1.4930   0.0000   0.0000   0.0000   0.4758
   0.100   1.1756   0.01509   0.00699  -0.2658  0.4250  0.0397  -1.5061   0.0000   0.0000   0.0000   0.4734
   0.200   1.1893   0.01518   0.00701  -0.2662  0.4218  0.0408  -1.5193   0.0000   0.0000   0.0000   0.4710
   0.300   1.2037   0.01528   0.00704  -0.2668  0.4185  0.0429  -1.5327   0.0000   0.0000   0.0000   0.4687
   0.500   1.2422   0.01508   0.00732  -0.2705  0.4159  0.2599  -1.5686   0.0000   0.0000   0.0000   0.4644
   0.600   1.2525   0.01515   0.00740  -0.2702  0.4151  0.2709  -1.5813   0.0000   0.0000   0.0000   0.4622
   0.700   1.2625   0.01523   0.00747  -0.2699  0.4142  0.2762  -1.5938   0.0000   0.0000   0.0000   0.4601
   0.800   1.2745   0.01527   0.00753  -0.2700  0.4132  0.2873  -1.6078   0.0000   0.0000   0.0000   0.4580
   0.900   1.2859   0.01532   0.00763  -0.2700  0.4122  0.2967  -1.6213   0.0000   0.0000   0.0000   0.4560
   1.000   1.2963   0.01541   0.00773  -0.2698  0.4111  0.3063  -1.6342   0.0000   0.0000   0.0000   0.4539
   1.100   1.3065   0.01550   0.00781  -0.2695  0.4099  0.3133  -1.6469   0.0000   0.0000   0.0000   0.4519
   1.200   1.3167   0.01559   0.00789  -0.2692  0.4088  0.3169  -1.6596   0.0000   0.0000   0.0000   0.4499
   1.300   1.3290   0.01563   0.00793  -0.2694  0.4075  0.3240  -1.6738   0.0000   0.0000   0.0000   0.4480
   1.400   1.3411   0.01567   0.00799  -0.2696  0.4063  0.3308  -1.6880   0.0000   0.0000   0.0000   0.4462
   1.500   1.3528   0.01573   0.00806  -0.2696  0.4051  0.3362  -1.7018   0.0000   0.0000   0.0000   0.4443
   1.600   1.3641   0.01580   0.00813  -0.2696  0.4038  0.3413  -1.7154   0.0000   0.0000   0.0000   0.4425
   1.700   1.3753   0.01587   0.00820  -0.2696  0.4024  0.3464  -1.7290   0.0000   0.0000   0.0000   0.4407
   1.800   1.3862   0.01595   0.00827  -0.2695  0.4010  0.3515  -1.7424   0.0000   0.0000   0.0000   0.4389
   1.900   1.3971   0.01604   0.00836  -0.2693  0.3996  0.3565  -1.7557   0.0000   0.0000   0.0000   0.4371
   2.000   1.4076   0.01613   0.00842  -0.2692  0.3981  0.3600  -1.7689   0.0000   0.0000   0.0000   0.4354
   2.100   1.4194   0.01620   0.00850  -0.2693  0.3966  0.3702  -1.7830   0.0000   0.0000   0.0000   0.4337
   2.200   1.4308   0.01628   0.00860  -0.2693  0.3951  0.3796  -1.7968   0.0000   0.0000   0.0000   0.4320
   2.300   1.4419   0.01638   0.00870  -0.2693  0.3935  0.3883  -1.8104   0.0000   0.0000   0.0000   0.4304
   2.400   1.4530   0.01650   0.00880  -0.2692  0.3920  0.3968  -1.8238   0.0000   0.0000   0.0000   0.4287
   2.500   1.4641   0.01663   0.00890  -0.2692  0.3904  0.4037  -1.8372   0.0000   0.0000   0.0000   0.4271
   2.600   1.4765   0.01675   0.00904  -0.2694  0.3887  0.4171  -1.8515   0.0000   0.0000   0.0000   0.4256
   2.700   1.4893   0.01689   0.00920  -0.2698  0.3869  0.4307  -1.8660   0.0000   0.0000   0.0000   0.4241
   2.800   1.5024   0.01705   0.00936  -0.2702  0.3850  0.4435  -1.8806   0.0000   0.0000   0.0000   0.4226
   2.900   1.5165   0.01724   0.00955  -0.2708  0.3830  0.4567  -1.8958   0.0000   0.0000   0.0000   0.4212
   3.000   1.5301   0.01737   0.00973  -0.2713  0.3818  0.4749  -1.9110   0.0000   0.0000   0.0000   0.4198
   3.100   1.5410   0.01744   0.00982  -0.2712  0.3815  0.4906  -1.9245   0.0000   0.0000   0.0000   0.4183
   3.200   1.5520   0.01750   0.00992  -0.2711  0.3811  0.5067  -1.9382   0.0000   0.0000   0.0000   0.4168
   3.300   1.5633   0.01756   0.01004  -0.2711  0.3806  0.5270  -1.9521   0.0000   0.0000   0.0000   0.4154
   3.400   1.5741   0.01764   0.01015  -0.2710  0.3801  0.5456  -1.9656   0.0000   0.0000   0.0000   0.4140
   3.500   1.5857   0.01770   0.01028  -0.2711  0.3796  0.5702  -1.9797   0.0000   0.0000   0.0000   0.4126
   3.600   1.5967   0.01778   0.01040  -0.2710  0.3790  0.5935  -1.9934   0.0000   0.0000   0.0000   0.4112
   3.700   1.6083   0.01785   0.01054  -0.2711  0.3783  0.6222  -2.0075   0.0000   0.0000   0.0000   0.4098
   3.800   1.6196   0.01792   0.01067  -0.2711  0.3776  0.6505  -2.0214   0.0000   0.0000   0.0000   0.4085
   3.900   1.6308   0.01800   0.01081  -0.2711  0.3769  0.6836  -2.0353   0.0000   0.0000   0.0000   0.4071
   4.000   1.6420   0.01806   0.01095  -0.2711  0.3762  0.7202  -2.0492   0.0000   0.0000   0.0000   0.4058
   4.100   1.6528   0.01813   0.01109  -0.2709  0.3754  0.7625  -2.0635   0.0000   0.0000   0.0000   0.4045
   4.200   1.6621   0.01816   0.01122  -0.2705  0.3747  0.8161  -2.0772   0.0000   0.0000   0.0000   0.4031
   4.300   1.6634   0.01804   0.01120  -0.2683  0.3740  0.9161  -2.0840   0.0000   0.0000   0.0000   0.4015
   4.400   1.6704   0.01808   0.01131  -0.2674  0.3733  1.0000  -2.0958   0.0000   0.0000   0.0000   0.4001
   4.500   1.6807   0.01820   0.01142  -0.2672  0.3725  1.0000  -2.1104   0.0000   0.0000   0.0000   0.3988
   4.600   1.6910   0.01831   0.01153  -0.2670  0.3716  1.0000  -2.1249   0.0000   0.0000   0.0000   0.3975
   4.700   1.7012   0.01843   0.01164  -0.2668  0.3708  1.0000  -2.1395   0.0000   0.0000   0.0000   0.3963
   4.800   1.7112   0.01854   0.01175  -0.2665  0.3698  1.0000  -2.1539   0.0000   0.0000   0.0000   0.3951
   4.900   1.7210   0.01866   0.01185  -0.2662  0.3689  1.0000  -2.1683   0.0000   0.0000   0.0000   0.3938
   5.000   1.7308   0.01877   0.01196  -0.2659  0.3679  1.0000  -2.1826   0.0000   0.0000   0.0000   0.3926
   5.100   1.7404   0.01888   0.01207  -0.2656  0.3668  1.0000  -2.1980   0.0000   0.0000   0.0000   0.3914
   5.200   1.7499   0.01900   0.01217  -0.2652  0.3658  1.0000  -2.2136   0.0000   0.0000   0.0000   0.3902
   5.300   1.7594   0.01912   0.01229  -0.2649  0.3648  1.0000  -2.2293   0.0000   0.0000   0.0000   0.3890
   5.400   1.7690   0.01924   0.01240  -0.2646  0.3639  1.0000  -2.2450   0.0000   0.0000   0.0000   0.3878
   5.500   1.7786   0.01937   0.01253  -0.2643  0.3629  1.0000  -2.2608   0.0000   0.0000   0.0000   0.3866
   5.600   1.7884   0.01950   0.01265  -0.2640  0.3620  1.0000  -2.2767   0.0000   0.0000   0.0000   0.3854
   5.700   1.7980   0.01964   0.01278  -0.2637  0.3611  1.0000  -2.2925   0.0000   0.0000   0.0000   0.3843
   5.800   1.8076   0.01978   0.01292  -0.2633  0.3600  1.0000  -2.3093   0.0000   0.0000   0.0000   0.3832
   5.900   1.8171   0.01993   0.01306  -0.2630  0.3589  1.0000  -2.3270   0.0000   0.0000   0.0000   0.3820
   6.000   1.8267   0.02009   0.01320  -0.2627  0.3576  1.0000  -2.3462   0.0000   0.0000   0.0000   0.3809
   6.100   1.8366   0.02026   0.01336  -0.2625  0.3562  1.0000  -2.3657   0.0000   0.0000   0.0000   0.3798
   6.200   1.8470   0.02046   0.01354  -0.2624  0.3546  1.0000  -2.3857   0.0000   0.0000   0.0000   0.3788
   6.300   1.8585   0.02068   0.01375  -0.2625  0.3528  1.0000  -2.4067   0.0000   0.0000   0.0000   0.3778
   6.400   1.8712   0.02094   0.01400  -0.2629  0.3509  1.0000  -2.4290   0.0000   0.0000   0.0000   0.3768
   6.500   1.8861   0.02127   0.01433  -0.2638  0.3488  1.0000  -2.4532   0.0000   0.0000   0.0000   0.3760
   6.600   1.8977   0.02150   0.01456  -0.2640  0.3476  1.0000  -2.4745   0.0000   0.0000   0.0000   0.3751
   6.700   1.9055   0.02158   0.01466  -0.2633  0.3473  1.0000  -2.4923   0.0000   0.0000   0.0000   0.3739
   6.800   1.9130   0.02166   0.01477  -0.2625  0.3468  1.0000  -2.5099   0.0000   0.0000   0.0000   0.3728
   6.900   1.9205   0.02175   0.01487  -0.2617  0.3463  1.0000  -2.5274   0.0000   0.0000   0.0000   0.3717
   7.000   1.9279   0.02183   0.01498  -0.2610  0.3457  1.0000  -2.5461   0.0000   0.0000   0.0000   0.3706
   7.100   1.9355   0.02193   0.01520  -0.2602  0.3451  1.0000  -2.5657   0.0000   0.0000   0.0000   0.3695
   7.200   1.9432   0.02203   0.01533  -0.2596  0.3443  1.0000  -2.5866   0.0000   0.0000   0.0000   0.3684
   7.300   1.9510   0.02214   0.01546  -0.2589  0.3436  1.0000  -2.6088   0.0000   0.0000   0.0000   0.3673
   7.400   1.9589   0.02225   0.01560  -0.2582  0.3428  1.0000  -2.6310   0.0000   0.0000   0.0000   0.3662
   7.500   1.9668   0.02237   0.01574  -0.2576  0.3419  1.0000  -2.6534   0.0000   0.0000   0.0000   0.3652
   7.600   1.9749   0.02251   0.01589  -0.2570  0.3411  1.0000  -2.6759   0.0000   0.0000   0.0000   0.3642
   7.700   1.9830   0.02264   0.01606  -0.2564  0.3402  1.0000  -2.6992   0.0000   0.0000   0.0000   0.3631
   7.800   1.9912   0.02279   0.01622  -0.2559  0.3394  1.0000  -2.7314   0.0000   0.0000   0.0000   0.3621
   7.900   1.9991   0.02293   0.01638  -0.2552  0.3384  1.0000  -2.7635   0.0000   0.0000   0.0000   0.3611
   8.000   2.0069   0.02307   0.01654  -0.2546  0.3374  1.0000  -2.7955   0.0000   0.0000   0.0000   0.3601
   8.100   2.0145   0.02321   0.01670  -0.2539  0.3364  1.0000  -2.8273   0.0000   0.0000   0.0000   0.3591
   8.200   2.0220   0.02334   0.01685  -0.2532  0.3352  1.0000  -2.8590   0.0000   0.0000   0.0000   0.3580
   8.300   2.0292   0.02348   0.01700  -0.2525  0.3340  1.0000  -2.8906   0.0000   0.0000   0.0000   0.3570
   8.400   2.0363   0.02361   0.01714  -0.2517  0.3328  1.0000  -2.9220   0.0000   0.0000   0.0000   0.3560
   8.500   2.0432   0.02375   0.01729  -0.2509  0.3315  1.0000  -2.9533   0.0000   0.0000   0.0000   0.3550
   8.600   2.0500   0.02389   0.01744  -0.2501  0.3302  1.0000  -2.9845   0.0000   0.0000   0.0000   0.3540
   8.700   2.0569   0.02404   0.01760  -0.2493  0.3289  1.0000  -3.0160   0.0000   0.0000   0.0000   0.3530
   8.800   2.0639   0.02421   0.01777  -0.2485  0.3276  1.0000  -3.0476   0.0000   0.0000   0.0000   0.3520
   8.900   2.0708   0.02439   0.01795  -0.2477  0.3262  1.0000  -3.0793   0.0000   0.0000   0.0000   0.3510
   9.000   2.0776   0.02459   0.01815  -0.2469  0.3247  1.0000  -3.1108   0.0000   0.0000   0.0000   0.3500
   9.100   2.0844   0.02481   0.01836  -0.2461  0.3229  1.0000  -3.1424   0.0000   0.0000   0.0000   0.3490
   9.200   2.0921   0.02506   0.01861  -0.2456  0.3206  1.0000  -3.1755   0.0000   0.0000   0.0000   0.3481
   9.300   2.1019   0.02539   0.01891  -0.2454  0.3176  1.0000  -3.2123   0.0000   0.0000   0.0000   0.3473
   9.400   2.1123   0.02571   0.01924  -0.2454  0.3148  1.0000  -3.2501   0.0000   0.0000   0.0000   0.3465
   9.500   2.1168   0.02582   0.01938  -0.2442  0.3142  1.0000  -3.2786   0.0000   0.0000   0.0000   0.3455
   9.600   2.1216   0.02594   0.01954  -0.2430  0.3135  1.0000  -3.3073   0.0000   0.0000   0.0000   0.3444
   9.700   2.1266   0.02607   0.01971  -0.2419  0.3126  1.0000  -3.3367   0.0000   0.0000   0.0000   0.3434
   9.800   2.1320   0.02621   0.01989  -0.2408  0.3117  1.0000  -3.3667   0.0000   0.0000   0.0000   0.3424
   9.900   2.1376   0.02636   0.02016  -0.2398  0.3105  1.0000  -3.3972   0.0000   0.0000   0.0000   0.3414
  10.000   2.1436   0.02652   0.02036  -0.2389  0.3093  1.0000  -3.4282   0.0000   0.0000   0.0000   0.3405
  10.100   2.1495   0.02670   0.02057  -0.2380  0.3081  1.0000  -3.4594   0.0000   0.0000   0.0000   0.3395
  10.200   2.1555   0.02688   0.02079  -0.2371  0.3068  1.0000  -3.4906   0.0000   0.0000   0.0000   0.3386
  10.300   2.1614   0.02708   0.02102  -0.2361  0.3055  1.0000  -3.5218   0.0000   0.0000   0.0000   0.3376
  10.400   2.1673   0.02727   0.02125  -0.2352  0.3042  1.0000  -3.5532   0.0000   0.0000   0.0000   0.3367
  10.500   2.1732   0.02747   0.02148  -0.2344  0.3029  1.0000  -3.5845   0.0000   0.0000   0.0000   0.3358
  10.600   2.1790   0.02768   0.02171  -0.2335  0.3015  1.0000  -3.6159   0.0000   0.0000   0.0000   0.3349
  10.700   2.1848   0.02789   0.02195  -0.2326  0.3001  1.0000  -3.6473   0.0000   0.0000   0.0000   0.3339
  10.800   2.1905   0.02811   0.02219  -0.2316  0.2986  1.0000  -3.6785   0.0000   0.0000   0.0000   0.3330
  10.900   2.1959   0.02834   0.02244  -0.2307  0.2970  1.0000  -3.7093   0.0000   0.0000   0.0000   0.3321
  11.000   2.2008   0.02861   0.02272  -0.2297  0.2955  1.0000  -3.7394   0.0000   0.0000   0.0000   0.3312
  11.100   2.2054   0.02889   0.02302  -0.2286  0.2938  1.0000  -3.7696   0.0000   0.0000   0.0000   0.3303
  11.200   2.2098   0.02921   0.02334  -0.2275  0.2921  1.0000  -3.8026   0.0000   0.0000   0.0000   0.3293
  11.300   2.2139   0.02955   0.02369  -0.2264  0.2902  1.0000  -3.8353   0.0000   0.0000   0.0000   0.3284
  11.400   2.2181   0.02992   0.02407  -0.2253  0.2881  1.0000  -3.8680   0.0000   0.0000   0.0000   0.3275
  11.500   2.2228   0.03033   0.02447  -0.2244  0.2856  1.0000  -3.9019   0.0000   0.0000   0.0000   0.3266
  11.600   2.2285   0.03069   0.02485  -0.2236  0.2834  1.0000  -3.9378   0.0000   0.0000   0.0000   0.3258
  11.700   2.2339   0.03093   0.02515  -0.2227  0.2826  1.0000  -3.9733   0.0000   0.0000   0.0000   0.3249
  11.800   2.2391   0.03119   0.02546  -0.2218  0.2817  1.0000  -4.0086   0.0000   0.0000   0.0000   0.3240
  11.900   2.2443   0.03146   0.02579  -0.2209  0.2805  1.0000  -4.0441   0.0000   0.0000   0.0000   0.3232
  12.000   2.2496   0.03173   0.02611  -0.2200  0.2791  1.0000  -4.0798   0.0000   0.0000   0.0000   0.3223
  12.100   2.2549   0.03201   0.02643  -0.2192  0.2775  1.0000  -4.1157   0.0000   0.0000   0.0000   0.3215
  12.200   2.2602   0.03229   0.02676  -0.2183  0.2757  1.0000  -4.1516   0.0000   0.0000   0.0000   0.3207
  12.300   2.2652   0.03260   0.02711  -0.2174  0.2736  1.0000  -4.1869   0.0000   0.0000   0.0000   0.3198
  12.400   2.2697   0.03293   0.02747  -0.2165  0.2714  1.0000  -4.2214   0.0000   0.0000   0.0000   0.3190
  12.500   2.2733   0.03332   0.02787  -0.2154  0.2688  1.0000  -4.2538   0.0000   0.0000   0.0000   0.3181
  12.600   2.2758   0.03377   0.02832  -0.2142  0.2658  1.0000  -4.2842   0.0000   0.0000   0.0000   0.3172
  12.700   2.2773   0.03429   0.02883  -0.2129  0.2624  1.0000  -4.3124   0.0000   0.0000   0.0000   0.3164
  12.800   2.2746   0.03508   0.02962  -0.2111  0.2566  1.0000  -4.3315   0.0000   0.0000   0.0000   0.3154
  12.900   2.2761   0.03565   0.03020  -0.2098  0.2517  1.0000  -4.3598   0.0000   0.0000   0.0000   0.3146
  13.000   2.2794   0.03611   0.03068  -0.2089  0.2466  1.0000  -4.3922   0.0000   0.0000   0.0000   0.3138
  13.100   2.2803   0.03676   0.03132  -0.2076  0.2405  1.0000  -4.4190   0.0000   0.0000   0.0000   0.3129
  13.200   2.2788   0.03761   0.03213  -0.2061  0.2342  1.0000  -4.4405   0.0000   0.0000   0.0000   0.3121
  13.300   2.2751   0.03867   0.03314  -0.2044  0.2281  1.0000  -4.4567   0.0000   0.0000   0.0000   0.3112
  13.400   2.2747   0.03951   0.03399  -0.2031  0.2227  1.0000  -4.4800   0.0000   0.0000   0.0000   0.3104
  13.500   2.2750   0.04031   0.03480  -0.2019  0.2163  1.0000  -4.5052   0.0000   0.0000   0.0000   0.3097
  13.600   2.2725   0.04136   0.03582  -0.2005  0.2094  1.0000  -4.5240   0.0000   0.0000   0.0000   0.3089
  13.700   2.2672   0.04268   0.03710  -0.1989  0.2032  1.0000  -4.5357   0.0000   0.0000   0.0000   0.3081
  13.800   2.2625   0.04398   0.03838  -0.1974  0.1975  1.0000  -4.5488   0.0000   0.0000   0.0000   0.3074
  13.900   2.2612   0.04501   0.03942  -0.1962  0.1919  1.0000  -4.5697   0.0000   0.0000   0.0000   0.3067
  14.000   2.2575   0.04628   0.04069  -0.1949  0.1864  1.0000  -4.5848   0.0000   0.0000   0.0000   0.3060
  14.100   2.2518   0.04776   0.04216  -0.1935  0.1813  1.0000  -4.5949   0.0000   0.0000   0.0000   0.3053
  14.200   2.2453   0.04933   0.04371  -0.1922  0.1765  1.0000  -4.6030   0.0000   0.0000   0.0000   0.3047
  14.300   2.2396   0.05089   0.04528  -0.1909  0.1722  1.0000  -4.6125   0.0000   0.0000   0.0000   0.3041
  14.400   2.2373   0.05213   0.04655  -0.1900  0.1684  1.0000  -4.6302   0.0000   0.0000   0.0000   0.3035
  14.500   2.2340   0.05350   0.04794  -0.1891  0.1644  1.0000  -4.6453   0.0000   0.0000   0.0000   0.3029
  14.600   2.2286   0.05515   0.04961  -0.1881  0.1607  1.0000  -4.6552   0.0000   0.0000   0.0000   0.3024
  14.700   2.2225   0.05693   0.05141  -0.1872  0.1573  1.0000  -4.6628   0.0000   0.0000   0.0000   0.3020
  14.800   2.2156   0.05884   0.05333  -0.1863  0.1539  1.0000  -4.6684   0.0000   0.0000   0.0000   0.3016
  14.900   2.2080   0.06091   0.05542  -0.1856  0.1509  1.0000  -4.6715   0.0000   0.0000   0.0000   0.3012
  15.000   2.2031   0.06268   0.05722  -0.1850  0.1481  1.0000  -4.6814   0.0000   0.0000   0.0000   0.3009
  15.100   2.1998   0.06429   0.05889  -0.1845  0.1459  1.0000  -4.6951   0.0000   0.0000   0.0000   0.3005
  15.200   2.1956   0.06605   0.06068  -0.1840  0.1436  1.0000  -4.7064   0.0000   0.0000   0.0000   0.3002
  15.300   2.1910   0.06787   0.06254  -0.1836  0.1410  1.0000  -4.7164   0.0000   0.0000   0.0000   0.2999
  15.400   2.1842   0.07004   0.06476  -0.1833  0.1387  1.0000  -4.7204   0.0000   0.0000   0.0000   0.2997
  15.500   2.1771   0.07228   0.06704  -0.1831  0.1363  1.0000  -4.7232   0.0000   0.0000   0.0000   0.2996
  15.600   2.1688   0.07474   0.06954  -0.1829  0.1341  1.0000  -4.7224   0.0000   0.0000   0.0000   0.2995
  15.700   2.1594   0.07739   0.07223  -0.1828  0.1320  1.0000  -4.7181   0.0000   0.0000   0.0000   0.2996
  15.800   2.1501   0.08007   0.07494  -0.1829  0.1299  1.0000  -4.7135   0.0000   0.0000   0.0000   0.2997
  15.900   2.1398   0.08293   0.07785  -0.1830  0.1278  1.0000  -4.7059   0.0000   0.0000   0.0000   0.2998
  16.000   2.1318   0.08546   0.08042  -0.1831  0.1258  1.0000  -4.7040   0.0000   0.0000   0.0000   0.2999
  16.100   2.1253   0.08778   0.08281  -0.1833  0.1244  1.0000  -4.7063   0.0000   0.0000   0.0000   0.3000
  16.200   2.1194   0.09001   0.08509  -0.1835  0.1229  1.0000  -4.7100   0.0000   0.0000   0.0000   0.3000
  16.300   2.1133   0.09224   0.08737  -0.1837  0.1211  1.0000  -4.7130   0.0000   0.0000   0.0000   0.3001
  16.400   2.1046   0.09494   0.09012  -0.1841  0.1195  1.0000  -4.7078   0.0000   0.0000   0.0000   0.3003
  16.500   2.0968   0.09746   0.09268  -0.1845  0.1178  1.0000  -4.7052   0.0000   0.0000   0.0000   0.3005
  16.600   2.0887   0.10000   0.09527  -0.1848  0.1160  1.0000  -4.7013   0.0000   0.0000   0.0000   0.3008
  16.700   2.0779   0.10303   0.09835  -0.1855  0.1145  1.0000  -4.6889   0.0000   0.0000   0.0000   0.3012
  16.800   2.0684   0.10580   0.10116  -0.1860  0.1128  1.0000  -4.6801   0.0000   0.0000   0.0000   0.3016
  16.900   2.0590   0.10854   0.10394  -0.1866  0.1111  1.0000  -4.6712   0.0000   0.0000   0.0000   0.3020
  17.000   2.0473   0.11173   0.10717  -0.1874  0.1097  1.0000  -4.6543   0.0000   0.0000   0.0000   0.3027
  17.100   2.0373   0.11459   0.11006  -0.1882  0.1080  1.0000  -4.6426   0.0000   0.0000   0.0000   0.3032


