xflr5 v6.61

 Calculated polar for: S1221

 1 1 Reynolds number fixed          Mach number fixed         

 xtrf =   1.000 (top)        1.000 (bottom)
 Mach =   0.000     Re =     0.563 e 6     Ncrit =   9.000

  alpha     CL        CD       CDp       Cm    Top Xtr Bot Xtr   Cpmin    Chinge    XCp    
 ------- -------- --------- --------- -------- ------- ------- -------- --------- ---------
 -10.000  -0.3080   0.12799   0.12570  -0.0170  1.0000  0.0177  -1.5052   0.0000   0.0000   0.0000   0.1832
  -9.900  -0.3057   0.12673   0.12445  -0.0173  1.0000  0.0177  -1.5106   0.0000   0.0000   0.0000   0.1817
  -9.800  -0.3033   0.12548   0.12320  -0.0176  1.0000  0.0177  -1.5161   0.0000   0.0000   0.0000   0.1802
  -9.700  -0.3010   0.12422   0.12195  -0.0180  1.0000  0.0177  -1.5218   0.0000   0.0000   0.0000   0.1787
  -9.600  -0.2987   0.12297   0.12071  -0.0183  1.0000  0.0177  -1.5276   0.0000   0.0000   0.0000   0.1772
  -9.500  -0.2965   0.12172   0.11946  -0.0186  1.0000  0.0177  -1.5336   0.0000   0.0000   0.0000   0.1757
  -9.400  -0.2942   0.12047   0.11822  -0.0189  1.0000  0.0177  -1.5398   0.0000   0.0000   0.0000   0.1742
  -9.300  -0.2920   0.11922   0.11697  -0.0192  1.0000  0.0177  -1.5461   0.0000   0.0000   0.0000   0.1727
  -9.200  -0.2899   0.11797   0.11573  -0.0195  1.0000  0.0177  -1.5527   0.0000   0.0000   0.0000   0.1712
  -9.100  -0.2878   0.11672   0.11450  -0.0198  1.0000  0.0177  -1.5594   0.0000   0.0000   0.0000   0.1697
  -9.000  -0.2857   0.11548   0.11326  -0.0201  1.0000  0.0177  -1.5664   0.0000   0.0000   0.0000   0.1682
  -8.900  -0.2837   0.11424   0.11203  -0.0204  1.0000  0.0177  -1.5735   0.0000   0.0000   0.0000   0.1667
  -8.800  -0.2817   0.11300   0.11080  -0.0207  1.0000  0.0177  -1.5809   0.0000   0.0000   0.0000   0.1652
  -8.700  -0.2956   0.10724   0.10507  -0.0221  1.0000  0.0185  -1.8415   0.0000   0.0000   0.0000   0.1642
  -8.600  -0.2952   0.10576   0.10359  -0.0223  1.0000  0.0187  -1.8543   0.0000   0.0000   0.0000   0.1635
  -8.500  -0.2940   0.10449   0.10233  -0.0225  1.0000  0.0189  -1.8556   0.0000   0.0000   0.0000   0.1627
  -8.400  -0.2926   0.10331   0.10116  -0.0226  1.0000  0.0190  -1.8526   0.0000   0.0000   0.0000   0.1619
  -8.300  -0.2909   0.10218   0.10004  -0.0227  1.0000  0.0192  -1.8468   0.0000   0.0000   0.0000   0.1611
  -8.200  -0.2887   0.10119   0.09906  -0.0227  1.0000  0.0193  -1.8304   0.0000   0.0000   0.0000   0.1606
  -8.100  -0.2864   0.10021   0.09810  -0.0227  1.0000  0.0194  -1.8146   0.0000   0.0000   0.0000   0.1601
  -8.000  -0.2843   0.09924   0.09714  -0.0227  1.0000  0.0195  -1.7996   0.0000   0.0000   0.0000   0.1596
  -7.900  -0.2824   0.09825   0.09616  -0.0227  1.0000  0.0196  -1.7890   0.0000   0.0000   0.0000   0.1591
  -7.800  -0.2807   0.09725   0.09517  -0.0227  1.0000  0.0197  -1.7808   0.0000   0.0000   0.0000   0.1586
  -7.700  -0.2792   0.09625   0.09418  -0.0228  1.0000  0.0199  -1.7733   0.0000   0.0000   0.0000   0.1583
  -7.600  -0.2778   0.09527   0.09321  -0.0227  1.0000  0.0200  -1.7667   0.0000   0.0000   0.0000   0.1581
  -7.500  -0.2766   0.09431   0.09227  -0.0227  1.0000  0.0201  -1.7601   0.0000   0.0000   0.0000   0.1580
  -7.400  -0.2756   0.09336   0.09134  -0.0226  1.0000  0.0202  -1.7543   0.0000   0.0000   0.0000   0.1582
  -7.300  -0.2749   0.09244   0.09043  -0.0224  1.0000  0.0203  -1.7498   0.0000   0.0000   0.0000   0.1588
  -7.200  -0.2718   0.09132   0.08932  -0.0229  0.9998  0.0204  -1.7421   0.0000   0.0000   0.0000   0.1559
  -7.100  -0.2643   0.08984   0.08784  -0.0247  0.9990  0.0206  -1.7289   0.0000   0.0000   0.0000   0.1466
  -7.000  -0.2566   0.08835   0.08635  -0.0266  0.9983  0.0208  -1.7170   0.0000   0.0000   0.0000   0.1364
  -6.900  -0.2490   0.08682   0.08482  -0.0285  0.9974  0.0209  -1.7066   0.0000   0.0000   0.0000   0.1254
  -6.800  -0.2411   0.08526   0.08326  -0.0305  0.9964  0.0212  -1.6973   0.0000   0.0000   0.0000   0.1132
  -6.700  -0.2331   0.08368   0.08169  -0.0325  0.9953  0.0214  -1.6893   0.0000   0.0000   0.0000   0.0998
  -6.600  -0.2251   0.08208   0.08009  -0.0347  0.9943  0.0216  -1.6831   0.0000   0.0000   0.0000   0.0851
  -6.500  -0.2174   0.08049   0.07850  -0.0367  0.9932  0.0218  -1.6789   0.0000   0.0000   0.0000   0.0698
  -6.400  -0.2109   0.07892   0.07694  -0.0385  0.9913  0.0221  -1.6772   0.0000   0.0000   0.0000   0.0558
  -6.300  -0.2040   0.07732   0.07534  -0.0405  0.9893  0.0223  -1.6771   0.0000   0.0000   0.0000   0.0397
  -6.200  -0.1966   0.07565   0.07365  -0.0427  0.9872  0.0226  -1.6785   0.0000   0.0000   0.0000   0.0206
  -6.100  -0.1929   0.07421   0.07222  -0.0439  0.9834  0.0228  -1.6842   0.0000   0.0000   0.0000   0.0105
  -6.000  -0.1890   0.07275   0.07076  -0.0452  0.9784  0.0230  -1.6912   0.0000   0.0000   0.0000  -0.0011
  -5.900  -0.1887   0.07153   0.06956  -0.0454  0.9710  0.0232  -1.7017   0.0000   0.0000   0.0000  -0.0027
  -5.800  -0.1855   0.07006   0.06810  -0.0466  0.9643  0.0235  -1.7123   0.0000   0.0000   0.0000  -0.0131
  -5.700  -0.1826   0.06853   0.06658  -0.0478  0.9566  0.0237  -1.7244   0.0000   0.0000   0.0000  -0.0236
  -5.600  -0.1738   0.06640   0.06445  -0.0508  0.9512  0.0241  -1.7367   0.0000   0.0000   0.0000  -0.0544
  -5.500  -0.1641   0.06410   0.06215  -0.0542  0.9463  0.0245  -1.7531   0.0000   0.0000   0.0000  -0.0934
  -5.400  -0.1585   0.06215   0.06020  -0.0566  0.9409  0.0248  -1.7741   0.0000   0.0000   0.0000  -0.1202
  -5.300  -0.1515   0.05994   0.05799  -0.0596  0.9339  0.0252  -1.8004   0.0000   0.0000   0.0000  -0.1570
  -5.200  -0.1414   0.05718   0.05523  -0.0640  0.9244  0.0257  -1.8363   0.0000   0.0000   0.0000  -0.2166
  -5.100  -0.1238   0.05298   0.05099  -0.0718  0.9106  0.0264  -1.9015   0.0000   0.0000   0.0000  -0.3471
  -5.000  -0.0818   0.03858   0.03633  -0.1030  0.8990  0.0275  -2.2366   0.0000   0.0000   0.0000  -1.0339
  -4.900   0.0686   0.03263   0.02927  -0.1424  0.7934  0.0302  -2.0192   0.0000   0.0000   0.0000   2.3577
  -4.800   0.0912   0.02404   0.02005  -0.1547  0.7734  0.0326  -2.2155   0.0000   0.0000   0.0000   1.9702
  -4.700   0.1030   0.02326   0.01905  -0.1557  0.7394  0.0334  -2.1644   0.0000   0.0000   0.0000   1.7819
  -4.600   0.1138   0.02266   0.01834  -0.1562  0.7167  0.0340  -2.1109   0.0000   0.0000   0.0000   1.6410
  -4.500   0.1250   0.02213   0.01773  -0.1566  0.7012  0.0347  -2.0535   0.0000   0.0000   0.0000   1.5194
  -4.400   0.1358   0.02166   0.01717  -0.1570  0.6834  0.0354  -1.9990   0.0000   0.0000   0.0000   1.4201
  -4.300   0.1459   0.02127   0.01662  -0.1571  0.6615  0.0362  -1.9489   0.0000   0.0000   0.0000   1.3402
  -4.100   0.1692   0.02037   0.01549  -0.1580  0.6285  0.0382  -1.8477   0.0000   0.0000   0.0000   1.1946
  -4.000   0.1804   0.02003   0.01498  -0.1583  0.6126  0.0393  -1.8008   0.0000   0.0000   0.0000   1.1367
  -3.900   0.1917   0.01974   0.01455  -0.1585  0.5981  0.0407  -1.7546   0.0000   0.0000   0.0000   1.0851
  -3.800   0.2034   0.01954   0.01422  -0.1586  0.5836  0.0421  -1.7065   0.0000   0.0000   0.0000   1.0376
  -3.700   0.2141   0.01958   0.01413  -0.1584  0.5684  0.0434  -1.6560   0.0000   0.0000   0.0000   0.9968
  -3.600   0.2317   0.01816   0.01240  -0.1609  0.5575  0.0486  -1.6244   0.0000   0.0000   0.0000   0.9506
  -3.500   0.2443   0.01743   0.01161  -0.1616  0.5464  0.0505  -1.5717   0.0000   0.0000   0.0000   0.9173
  -3.400   0.2559   0.01707   0.01118  -0.1619  0.5349  0.0520  -1.5168   0.0000   0.0000   0.0000   0.8879
  -3.300   0.2678   0.01676   0.01083  -0.1622  0.5255  0.0538  -1.4627   0.0000   0.0000   0.0000   0.8602
  -3.200   0.2893   0.01454   0.00812  -0.1622  0.5199  0.0268  -1.7067   0.0000   0.0000   0.0000   0.8151
  -3.100   0.3072   0.01311   0.00642  -0.1631  0.5128  0.0202  -1.8270   0.0000   0.0000   0.0000   0.7850
  -3.000   0.3191   0.01304   0.00628  -0.1631  0.5048  0.0194  -1.7774   0.0000   0.0000   0.0000   0.7647
  -2.900   0.3307   0.01303   0.00621  -0.1630  0.4962  0.0188  -1.7186   0.0000   0.0000   0.0000   0.7463
  -2.800   0.3423   0.01303   0.00615  -0.1630  0.4891  0.0184  -1.6599   0.0000   0.0000   0.0000   0.7291
  -2.700   0.3542   0.01300   0.00610  -0.1630  0.4847  0.0181  -1.5960   0.0000   0.0000   0.0000   0.7128
  -2.600   0.3685   0.01258   0.00562  -0.1636  0.4796  0.0175  -1.5642   0.0000   0.0000   0.0000   0.6964
  -2.500   0.3844   0.01204   0.00500  -0.1647  0.4740  0.0172  -1.5418   0.0000   0.0000   0.0000   0.6806
  -2.400   0.3991   0.01174   0.00460  -0.1655  0.4682  0.0169  -1.5032   0.0000   0.0000   0.0000   0.6665
  -2.300   0.4132   0.01152   0.00428  -0.1661  0.4618  0.0168  -1.4599   0.0000   0.0000   0.0000   0.6535
  -2.100   0.4409   0.01117   0.00379  -0.1671  0.4511  0.0165  -1.3653   0.0000   0.0000   0.0000   0.6302
  -2.000   0.4546   0.01102   0.00358  -0.1676  0.4483  0.0165  -1.3153   0.0000   0.0000   0.0000   0.6196
  -1.900   0.4679   0.01090   0.00340  -0.1679  0.4450  0.0165  -1.2644   0.0000   0.0000   0.0000   0.6096
  -1.800   0.4809   0.01081   0.00325  -0.1682  0.4413  0.0165  -1.2131   0.0000   0.0000   0.0000   0.6003
  -1.700   0.4936   0.01075   0.00311  -0.1684  0.4373  0.0166  -1.1616   0.0000   0.0000   0.0000   0.5916
  -1.600   0.5061   0.01070   0.00300  -0.1686  0.4332  0.0168  -1.1102   0.0000   0.0000   0.0000   0.5833
  -1.500   0.5183   0.01068   0.00290  -0.1687  0.4289  0.0171  -1.0594   0.0000   0.0000   0.0000   0.5755
  -1.400   0.5304   0.01068   0.00283  -0.1688  0.4239  0.0175  -1.0093   0.0000   0.0000   0.0000   0.5681
  -1.300   0.5429   0.01066   0.00273  -0.1689  0.4184  0.0217  -0.9850   0.0000   0.0000   0.0000   0.5608
  -1.200   0.5645   0.00986   0.00255  -0.1719  0.4147  0.2176  -0.9697   0.0000   0.0000   0.0000   0.5540
  -1.100   0.5769   0.00981   0.00262  -0.1721  0.4131  0.2540  -0.9825   0.0000   0.0000   0.0000   0.5477
  -1.000   0.5891   0.00979   0.00268  -0.1723  0.4111  0.2736  -0.9952   0.0000   0.0000   0.0000   0.5416
  -0.900   0.6007   0.00981   0.00272  -0.1723  0.4088  0.2814  -1.0075   0.0000   0.0000   0.0000   0.5358
  -0.800   0.6121   0.00985   0.00274  -0.1722  0.4061  0.2857  -1.0197   0.0000   0.0000   0.0000   0.5302
  -0.700   0.6234   0.00990   0.00275  -0.1721  0.4032  0.2880  -1.0319   0.0000   0.0000   0.0000   0.5248
  -0.600   0.6352   0.00991   0.00270  -0.1721  0.4001  0.2867  -1.0444   0.0000   0.0000   0.0000   0.5196
  -0.500   0.6465   0.00997   0.00272  -0.1720  0.3969  0.2886  -1.0566   0.0000   0.0000   0.0000   0.5146
  -0.400   0.6578   0.01002   0.00274  -0.1720  0.3935  0.2910  -1.0688   0.0000   0.0000   0.0000   0.5098
  -0.300   0.6695   0.01005   0.00275  -0.1720  0.3898  0.2962  -1.0812   0.0000   0.0000   0.0000   0.5052
  -0.200   0.6810   0.01010   0.00279  -0.1720  0.3857  0.3010  -1.0933   0.0000   0.0000   0.0000   0.5007
  -0.100   0.6923   0.01018   0.00285  -0.1720  0.3814  0.3051  -1.1052   0.0000   0.0000   0.0000   0.4964
   0.000   0.7039   0.01022   0.00289  -0.1720  0.3789  0.3086  -1.1174   0.0000   0.0000   0.0000   0.4922
   0.100   0.7155   0.01024   0.00293  -0.1720  0.3781  0.3140  -1.1300   0.0000   0.0000   0.0000   0.4881
   0.200   0.7269   0.01027   0.00298  -0.1719  0.3770  0.3208  -1.1424   0.0000   0.0000   0.0000   0.4841
   0.300   0.7379   0.01034   0.00305  -0.1717  0.3758  0.3256  -1.1547   0.0000   0.0000   0.0000   0.4802
   0.400   0.7493   0.01038   0.00309  -0.1717  0.3744  0.3314  -1.1672   0.0000   0.0000   0.0000   0.4765
   0.500   0.7613   0.01036   0.00311  -0.1718  0.3729  0.3410  -1.1800   0.0000   0.0000   0.0000   0.4729
   0.600   0.7730   0.01038   0.00315  -0.1718  0.3713  0.3460  -1.1926   0.0000   0.0000   0.0000   0.4694
   0.700   0.7846   0.01041   0.00318  -0.1718  0.3695  0.3484  -1.2052   0.0000   0.0000   0.0000   0.4660
   0.800   0.7962   0.01043   0.00320  -0.1718  0.3677  0.3505  -1.2186   0.0000   0.0000   0.0000   0.4627
   0.900   0.8078   0.01046   0.00322  -0.1718  0.3658  0.3526  -1.2325   0.0000   0.0000   0.0000   0.4595
   1.000   0.8193   0.01050   0.00324  -0.1718  0.3639  0.3547  -1.2464   0.0000   0.0000   0.0000   0.4563
   1.100   0.8307   0.01054   0.00327  -0.1718  0.3621  0.3568  -1.2604   0.0000   0.0000   0.0000   0.4533
   1.200   0.8422   0.01058   0.00329  -0.1717  0.3601  0.3589  -1.2743   0.0000   0.0000   0.0000   0.4504
   1.300   0.8535   0.01064   0.00332  -0.1717  0.3581  0.3608  -1.2881   0.0000   0.0000   0.0000   0.4475
   1.400   0.8648   0.01070   0.00336  -0.1717  0.3559  0.3627  -1.3019   0.0000   0.0000   0.0000   0.4447
   1.500   0.8761   0.01077   0.00341  -0.1716  0.3535  0.3643  -1.3157   0.0000   0.0000   0.0000   0.4419
   1.600   0.8872   0.01085   0.00347  -0.1715  0.3508  0.3657  -1.3293   0.0000   0.0000   0.0000   0.4393
   1.700   0.8983   0.01096   0.00355  -0.1714  0.3478  0.3668  -1.3427   0.0000   0.0000   0.0000   0.4367
   1.800   0.9098   0.01105   0.00366  -0.1714  0.3448  0.3714  -1.3562   0.0000   0.0000   0.0000   0.4342
   1.900   0.9216   0.01106   0.00369  -0.1715  0.3439  0.3774  -1.3706   0.0000   0.0000   0.0000   0.4317
   2.000   0.9335   0.01106   0.00372  -0.1716  0.3434  0.3826  -1.3851   0.0000   0.0000   0.0000   0.4293
   2.100   0.9452   0.01107   0.00375  -0.1716  0.3428  0.3873  -1.3997   0.0000   0.0000   0.0000   0.4270
   2.200   0.9569   0.01109   0.00379  -0.1717  0.3421  0.3918  -1.4141   0.0000   0.0000   0.0000   0.4247
   2.300   0.9685   0.01111   0.00383  -0.1717  0.3414  0.3962  -1.4285   0.0000   0.0000   0.0000   0.4224
   2.400   0.9800   0.01114   0.00387  -0.1717  0.3407  0.4004  -1.4428   0.0000   0.0000   0.0000   0.4202
   2.500   0.9915   0.01117   0.00391  -0.1717  0.3399  0.4041  -1.4572   0.0000   0.0000   0.0000   0.4180
   2.600   1.0029   0.01121   0.00395  -0.1716  0.3390  0.4071  -1.4714   0.0000   0.0000   0.0000   0.4159
   2.700   1.0145   0.01124   0.00399  -0.1717  0.3381  0.4126  -1.4859   0.0000   0.0000   0.0000   0.4139
   2.800   1.0263   0.01126   0.00404  -0.1717  0.3372  0.4218  -1.5005   0.0000   0.0000   0.0000   0.4119
   2.900   1.0380   0.01129   0.00410  -0.1718  0.3362  0.4296  -1.5151   0.0000   0.0000   0.0000   0.4099
   3.000   1.0496   0.01132   0.00416  -0.1718  0.3351  0.4368  -1.5296   0.0000   0.0000   0.0000   0.4080
   3.100   1.0611   0.01136   0.00421  -0.1718  0.3341  0.4435  -1.5441   0.0000   0.0000   0.0000   0.4061
   3.200   1.0724   0.01141   0.00426  -0.1718  0.3330  0.4491  -1.5585   0.0000   0.0000   0.0000   0.4043
   3.300   1.0840   0.01145   0.00432  -0.1718  0.3320  0.4578  -1.5731   0.0000   0.0000   0.0000   0.4025
   3.400   1.0957   0.01148   0.00439  -0.1719  0.3308  0.4691  -1.5878   0.0000   0.0000   0.0000   0.4007
   3.500   1.1073   0.01152   0.00445  -0.1719  0.3297  0.4792  -1.6025   0.0000   0.0000   0.0000   0.3990
   3.600   1.1187   0.01156   0.00451  -0.1719  0.3285  0.4885  -1.6171   0.0000   0.0000   0.0000   0.3973
   3.800   1.1417   0.01166   0.00465  -0.1720  0.3261  0.5112  -1.6464   0.0000   0.0000   0.0000   0.3940
   3.900   1.1532   0.01171   0.00473  -0.1720  0.3248  0.5242  -1.6610   0.0000   0.0000   0.0000   0.3924
   4.000   1.1646   0.01177   0.00480  -0.1720  0.3235  0.5359  -1.6762   0.0000   0.0000   0.0000   0.3908
   4.100   1.1761   0.01183   0.00489  -0.1721  0.3221  0.5515  -1.6924   0.0000   0.0000   0.0000   0.3892
   4.200   1.1877   0.01189   0.00500  -0.1721  0.3206  0.5690  -1.7087   0.0000   0.0000   0.0000   0.3877
   4.400   1.2108   0.01204   0.00528  -0.1723  0.3171  0.6084  -1.7410   0.0000   0.0000   0.0000   0.3848
   4.600   1.2337   0.01226   0.00565  -0.1724  0.3128  0.6662  -1.7727   0.0000   0.0000   0.0000   0.3820
   4.700   1.2446   0.01241   0.00589  -0.1723  0.3106  0.7074  -1.7879   0.0000   0.0000   0.0000   0.3806
   4.800   1.2555   0.01240   0.00597  -0.1722  0.3102  0.7414  -1.8049   0.0000   0.0000   0.0000   0.3791
   4.900   1.2658   0.01238   0.00603  -0.1719  0.3099  0.7764  -1.8223   0.0000   0.0000   0.0000   0.3777
   5.000   1.2767   0.01241   0.00610  -0.1717  0.3095  0.7951  -1.8401   0.0000   0.0000   0.0000   0.3762
   5.100   1.2872   0.01244   0.00616  -0.1715  0.3091  0.8140  -1.8576   0.0000   0.0000   0.0000   0.3748
   5.200   1.2967   0.01244   0.00623  -0.1711  0.3087  0.8381  -1.8742   0.0000   0.0000   0.0000   0.3734
   5.300   1.3064   0.01246   0.00628  -0.1707  0.3082  0.8589  -1.8922   0.0000   0.0000   0.0000   0.3720
   5.500   1.3240   0.01245   0.00636  -0.1695  0.3070  0.9111  -1.9306   0.0000   0.0000   0.0000   0.3691
   5.600   1.3313   0.01243   0.00637  -0.1685  0.3063  0.9482  -1.9488   0.0000   0.0000   0.0000   0.3675
   5.700   1.3412   0.01245   0.00640  -0.1682  0.3055  1.0000  -1.9700   0.0000   0.0000   0.0000   0.3662
   5.800   1.3525   0.01250   0.00646  -0.1682  0.3046  1.0000  -1.9928   0.0000   0.0000   0.0000   0.3650
   5.900   1.3637   0.01256   0.00653  -0.1682  0.3036  1.0000  -2.0156   0.0000   0.0000   0.0000   0.3638
   6.000   1.3749   0.01263   0.00659  -0.1681  0.3026  1.0000  -2.0384   0.0000   0.0000   0.0000   0.3626
   6.100   1.3860   0.01269   0.00665  -0.1681  0.3015  1.0000  -2.0613   0.0000   0.0000   0.0000   0.3615
   6.200   1.3972   0.01274   0.00671  -0.1681  0.3002  1.0000  -2.0843   0.0000   0.0000   0.0000   0.3604
   6.300   1.4083   0.01280   0.00676  -0.1680  0.2989  1.0000  -2.1074   0.0000   0.0000   0.0000   0.3592
   6.400   1.4194   0.01285   0.00682  -0.1680  0.2975  1.0000  -2.1324   0.0000   0.0000   0.0000   0.3581
   6.500   1.4304   0.01291   0.00688  -0.1679  0.2962  1.0000  -2.1581   0.0000   0.0000   0.0000   0.3570
   6.600   1.4414   0.01299   0.00694  -0.1679  0.2949  1.0000  -2.1838   0.0000   0.0000   0.0000   0.3559
   6.700   1.4523   0.01307   0.00702  -0.1678  0.2936  1.0000  -2.2096   0.0000   0.0000   0.0000   0.3549
   6.800   1.4631   0.01316   0.00720  -0.1677  0.2924  1.0000  -2.2366   0.0000   0.0000   0.0000   0.3538
   6.900   1.4739   0.01326   0.00730  -0.1676  0.2912  1.0000  -2.2654   0.0000   0.0000   0.0000   0.3527
   7.000   1.4847   0.01336   0.00740  -0.1676  0.2898  1.0000  -2.2943   0.0000   0.0000   0.0000   0.3517
   7.100   1.4953   0.01347   0.00751  -0.1674  0.2883  1.0000  -2.3269   0.0000   0.0000   0.0000   0.3507
   7.200   1.5059   0.01360   0.00763  -0.1673  0.2863  1.0000  -2.3677   0.0000   0.0000   0.0000   0.3497
   7.300   1.5164   0.01377   0.00779  -0.1672  0.2840  1.0000  -2.4115   0.0000   0.0000   0.0000   0.3486
   7.400   1.5267   0.01398   0.00799  -0.1671  0.2814  1.0000  -2.4551   0.0000   0.0000   0.0000   0.3477
   7.500   1.5370   0.01425   0.00826  -0.1669  0.2787  1.0000  -2.4985   0.0000   0.0000   0.0000   0.3467
   7.600   1.5478   0.01431   0.00834  -0.1669  0.2780  1.0000  -2.5441   0.0000   0.0000   0.0000   0.3457
   7.700   1.5588   0.01433   0.00839  -0.1668  0.2775  1.0000  -2.5903   0.0000   0.0000   0.0000   0.3447
   7.800   1.5697   0.01436   0.00843  -0.1667  0.2770  1.0000  -2.6367   0.0000   0.0000   0.0000   0.3438
   7.900   1.5806   0.01438   0.00848  -0.1666  0.2763  1.0000  -2.6834   0.0000   0.0000   0.0000   0.3428
   8.000   1.5915   0.01439   0.00851  -0.1666  0.2753  1.0000  -2.7304   0.0000   0.0000   0.0000   0.3419
   8.100   1.6024   0.01440   0.00854  -0.1665  0.2740  1.0000  -2.7778   0.0000   0.0000   0.0000   0.3410
   8.200   1.6133   0.01441   0.00857  -0.1664  0.2724  1.0000  -2.8254   0.0000   0.0000   0.0000   0.3401
   8.300   1.6241   0.01442   0.00860  -0.1663  0.2704  1.0000  -2.8732   0.0000   0.0000   0.0000   0.3392
   8.400   1.6349   0.01445   0.00863  -0.1663  0.2684  1.0000  -2.9212   0.0000   0.0000   0.0000   0.3383
   8.500   1.6456   0.01448   0.00868  -0.1662  0.2662  1.0000  -2.9692   0.0000   0.0000   0.0000   0.3374
   8.600   1.6562   0.01454   0.00873  -0.1661  0.2641  1.0000  -3.0171   0.0000   0.0000   0.0000   0.3365
   8.700   1.6666   0.01461   0.00880  -0.1659  0.2619  1.0000  -3.0650   0.0000   0.0000   0.0000   0.3356
   8.800   1.6769   0.01470   0.00888  -0.1658  0.2596  1.0000  -3.1128   0.0000   0.0000   0.0000   0.3347
   8.900   1.6871   0.01480   0.00897  -0.1656  0.2572  1.0000  -3.1605   0.0000   0.0000   0.0000   0.3339
   9.000   1.6971   0.01493   0.00914  -0.1654  0.2546  1.0000  -3.2073   0.0000   0.0000   0.0000   0.3330
   9.100   1.7069   0.01509   0.00929  -0.1652  0.2518  1.0000  -3.2543   0.0000   0.0000   0.0000   0.3321
   9.200   1.7165   0.01528   0.00948  -0.1649  0.2488  1.0000  -3.3010   0.0000   0.0000   0.0000   0.3313
   9.300   1.7268   0.01539   0.00960  -0.1648  0.2473  1.0000  -3.3498   0.0000   0.0000   0.0000   0.3304
   9.400   1.7375   0.01543   0.00968  -0.1647  0.2465  1.0000  -3.4000   0.0000   0.0000   0.0000   0.3296
   9.500   1.7482   0.01548   0.00977  -0.1646  0.2454  1.0000  -3.4537   0.0000   0.0000   0.0000   0.3288
   9.600   1.7587   0.01553   0.00986  -0.1645  0.2439  1.0000  -3.5125   0.0000   0.0000   0.0000   0.3280
   9.700   1.7692   0.01560   0.00995  -0.1644  0.2422  1.0000  -3.5714   0.0000   0.0000   0.0000   0.3272
   9.800   1.7796   0.01567   0.01005  -0.1642  0.2400  1.0000  -3.6303   0.0000   0.0000   0.0000   0.3264
   9.900   1.7898   0.01576   0.01015  -0.1641  0.2375  1.0000  -3.6891   0.0000   0.0000   0.0000   0.3256
  10.000   1.7999   0.01586   0.01025  -0.1639  0.2346  1.0000  -3.7479   0.0000   0.0000   0.0000   0.3248
  10.100   1.8097   0.01597   0.01035  -0.1637  0.2314  1.0000  -3.8064   0.0000   0.0000   0.0000   0.3240
  10.200   1.8193   0.01611   0.01048  -0.1634  0.2279  1.0000  -3.8644   0.0000   0.0000   0.0000   0.3232
  10.300   1.8285   0.01628   0.01063  -0.1631  0.2237  1.0000  -3.9217   0.0000   0.0000   0.0000   0.3224
  10.400   1.8375   0.01648   0.01081  -0.1628  0.2189  1.0000  -3.9783   0.0000   0.0000   0.0000   0.3216
  10.500   1.8477   0.01657   0.01094  -0.1626  0.2168  1.0000  -4.0390   0.0000   0.0000   0.0000   0.3208
  10.600   1.8576   0.01669   0.01107  -0.1624  0.2134  1.0000  -4.0991   0.0000   0.0000   0.0000   0.3200
  10.700   1.8671   0.01684   0.01122  -0.1622  0.2086  1.0000  -4.1584   0.0000   0.0000   0.0000   0.3193
  10.800   1.8759   0.01704   0.01138  -0.1619  0.2027  1.0000  -4.2162   0.0000   0.0000   0.0000   0.3185
  10.900   1.8840   0.01732   0.01161  -0.1614  0.1960  1.0000  -4.2721   0.0000   0.0000   0.0000   0.3177
  11.000   1.8927   0.01755   0.01183  -0.1611  0.1906  1.0000  -4.3295   0.0000   0.0000   0.0000   0.3169
  11.100   1.9018   0.01773   0.01202  -0.1608  0.1862  1.0000  -4.3887   0.0000   0.0000   0.0000   0.3162
  11.200   1.9102   0.01798   0.01225  -0.1604  0.1801  1.0000  -4.4460   0.0000   0.0000   0.0000   0.3154
  11.300   1.9176   0.01832   0.01254  -0.1598  0.1727  1.0000  -4.5006   0.0000   0.0000   0.0000   0.3146
  11.400   1.9249   0.01868   0.01286  -0.1593  0.1654  1.0000  -4.5548   0.0000   0.0000   0.0000   0.3138
  11.500   1.9328   0.01897   0.01319  -0.1588  0.1597  1.0000  -4.6105   0.0000   0.0000   0.0000   0.3130
  11.600   1.9398   0.01933   0.01352  -0.1582  0.1530  1.0000  -4.6694   0.0000   0.0000   0.0000   0.3122
  11.700   1.9458   0.01980   0.01393  -0.1575  0.1454  1.0000  -4.7619   0.0000   0.0000   0.0000   0.3114
  11.800   1.9529   0.02014   0.01427  -0.1569  0.1398  1.0000  -4.8612   0.0000   0.0000   0.0000   0.3106
  11.900   1.9599   0.02048   0.01460  -0.1563  0.1347  1.0000  -4.9604   0.0000   0.0000   0.0000   0.3099
  12.000   1.9657   0.02092   0.01501  -0.1556  0.1288  1.0000  -5.0538   0.0000   0.0000   0.0000   0.3091
  12.100   1.9707   0.02143   0.01547  -0.1547  0.1222  1.0000  -5.1432   0.0000   0.0000   0.0000   0.3082
  12.200   1.9771   0.02179   0.01584  -0.1540  0.1177  1.0000  -5.2411   0.0000   0.0000   0.0000   0.3074
  12.300   1.9833   0.02216   0.01622  -0.1533  0.1134  1.0000  -5.3387   0.0000   0.0000   0.0000   0.3066
  12.400   1.9881   0.02263   0.01667  -0.1524  0.1085  1.0000  -5.4291   0.0000   0.0000   0.0000   0.3058
  12.500   1.9918   0.02318   0.01718  -0.1514  0.1032  1.0000  -5.5134   0.0000   0.0000   0.0000   0.3049
  12.600   1.9962   0.02365   0.01765  -0.1504  0.0982  1.0000  -5.6022   0.0000   0.0000   0.0000   0.3041
  12.700   2.0013   0.02404   0.01805  -0.1495  0.0946  1.0000  -5.6964   0.0000   0.0000   0.0000   0.3033
  12.800   2.0045   0.02455   0.01855  -0.1484  0.0902  1.0000  -5.7799   0.0000   0.0000   0.0000   0.3024
  12.900   2.0051   0.02518   0.01915  -0.1469  0.0856  1.0000  -5.8489   0.0000   0.0000   0.0000   0.3014
  13.000   2.0043   0.02580   0.01975  -0.1451  0.0807  1.0000  -5.9101   0.0000   0.0000   0.0000   0.3004
  13.100   2.0064   0.02624   0.02021  -0.1437  0.0778  1.0000  -5.9882   0.0000   0.0000   0.0000   0.2994
  13.200   2.0072   0.02675   0.02073  -0.1422  0.0749  1.0000  -6.0595   0.0000   0.0000   0.0000   0.2985
  13.300   2.0067   0.02736   0.02134  -0.1406  0.0719  1.0000  -6.1232   0.0000   0.0000   0.0000   0.2975
  13.400   2.0049   0.02806   0.02203  -0.1388  0.0689  1.0000  -6.1791   0.0000   0.0000   0.0000   0.2965
  13.500   2.0029   0.02880   0.02277  -0.1371  0.0655  1.0000  -6.2338   0.0000   0.0000   0.0000   0.2955
  13.600   2.0022   0.02948   0.02346  -0.1355  0.0624  1.0000  -6.2957   0.0000   0.0000   0.0000   0.2945
  13.700   2.0037   0.03002   0.02404  -0.1343  0.0610  1.0000  -6.3725   0.0000   0.0000   0.0000   0.2937
  13.800   2.0040   0.03065   0.02470  -0.1330  0.0594  1.0000  -6.4417   0.0000   0.0000   0.0000   0.2928
  13.900   2.0033   0.03138   0.02545  -0.1317  0.0577  1.0000  -6.5046   0.0000   0.0000   0.0000   0.2920
  14.000   2.0006   0.03222   0.02632  -0.1302  0.0562  1.0000  -6.5557   0.0000   0.0000   0.0000   0.2911
  14.100   1.9975   0.03313   0.02726  -0.1288  0.0548  1.0000  -6.6039   0.0000   0.0000   0.0000   0.2903
  14.200   1.9949   0.03409   0.02823  -0.1275  0.0533  1.0000  -6.6546   0.0000   0.0000   0.0000   0.2895
  14.300   1.9925   0.03510   0.02926  -0.1263  0.0516  1.0000  -6.7059   0.0000   0.0000   0.0000   0.2888
  14.400   1.9901   0.03617   0.03036  -0.1253  0.0498  1.0000  -6.7560   0.0000   0.0000   0.0000   0.2881
  14.500   1.9866   0.03736   0.03160  -0.1243  0.0481  1.0000  -6.7989   0.0000   0.0000   0.0000   0.2875
  14.600   1.9822   0.03867   0.03295  -0.1234  0.0473  1.0000  -6.8359   0.0000   0.0000   0.0000   0.2870
  14.700   1.9814   0.03970   0.03404  -0.1228  0.0470  1.0000  -6.8974   0.0000   0.0000   0.0000   0.2865
  14.800   1.9809   0.04076   0.03516  -0.1223  0.0465  1.0000  -6.9602   0.0000   0.0000   0.0000   0.2860
  14.900   1.9795   0.04196   0.03642  -0.1219  0.0461  1.0000  -7.0170   0.0000   0.0000   0.0000   0.2856
  15.000   1.9757   0.04352   0.03803  -0.1217  0.0456  1.0000  -7.0563   0.0000   0.0000   0.0000   0.2854
  15.100   1.9728   0.04503   0.03960  -0.1216  0.0451  1.0000  -7.1016   0.0000   0.0000   0.0000   0.2852
  15.200   1.9689   0.04678   0.04142  -0.1216  0.0447  1.0000  -7.1387   0.0000   0.0000   0.0000   0.2851
  15.300   1.9638   0.04878   0.04348  -0.1219  0.0442  1.0000  -7.1666   0.0000   0.0000   0.0000   0.2852
  15.400   1.9595   0.05068   0.04543  -0.1221  0.0437  1.0000  -7.2004   0.0000   0.0000   0.0000   0.2852
  15.500   1.9531   0.05299   0.04781  -0.1227  0.0433  1.0000  -7.2179   0.0000   0.0000   0.0000   0.2854
  15.600   1.9463   0.05542   0.05031  -0.1233  0.0429  1.0000  -7.2313   0.0000   0.0000   0.0000   0.2857
  15.700   1.9382   0.05810   0.05306  -0.1241  0.0426  1.0000  -7.2352   0.0000   0.0000   0.0000   0.2861
  15.800   1.9294   0.06094   0.05596  -0.1249  0.0423  1.0000  -7.2329   0.0000   0.0000   0.0000   0.2866
  15.900   1.9204   0.06379   0.05888  -0.1258  0.0420  1.0000  -7.2285   0.0000   0.0000   0.0000   0.2871
  16.000   1.9099   0.06691   0.06207  -0.1267  0.0418  1.0000  -7.2123   0.0000   0.0000   0.0000   0.2877
  16.100   1.8981   0.07011   0.06534  -0.1276  0.0416  1.0000  -7.1874   0.0000   0.0000   0.0000   0.2884
  16.200   1.8866   0.07326   0.06856  -0.1285  0.0415  1.0000  -7.1634   0.0000   0.0000   0.0000   0.2890
  16.300   1.8740   0.07665   0.07203  -0.1295  0.0414  1.0000  -7.1304   0.0000   0.0000   0.0000   0.2898
  16.400   1.8624   0.07986   0.07531  -0.1304  0.0413  1.0000  -7.1052   0.0000   0.0000   0.0000   0.2904
  16.500   1.8512   0.08304   0.07855  -0.1313  0.0411  1.0000  -7.0815   0.0000   0.0000   0.0000   0.2911
  16.600   1.8384   0.08656   0.08214  -0.1325  0.0410  1.0000  -7.0439   0.0000   0.0000   0.0000   0.2920
  16.700   1.8281   0.08960   0.08523  -0.1334  0.0408  1.0000  -7.0260   0.0000   0.0000   0.0000   0.2927
  16.800   1.8178   0.09266   0.08835  -0.1344  0.0406  1.0000  -7.0071   0.0000   0.0000   0.0000   0.2934
  16.900   1.8053   0.09621   0.09196  -0.1357  0.0405  1.0000  -6.9690   0.0000   0.0000   0.0000   0.2944
  17.000   1.7960   0.09917   0.09496  -0.1367  0.0402  1.0000  -6.9560   0.0000   0.0000   0.0000   0.2951
  17.100   1.7877   0.10197   0.09780  -0.1377  0.0399  1.0000  -6.9499   0.0000   0.0000   0.0000   0.2958
  17.200   1.7793   0.10481   0.10069  -0.1387  0.0395  1.0000  -6.9421   0.0000   0.0000   0.0000   0.2965
  17.300   1.7683   0.10822   0.10415  -0.1401  0.0393  1.0000  -6.9112   0.0000   0.0000   0.0000   0.2976
  17.400   1.7606   0.11102   0.10699  -0.1412  0.0389  1.0000  -6.9059   0.0000   0.0000   0.0000   0.2983
  17.500   1.7538   0.11361   0.10961  -0.1422  0.0384  1.0000  -6.9087   0.0000   0.0000   0.0000   0.2990
  17.600   1.7476   0.11613   0.11217  -0.1432  0.0379  1.0000  -6.9145   0.0000   0.0000   0.0000   0.2996
  17.700   1.7411   0.11868   0.11475  -0.1443  0.0374  1.0000  -6.9178   0.0000   0.0000   0.0000   0.3003
  17.800   1.7326   0.12169   0.11781  -0.1457  0.0370  1.0000  -6.9017   0.0000   0.0000   0.0000   0.3012
  17.900   1.7251   0.12450   0.12066  -0.1469  0.0366  1.0000  -6.8934   0.0000   0.0000   0.0000   0.3021
  18.000   1.7193   0.12694   0.12313  -0.1480  0.0360  1.0000  -6.8997   0.0000   0.0000   0.0000   0.3028
  18.100   1.7146   0.12920   0.12543  -0.1490  0.0354  1.0000  -6.9134   0.0000   0.0000   0.0000   0.3034
  18.200   1.7102   0.13138   0.12764  -0.1500  0.0349  1.0000  -6.9296   0.0000   0.0000   0.0000   0.3039
  18.300   1.7059   0.13353   0.12982  -0.1510  0.0343  1.0000  -6.9462   0.0000   0.0000   0.0000   0.3045
  18.500   1.7040   0.13663   0.13301  -0.1524  0.0339  1.0000  -7.0377   0.0000   0.0000   0.0000   0.3049
  18.600   1.7010   0.13848   0.13491  -0.1534  0.0338  1.0000  -7.0654   0.0000   0.0000   0.0000   0.3054
  18.700   1.6973   0.14050   0.13697  -0.1545  0.0337  1.0000  -7.0852   0.0000   0.0000   0.0000   0.3060
  18.800   1.6957   0.14212   0.13863  -0.1554  0.0336  1.0000  -7.1250   0.0000   0.0000   0.0000   0.3064
  18.900   1.6949   0.14361   0.14015  -0.1562  0.0334  1.0000  -7.1721   0.0000   0.0000   0.0000   0.3066
  19.000   1.6944   0.14505   0.14162  -0.1569  0.0332  1.0000  -7.2222   0.0000   0.0000   0.0000   0.3068
  19.100   1.6941   0.14648   0.14308  -0.1576  0.0329  1.0000  -7.2737   0.0000   0.0000   0.0000   0.3070
  19.200   1.6937   0.14791   0.14455  -0.1584  0.0327  1.0000  -7.3255   0.0000   0.0000   0.0000   0.3072
  19.300   1.6934   0.14937   0.14603  -0.1591  0.0324  1.0000  -7.3769   0.0000   0.0000   0.0000   0.3074
  19.400   1.6931   0.15082   0.14752  -0.1599  0.0321  1.0000  -7.4294   0.0000   0.0000   0.0000   0.3076
  19.500   1.6928   0.15231   0.14904  -0.1606  0.0318  1.0000  -7.4810   0.0000   0.0000   0.0000   0.3078
  19.600   1.6923   0.15386   0.15062  -0.1614  0.0315  1.0000  -7.5306   0.0000   0.0000   0.0000   0.3080
  19.700   1.6915   0.15548   0.15227  -0.1623  0.0312  1.0000  -7.5774   0.0000   0.0000   0.0000   0.3083
  19.800   1.6903   0.15719   0.15401  -0.1632  0.0309  1.0000  -7.6201   0.0000   0.0000   0.0000   0.3086
  19.900   1.6864   0.15950   0.15636  -0.1645  0.0306  1.0000  -7.6352   0.0000   0.0000   0.0000   0.3094
  20.000   1.6829   0.16175   0.15865  -0.1657  0.0303  1.0000  -7.6539   0.0000   0.0000   0.0000   0.3101
  20.100   1.6811   0.16363   0.16056  -0.1667  0.0300  1.0000  -7.6903   0.0000   0.0000   0.0000   0.3105
  20.200   1.6800   0.16540   0.16235  -0.1677  0.0297  1.0000  -7.7326   0.0000   0.0000   0.0000   0.3109
  20.300   1.6793   0.16709   0.16405  -0.1685  0.0293  1.0000  -7.7796   0.0000   0.0000   0.0000   0.3112
  20.400   1.6785   0.16879   0.16577  -0.1694  0.0289  1.0000  -7.8264   0.0000   0.0000   0.0000   0.3115
  20.500   1.6777   0.17053   0.16752  -0.1703  0.0285  1.0000  -7.8719   0.0000   0.0000   0.0000   0.3118
  20.600   1.6767   0.17231   0.16933  -0.1713  0.0281  1.0000  -7.9153   0.0000   0.0000   0.0000   0.3121
  20.700   1.6753   0.17418   0.17121  -0.1722  0.0277  1.0000  -7.9556   0.0000   0.0000   0.0000   0.3125
  20.800   1.6737   0.17612   0.17317  -0.1733  0.0273  1.0000  -7.9924   0.0000   0.0000   0.0000   0.3130
  20.900   1.6718   0.17817   0.17523  -0.1744  0.0269  1.0000  -8.0245   0.0000   0.0000   0.0000   0.3135
  21.000   1.6693   0.18034   0.17743  -0.1755  0.0265  1.0000  -8.0513   0.0000   0.0000   0.0000   0.3141
  21.100   1.6642   0.18321   0.18033  -0.1771  0.0261  1.0000  -8.0474   0.0000   0.0000   0.0000   0.3151
  21.200   1.6604   0.18576   0.18291  -0.1785  0.0257  1.0000  -8.0583   0.0000   0.0000   0.0000   0.3159
  21.300   1.6583   0.18793   0.18510  -0.1796  0.0253  1.0000  -8.0864   0.0000   0.0000   0.0000   0.3165
  21.400   1.6567   0.18996   0.18715  -0.1807  0.0247  1.0000  -8.1200   0.0000   0.0000   0.0000   0.3170
  21.500   1.6554   0.19192   0.18913  -0.1816  0.0241  1.0000  -8.1566   0.0000   0.0000   0.0000   0.3174
  21.600   1.6543   0.19383   0.19106  -0.1826  0.0236  1.0000  -8.1943   0.0000   0.0000   0.0000   0.3177
  21.700   1.6535   0.19567   0.19292  -0.1835  0.0230  1.0000  -8.2352   0.0000   0.0000   0.0000   0.3181
  21.800   1.6540   0.19727   0.19455  -0.1843  0.0229  1.0000  -8.2951   0.0000   0.0000   0.0000   0.3182
  21.900   1.6544   0.19891   0.19622  -0.1851  0.0228  1.0000  -8.3537   0.0000   0.0000   0.0000   0.3184
  22.000   1.6546   0.20060   0.19794  -0.1860  0.0227  1.0000  -8.4098   0.0000   0.0000   0.0000   0.3186
  22.100   1.6545   0.20238   0.19975  -0.1868  0.0225  1.0000  -8.4617   0.0000   0.0000   0.0000   0.3188
  22.200   1.6540   0.20425   0.20165  -0.1878  0.0223  1.0000  -8.5089   0.0000   0.0000   0.0000   0.3192
  22.300   1.6529   0.20629   0.20373  -0.1888  0.0221  1.0000  -8.5484   0.0000   0.0000   0.0000   0.3196
  22.400   1.6485   0.20924   0.20673  -0.1903  0.0219  1.0000  -8.5480   0.0000   0.0000   0.0000   0.3205
  22.500   1.6468   0.21148   0.20901  -0.1914  0.0216  1.0000  -8.5794   0.0000   0.0000   0.0000   0.3211
  22.600   1.6461   0.21345   0.21101  -0.1924  0.0213  1.0000  -8.6221   0.0000   0.0000   0.0000   0.3214
  22.700   1.6456   0.21534   0.21293  -0.1933  0.0208  1.0000  -8.6675   0.0000   0.0000   0.0000   0.3217
  22.800   1.6450   0.21730   0.21490  -0.1942  0.0202  1.0000  -8.7093   0.0000   0.0000   0.0000   0.3220
  22.900   1.6437   0.21942   0.21703  -0.1952  0.0194  1.0000  -8.7424   0.0000   0.0000   0.0000   0.3224
  23.000   1.6413   0.22186   0.21948  -0.1964  0.0184  1.0000  -8.7599   0.0000   0.0000   0.0000   0.3231
  23.100   1.6369   0.22487   0.22248  -0.1979  0.0173  1.0000  -8.7521   0.0000   0.0000   0.0000   0.3240
  23.200   1.6305   0.22850   0.22610  -0.1997  0.0163  1.0000  -8.7183   0.0000   0.0000   0.0000   0.3254
  23.300   1.6218   0.23285   0.23050  -0.2018  0.0158  1.0000  -8.6579   0.0000   0.0000   0.0000   0.3271
  23.400   1.6142   0.23691   0.23457  -0.2037  0.0146  1.0000  -8.6058   0.0000   0.0000   0.0000   0.3287
  23.500   1.6095   0.24014   0.23780  -0.2051  0.0126  1.0000  -8.5710   0.0000   0.0000   0.0000   0.3297
  23.600   1.6019   0.24423   0.24187  -0.2070  0.0103  1.0000  -8.5121   0.0000   0.0000   0.0000   0.3313
  23.700   1.5932   0.24866   0.24630  -0.2090  0.0089  1.0000  -8.4482   0.0000   0.0000   0.0000   0.3330
  23.800   1.5837   0.25343   0.25110  -0.2110  0.0083  1.0000  -8.3741   0.0000   0.0000   0.0000   0.3349
  23.900   1.5743   0.25821   0.25590  -0.2130  0.0076  1.0000  -8.2991   0.0000   0.0000   0.0000   0.3368
  24.000   1.5660   0.26265   0.26035  -0.2148  0.0066  1.0000  -8.2278   0.0000   0.0000   0.0000   0.3385
  24.100   1.5581   0.26696   0.26468  -0.2164  0.0059  1.0000  -8.1616   0.0000   0.0000   0.0000   0.3401
  24.200   1.5498   0.27139   0.26914  -0.2181  0.0054  1.0000  -8.0927   0.0000   0.0000   0.0000   0.3417


