xflr5 v6.61

 Calculated polar for: S1221

 1 1 Reynolds number fixed          Mach number fixed         

 xtrf =   1.000 (top)        1.000 (bottom)
 Mach =   0.000     Re =     0.450 e 6     Ncrit =   9.000

  alpha     CL        CD       CDp       Cm    Top Xtr Bot Xtr   Cpmin    Chinge    XCp    
 ------- -------- --------- --------- -------- ------- ------- -------- --------- ---------
 -10.000  -0.3142   0.12500   0.12246  -0.0163  1.0000  0.0200  -1.5251   0.0000   0.0000   0.0000   0.1864
  -9.900  -0.3115   0.12389   0.12135  -0.0166  1.0000  0.0201  -1.5171   0.0000   0.0000   0.0000   0.1853
  -9.800  -0.3088   0.12278   0.12025  -0.0168  1.0000  0.0202  -1.5096   0.0000   0.0000   0.0000   0.1842
  -9.700  -0.3062   0.12167   0.11915  -0.0170  1.0000  0.0204  -1.5027   0.0000   0.0000   0.0000   0.1830
  -9.600  -0.3037   0.12056   0.11805  -0.0172  1.0000  0.0205  -1.4964   0.0000   0.0000   0.0000   0.1819
  -9.500  -0.3011   0.11945   0.11694  -0.0174  1.0000  0.0206  -1.4906   0.0000   0.0000   0.0000   0.1807
  -9.400  -0.2987   0.11834   0.11584  -0.0177  1.0000  0.0207  -1.4854   0.0000   0.0000   0.0000   0.1795
  -9.300  -0.2963   0.11723   0.11474  -0.0179  1.0000  0.0208  -1.4807   0.0000   0.0000   0.0000   0.1783
  -9.200  -0.2939   0.11612   0.11364  -0.0181  1.0000  0.0210  -1.4765   0.0000   0.0000   0.0000   0.1771
  -9.100  -0.2916   0.11501   0.11254  -0.0183  1.0000  0.0211  -1.4728   0.0000   0.0000   0.0000   0.1759
  -9.000  -0.2893   0.11390   0.11144  -0.0186  1.0000  0.0212  -1.4697   0.0000   0.0000   0.0000   0.1747
  -8.900  -0.2871   0.11279   0.11034  -0.0188  1.0000  0.0214  -1.4671   0.0000   0.0000   0.0000   0.1735
  -8.800  -0.2849   0.11168   0.10924  -0.0190  1.0000  0.0215  -1.4649   0.0000   0.0000   0.0000   0.1723
  -8.700  -0.2828   0.11058   0.10814  -0.0192  1.0000  0.0217  -1.4633   0.0000   0.0000   0.0000   0.1711
  -8.600  -0.2808   0.10947   0.10705  -0.0194  1.0000  0.0218  -1.4622   0.0000   0.0000   0.0000   0.1699
  -8.500  -0.2789   0.10837   0.10596  -0.0196  1.0000  0.0220  -1.4615   0.0000   0.0000   0.0000   0.1687
  -8.400  -0.2770   0.10728   0.10488  -0.0199  1.0000  0.0221  -1.4615   0.0000   0.0000   0.0000   0.1675
  -8.300  -0.2752   0.10618   0.10379  -0.0201  1.0000  0.0223  -1.4620   0.0000   0.0000   0.0000   0.1664
  -8.200  -0.2734   0.10509   0.10271  -0.0203  1.0000  0.0225  -1.4629   0.0000   0.0000   0.0000   0.1653
  -8.100  -0.2717   0.10399   0.10162  -0.0205  1.0000  0.0226  -1.4643   0.0000   0.0000   0.0000   0.1641
  -8.000  -0.2701   0.10288   0.10053  -0.0207  1.0000  0.0228  -1.4662   0.0000   0.0000   0.0000   0.1630
  -7.900  -0.2685   0.10178   0.09944  -0.0208  1.0000  0.0230  -1.4686   0.0000   0.0000   0.0000   0.1619
  -7.800  -0.2670   0.10068   0.09835  -0.0210  1.0000  0.0232  -1.4715   0.0000   0.0000   0.0000   0.1609
  -7.700  -0.2657   0.09958   0.09726  -0.0212  1.0000  0.0234  -1.4750   0.0000   0.0000   0.0000   0.1600
  -7.600  -0.2645   0.09849   0.09618  -0.0213  1.0000  0.0236  -1.4791   0.0000   0.0000   0.0000   0.1592
  -7.500  -0.2635   0.09740   0.09511  -0.0215  1.0000  0.0237  -1.4839   0.0000   0.0000   0.0000   0.1585
  -7.400  -0.2626   0.09633   0.09405  -0.0215  1.0000  0.0239  -1.4892   0.0000   0.0000   0.0000   0.1580
  -7.300  -0.2619   0.09527   0.09301  -0.0216  1.0000  0.0241  -1.4951   0.0000   0.0000   0.0000   0.1577
  -7.200  -0.2615   0.09422   0.09198  -0.0216  1.0000  0.0243  -1.5017   0.0000   0.0000   0.0000   0.1576
  -7.100  -0.2614   0.09320   0.09097  -0.0216  1.0000  0.0245  -1.5090   0.0000   0.0000   0.0000   0.1579
  -7.000  -0.2617   0.09220   0.08999  -0.0215  1.0000  0.0247  -1.5171   0.0000   0.0000   0.0000   0.1586
  -6.900  -0.2624   0.09125   0.08906  -0.0212  1.0000  0.0249  -1.5259   0.0000   0.0000   0.0000   0.1598
  -6.800  -0.2605   0.09004   0.08786  -0.0218  0.9997  0.0252  -1.5342   0.0000   0.0000   0.0000   0.1570
  -6.700  -0.2529   0.08829   0.08612  -0.0241  0.9988  0.0256  -1.5419   0.0000   0.0000   0.0000   0.1453
  -6.600  -0.2453   0.08651   0.08434  -0.0264  0.9978  0.0260  -1.5515   0.0000   0.0000   0.0000   0.1326
  -6.500  -0.2377   0.08471   0.08254  -0.0288  0.9965  0.0264  -1.5631   0.0000   0.0000   0.0000   0.1189
  -6.400  -0.2300   0.08288   0.08071  -0.0313  0.9952  0.0269  -1.5778   0.0000   0.0000   0.0000   0.1036
  -6.300  -0.2218   0.08102   0.07886  -0.0340  0.9939  0.0274  -1.5948   0.0000   0.0000   0.0000   0.0861
  -6.200  -0.2145   0.07922   0.07706  -0.0365  0.9920  0.0279  -1.6143   0.0000   0.0000   0.0000   0.0692
  -6.100  -0.2069   0.07741   0.07522  -0.0391  0.9895  0.0284  -1.6373   0.0000   0.0000   0.0000   0.0499
  -5.900  -0.1906   0.07453   0.07236  -0.0435  0.9831  0.0295  -1.6522   0.0000   0.0000   0.0000   0.0103
  -5.700  -0.1784   0.07149   0.06934  -0.0471  0.9726  0.0299  -1.6741   0.0000   0.0000   0.0000  -0.0263
  -5.600  -0.1695   0.06941   0.06725  -0.0501  0.9674  0.0300  -1.6922   0.0000   0.0000   0.0000  -0.0582
  -5.500  -0.1635   0.06740   0.06526  -0.0524  0.9610  0.0300  -1.7154   0.0000   0.0000   0.0000  -0.0837
  -5.400  -0.1558   0.06504   0.06290  -0.0556  0.9550  0.0301  -1.7469   0.0000   0.0000   0.0000  -0.1205
  -5.100  -0.1279   0.05437   0.05215  -0.0727  0.9403  0.0302  -1.9489   0.0000   0.0000   0.0000  -0.3348
  -5.000  -0.1108   0.04865   0.04630  -0.0860  0.9329  0.0302  -2.0565   0.0000   0.0000   0.0000  -0.5440
  -4.900  -0.0874   0.03421   0.03138  -0.1110  0.9278  0.0324  -2.4137   0.0000   0.0000   0.0000  -1.0436
  -4.800  -0.0719   0.03245   0.02952  -0.1140  0.9188  0.0331  -2.3668   0.0000   0.0000   0.0000  -1.3642
  -4.700  -0.0523   0.03110   0.02814  -0.1169  0.9057  0.0338  -2.2913   0.0000   0.0000   0.0000  -2.0216
  -4.600  -0.0078   0.02896   0.02588  -0.1255  0.8844  0.0352  -2.1580   0.0000   0.0000   0.0000  -16.0183
  -4.500   0.1061   0.02499   0.02118  -0.1509  0.7955  0.0404  -1.9168   0.0000   0.0000   0.0000   1.6910
  -4.400   0.1263   0.02450   0.02039  -0.1533  0.7580  0.0423  -1.8612   0.0000   0.0000   0.0000   1.4790
  -4.300   0.1377   0.02473   0.02038  -0.1532  0.7234  0.0438  -1.8098   0.0000   0.0000   0.0000   1.3756
  -4.200   0.1489   0.02642   0.02199  -0.1518  0.7055  0.0454  -1.7186   0.0000   0.0000   0.0000   1.2815
  -4.100   0.1700   0.02119   0.01629  -0.1588  0.6910  0.0495  -1.7711   0.0000   0.0000   0.0000   1.1944
  -4.000   0.1801   0.02069   0.01569  -0.1589  0.6708  0.0507  -1.7208   0.0000   0.0000   0.0000   1.1417
  -3.900   0.1897   0.02034   0.01526  -0.1588  0.6482  0.0520  -1.6708   0.0000   0.0000   0.0000   1.0958
  -3.800   0.2010   0.01996   0.01481  -0.1590  0.6334  0.0535  -1.6193   0.0000   0.0000   0.0000   1.0492
  -3.700   0.2123   0.01965   0.01438  -0.1592  0.6176  0.0554  -1.5712   0.0000   0.0000   0.0000   1.0072
  -3.600   0.2232   0.01945   0.01401  -0.1593  0.6024  0.0574  -1.5272   0.0000   0.0000   0.0000   0.9701
  -3.500   0.2351   0.01927   0.01372  -0.1594  0.5886  0.0596  -1.4832   0.0000   0.0000   0.0000   0.9340
  -3.400   0.2598   0.01615   0.00986  -0.1604  0.5778  0.0283  -1.7700   0.0000   0.0000   0.0000   0.8726
  -3.300   0.2748   0.01488   0.00835  -0.1613  0.5650  0.0252  -1.8031   0.0000   0.0000   0.0000   0.8417
  -3.200   0.2900   0.01395   0.00724  -0.1619  0.5551  0.0223  -1.8390   0.0000   0.0000   0.0000   0.8127
  -3.100   0.3035   0.01349   0.00663  -0.1621  0.5444  0.0207  -1.8396   0.0000   0.0000   0.0000   0.7884
  -2.900   0.3279   0.01319   0.00615  -0.1623  0.5247  0.0195  -1.7511   0.0000   0.0000   0.0000   0.7484
  -2.800   0.3404   0.01305   0.00594  -0.1625  0.5175  0.0191  -1.7018   0.0000   0.0000   0.0000   0.7304
  -2.700   0.3527   0.01295   0.00578  -0.1627  0.5098  0.0188  -1.6461   0.0000   0.0000   0.0000   0.7139
  -2.600   0.3650   0.01285   0.00561  -0.1628  0.5020  0.0185  -1.5908   0.0000   0.0000   0.0000   0.6985
  -2.400   0.3902   0.01262   0.00527  -0.1633  0.4880  0.0181  -1.4819   0.0000   0.0000   0.0000   0.6704
  -2.300   0.4035   0.01245   0.00507  -0.1637  0.4835  0.0179  -1.4287   0.0000   0.0000   0.0000   0.6573
  -2.200   0.4171   0.01227   0.00482  -0.1641  0.4784  0.0177  -1.3780   0.0000   0.0000   0.0000   0.6450
  -2.100   0.4318   0.01200   0.00446  -0.1649  0.4729  0.0177  -1.3369   0.0000   0.0000   0.0000   0.6331
  -2.000   0.4458   0.01181   0.00418  -0.1655  0.4674  0.0177  -1.2914   0.0000   0.0000   0.0000   0.6222
  -1.900   0.4593   0.01169   0.00396  -0.1660  0.4614  0.0177  -1.2440   0.0000   0.0000   0.0000   0.6121
  -1.700   0.4861   0.01146   0.00357  -0.1668  0.4512  0.0180  -1.1516   0.0000   0.0000   0.0000   0.5935
  -1.600   0.4996   0.01133   0.00335  -0.1671  0.4485  0.0186  -1.1124   0.0000   0.0000   0.0000   0.5848
  -1.500   0.5127   0.01124   0.00317  -0.1674  0.4454  0.0200  -1.0784   0.0000   0.0000   0.0000   0.5765
  -1.400   0.5259   0.01115   0.00304  -0.1677  0.4419  0.0260  -1.0538   0.0000   0.0000   0.0000   0.5686
  -1.300   0.5479   0.01030   0.00290  -0.1708  0.4375  0.2417  -1.0000   0.0000   0.0000   0.0000   0.5615
  -1.200   0.5597   0.01032   0.00296  -0.1709  0.4337  0.2659  -0.9651   0.0000   0.0000   0.0000   0.5548
  -1.100   0.5710   0.01039   0.00305  -0.1708  0.4297  0.2834  -0.9771   0.0000   0.0000   0.0000   0.5486
  -1.000   0.5819   0.01049   0.00309  -0.1707  0.4254  0.2882  -0.9888   0.0000   0.0000   0.0000   0.5425
  -0.900   0.5932   0.01057   0.00313  -0.1706  0.4206  0.2931  -1.0006   0.0000   0.0000   0.0000   0.5366
  -0.800   0.6048   0.01063   0.00318  -0.1706  0.4155  0.2996  -1.0125   0.0000   0.0000   0.0000   0.5310
  -0.700   0.6166   0.01063   0.00320  -0.1707  0.4141  0.3040  -1.0249   0.0000   0.0000   0.0000   0.5255
  -0.600   0.6284   0.01063   0.00320  -0.1707  0.4123  0.3061  -1.0374   0.0000   0.0000   0.0000   0.5202
  -0.500   0.6402   0.01063   0.00315  -0.1707  0.4102  0.3053  -1.0498   0.0000   0.0000   0.0000   0.5151
  -0.400   0.6519   0.01065   0.00318  -0.1707  0.4077  0.3092  -1.0622   0.0000   0.0000   0.0000   0.5102
  -0.300   0.6634   0.01068   0.00320  -0.1707  0.4050  0.3128  -1.0745   0.0000   0.0000   0.0000   0.5055
  -0.200   0.6749   0.01072   0.00323  -0.1706  0.4022  0.3162  -1.0868   0.0000   0.0000   0.0000   0.5010
  -0.100   0.6861   0.01079   0.00327  -0.1705  0.3995  0.3213  -1.0990   0.0000   0.0000   0.0000   0.4965
   0.000   0.6969   0.01090   0.00335  -0.1703  0.3967  0.3262  -1.1109   0.0000   0.0000   0.0000   0.4923
   0.100   0.7084   0.01093   0.00338  -0.1703  0.3940  0.3360  -1.1233   0.0000   0.0000   0.0000   0.4882
   0.200   0.7199   0.01099   0.00347  -0.1703  0.3910  0.3457  -1.1356   0.0000   0.0000   0.0000   0.4843
   0.300   0.7309   0.01108   0.00356  -0.1702  0.3878  0.3519  -1.1476   0.0000   0.0000   0.0000   0.4804
   0.400   0.7420   0.01119   0.00363  -0.1701  0.3841  0.3555  -1.1593   0.0000   0.0000   0.0000   0.4767
   0.500   0.7533   0.01129   0.00371  -0.1701  0.3802  0.3573  -1.1710   0.0000   0.0000   0.0000   0.4730
   0.600   0.7649   0.01133   0.00373  -0.1701  0.3787  0.3589  -1.1833   0.0000   0.0000   0.0000   0.4695
   0.700   0.7766   0.01134   0.00374  -0.1701  0.3779  0.3605  -1.1959   0.0000   0.0000   0.0000   0.4660
   0.800   0.7882   0.01135   0.00376  -0.1701  0.3769  0.3621  -1.2095   0.0000   0.0000   0.0000   0.4627
   0.900   0.7998   0.01137   0.00377  -0.1701  0.3757  0.3636  -1.2234   0.0000   0.0000   0.0000   0.4594
   1.000   0.8114   0.01140   0.00379  -0.1701  0.3744  0.3648  -1.2373   0.0000   0.0000   0.0000   0.4563
   1.100   0.8229   0.01143   0.00382  -0.1701  0.3730  0.3660  -1.2512   0.0000   0.0000   0.0000   0.4532
   1.200   0.8344   0.01147   0.00385  -0.1700  0.3715  0.3670  -1.2650   0.0000   0.0000   0.0000   0.4502
   1.300   0.8464   0.01146   0.00384  -0.1701  0.3700  0.3713  -1.2792   0.0000   0.0000   0.0000   0.4473
   1.400   0.8583   0.01146   0.00386  -0.1702  0.3685  0.3761  -1.2934   0.0000   0.0000   0.0000   0.4445
   1.500   0.8700   0.01148   0.00389  -0.1703  0.3669  0.3804  -1.3075   0.0000   0.0000   0.0000   0.4418
   1.600   0.8817   0.01151   0.00393  -0.1703  0.3653  0.3842  -1.3216   0.0000   0.0000   0.0000   0.4391
   1.700   0.8933   0.01155   0.00397  -0.1703  0.3637  0.3879  -1.3357   0.0000   0.0000   0.0000   0.4365
   1.800   0.9048   0.01159   0.00402  -0.1703  0.3620  0.3915  -1.3498   0.0000   0.0000   0.0000   0.4340
   1.900   0.9162   0.01164   0.00408  -0.1703  0.3602  0.3951  -1.3638   0.0000   0.0000   0.0000   0.4315
   2.000   0.9276   0.01169   0.00412  -0.1703  0.3584  0.3987  -1.3779   0.0000   0.0000   0.0000   0.4291
   2.100   0.9389   0.01175   0.00416  -0.1702  0.3564  0.4021  -1.3919   0.0000   0.0000   0.0000   0.4267
   2.200   0.9501   0.01183   0.00422  -0.1702  0.3543  0.4051  -1.4058   0.0000   0.0000   0.0000   0.4244
   2.300   0.9612   0.01193   0.00429  -0.1701  0.3519  0.4076  -1.4195   0.0000   0.0000   0.0000   0.4221
   2.400   0.9727   0.01202   0.00437  -0.1701  0.3495  0.4135  -1.4333   0.0000   0.0000   0.0000   0.4200
   2.500   0.9843   0.01212   0.00449  -0.1702  0.3471  0.4215  -1.4470   0.0000   0.0000   0.0000   0.4178
   2.600   0.9959   0.01226   0.00465  -0.1703  0.3447  0.4282  -1.4605   0.0000   0.0000   0.0000   0.4158
   2.700   1.0075   0.01230   0.00473  -0.1703  0.3439  0.4347  -1.4747   0.0000   0.0000   0.0000   0.4137
   2.800   1.0191   0.01233   0.00477  -0.1703  0.3435  0.4410  -1.4891   0.0000   0.0000   0.0000   0.4117
   2.900   1.0306   0.01236   0.00482  -0.1703  0.3429  0.4467  -1.5034   0.0000   0.0000   0.0000   0.4097
   3.100   1.0539   0.01241   0.00492  -0.1704  0.3417  0.4628  -1.5324   0.0000   0.0000   0.0000   0.4059
   3.200   1.0657   0.01243   0.00499  -0.1705  0.3410  0.4728  -1.5470   0.0000   0.0000   0.0000   0.4041
   3.300   1.0773   0.01247   0.00506  -0.1705  0.3402  0.4824  -1.5615   0.0000   0.0000   0.0000   0.4023
   3.400   1.0888   0.01251   0.00512  -0.1705  0.3394  0.4910  -1.5759   0.0000   0.0000   0.0000   0.4005
   3.500   1.1004   0.01255   0.00519  -0.1706  0.3385  0.5015  -1.5904   0.0000   0.0000   0.0000   0.3987
   3.600   1.1122   0.01257   0.00527  -0.1707  0.3375  0.5151  -1.6051   0.0000   0.0000   0.0000   0.3970
   3.700   1.1238   0.01261   0.00535  -0.1707  0.3365  0.5280  -1.6197   0.0000   0.0000   0.0000   0.3954
   3.900   1.1472   0.01269   0.00551  -0.1708  0.3344  0.5579  -1.6497   0.0000   0.0000   0.0000   0.3921
   4.000   1.1589   0.01273   0.00560  -0.1709  0.3334  0.5755  -1.6660   0.0000   0.0000   0.0000   0.3906
   4.100   1.1706   0.01276   0.00569  -0.1710  0.3323  0.5947  -1.6824   0.0000   0.0000   0.0000   0.3890
   4.200   1.1823   0.01278   0.00579  -0.1711  0.3313  0.6174  -1.6988   0.0000   0.0000   0.0000   0.3875
   4.300   1.1938   0.01280   0.00594  -0.1711  0.3302  0.6421  -1.7151   0.0000   0.0000   0.0000   0.3860
   4.400   1.2052   0.01281   0.00606  -0.1711  0.3291  0.6838  -1.7313   0.0000   0.0000   0.0000   0.3845
   4.500   1.2161   0.01284   0.00616  -0.1709  0.3281  0.7199  -1.7472   0.0000   0.0000   0.0000   0.3830
   4.600   1.2261   0.01284   0.00626  -0.1706  0.3269  0.7580  -1.7624   0.0000   0.0000   0.0000   0.3814
   4.700   1.2363   0.01288   0.00634  -0.1703  0.3257  0.7877  -1.7778   0.0000   0.0000   0.0000   0.3799
   4.800   1.2468   0.01294   0.00641  -0.1701  0.3244  0.8060  -1.7946   0.0000   0.0000   0.0000   0.3785
   4.900   1.2556   0.01296   0.00648  -0.1695  0.3231  0.8331  -1.8105   0.0000   0.0000   0.0000   0.3769
   5.000   1.2648   0.01302   0.00656  -0.1690  0.3217  0.8571  -1.8266   0.0000   0.0000   0.0000   0.3754
   5.100   1.2743   0.01309   0.00664  -0.1686  0.3202  0.8780  -1.8429   0.0000   0.0000   0.0000   0.3739
   5.200   1.2807   0.01311   0.00670  -0.1674  0.3188  0.9153  -1.8563   0.0000   0.0000   0.0000   0.3722
   5.300   1.2863   0.01314   0.00674  -0.1661  0.3175  0.9955  -1.8693   0.0000   0.0000   0.0000   0.3705
   5.400   1.2981   0.01331   0.00690  -0.1663  0.3158  1.0000  -1.8895   0.0000   0.0000   0.0000   0.3693
   5.500   1.3092   0.01351   0.00710  -0.1663  0.3139  1.0000  -1.9107   0.0000   0.0000   0.0000   0.3681
   5.600   1.3203   0.01378   0.00736  -0.1663  0.3117  1.0000  -1.9322   0.0000   0.0000   0.0000   0.3669
   5.700   1.3314   0.01396   0.00755  -0.1663  0.3103  1.0000  -1.9541   0.0000   0.0000   0.0000   0.3657
   5.800   1.3427   0.01400   0.00759  -0.1663  0.3099  1.0000  -1.9769   0.0000   0.0000   0.0000   0.3645
   5.900   1.3539   0.01404   0.00764  -0.1662  0.3094  1.0000  -1.9997   0.0000   0.0000   0.0000   0.3633
   6.000   1.3651   0.01409   0.00770  -0.1662  0.3089  1.0000  -2.0225   0.0000   0.0000   0.0000   0.3622
   6.100   1.3763   0.01414   0.00776  -0.1662  0.3082  1.0000  -2.0453   0.0000   0.0000   0.0000   0.3610
   6.200   1.3874   0.01419   0.00783  -0.1661  0.3075  1.0000  -2.0681   0.0000   0.0000   0.0000   0.3599
   6.300   1.3985   0.01425   0.00789  -0.1661  0.3067  1.0000  -2.0910   0.0000   0.0000   0.0000   0.3587
   6.400   1.4096   0.01429   0.00795  -0.1661  0.3057  1.0000  -2.1153   0.0000   0.0000   0.0000   0.3576
   6.500   1.4206   0.01434   0.00800  -0.1660  0.3046  1.0000  -2.1410   0.0000   0.0000   0.0000   0.3565
   6.600   1.4316   0.01439   0.00806  -0.1659  0.3033  1.0000  -2.1667   0.0000   0.0000   0.0000   0.3554
   6.700   1.4426   0.01445   0.00813  -0.1659  0.3021  1.0000  -2.1925   0.0000   0.0000   0.0000   0.3543
   6.800   1.4535   0.01452   0.00820  -0.1658  0.3008  1.0000  -2.2187   0.0000   0.0000   0.0000   0.3533
   6.900   1.4644   0.01459   0.00839  -0.1657  0.2995  1.0000  -2.2477   0.0000   0.0000   0.0000   0.3522
   7.000   1.4753   0.01467   0.00848  -0.1657  0.2983  1.0000  -2.2767   0.0000   0.0000   0.0000   0.3512
   7.100   1.4861   0.01475   0.00857  -0.1656  0.2972  1.0000  -2.3082   0.0000   0.0000   0.0000   0.3502
   7.200   1.4970   0.01484   0.00867  -0.1655  0.2961  1.0000  -2.3442   0.0000   0.0000   0.0000   0.3491
   7.300   1.5077   0.01492   0.00876  -0.1654  0.2949  1.0000  -2.3887   0.0000   0.0000   0.0000   0.3481
   7.400   1.5185   0.01500   0.00884  -0.1653  0.2935  1.0000  -2.4334   0.0000   0.0000   0.0000   0.3471
   7.500   1.5291   0.01508   0.00892  -0.1652  0.2921  1.0000  -2.4782   0.0000   0.0000   0.0000   0.3461
   7.600   1.5396   0.01517   0.00901  -0.1651  0.2905  1.0000  -2.5231   0.0000   0.0000   0.0000   0.3452
   7.700   1.5501   0.01528   0.00911  -0.1649  0.2887  1.0000  -2.5680   0.0000   0.0000   0.0000   0.3442
   7.800   1.5605   0.01541   0.00923  -0.1648  0.2868  1.0000  -2.6129   0.0000   0.0000   0.0000   0.3432
   7.900   1.5707   0.01558   0.00939  -0.1646  0.2846  1.0000  -2.6576   0.0000   0.0000   0.0000   0.3423
   8.000   1.5810   0.01581   0.00962  -0.1645  0.2820  1.0000  -2.7023   0.0000   0.0000   0.0000   0.3414
   8.100   1.5911   0.01616   0.00997  -0.1644  0.2789  1.0000  -2.7466   0.0000   0.0000   0.0000   0.3405
   8.200   1.6017   0.01623   0.01006  -0.1643  0.2778  1.0000  -2.7930   0.0000   0.0000   0.0000   0.3395
   8.300   1.6124   0.01622   0.01008  -0.1641  0.2771  1.0000  -2.8403   0.0000   0.0000   0.0000   0.3386
   8.400   1.6230   0.01619   0.01008  -0.1640  0.2762  1.0000  -2.8879   0.0000   0.0000   0.0000   0.3377
   8.500   1.6336   0.01617   0.01009  -0.1639  0.2749  1.0000  -2.9357   0.0000   0.0000   0.0000   0.3368
   8.600   1.6442   0.01616   0.01011  -0.1638  0.2732  1.0000  -2.9838   0.0000   0.0000   0.0000   0.3359
   8.700   1.6548   0.01617   0.01014  -0.1636  0.2713  1.0000  -3.0320   0.0000   0.0000   0.0000   0.3350
   8.800   1.6653   0.01619   0.01018  -0.1635  0.2693  1.0000  -3.0803   0.0000   0.0000   0.0000   0.3341
   8.900   1.6758   0.01622   0.01023  -0.1634  0.2672  1.0000  -3.1287   0.0000   0.0000   0.0000   0.3333
   9.000   1.6862   0.01626   0.01027  -0.1632  0.2649  1.0000  -3.1773   0.0000   0.0000   0.0000   0.3324
   9.100   1.6965   0.01632   0.01039  -0.1631  0.2627  1.0000  -3.2250   0.0000   0.0000   0.0000   0.3315
   9.200   1.7067   0.01639   0.01047  -0.1629  0.2605  1.0000  -3.2733   0.0000   0.0000   0.0000   0.3307
   9.300   1.7167   0.01649   0.01056  -0.1627  0.2584  1.0000  -3.3215   0.0000   0.0000   0.0000   0.3298
   9.400   1.7265   0.01661   0.01067  -0.1625  0.2561  1.0000  -3.3695   0.0000   0.0000   0.0000   0.3290
   9.500   1.7361   0.01675   0.01081  -0.1622  0.2535  1.0000  -3.4171   0.0000   0.0000   0.0000   0.3281
   9.600   1.7455   0.01695   0.01100  -0.1619  0.2505  1.0000  -3.4692   0.0000   0.0000   0.0000   0.3273
   9.700   1.7549   0.01717   0.01122  -0.1616  0.2476  1.0000  -3.5243   0.0000   0.0000   0.0000   0.3264
   9.800   1.7654   0.01720   0.01131  -0.1615  0.2467  1.0000  -3.5833   0.0000   0.0000   0.0000   0.3256
   9.900   1.7758   0.01725   0.01140  -0.1614  0.2455  1.0000  -3.6424   0.0000   0.0000   0.0000   0.3248
  10.000   1.7862   0.01730   0.01150  -0.1612  0.2438  1.0000  -3.7016   0.0000   0.0000   0.0000   0.3241
  10.100   1.7964   0.01737   0.01160  -0.1611  0.2418  1.0000  -3.7609   0.0000   0.0000   0.0000   0.3233
  10.200   1.8065   0.01745   0.01171  -0.1609  0.2393  1.0000  -3.8201   0.0000   0.0000   0.0000   0.3225
  10.300   1.8165   0.01754   0.01181  -0.1607  0.2365  1.0000  -3.8791   0.0000   0.0000   0.0000   0.3217
  10.400   1.8262   0.01764   0.01192  -0.1605  0.2334  1.0000  -3.9379   0.0000   0.0000   0.0000   0.3209
  10.500   1.8356   0.01776   0.01204  -0.1602  0.2300  1.0000  -3.9962   0.0000   0.0000   0.0000   0.3201
  10.600   1.8446   0.01791   0.01217  -0.1599  0.2262  1.0000  -4.0537   0.0000   0.0000   0.0000   0.3193
  10.700   1.8531   0.01811   0.01235  -0.1595  0.2216  1.0000  -4.1098   0.0000   0.0000   0.0000   0.3185
  10.800   1.8623   0.01828   0.01253  -0.1592  0.2180  1.0000  -4.1678   0.0000   0.0000   0.0000   0.3177
  10.900   1.8721   0.01839   0.01268  -0.1590  0.2150  1.0000  -4.2283   0.0000   0.0000   0.0000   0.3170
  11.000   1.8814   0.01853   0.01283  -0.1587  0.2105  1.0000  -4.2876   0.0000   0.0000   0.0000   0.3162
  11.100   1.8901   0.01872   0.01301  -0.1583  0.2050  1.0000  -4.3455   0.0000   0.0000   0.0000   0.3154
  11.200   1.8979   0.01898   0.01321  -0.1578  0.1987  1.0000  -4.4011   0.0000   0.0000   0.0000   0.3146
  11.300   1.9052   0.01929   0.01349  -0.1573  0.1918  1.0000  -4.4548   0.0000   0.0000   0.0000   0.3138
  11.400   1.9141   0.01948   0.01370  -0.1570  0.1877  1.0000  -4.5139   0.0000   0.0000   0.0000   0.3131
  11.500   1.9222   0.01973   0.01400  -0.1565  0.1817  1.0000  -4.5701   0.0000   0.0000   0.0000   0.3123
  11.600   1.9290   0.02008   0.01431  -0.1559  0.1745  1.0000  -4.6231   0.0000   0.0000   0.0000   0.3115
  11.700   1.9350   0.02051   0.01468  -0.1552  0.1667  1.0000  -4.6925   0.0000   0.0000   0.0000   0.3107
  11.800   1.9425   0.02080   0.01498  -0.1546  0.1614  1.0000  -4.7933   0.0000   0.0000   0.0000   0.3099
  11.900   1.9490   0.02117   0.01534  -0.1540  0.1550  1.0000  -4.8894   0.0000   0.0000   0.0000   0.3091
  12.000   1.9540   0.02166   0.01577  -0.1531  0.1481  1.0000  -4.9781   0.0000   0.0000   0.0000   0.3083
  12.100   1.9592   0.02212   0.01621  -0.1523  0.1414  1.0000  -5.0681   0.0000   0.0000   0.0000   0.3075
  12.200   1.9656   0.02247   0.01657  -0.1516  0.1367  1.0000  -5.1651   0.0000   0.0000   0.0000   0.3067
  12.300   1.9706   0.02292   0.01701  -0.1508  0.1311  1.0000  -5.2555   0.0000   0.0000   0.0000   0.3059
  12.400   1.9740   0.02349   0.01754  -0.1497  0.1252  1.0000  -5.3374   0.0000   0.0000   0.0000   0.3050
  12.500   1.9776   0.02402   0.01805  -0.1486  0.1193  1.0000  -5.4204   0.0000   0.0000   0.0000   0.3041
  12.600   1.9828   0.02440   0.01845  -0.1478  0.1155  1.0000  -5.5138   0.0000   0.0000   0.0000   0.3033
  12.700   1.9863   0.02488   0.01894  -0.1467  0.1110  1.0000  -5.5976   0.0000   0.0000   0.0000   0.3024
  12.800   1.9875   0.02547   0.01951  -0.1452  0.1065  1.0000  -5.6687   0.0000   0.0000   0.0000   0.3015
  12.900   1.9866   0.02610   0.02012  -0.1435  0.1021  1.0000  -5.7283   0.0000   0.0000   0.0000   0.3004
  13.000   1.9874   0.02663   0.02067  -0.1419  0.0981  1.0000  -5.7975   0.0000   0.0000   0.0000   0.2995
  13.100   1.9896   0.02708   0.02115  -0.1406  0.0952  1.0000  -5.8752   0.0000   0.0000   0.0000   0.2985
  13.200   1.9902   0.02763   0.02171  -0.1391  0.0918  1.0000  -5.9439   0.0000   0.0000   0.0000   0.2976
  13.300   1.9889   0.02832   0.02240  -0.1374  0.0883  1.0000  -6.0019   0.0000   0.0000   0.0000   0.2966
  13.400   1.9864   0.02911   0.02318  -0.1357  0.0847  1.0000  -6.0526   0.0000   0.0000   0.0000   0.2956
  13.500   1.9834   0.02995   0.02402  -0.1339  0.0807  1.0000  -6.0996   0.0000   0.0000   0.0000   0.2946
  13.600   1.9840   0.03056   0.02467  -0.1326  0.0783  1.0000  -6.1693   0.0000   0.0000   0.0000   0.2937
  13.700   1.9840   0.03124   0.02537  -0.1313  0.0759  1.0000  -6.2350   0.0000   0.0000   0.0000   0.2929
  13.800   1.9823   0.03204   0.02619  -0.1299  0.0734  1.0000  -6.2910   0.0000   0.0000   0.0000   0.2920
  13.900   1.9785   0.03299   0.02716  -0.1284  0.0712  1.0000  -6.3337   0.0000   0.0000   0.0000   0.2912
  14.000   1.9744   0.03403   0.02821  -0.1269  0.0690  1.0000  -6.3741   0.0000   0.0000   0.0000   0.2904
  14.100   1.9703   0.03516   0.02935  -0.1256  0.0664  1.0000  -6.4138   0.0000   0.0000   0.0000   0.2896
  14.200   1.9658   0.03639   0.03061  -0.1244  0.0636  1.0000  -6.4498   0.0000   0.0000   0.0000   0.2889
  14.300   1.9649   0.03734   0.03161  -0.1236  0.0620  1.0000  -6.5092   0.0000   0.0000   0.0000   0.2883
  14.400   1.9636   0.03835   0.03267  -0.1228  0.0610  1.0000  -6.5664   0.0000   0.0000   0.0000   0.2878
  14.500   1.9606   0.03956   0.03393  -0.1221  0.0600  1.0000  -6.6121   0.0000   0.0000   0.0000   0.2873
  14.600   1.9579   0.04082   0.03523  -0.1215  0.0588  1.0000  -6.6595   0.0000   0.0000   0.0000   0.2868
  14.700   1.9546   0.04222   0.03668  -0.1210  0.0576  1.0000  -6.7020   0.0000   0.0000   0.0000   0.2865
  14.800   1.9490   0.04398   0.03850  -0.1208  0.0566  1.0000  -6.7279   0.0000   0.0000   0.0000   0.2863
  14.900   1.9439   0.04578   0.04033  -0.1207  0.0556  1.0000  -6.7567   0.0000   0.0000   0.0000   0.2862
  15.000   1.9369   0.04796   0.04258  -0.1210  0.0548  1.0000  -6.7712   0.0000   0.0000   0.0000   0.2863
  15.100   1.9302   0.05018   0.04485  -0.1213  0.0539  1.0000  -6.7865   0.0000   0.0000   0.0000   0.2864
  15.200   1.9227   0.05260   0.04732  -0.1218  0.0531  1.0000  -6.7956   0.0000   0.0000   0.0000   0.2867
  15.300   1.9141   0.05530   0.05008  -0.1225  0.0524  1.0000  -6.7946   0.0000   0.0000   0.0000   0.2871
  15.400   1.9046   0.05820   0.05305  -0.1233  0.0518  1.0000  -6.7867   0.0000   0.0000   0.0000   0.2876
  15.500   1.8944   0.06124   0.05617  -0.1243  0.0512  1.0000  -6.7732   0.0000   0.0000   0.0000   0.2882
  15.600   1.8837   0.06436   0.05935  -0.1252  0.0507  1.0000  -6.7560   0.0000   0.0000   0.0000   0.2888
  15.700   1.8723   0.06758   0.06265  -0.1262  0.0503  1.0000  -6.7325   0.0000   0.0000   0.0000   0.2895
  15.800   1.8598   0.07091   0.06605  -0.1272  0.0501  1.0000  -6.7010   0.0000   0.0000   0.0000   0.2903
  15.900   1.8478   0.07411   0.06932  -0.1280  0.0497  1.0000  -6.6730   0.0000   0.0000   0.0000   0.2909
  16.000   1.8348   0.07758   0.07286  -0.1291  0.0496  1.0000  -6.6365   0.0000   0.0000   0.0000   0.2918
  16.100   1.8229   0.08082   0.07617  -0.1300  0.0492  1.0000  -6.6077   0.0000   0.0000   0.0000   0.2925
  16.200   1.8104   0.08423   0.07964  -0.1310  0.0490  1.0000  -6.5736   0.0000   0.0000   0.0000   0.2934
  16.300   1.7983   0.08760   0.08307  -0.1321  0.0487  1.0000  -6.5407   0.0000   0.0000   0.0000   0.2942
  16.400   1.7872   0.09074   0.08627  -0.1331  0.0482  1.0000  -6.5154   0.0000   0.0000   0.0000   0.2950
  16.500   1.7756   0.09403   0.08962  -0.1341  0.0478  1.0000  -6.4850   0.0000   0.0000   0.0000   0.2958
  16.600   1.7642   0.09736   0.09301  -0.1353  0.0474  1.0000  -6.4538   0.0000   0.0000   0.0000   0.2968
  16.700   1.7592   0.09962   0.09531  -0.1361  0.0472  1.0000  -6.4737   0.0000   0.0000   0.0000   0.2972
  16.800   1.7551   0.10175   0.09749  -0.1368  0.0470  1.0000  -6.4993   0.0000   0.0000   0.0000   0.2975
  16.900   1.7510   0.10386   0.09965  -0.1375  0.0467  1.0000  -6.5253   0.0000   0.0000   0.0000   0.2979
  17.000   1.7462   0.10613   0.10197  -0.1383  0.0464  1.0000  -6.5449   0.0000   0.0000   0.0000   0.2983
  17.100   1.7390   0.10887   0.10477  -0.1394  0.0462  1.0000  -6.5438   0.0000   0.0000   0.0000   0.2990
  17.200   1.7344   0.11114   0.10708  -0.1402  0.0459  1.0000  -6.5635   0.0000   0.0000   0.0000   0.2995
  17.300   1.7307   0.11322   0.10921  -0.1410  0.0455  1.0000  -6.5899   0.0000   0.0000   0.0000   0.2999
  17.400   1.7275   0.11522   0.11125  -0.1418  0.0451  1.0000  -6.6202   0.0000   0.0000   0.0000   0.3003
  17.500   1.7243   0.11721   0.11327  -0.1426  0.0447  1.0000  -6.6508   0.0000   0.0000   0.0000   0.3006
  17.600   1.7211   0.11921   0.11531  -0.1434  0.0442  1.0000  -6.6799   0.0000   0.0000   0.0000   0.3010
  17.700   1.7176   0.12126   0.11740  -0.1442  0.0438  1.0000  -6.7067   0.0000   0.0000   0.0000   0.3014
  17.800   1.7117   0.12379   0.11998  -0.1454  0.0434  1.0000  -6.7127   0.0000   0.0000   0.0000   0.3021
  17.900   1.7072   0.12606   0.12229  -0.1464  0.0430  1.0000  -6.7292   0.0000   0.0000   0.0000   0.3027
  18.000   1.7037   0.12811   0.12437  -0.1473  0.0425  1.0000  -6.7548   0.0000   0.0000   0.0000   0.3032
  18.100   1.7009   0.13005   0.12633  -0.1482  0.0420  1.0000  -6.7855   0.0000   0.0000   0.0000   0.3036
  18.200   1.6981   0.13196   0.12826  -0.1490  0.0415  1.0000  -6.8171   0.0000   0.0000   0.0000   0.3040
  18.300   1.6953   0.13387   0.13020  -0.1499  0.0410  1.0000  -6.8472   0.0000   0.0000   0.0000   0.3045
  18.400   1.6923   0.13572   0.13207  -0.1509  0.0405  1.0000  -6.8752   0.0000   0.0000   0.0000   0.3049
  18.500   1.6891   0.13758   0.13395  -0.1518  0.0400  1.0000  -6.9003   0.0000   0.0000   0.0000   0.3054
  18.600   1.6847   0.13965   0.13605  -0.1530  0.0395  1.0000  -6.9143   0.0000   0.0000   0.0000   0.3061
  18.700   1.6794   0.14198   0.13844  -0.1543  0.0390  1.0000  -6.9174   0.0000   0.0000   0.0000   0.3070
  18.800   1.6758   0.14400   0.14048  -0.1554  0.0384  1.0000  -6.9353   0.0000   0.0000   0.0000   0.3076
  18.900   1.6729   0.14588   0.14237  -0.1565  0.0378  1.0000  -6.9609   0.0000   0.0000   0.0000   0.3081
  19.000   1.6706   0.14767   0.14418  -0.1574  0.0372  1.0000  -6.9908   0.0000   0.0000   0.0000   0.3086
  19.100   1.6686   0.14941   0.14593  -0.1583  0.0365  1.0000  -7.0232   0.0000   0.0000   0.0000   0.3090
  19.200   1.6669   0.15108   0.14763  -0.1592  0.0358  1.0000  -7.0583   0.0000   0.0000   0.0000   0.3093
  19.300   1.6655   0.15269   0.14925  -0.1600  0.0351  1.0000  -7.0960   0.0000   0.0000   0.0000   0.3096
  19.400   1.6645   0.15422   0.15081  -0.1608  0.0344  1.0000  -7.1364   0.0000   0.0000   0.0000   0.3099
  19.500   1.6646   0.15566   0.15227  -0.1615  0.0341  1.0000  -7.1889   0.0000   0.0000   0.0000   0.3100
  19.600   1.6648   0.15712   0.15377  -0.1622  0.0340  1.0000  -7.2445   0.0000   0.0000   0.0000   0.3102
  19.700   1.6649   0.15863   0.15532  -0.1630  0.0338  1.0000  -7.2981   0.0000   0.0000   0.0000   0.3104
  19.800   1.6648   0.16020   0.15693  -0.1638  0.0336  1.0000  -7.3493   0.0000   0.0000   0.0000   0.3106
  19.900   1.6640   0.16191   0.15868  -0.1647  0.0335  1.0000  -7.3943   0.0000   0.0000   0.0000   0.3110
  20.000   1.6614   0.16406   0.16087  -0.1659  0.0333  1.0000  -7.4197   0.0000   0.0000   0.0000   0.3116
  20.100   1.6598   0.16597   0.16283  -0.1669  0.0331  1.0000  -7.4564   0.0000   0.0000   0.0000   0.3120
  20.200   1.6591   0.16771   0.16460  -0.1678  0.0328  1.0000  -7.5012   0.0000   0.0000   0.0000   0.3124
  20.300   1.6587   0.16937   0.16629  -0.1687  0.0326  1.0000  -7.5499   0.0000   0.0000   0.0000   0.3126
  20.400   1.6586   0.17098   0.16794  -0.1695  0.0323  1.0000  -7.6009   0.0000   0.0000   0.0000   0.3129
  20.500   1.6587   0.17257   0.16956  -0.1703  0.0320  1.0000  -7.6541   0.0000   0.0000   0.0000   0.3131
  20.600   1.6587   0.17417   0.17119  -0.1711  0.0316  1.0000  -7.7070   0.0000   0.0000   0.0000   0.3133
  20.700   1.6587   0.17579   0.17284  -0.1720  0.0313  1.0000  -7.7592   0.0000   0.0000   0.0000   0.3135
  20.800   1.6585   0.17744   0.17453  -0.1728  0.0309  1.0000  -7.8103   0.0000   0.0000   0.0000   0.3138
  20.900   1.6582   0.17914   0.17626  -0.1737  0.0306  1.0000  -7.8596   0.0000   0.0000   0.0000   0.3140
  21.000   1.6577   0.18090   0.17805  -0.1746  0.0302  1.0000  -7.9067   0.0000   0.0000   0.0000   0.3143
  21.100   1.6569   0.18274   0.17991  -0.1756  0.0299  1.0000  -7.9508   0.0000   0.0000   0.0000   0.3147
  21.200   1.6557   0.18467   0.18188  -0.1766  0.0295  1.0000  -7.9906   0.0000   0.0000   0.0000   0.3151
  21.300   1.6526   0.18710   0.18435  -0.1779  0.0292  1.0000  -8.0087   0.0000   0.0000   0.0000   0.3158
  21.400   1.6495   0.18956   0.18684  -0.1792  0.0289  1.0000  -8.0260   0.0000   0.0000   0.0000   0.3166
  21.500   1.6477   0.19171   0.18901  -0.1803  0.0286  1.0000  -8.0579   0.0000   0.0000   0.0000   0.3171
  21.600   1.6464   0.19373   0.19105  -0.1813  0.0282  1.0000  -8.0959   0.0000   0.0000   0.0000   0.3176
  21.700   1.6453   0.19574   0.19307  -0.1824  0.0278  1.0000  -8.1348   0.0000   0.0000   0.0000   0.3180
  21.800   1.6440   0.19776   0.19512  -0.1834  0.0274  1.0000  -8.1730   0.0000   0.0000   0.0000   0.3184
  21.900   1.6426   0.19985   0.19722  -0.1845  0.0270  1.0000  -8.2087   0.0000   0.0000   0.0000   0.3189
  22.000   1.6409   0.20201   0.19940  -0.1856  0.0266  1.0000  -8.2411   0.0000   0.0000   0.0000   0.3194
  22.100   1.6389   0.20426   0.20166  -0.1867  0.0261  1.0000  -8.2696   0.0000   0.0000   0.0000   0.3200
  22.200   1.6366   0.20659   0.20400  -0.1879  0.0256  1.0000  -8.2943   0.0000   0.0000   0.0000   0.3206
  22.300   1.6342   0.20895   0.20638  -0.1891  0.0250  1.0000  -8.3169   0.0000   0.0000   0.0000   0.3212
  22.400   1.6314   0.21143   0.20889  -0.1903  0.0244  1.0000  -8.3333   0.0000   0.0000   0.0000   0.3219
  22.500   1.6281   0.21407   0.21155  -0.1916  0.0239  1.0000  -8.3423   0.0000   0.0000   0.0000   0.3227
  22.600   1.6261   0.21631   0.21382  -0.1927  0.0232  1.0000  -8.3656   0.0000   0.0000   0.0000   0.3232
  22.700   1.6243   0.21861   0.21615  -0.1938  0.0230  1.0000  -8.3930   0.0000   0.0000   0.0000   0.3237
  22.800   1.6231   0.22079   0.21837  -0.1948  0.0229  1.0000  -8.4306   0.0000   0.0000   0.0000   0.3242
  22.900   1.6223   0.22288   0.22049  -0.1958  0.0227  1.0000  -8.4717   0.0000   0.0000   0.0000   0.3246
  23.000   1.6214   0.22496   0.22261  -0.1968  0.0226  1.0000  -8.5131   0.0000   0.0000   0.0000   0.3249
  23.100   1.6205   0.22707   0.22476  -0.1978  0.0224  1.0000  -8.5529   0.0000   0.0000   0.0000   0.3253
  23.200   1.6193   0.22925   0.22698  -0.1988  0.0221  1.0000  -8.5891   0.0000   0.0000   0.0000   0.3258
  23.300   1.6178   0.23155   0.22932  -0.1999  0.0219  1.0000  -8.6199   0.0000   0.0000   0.0000   0.3263
  23.400   1.6157   0.23401   0.23181  -0.2010  0.0215  1.0000  -8.6435   0.0000   0.0000   0.0000   0.3269
  23.500   1.6117   0.23705   0.23490  -0.2024  0.0212  1.0000  -8.6419   0.0000   0.0000   0.0000   0.3278
  23.600   1.6068   0.24035   0.23824  -0.2039  0.0208  1.0000  -8.6294   0.0000   0.0000   0.0000   0.3289
  23.700   1.6040   0.24304   0.24097  -0.2051  0.0203  1.0000  -8.6421   0.0000   0.0000   0.0000   0.3296
  23.800   1.6015   0.24565   0.24361  -0.2062  0.0196  1.0000  -8.6566   0.0000   0.0000   0.0000   0.3302
  23.900   1.5982   0.24848   0.24645  -0.2075  0.0187  1.0000  -8.6607   0.0000   0.0000   0.0000   0.3310
  24.000   1.5936   0.25174   0.24971  -0.2089  0.0177  1.0000  -8.6456   0.0000   0.0000   0.0000   0.3320
  24.100   1.5870   0.25557   0.25354  -0.2105  0.0167  1.0000  -8.6069   0.0000   0.0000   0.0000   0.3334
  24.200   1.5779   0.26022   0.25823  -0.2125  0.0162  1.0000  -8.5361   0.0000   0.0000   0.0000   0.3352
  24.300   1.5692   0.26476   0.26279  -0.2143  0.0155  1.0000  -8.4685   0.0000   0.0000   0.0000   0.3369
  24.400   1.5606   0.26924   0.26728  -0.2160  0.0145  1.0000  -8.3994   0.0000   0.0000   0.0000   0.3386
  24.500   1.5546   0.27290   0.27097  -0.2173  0.0132  1.0000  -8.3526   0.0000   0.0000   0.0000   0.3397
  24.600   1.5461   0.27733   0.27542  -0.2189  0.0116  1.0000  -8.2774   0.0000   0.0000   0.0000   0.3414
  24.700   1.5350   0.28250   0.28064  -0.2207  0.0111  1.0000  -8.1798   0.0000   0.0000   0.0000   0.3434
  24.800   1.5238   0.28760   0.28578  -0.2223  0.0103  1.0000  -8.0818   0.0000   0.0000   0.0000   0.3454


