xflr5 v6.61

 Calculated polar for: S1221

 1 1 Reynolds number fixed          Mach number fixed         

 xtrf =   1.000 (top)        1.000 (bottom)
 Mach =   0.000     Re =     0.300 e 6     Ncrit =   9.000

  alpha     CL        CD       CDp       Cm    Top Xtr Bot Xtr   Cpmin    Chinge    XCp    
 ------- -------- --------- --------- -------- ------- ------- -------- --------- ---------
 -10.000  -0.3081   0.13004   0.12693  -0.0188  1.0000  0.0298  -1.3930   0.0000   0.0000   0.0000   0.1774
  -9.900  -0.3057   0.12892   0.12582  -0.0192  1.0000  0.0298  -1.3977   0.0000   0.0000   0.0000   0.1756
  -9.800  -0.3033   0.12778   0.12469  -0.0196  1.0000  0.0299  -1.4024   0.0000   0.0000   0.0000   0.1739
  -9.700  -0.3009   0.12663   0.12355  -0.0200  1.0000  0.0299  -1.4073   0.0000   0.0000   0.0000   0.1721
  -9.600  -0.2986   0.12547   0.12240  -0.0204  1.0000  0.0300  -1.4123   0.0000   0.0000   0.0000   0.1704
  -9.500  -0.2964   0.12430   0.12124  -0.0207  1.0000  0.0300  -1.4175   0.0000   0.0000   0.0000   0.1687
  -9.400  -0.2941   0.12313   0.12008  -0.0211  1.0000  0.0300  -1.4228   0.0000   0.0000   0.0000   0.1669
  -9.300  -0.2919   0.12195   0.11891  -0.0215  1.0000  0.0300  -1.4282   0.0000   0.0000   0.0000   0.1652
  -9.200  -0.2897   0.12076   0.11774  -0.0218  1.0000  0.0301  -1.4339   0.0000   0.0000   0.0000   0.1635
  -9.100  -0.2876   0.11958   0.11656  -0.0221  1.0000  0.0301  -1.4397   0.0000   0.0000   0.0000   0.1618
  -9.000  -0.2855   0.11839   0.11539  -0.0225  1.0000  0.0301  -1.4457   0.0000   0.0000   0.0000   0.1601
  -8.900  -0.2835   0.11721   0.11421  -0.0228  1.0000  0.0301  -1.4519   0.0000   0.0000   0.0000   0.1585
  -8.800  -0.2816   0.11602   0.11304  -0.0231  1.0000  0.0301  -1.4584   0.0000   0.0000   0.0000   0.1568
  -8.700  -0.2797   0.11483   0.11186  -0.0234  1.0000  0.0302  -1.4652   0.0000   0.0000   0.0000   0.1552
  -8.600  -0.2778   0.11365   0.11069  -0.0237  1.0000  0.0302  -1.4722   0.0000   0.0000   0.0000   0.1536
  -8.500  -0.2760   0.11246   0.10951  -0.0240  1.0000  0.0302  -1.4795   0.0000   0.0000   0.0000   0.1520
  -8.400  -0.2742   0.11126   0.10833  -0.0243  1.0000  0.0302  -1.4869   0.0000   0.0000   0.0000   0.1505
  -8.300  -0.2725   0.11006   0.10714  -0.0246  1.0000  0.0302  -1.4946   0.0000   0.0000   0.0000   0.1489
  -8.200  -0.2708   0.10886   0.10596  -0.0249  1.0000  0.0302  -1.5025   0.0000   0.0000   0.0000   0.1474
  -8.100  -0.2692   0.10766   0.10477  -0.0251  1.0000  0.0302  -1.5106   0.0000   0.0000   0.0000   0.1460
  -8.000  -0.2677   0.10647   0.10359  -0.0254  1.0000  0.0303  -1.5190   0.0000   0.0000   0.0000   0.1446
  -7.900  -0.2663   0.10527   0.10241  -0.0256  1.0000  0.0303  -1.5277   0.0000   0.0000   0.0000   0.1433
  -7.800  -0.2650   0.10408   0.10124  -0.0258  1.0000  0.0303  -1.5367   0.0000   0.0000   0.0000   0.1420
  -7.700  -0.2756   0.09933   0.09654  -0.0267  1.0000  0.0310  -1.6780   0.0000   0.0000   0.0000   0.1427
  -7.600  -0.2769   0.09747   0.09469  -0.0267  1.0000  0.0314  -1.6954   0.0000   0.0000   0.0000   0.1433
  -7.500  -0.2765   0.09616   0.09340  -0.0266  1.0000  0.0317  -1.6946   0.0000   0.0000   0.0000   0.1437
  -7.400  -0.2744   0.09517   0.09241  -0.0263  1.0000  0.0319  -1.6743   0.0000   0.0000   0.0000   0.1444
  -7.300  -0.2724   0.09423   0.09150  -0.0259  1.0000  0.0322  -1.6553   0.0000   0.0000   0.0000   0.1450
  -7.200  -0.2706   0.09334   0.09062  -0.0256  1.0000  0.0324  -1.6378   0.0000   0.0000   0.0000   0.1458
  -7.100  -0.2691   0.09247   0.08977  -0.0252  1.0000  0.0326  -1.6222   0.0000   0.0000   0.0000   0.1466
  -7.000  -0.2679   0.09163   0.08895  -0.0249  1.0000  0.0328  -1.6085   0.0000   0.0000   0.0000   0.1476
  -6.900  -0.2668   0.09081   0.08815  -0.0245  1.0000  0.0330  -1.5951   0.0000   0.0000   0.0000   0.1488
  -6.800  -0.2660   0.09001   0.08737  -0.0241  1.0000  0.0332  -1.5830   0.0000   0.0000   0.0000   0.1503
  -6.700  -0.2657   0.08923   0.08661  -0.0236  1.0000  0.0335  -1.5731   0.0000   0.0000   0.0000   0.1520
  -6.600  -0.2657   0.08846   0.08587  -0.0231  1.0000  0.0337  -1.5651   0.0000   0.0000   0.0000   0.1541
  -6.500  -0.2661   0.08770   0.08513  -0.0226  1.0000  0.0339  -1.5589   0.0000   0.0000   0.0000   0.1563
  -6.400  -0.2668   0.08695   0.08440  -0.0221  1.0000  0.0341  -1.5543   0.0000   0.0000   0.0000   0.1587
  -6.300  -0.2678   0.08620   0.08367  -0.0216  1.0000  0.0343  -1.5511   0.0000   0.0000   0.0000   0.1612
  -6.200  -0.2690   0.08545   0.08294  -0.0210  1.0000  0.0346  -1.5490   0.0000   0.0000   0.0000   0.1638
  -6.100  -0.2696   0.08465   0.08216  -0.0207  0.9999  0.0348  -1.5469   0.0000   0.0000   0.0000   0.1654
  -6.000  -0.2592   0.08305   0.08057  -0.0232  0.9983  0.0353  -1.5309   0.0000   0.0000   0.0000   0.1525
  -5.900  -0.2494   0.08142   0.07890  -0.0256  0.9966  0.0358  -1.5188   0.0000   0.0000   0.0000   0.1388
  -5.800  -0.2395   0.07976   0.07725  -0.0283  0.9946  0.0364  -1.5105   0.0000   0.0000   0.0000   0.1234
  -5.700  -0.2304   0.07808   0.07558  -0.0308  0.9923  0.0370  -1.5062   0.0000   0.0000   0.0000   0.1073
  -5.600  -0.2217   0.07636   0.07386  -0.0334  0.9893  0.0377  -1.5054   0.0000   0.0000   0.0000   0.0902
  -5.500  -0.2108   0.07439   0.07190  -0.0367  0.9866  0.0385  -1.5068   0.0000   0.0000   0.0000   0.0663
  -5.400  -0.2024   0.07244   0.06996  -0.0394  0.9821  0.0392  -1.5135   0.0000   0.0000   0.0000   0.0456
  -5.300  -0.1906   0.07015   0.06767  -0.0433  0.9782  0.0402  -1.5243   0.0000   0.0000   0.0000   0.0127
  -5.200  -0.1824   0.06802   0.06555  -0.0464  0.9725  0.0411  -1.5424   0.0000   0.0000   0.0000  -0.0146
  -5.100  -0.1701   0.06534   0.06286  -0.0514  0.9677  0.0424  -1.5760   0.0000   0.0000   0.0000  -0.0631
  -5.000  -0.1573   0.06247   0.05999  -0.0573  0.9614  0.0441  -1.6303   0.0000   0.0000   0.0000  -0.1258
  -4.900  -0.1348   0.05766   0.05514  -0.0692  0.9550  0.0454  -1.7328   0.0000   0.0000   0.0000  -0.2769
  -4.700  -0.0849   0.04718   0.04424  -0.0959  0.9450  0.0457  -1.8854   0.0000   0.0000   0.0000  -0.9004
  -4.600  -0.0804   0.03778   0.03475  -0.1059  0.9411  0.0491  -2.0352   0.0000   0.0000   0.0000  -1.0899
  -4.500  -0.0746   0.03712   0.03414  -0.1051  0.9334  0.0497  -1.9910   0.0000   0.0000   0.0000  -1.1834
  -4.400  -0.0653   0.03632   0.03335  -0.1053  0.9245  0.0506  -1.9420   0.0000   0.0000   0.0000  -1.3894
  -4.300  -0.0509   0.03521   0.03223  -0.1071  0.9141  0.0517  -1.8888   0.0000   0.0000   0.0000  -1.8877
  -4.200  -0.0302   0.03369   0.03063  -0.1107  0.9021  0.0536  -1.8348   0.0000   0.0000   0.0000  -3.4708
  -3.700   0.2219   0.01810   0.01215  -0.1592  0.7386  0.0314  -1.8838   0.0000   0.0000   0.0000   0.9750
  -3.600   0.2330   0.01792   0.01190  -0.1589  0.7141  0.0294  -1.8469   0.0000   0.0000   0.0000   0.9387
  -3.500   0.2480   0.01661   0.01038  -0.1600  0.6954  0.0279  -1.8547   0.0000   0.0000   0.0000   0.9013
  -3.400   0.2611   0.01597   0.00952  -0.1604  0.6743  0.0270  -1.8390   0.0000   0.0000   0.0000   0.8700
  -3.300   0.2729   0.01551   0.00886  -0.1605  0.6507  0.0262  -1.8197   0.0000   0.0000   0.0000   0.8433
  -3.200   0.2854   0.01504   0.00826  -0.1607  0.6349  0.0254  -1.7970   0.0000   0.0000   0.0000   0.8177
  -3.100   0.2978   0.01465   0.00773  -0.1609  0.6194  0.0248  -1.7720   0.0000   0.0000   0.0000   0.7944
  -2.900   0.3225   0.01405   0.00683  -0.1612  0.5916  0.0238  -1.7136   0.0000   0.0000   0.0000   0.7532
  -2.800   0.3349   0.01381   0.00646  -0.1614  0.5783  0.0234  -1.6815   0.0000   0.0000   0.0000   0.7349
  -2.700   0.3474   0.01361   0.00610  -0.1616  0.5658  0.0231  -1.6496   0.0000   0.0000   0.0000   0.7180
  -2.600   0.3609   0.01338   0.00578  -0.1620  0.5561  0.0229  -1.6086   0.0000   0.0000   0.0000   0.7015
  -2.500   0.3742   0.01319   0.00549  -0.1624  0.5461  0.0228  -1.5657   0.0000   0.0000   0.0000   0.6863
  -2.400   0.3872   0.01306   0.00524  -0.1628  0.5364  0.0227  -1.5216   0.0000   0.0000   0.0000   0.6724
  -2.300   0.4003   0.01295   0.00502  -0.1632  0.5273  0.0228  -1.4758   0.0000   0.0000   0.0000   0.6593
  -2.200   0.4140   0.01279   0.00479  -0.1636  0.5210  0.0230  -1.4280   0.0000   0.0000   0.0000   0.6467
  -2.100   0.4273   0.01267   0.00459  -0.1640  0.5142  0.0232  -1.3804   0.0000   0.0000   0.0000   0.6351
  -2.000   0.4403   0.01259   0.00441  -0.1643  0.5074  0.0237  -1.3336   0.0000   0.0000   0.0000   0.6243
  -1.900   0.4529   0.01255   0.00425  -0.1645  0.5006  0.0244  -1.2879   0.0000   0.0000   0.0000   0.6141
  -1.700   0.4783   0.01248   0.00398  -0.1650  0.4883  0.0270  -1.2022   0.0000   0.0000   0.0000   0.5953
  -1.600   0.4914   0.01239   0.00383  -0.1652  0.4843  0.0302  -1.1678   0.0000   0.0000   0.0000   0.5865
  -1.500   0.5139   0.01148   0.00373  -0.1685  0.4790  0.2635  -1.1444   0.0000   0.0000   0.0000   0.5779
  -1.400   0.5253   0.01157   0.00383  -0.1684  0.4744  0.2837  -1.0869   0.0000   0.0000   0.0000   0.5705
  -1.300   0.5366   0.01167   0.00394  -0.1684  0.4697  0.3006  -1.0236   0.0000   0.0000   0.0000   0.5635
  -1.200   0.5477   0.01178   0.00405  -0.1682  0.4651  0.3108  -0.9589   0.0000   0.0000   0.0000   0.5567
  -1.100   0.5587   0.01191   0.00412  -0.1681  0.4602  0.3162  -0.9649   0.0000   0.0000   0.0000   0.5503
  -1.000   0.5698   0.01206   0.00419  -0.1680  0.4545  0.3206  -0.9764   0.0000   0.0000   0.0000   0.5441
  -0.900   0.5813   0.01214   0.00424  -0.1679  0.4513  0.3239  -0.9881   0.0000   0.0000   0.0000   0.5380
  -0.800   0.5927   0.01220   0.00428  -0.1678  0.4490  0.3264  -1.0001   0.0000   0.0000   0.0000   0.5321
  -0.700   0.6046   0.01218   0.00428  -0.1679  0.4462  0.3344  -1.0122   0.0000   0.0000   0.0000   0.5266
  -0.600   0.6161   0.01220   0.00435  -0.1679  0.4433  0.3423  -1.0243   0.0000   0.0000   0.0000   0.5212
  -0.500   0.6281   0.01218   0.00421  -0.1680  0.4401  0.3359  -1.0364   0.0000   0.0000   0.0000   0.5160
  -0.400   0.6394   0.01226   0.00434  -0.1679  0.4369  0.3466  -1.0484   0.0000   0.0000   0.0000   0.5110
  -0.300   0.6500   0.01241   0.00450  -0.1677  0.4336  0.3561  -1.0601   0.0000   0.0000   0.0000   0.5062
  -0.200   0.6606   0.01260   0.00465  -0.1674  0.4302  0.3633  -1.0718   0.0000   0.0000   0.0000   0.5016
  -0.100   0.6713   0.01279   0.00478  -0.1671  0.4267  0.3668  -1.0834   0.0000   0.0000   0.0000   0.4970
   0.000   0.6832   0.01277   0.00472  -0.1673  0.4227  0.3722  -1.0956   0.0000   0.0000   0.0000   0.4928
   0.100   0.6949   0.01283   0.00474  -0.1674  0.4181  0.3754  -1.1074   0.0000   0.0000   0.0000   0.4887
   0.200   0.7067   0.01288   0.00478  -0.1674  0.4150  0.3783  -1.1193   0.0000   0.0000   0.0000   0.4846
   0.300   0.7184   0.01287   0.00478  -0.1675  0.4135  0.3808  -1.1316   0.0000   0.0000   0.0000   0.4807
   0.400   0.7302   0.01286   0.00479  -0.1675  0.4118  0.3831  -1.1439   0.0000   0.0000   0.0000   0.4768
   0.500   0.7419   0.01287   0.00480  -0.1675  0.4101  0.3853  -1.1561   0.0000   0.0000   0.0000   0.4731
   0.600   0.7536   0.01289   0.00482  -0.1676  0.4081  0.3874  -1.1683   0.0000   0.0000   0.0000   0.4696
   0.700   0.7652   0.01291   0.00484  -0.1676  0.4061  0.3897  -1.1811   0.0000   0.0000   0.0000   0.4661
   0.800   0.7768   0.01294   0.00486  -0.1676  0.4040  0.3920  -1.1948   0.0000   0.0000   0.0000   0.4627
   0.900   0.7884   0.01298   0.00488  -0.1676  0.4019  0.3944  -1.2084   0.0000   0.0000   0.0000   0.4594
   1.000   0.8000   0.01302   0.00491  -0.1676  0.3998  0.3969  -1.2221   0.0000   0.0000   0.0000   0.4562
   1.100   0.8115   0.01307   0.00494  -0.1676  0.3977  0.3994  -1.2357   0.0000   0.0000   0.0000   0.4531
   1.200   0.8230   0.01312   0.00497  -0.1676  0.3957  0.4018  -1.2493   0.0000   0.0000   0.0000   0.4501
   1.300   0.8345   0.01319   0.00500  -0.1676  0.3936  0.4042  -1.2630   0.0000   0.0000   0.0000   0.4472
   1.400   0.8459   0.01326   0.00505  -0.1675  0.3915  0.4062  -1.2766   0.0000   0.0000   0.0000   0.4443
   1.500   0.8572   0.01336   0.00510  -0.1675  0.3894  0.4080  -1.2901   0.0000   0.0000   0.0000   0.4415
   1.600   0.8690   0.01341   0.00514  -0.1676  0.3871  0.4124  -1.3038   0.0000   0.0000   0.0000   0.4389
   1.700   0.8808   0.01349   0.00522  -0.1677  0.3845  0.4179  -1.3174   0.0000   0.0000   0.0000   0.4363
   1.800   0.8925   0.01363   0.00537  -0.1678  0.3817  0.4226  -1.3307   0.0000   0.0000   0.0000   0.4338
   1.900   0.9043   0.01381   0.00559  -0.1679  0.3792  0.4270  -1.3439   0.0000   0.0000   0.0000   0.4314
   2.000   0.9159   0.01382   0.00563  -0.1679  0.3785  0.4316  -1.3578   0.0000   0.0000   0.0000   0.4289
   2.100   0.9275   0.01385   0.00568  -0.1679  0.3777  0.4363  -1.3718   0.0000   0.0000   0.0000   0.4265
   2.200   0.9391   0.01387   0.00572  -0.1679  0.3767  0.4410  -1.3858   0.0000   0.0000   0.0000   0.4242
   2.300   0.9506   0.01391   0.00576  -0.1679  0.3756  0.4456  -1.3997   0.0000   0.0000   0.0000   0.4219
   2.400   0.9620   0.01395   0.00580  -0.1679  0.3744  0.4496  -1.4137   0.0000   0.0000   0.0000   0.4197
   2.500   0.9737   0.01397   0.00584  -0.1680  0.3730  0.4562  -1.4278   0.0000   0.0000   0.0000   0.4175
   2.600   0.9856   0.01397   0.00590  -0.1681  0.3716  0.4647  -1.4421   0.0000   0.0000   0.0000   0.4154
   2.700   0.9973   0.01400   0.00597  -0.1681  0.3701  0.4723  -1.4563   0.0000   0.0000   0.0000   0.4134
   2.800   1.0089   0.01405   0.00604  -0.1682  0.3687  0.4802  -1.4704   0.0000   0.0000   0.0000   0.4113
   2.900   1.0204   0.01410   0.00611  -0.1682  0.3673  0.4880  -1.4844   0.0000   0.0000   0.0000   0.4093
   3.000   1.0318   0.01418   0.00618  -0.1682  0.3660  0.4946  -1.4983   0.0000   0.0000   0.0000   0.4074
   3.100   1.0436   0.01420   0.00626  -0.1683  0.3646  0.5067  -1.5126   0.0000   0.0000   0.0000   0.4055
   3.200   1.0552   0.01425   0.00635  -0.1683  0.3632  0.5183  -1.5268   0.0000   0.0000   0.0000   0.4037
   3.300   1.0667   0.01430   0.00643  -0.1683  0.3619  0.5302  -1.5409   0.0000   0.0000   0.0000   0.4019
   3.500   1.0900   0.01440   0.00661  -0.1685  0.3592  0.5586  -1.5694   0.0000   0.0000   0.0000   0.3983
   3.600   1.1015   0.01446   0.00671  -0.1685  0.3579  0.5754  -1.5837   0.0000   0.0000   0.0000   0.3966
   3.700   1.1131   0.01452   0.00682  -0.1685  0.3565  0.5938  -1.5984   0.0000   0.0000   0.0000   0.3950
   3.800   1.1246   0.01458   0.00695  -0.1686  0.3551  0.6155  -1.6143   0.0000   0.0000   0.0000   0.3933
   3.900   1.1360   0.01465   0.00709  -0.1686  0.3536  0.6385  -1.6300   0.0000   0.0000   0.0000   0.3917
   4.000   1.1469   0.01472   0.00726  -0.1685  0.3521  0.6752  -1.6452   0.0000   0.0000   0.0000   0.3900
   4.100   1.1574   0.01483   0.00744  -0.1682  0.3505  0.7129  -1.6600   0.0000   0.0000   0.0000   0.3884
   4.200   1.1669   0.01495   0.00765  -0.1678  0.3487  0.7510  -1.6738   0.0000   0.0000   0.0000   0.3867
   4.300   1.1765   0.01515   0.00790  -0.1674  0.3469  0.7874  -1.6874   0.0000   0.0000   0.0000   0.3851
   4.400   1.1860   0.01542   0.00828  -0.1670  0.3448  0.8146  -1.7005   0.0000   0.0000   0.0000   0.3835
   4.500   1.1936   0.01550   0.00842  -0.1661  0.3440  0.8466  -1.7128   0.0000   0.0000   0.0000   0.3817
   4.600   1.2023   0.01551   0.00848  -0.1655  0.3435  0.8745  -1.7264   0.0000   0.0000   0.0000   0.3800
   4.700   1.2070   0.01545   0.00847  -0.1639  0.3431  0.9207  -1.7376   0.0000   0.0000   0.0000   0.3781
   4.800   1.2149   0.01543   0.00848  -0.1631  0.3425  1.0000  -1.7522   0.0000   0.0000   0.0000   0.3764
   4.900   1.2264   0.01550   0.00856  -0.1632  0.3418  1.0000  -1.7701   0.0000   0.0000   0.0000   0.3751
   5.000   1.2378   0.01557   0.00863  -0.1632  0.3409  1.0000  -1.7880   0.0000   0.0000   0.0000   0.3737
   5.100   1.2492   0.01564   0.00871  -0.1632  0.3400  1.0000  -1.8060   0.0000   0.0000   0.0000   0.3724
   5.200   1.2605   0.01572   0.00880  -0.1632  0.3389  1.0000  -1.8239   0.0000   0.0000   0.0000   0.3711
   5.300   1.2719   0.01581   0.00889  -0.1632  0.3378  1.0000  -1.8435   0.0000   0.0000   0.0000   0.3698
   5.400   1.2831   0.01591   0.00899  -0.1632  0.3367  1.0000  -1.8633   0.0000   0.0000   0.0000   0.3686
   5.500   1.2944   0.01601   0.00911  -0.1632  0.3357  1.0000  -1.8843   0.0000   0.0000   0.0000   0.3673
   5.600   1.3056   0.01613   0.00923  -0.1632  0.3346  1.0000  -1.9063   0.0000   0.0000   0.0000   0.3661
   5.700   1.3168   0.01624   0.00935  -0.1632  0.3335  1.0000  -1.9284   0.0000   0.0000   0.0000   0.3649
   5.800   1.3279   0.01635   0.00946  -0.1632  0.3323  1.0000  -1.9506   0.0000   0.0000   0.0000   0.3637
   5.900   1.3390   0.01645   0.00956  -0.1632  0.3310  1.0000  -1.9729   0.0000   0.0000   0.0000   0.3625
   6.000   1.3501   0.01654   0.00966  -0.1631  0.3297  1.0000  -1.9952   0.0000   0.0000   0.0000   0.3613
   6.100   1.3611   0.01663   0.00975  -0.1631  0.3283  1.0000  -2.0177   0.0000   0.0000   0.0000   0.3602
   6.200   1.3721   0.01672   0.00983  -0.1630  0.3269  1.0000  -2.0402   0.0000   0.0000   0.0000   0.3590
   6.300   1.3830   0.01682   0.00992  -0.1630  0.3256  1.0000  -2.0628   0.0000   0.0000   0.0000   0.3579
   6.400   1.3940   0.01692   0.01002  -0.1629  0.3242  1.0000  -2.0860   0.0000   0.0000   0.0000   0.3568
   6.500   1.4048   0.01702   0.01012  -0.1628  0.3229  1.0000  -2.1112   0.0000   0.0000   0.0000   0.3557
   6.600   1.4156   0.01713   0.01022  -0.1628  0.3215  1.0000  -2.1364   0.0000   0.0000   0.0000   0.3546
   6.700   1.4264   0.01726   0.01034  -0.1627  0.3200  1.0000  -2.1617   0.0000   0.0000   0.0000   0.3535
   6.800   1.4371   0.01741   0.01047  -0.1626  0.3182  1.0000  -2.1869   0.0000   0.0000   0.0000   0.3525
   6.900   1.4478   0.01763   0.01067  -0.1625  0.3161  1.0000  -2.2142   0.0000   0.0000   0.0000   0.3514
   7.000   1.4585   0.01798   0.01113  -0.1625  0.3135  1.0000  -2.2420   0.0000   0.0000   0.0000   0.3505
   7.100   1.4689   0.01856   0.01174  -0.1625  0.3105  1.0000  -2.2686   0.0000   0.0000   0.0000   0.3495
   7.200   1.4797   0.01858   0.01178  -0.1624  0.3099  1.0000  -2.3014   0.0000   0.0000   0.0000   0.3485
   7.300   1.4903   0.01861   0.01184  -0.1623  0.3092  1.0000  -2.3380   0.0000   0.0000   0.0000   0.3475
   7.400   1.5009   0.01865   0.01192  -0.1622  0.3084  1.0000  -2.3821   0.0000   0.0000   0.0000   0.3465
   7.500   1.5115   0.01872   0.01202  -0.1620  0.3075  1.0000  -2.4263   0.0000   0.0000   0.0000   0.3455
   7.600   1.5221   0.01881   0.01215  -0.1619  0.3066  1.0000  -2.4707   0.0000   0.0000   0.0000   0.3445
   7.700   1.5327   0.01890   0.01227  -0.1618  0.3055  1.0000  -2.5152   0.0000   0.0000   0.0000   0.3435
   7.800   1.5432   0.01899   0.01239  -0.1617  0.3043  1.0000  -2.5599   0.0000   0.0000   0.0000   0.3425
   7.900   1.5536   0.01906   0.01250  -0.1615  0.3030  1.0000  -2.6049   0.0000   0.0000   0.0000   0.3416
   8.000   1.5641   0.01913   0.01259  -0.1614  0.3015  1.0000  -2.6501   0.0000   0.0000   0.0000   0.3406
   8.100   1.5745   0.01920   0.01269  -0.1612  0.2999  1.0000  -2.6956   0.0000   0.0000   0.0000   0.3397
   8.200   1.5848   0.01927   0.01277  -0.1610  0.2982  1.0000  -2.7413   0.0000   0.0000   0.0000   0.3387
   8.300   1.5952   0.01933   0.01285  -0.1609  0.2965  1.0000  -2.7873   0.0000   0.0000   0.0000   0.3378
   8.400   1.6055   0.01940   0.01293  -0.1607  0.2949  1.0000  -2.8335   0.0000   0.0000   0.0000   0.3369
   8.500   1.6158   0.01946   0.01300  -0.1605  0.2932  1.0000  -2.8800   0.0000   0.0000   0.0000   0.3360
   8.600   1.6260   0.01951   0.01306  -0.1604  0.2914  1.0000  -2.9266   0.0000   0.0000   0.0000   0.3351
   8.700   1.6361   0.01956   0.01311  -0.1601  0.2896  1.0000  -2.9734   0.0000   0.0000   0.0000   0.3341
   8.800   1.6461   0.01964   0.01317  -0.1599  0.2875  1.0000  -3.0202   0.0000   0.0000   0.0000   0.3332
   8.900   1.6560   0.01977   0.01328  -0.1597  0.2851  1.0000  -3.0669   0.0000   0.0000   0.0000   0.3324
   9.000   1.6657   0.02003   0.01351  -0.1595  0.2821  1.0000  -3.1131   0.0000   0.0000   0.0000   0.3315
   9.100   1.6755   0.02054   0.01402  -0.1594  0.2782  1.0000  -3.1584   0.0000   0.0000   0.0000   0.3307
   9.200   1.6853   0.02045   0.01404  -0.1591  0.2772  1.0000  -3.2058   0.0000   0.0000   0.0000   0.3298
   9.300   1.6952   0.02038   0.01402  -0.1589  0.2758  1.0000  -3.2537   0.0000   0.0000   0.0000   0.3289
   9.400   1.7050   0.02033   0.01402  -0.1586  0.2741  1.0000  -3.3018   0.0000   0.0000   0.0000   0.3280
   9.500   1.7148   0.02030   0.01404  -0.1583  0.2720  1.0000  -3.3501   0.0000   0.0000   0.0000   0.3272
   9.600   1.7246   0.02030   0.01407  -0.1581  0.2696  1.0000  -3.3986   0.0000   0.0000   0.0000   0.3263
   9.700   1.7344   0.02031   0.01412  -0.1578  0.2672  1.0000  -3.4488   0.0000   0.0000   0.0000   0.3255
   9.800   1.7442   0.02035   0.01419  -0.1576  0.2649  1.0000  -3.5055   0.0000   0.0000   0.0000   0.3246
   9.900   1.7539   0.02041   0.01427  -0.1573  0.2628  1.0000  -3.5622   0.0000   0.0000   0.0000   0.3238
  10.000   1.7635   0.02048   0.01435  -0.1570  0.2605  1.0000  -3.6189   0.0000   0.0000   0.0000   0.3230
  10.100   1.7729   0.02056   0.01443  -0.1567  0.2582  1.0000  -3.6755   0.0000   0.0000   0.0000   0.3221
  10.200   1.7820   0.02066   0.01453  -0.1564  0.2558  1.0000  -3.7318   0.0000   0.0000   0.0000   0.3213
  10.300   1.7909   0.02081   0.01467  -0.1560  0.2531  1.0000  -3.7873   0.0000   0.0000   0.0000   0.3205
  10.400   1.7995   0.02105   0.01489  -0.1556  0.2499  1.0000  -3.8420   0.0000   0.0000   0.0000   0.3196
  10.500   1.8085   0.02126   0.01512  -0.1553  0.2472  1.0000  -3.8979   0.0000   0.0000   0.0000   0.3188
  10.600   1.8181   0.02129   0.01523  -0.1550  0.2457  1.0000  -3.9562   0.0000   0.0000   0.0000   0.3180
  10.700   1.8276   0.02135   0.01536  -0.1547  0.2436  1.0000  -4.0147   0.0000   0.0000   0.0000   0.3173
  10.800   1.8371   0.02141   0.01548  -0.1545  0.2410  1.0000  -4.0732   0.0000   0.0000   0.0000   0.3165
  10.900   1.8464   0.02149   0.01561  -0.1542  0.2380  1.0000  -4.1317   0.0000   0.0000   0.0000   0.3157
  11.000   1.8554   0.02158   0.01573  -0.1538  0.2347  1.0000  -4.1895   0.0000   0.0000   0.0000   0.3149
  11.100   1.8641   0.02169   0.01584  -0.1534  0.2311  1.0000  -4.2468   0.0000   0.0000   0.0000   0.3141
  11.200   1.8722   0.02182   0.01597  -0.1529  0.2274  1.0000  -4.3029   0.0000   0.0000   0.0000   0.3133
  11.300   1.8797   0.02201   0.01613  -0.1524  0.2233  1.0000  -4.3572   0.0000   0.0000   0.0000   0.3125
  11.400   1.8866   0.02227   0.01636  -0.1517  0.2188  1.0000  -4.4098   0.0000   0.0000   0.0000   0.3116
  11.500   1.8959   0.02238   0.01655  -0.1514  0.2156  1.0000  -4.4693   0.0000   0.0000   0.0000   0.3109
  11.600   1.9044   0.02253   0.01674  -0.1510  0.2112  1.0000  -4.5271   0.0000   0.0000   0.0000   0.3101
  11.700   1.9119   0.02273   0.01701  -0.1505  0.2055  1.0000  -4.5816   0.0000   0.0000   0.0000   0.3093
  11.800   1.9182   0.02299   0.01725  -0.1498  0.1995  1.0000  -4.6336   0.0000   0.0000   0.0000   0.3085
  11.900   1.9231   0.02336   0.01756  -0.1489  0.1933  1.0000  -4.7206   0.0000   0.0000   0.0000   0.3076
  12.000   1.9303   0.02362   0.01786  -0.1483  0.1881  1.0000  -4.8198   0.0000   0.0000   0.0000   0.3069
  12.100   1.9369   0.02391   0.01817  -0.1476  0.1818  1.0000  -4.9165   0.0000   0.0000   0.0000   0.3061
  12.200   1.9417   0.02431   0.01854  -0.1468  0.1749  1.0000  -5.0043   0.0000   0.0000   0.0000   0.3052
  12.300   1.9444   0.02483   0.01901  -0.1456  0.1682  1.0000  -5.0814   0.0000   0.0000   0.0000   0.3043
  12.400   1.9492   0.02523   0.01942  -0.1447  0.1626  1.0000  -5.1696   0.0000   0.0000   0.0000   0.3035
  12.500   1.9535   0.02566   0.01986  -0.1437  0.1566  1.0000  -5.2553   0.0000   0.0000   0.0000   0.3026
  12.600   1.9555   0.02620   0.02038  -0.1424  0.1506  1.0000  -5.3293   0.0000   0.0000   0.0000   0.3017
  12.700   1.9543   0.02683   0.02098  -0.1406  0.1452  1.0000  -5.3859   0.0000   0.0000   0.0000   0.3007
  12.800   1.9548   0.02737   0.02154  -0.1391  0.1405  1.0000  -5.4517   0.0000   0.0000   0.0000   0.2997
  12.900   1.9565   0.02787   0.02206  -0.1378  0.1359  1.0000  -5.5243   0.0000   0.0000   0.0000   0.2987
  13.000   1.9564   0.02847   0.02267  -0.1362  0.1312  1.0000  -5.5871   0.0000   0.0000   0.0000   0.2977
  13.100   1.9546   0.02919   0.02337  -0.1345  0.1267  1.0000  -5.6400   0.0000   0.0000   0.0000   0.2967
  13.200   1.9514   0.03002   0.02419  -0.1327  0.1222  1.0000  -5.6851   0.0000   0.0000   0.0000   0.2957
  13.300   1.9503   0.03074   0.02494  -0.1312  0.1183  1.0000  -5.7418   0.0000   0.0000   0.0000   0.2948
  13.400   1.9506   0.03140   0.02564  -0.1299  0.1148  1.0000  -5.8069   0.0000   0.0000   0.0000   0.2939
  13.500   1.9490   0.03219   0.02646  -0.1285  0.1111  1.0000  -5.8609   0.0000   0.0000   0.0000   0.2931
  13.600   1.9455   0.03314   0.02741  -0.1269  0.1076  1.0000  -5.9039   0.0000   0.0000   0.0000   0.2922
  13.700   1.9403   0.03422   0.02849  -0.1253  0.1045  1.0000  -5.9363   0.0000   0.0000   0.0000   0.2913
  13.800   1.9348   0.03540   0.02969  -0.1238  0.1011  1.0000  -5.9657   0.0000   0.0000   0.0000   0.2906
  13.900   1.9315   0.03649   0.03081  -0.1226  0.0981  1.0000  -6.0081   0.0000   0.0000   0.0000   0.2898
  14.000   1.9312   0.03737   0.03176  -0.1218  0.0956  1.0000  -6.0689   0.0000   0.0000   0.0000   0.2892
  14.100   1.9289   0.03846   0.03289  -0.1209  0.0930  1.0000  -6.1171   0.0000   0.0000   0.0000   0.2886
  14.200   1.9236   0.03986   0.03433  -0.1200  0.0909  1.0000  -6.1461   0.0000   0.0000   0.0000   0.2881
  14.300   1.9179   0.04138   0.03589  -0.1193  0.0888  1.0000  -6.1720   0.0000   0.0000   0.0000   0.2877
  14.400   1.9117   0.04308   0.03761  -0.1187  0.0867  1.0000  -6.1935   0.0000   0.0000   0.0000   0.2874
  14.500   1.9035   0.04511   0.03969  -0.1185  0.0850  1.0000  -6.2010   0.0000   0.0000   0.0000   0.2873
  14.600   1.8952   0.04730   0.04192  -0.1185  0.0831  1.0000  -6.2058   0.0000   0.0000   0.0000   0.2873
  14.700   1.8853   0.04988   0.04455  -0.1188  0.0815  1.0000  -6.1975   0.0000   0.0000   0.0000   0.2876
  14.800   1.8754   0.05250   0.04722  -0.1192  0.0798  1.0000  -6.1885   0.0000   0.0000   0.0000   0.2879
  14.900   1.8714   0.05443   0.04923  -0.1196  0.0789  1.0000  -6.2196   0.0000   0.0000   0.0000   0.2880
  15.000   1.8665   0.05652   0.05140  -0.1200  0.0779  1.0000  -6.2436   0.0000   0.0000   0.0000   0.2881
  15.100   1.8601   0.05887   0.05383  -0.1206  0.0769  1.0000  -6.2570   0.0000   0.0000   0.0000   0.2884
  15.200   1.8530   0.06133   0.05636  -0.1212  0.0759  1.0000  -6.2654   0.0000   0.0000   0.0000   0.2888
  15.300   1.8448   0.06398   0.05908  -0.1220  0.0751  1.0000  -6.2657   0.0000   0.0000   0.0000   0.2893
  15.400   1.8358   0.06673   0.06189  -0.1227  0.0742  1.0000  -6.2597   0.0000   0.0000   0.0000   0.2898
  15.500   1.8262   0.06951   0.06473  -0.1235  0.0735  1.0000  -6.2501   0.0000   0.0000   0.0000   0.2903
  15.600   1.8161   0.07242   0.06769  -0.1243  0.0728  1.0000  -6.2360   0.0000   0.0000   0.0000   0.2909
  15.700   1.8063   0.07529   0.07062  -0.1251  0.0721  1.0000  -6.2234   0.0000   0.0000   0.0000   0.2915
  15.800   1.7964   0.07820   0.07358  -0.1259  0.0714  1.0000  -6.2094   0.0000   0.0000   0.0000   0.2921
  15.900   1.7861   0.08123   0.07666  -0.1268  0.0707  1.0000  -6.1917   0.0000   0.0000   0.0000   0.2928
  16.000   1.7765   0.08410   0.07957  -0.1277  0.0700  1.0000  -6.1793   0.0000   0.0000   0.0000   0.2934
  16.100   1.7664   0.08710   0.08261  -0.1286  0.0692  1.0000  -6.1621   0.0000   0.0000   0.0000   0.2941
  16.200   1.7562   0.09016   0.08570  -0.1296  0.0686  1.0000  -6.1426   0.0000   0.0000   0.0000   0.2949
  16.300   1.7469   0.09303   0.08861  -0.1306  0.0677  1.0000  -6.1295   0.0000   0.0000   0.0000   0.2956
  16.400   1.7381   0.09584   0.09144  -0.1315  0.0668  1.0000  -6.1187   0.0000   0.0000   0.0000   0.2963
  16.500   1.7285   0.09882   0.09446  -0.1326  0.0658  1.0000  -6.1007   0.0000   0.0000   0.0000   0.2971
  16.600   1.7198   0.10163   0.09729  -0.1335  0.0647  1.0000  -6.0882   0.0000   0.0000   0.0000   0.2978
  16.700   1.7127   0.10404   0.09971  -0.1342  0.0632  1.0000  -6.0876   0.0000   0.0000   0.0000   0.2983
  16.800   1.7090   0.10602   0.10172  -0.1348  0.0624  1.0000  -6.1117   0.0000   0.0000   0.0000   0.2986
  16.900   1.7063   0.10792   0.10368  -0.1355  0.0620  1.0000  -6.1446   0.0000   0.0000   0.0000   0.2989
  17.000   1.7037   0.10981   0.10562  -0.1362  0.0615  1.0000  -6.1773   0.0000   0.0000   0.0000   0.2992
  17.100   1.7009   0.11172   0.10758  -0.1369  0.0610  1.0000  -6.2086   0.0000   0.0000   0.0000   0.2995
  17.200   1.6973   0.11382   0.10973  -0.1377  0.0604  1.0000  -6.2325   0.0000   0.0000   0.0000   0.2999
  17.300   1.6935   0.11594   0.11190  -0.1386  0.0598  1.0000  -6.2547   0.0000   0.0000   0.0000   0.3004
  17.400   1.6904   0.11792   0.11393  -0.1394  0.0591  1.0000  -6.2822   0.0000   0.0000   0.0000   0.3008
  17.500   1.6879   0.11980   0.11584  -0.1402  0.0584  1.0000  -6.3145   0.0000   0.0000   0.0000   0.3011
  17.600   1.6854   0.12165   0.11773  -0.1410  0.0577  1.0000  -6.3476   0.0000   0.0000   0.0000   0.3015
  17.700   1.6831   0.12348   0.11960  -0.1418  0.0570  1.0000  -6.3810   0.0000   0.0000   0.0000   0.3018
  17.800   1.6807   0.12532   0.12147  -0.1426  0.0562  1.0000  -6.4138   0.0000   0.0000   0.0000   0.3022
  17.900   1.6782   0.12718   0.12336  -0.1434  0.0555  1.0000  -6.4460   0.0000   0.0000   0.0000   0.3026
  18.000   1.6754   0.12910   0.12531  -0.1443  0.0548  1.0000  -6.4751   0.0000   0.0000   0.0000   0.3030
  18.100   1.6715   0.13119   0.12742  -0.1454  0.0541  1.0000  -6.4939   0.0000   0.0000   0.0000   0.3036
  18.200   1.6681   0.13312   0.12937  -0.1464  0.0534  1.0000  -6.5160   0.0000   0.0000   0.0000   0.3042
  18.300   1.6651   0.13492   0.13118  -0.1474  0.0527  1.0000  -6.5423   0.0000   0.0000   0.0000   0.3047
  18.400   1.6626   0.13664   0.13291  -0.1483  0.0518  1.0000  -6.5717   0.0000   0.0000   0.0000   0.3051
  18.500   1.6606   0.13825   0.13451  -0.1491  0.0509  1.0000  -6.6054   0.0000   0.0000   0.0000   0.3054
  18.600   1.6595   0.13961   0.13587  -0.1498  0.0497  1.0000  -6.6469   0.0000   0.0000   0.0000   0.3056
  18.700   1.6596   0.14055   0.13681  -0.1500  0.0481  1.0000  -6.6987   0.0000   0.0000   0.0000   0.3055
  18.800   1.6594   0.14181   0.13809  -0.1506  0.0473  1.0000  -6.7469   0.0000   0.0000   0.0000   0.3056
  18.900   1.6583   0.14356   0.13988  -0.1516  0.0470  1.0000  -6.7888   0.0000   0.0000   0.0000   0.3060
  19.000   1.6571   0.14532   0.14169  -0.1526  0.0466  1.0000  -6.8296   0.0000   0.0000   0.0000   0.3064
  19.100   1.6549   0.14737   0.14383  -0.1538  0.0461  1.0000  -6.8591   0.0000   0.0000   0.0000   0.3070
  19.200   1.6525   0.14938   0.14589  -0.1550  0.0456  1.0000  -6.8879   0.0000   0.0000   0.0000   0.3076
  19.300   1.6499   0.15147   0.14803  -0.1562  0.0452  1.0000  -6.9136   0.0000   0.0000   0.0000   0.3083
  19.400   1.6482   0.15340   0.15000  -0.1572  0.0447  1.0000  -6.9474   0.0000   0.0000   0.0000   0.3088
  19.500   1.6469   0.15520   0.15185  -0.1582  0.0441  1.0000  -6.9863   0.0000   0.0000   0.0000   0.3092
  19.600   1.6459   0.15695   0.15363  -0.1592  0.0435  1.0000  -7.0276   0.0000   0.0000   0.0000   0.3096
  19.700   1.6451   0.15867   0.15538  -0.1601  0.0430  1.0000  -7.0703   0.0000   0.0000   0.0000   0.3099
  19.800   1.6444   0.16037   0.15712  -0.1610  0.0425  1.0000  -7.1136   0.0000   0.0000   0.0000   0.3102
  19.900   1.6436   0.16208   0.15886  -0.1619  0.0420  1.0000  -7.1566   0.0000   0.0000   0.0000   0.3106
  20.000   1.6428   0.16381   0.16063  -0.1628  0.0415  1.0000  -7.1987   0.0000   0.0000   0.0000   0.3109
  20.100   1.6420   0.16557   0.16242  -0.1638  0.0410  1.0000  -7.2409   0.0000   0.0000   0.0000   0.3113
  20.200   1.6410   0.16738   0.16425  -0.1647  0.0405  1.0000  -7.2815   0.0000   0.0000   0.0000   0.3117
  20.300   1.6397   0.16927   0.16618  -0.1657  0.0401  1.0000  -7.3188   0.0000   0.0000   0.0000   0.3121
  20.400   1.6373   0.17145   0.16839  -0.1669  0.0397  1.0000  -7.3436   0.0000   0.0000   0.0000   0.3127
  20.500   1.6351   0.17358   0.17055  -0.1681  0.0392  1.0000  -7.3710   0.0000   0.0000   0.0000   0.3133
  20.600   1.6335   0.17558   0.17257  -0.1691  0.0388  1.0000  -7.4043   0.0000   0.0000   0.0000   0.3138
  20.700   1.6322   0.17750   0.17450  -0.1702  0.0383  1.0000  -7.4410   0.0000   0.0000   0.0000   0.3143
  20.800   1.6312   0.17935   0.17637  -0.1711  0.0377  1.0000  -7.4800   0.0000   0.0000   0.0000   0.3147
  20.900   1.6302   0.18118   0.17821  -0.1721  0.0372  1.0000  -7.5194   0.0000   0.0000   0.0000   0.3150
  21.000   1.6296   0.18291   0.17996  -0.1729  0.0366  1.0000  -7.5614   0.0000   0.0000   0.0000   0.3153
  21.100   1.6293   0.18451   0.18157  -0.1737  0.0359  1.0000  -7.6067   0.0000   0.0000   0.0000   0.3155
  21.200   1.6292   0.18601   0.18309  -0.1743  0.0351  1.0000  -7.6523   0.0000   0.0000   0.0000   0.3156
  21.300   1.6282   0.18767   0.18480  -0.1750  0.0343  1.0000  -7.6849   0.0000   0.0000   0.0000   0.3158
  21.400   1.6267   0.18973   0.18690  -0.1760  0.0341  1.0000  -7.7165   0.0000   0.0000   0.0000   0.3163
  21.500   1.6254   0.19182   0.18903  -0.1771  0.0339  1.0000  -7.7517   0.0000   0.0000   0.0000   0.3168
  21.600   1.6238   0.19403   0.19129  -0.1783  0.0338  1.0000  -7.7823   0.0000   0.0000   0.0000   0.3173
  21.700   1.6219   0.19635   0.19366  -0.1795  0.0336  1.0000  -7.8086   0.0000   0.0000   0.0000   0.3180
  21.800   1.6193   0.19883   0.19620  -0.1808  0.0334  1.0000  -7.8277   0.0000   0.0000   0.0000   0.3187
  21.900   1.6149   0.20184   0.19927  -0.1824  0.0332  1.0000  -7.8246   0.0000   0.0000   0.0000   0.3197
  22.000   1.6112   0.20468   0.20217  -0.1838  0.0331  1.0000  -7.8289   0.0000   0.0000   0.0000   0.3207
  22.100   1.6081   0.20736   0.20490  -0.1852  0.0328  1.0000  -7.8401   0.0000   0.0000   0.0000   0.3215
  22.200   1.6052   0.21000   0.20759  -0.1865  0.0326  1.0000  -7.8531   0.0000   0.0000   0.0000   0.3223
  22.300   1.6023   0.21266   0.21030  -0.1878  0.0323  1.0000  -7.8656   0.0000   0.0000   0.0000   0.3231
  22.400   1.5993   0.21537   0.21307  -0.1892  0.0320  1.0000  -7.8765   0.0000   0.0000   0.0000   0.3239
  22.500   1.5959   0.21820   0.21596  -0.1905  0.0318  1.0000  -7.8825   0.0000   0.0000   0.0000   0.3247
  22.600   1.5918   0.22125   0.21905  -0.1920  0.0315  1.0000  -7.8804   0.0000   0.0000   0.0000   0.3257
  22.700   1.5846   0.22529   0.22315  -0.1940  0.0312  1.0000  -7.8369   0.0000   0.0000   0.0000   0.3273
  22.800   1.5787   0.22895   0.22687  -0.1957  0.0310  1.0000  -7.8094   0.0000   0.0000   0.0000   0.3287
  22.900   1.5737   0.23234   0.23032  -0.1973  0.0307  1.0000  -7.7934   0.0000   0.0000   0.0000   0.3299
  23.000   1.5688   0.23572   0.23375  -0.1988  0.0303  1.0000  -7.7785   0.0000   0.0000   0.0000   0.3310
  23.100   1.5638   0.23917   0.23725  -0.2004  0.0300  1.0000  -7.7612   0.0000   0.0000   0.0000   0.3322
  23.200   1.5577   0.24301   0.24113  -0.2021  0.0297  1.0000  -7.7282   0.0000   0.0000   0.0000   0.3336
  23.300   1.5405   0.25040   0.24863  -0.2052  0.0297  1.0000  -7.5469   0.0000   0.0000   0.0000   0.3371
  23.400   1.5228   0.25805   0.25638  -0.2083  0.0296  1.0000  -7.3543   0.0000   0.0000   0.0000   0.3407


