xflr5 v6.61

 Calculated polar for: S1223

 1 1 Reynolds number fixed          Mach number fixed         

 xtrf =   1.000 (top)        1.000 (bottom)
 Mach =   0.000     Re =     0.200 e 6     Ncrit =   9.000

  alpha     CL        CD       CDp       Cm    Top Xtr Bot Xtr   Cpmin    Chinge    XCp    
 ------- -------- --------- --------- -------- ------- ------- -------- --------- ---------
 -10.000  -0.2083   0.14868   0.14528  -0.0174  1.0000  0.0232  -1.0471   0.0000   0.0000   0.0000   0.1470
  -9.900  -0.2074   0.14793   0.14455  -0.0172  1.0000  0.0233  -1.0474   0.0000   0.0000   0.0000   0.1477
  -9.800  -0.2066   0.14719   0.14382  -0.0170  1.0000  0.0233  -1.0478   0.0000   0.0000   0.0000   0.1486
  -9.700  -0.2015   0.14608   0.14269  -0.0179  0.9994  0.0235  -1.0458   0.0000   0.0000   0.0000   0.1414
  -9.600  -0.1911   0.14453   0.14114  -0.0203  0.9981  0.0237  -1.0409   0.0000   0.0000   0.0000   0.1228
  -9.500  -0.1812   0.14297   0.13958  -0.0225  0.9966  0.0239  -1.0364   0.0000   0.0000   0.0000   0.1036
  -9.400  -0.1721   0.14152   0.13812  -0.0246  0.9953  0.0241  -1.0325   0.0000   0.0000   0.0000   0.0838
  -9.200  -0.1543   0.13861   0.13520  -0.0284  0.9925  0.0245  -1.0254   0.0000   0.0000   0.0000   0.0396
  -9.100  -0.1461   0.13720   0.13379  -0.0302  0.9910  0.0247  -1.0224   0.0000   0.0000   0.0000   0.0159
  -9.000  -0.1378   0.13582   0.13241  -0.0320  0.9897  0.0249  -1.0195   0.0000   0.0000   0.0000  -0.0114
  -8.900  -0.1292   0.13445   0.13104  -0.0338  0.9887  0.0251  -1.0169   0.0000   0.0000   0.0000  -0.0431
  -8.800  -0.1217   0.13308   0.12966  -0.0354  0.9871  0.0253  -1.0147   0.0000   0.0000   0.0000  -0.0737
  -8.700  -0.1148   0.13173   0.12831  -0.0367  0.9852  0.0255  -1.0130   0.0000   0.0000   0.0000  -0.1052
  -8.600  -0.1071   0.13038   0.12697  -0.0383  0.9837  0.0257  -1.0114   0.0000   0.0000   0.0000  -0.1453
  -8.500  -0.0989   0.12903   0.12562  -0.0400  0.9824  0.0260  -1.0099   0.0000   0.0000   0.0000  -0.1953
  -8.400  -0.0904   0.12767   0.12426  -0.0419  0.9814  0.0262  -1.0087   0.0000   0.0000   0.0000  -0.2582
  -8.300  -0.0834   0.12637   0.12296  -0.0433  0.9796  0.0265  -1.0084   0.0000   0.0000   0.0000  -0.3173
  -8.200  -0.0773   0.12512   0.12171  -0.0444  0.9771  0.0267  -1.0090   0.0000   0.0000   0.0000  -0.3756
  -8.100  -0.0700   0.12383   0.12043  -0.0459  0.9753  0.0270  -1.0099   0.0000   0.0000   0.0000  -0.4629
  -8.000  -0.0618   0.12254   0.11913  -0.0477  0.9737  0.0273  -1.0115   0.0000   0.0000   0.0000  -0.5846
  -7.900  -0.0531   0.12125   0.11784  -0.0496  0.9725  0.0276  -1.0141   0.0000   0.0000   0.0000  -0.7585
  -7.800  -0.0438   0.11998   0.11657  -0.0518  0.9714  0.0279  -1.0182   0.0000   0.0000   0.0000  -1.0213
  -7.700  -0.0398   0.11897   0.11556  -0.0525  0.9680  0.0281  -1.0243   0.0000   0.0000   0.0000  -1.1669
  -7.600  -0.0334   0.11792   0.11452  -0.0539  0.9653  0.0284  -1.0317   0.0000   0.0000   0.0000  -1.4776
  -7.500  -0.0258   0.11689   0.11349  -0.0558  0.9632  0.0286  -1.0406   0.0000   0.0000   0.0000  -2.0644
  -7.400  -0.0174   0.11589   0.11249  -0.0581  0.9615  0.0289  -1.0504   0.0000   0.0000   0.0000  -3.2949
  -7.300  -0.0087   0.11490   0.11150  -0.0605  0.9602  0.0291  -1.0606   0.0000   0.0000   0.0000  -7.1376
  -7.200   0.0004   0.11389   0.11049  -0.0630  0.9590  0.0292  -1.0705   0.0000   0.0000   0.0000  177.9826
  -7.100   0.0001   0.11326   0.10987  -0.0627  0.9536  0.0293  -1.0793   0.0000   0.0000   0.0000  1088.4585
  -7.000   0.0059   0.11233   0.10896  -0.0642  0.9507  0.0294  -1.0878   0.0000   0.0000   0.0000  11.7338
  -6.900   0.0137   0.11124   0.10787  -0.0661  0.9485  0.0295  -1.0933   0.0000   0.0000   0.0000   5.3379
  -6.800   0.0226   0.11003   0.10665  -0.0681  0.9468  0.0296  -1.0959   0.0000   0.0000   0.0000   3.4153
  -6.700   0.0324   0.10871   0.10533  -0.0702  0.9455  0.0297  -1.0958   0.0000   0.0000   0.0000   2.5245
  -6.500   0.0402   0.10671   0.10335  -0.0711  0.9375  0.0297  -1.0999   0.0000   0.0000   0.0000   2.1024
  -6.400   0.0465   0.10554   0.10219  -0.0722  0.9342  0.0298  -1.1011   0.0000   0.0000   0.0000   1.8740
  -6.300   0.0545   0.10424   0.10089  -0.0737  0.9318  0.0298  -1.1016   0.0000   0.0000   0.0000   1.6641
  -6.200   0.0634   0.10288   0.09953  -0.0755  0.9298  0.0299  -1.1018   0.0000   0.0000   0.0000   1.4931
  -6.100   0.0728   0.10146   0.09811  -0.0774  0.9282  0.0299  -1.1018   0.0000   0.0000   0.0000   1.3570
  -6.000   0.0828   0.09999   0.09664  -0.0794  0.9269  0.0299  -1.1017   0.0000   0.0000   0.0000   1.2480
  -5.900   0.0765   0.09967   0.09635  -0.0771  0.9180  0.0299  -1.1082   0.0000   0.0000   0.0000   1.2979
  -5.800   0.0823   0.09848   0.09517  -0.0780  0.9143  0.0300  -1.1100   0.0000   0.0000   0.0000   1.2342
  -5.700   0.0899   0.09716   0.09385  -0.0793  0.9116  0.0300  -1.1111   0.0000   0.0000   0.0000   1.1659
  -5.600   0.0984   0.09575   0.09244  -0.0809  0.9095  0.0300  -1.1119   0.0000   0.0000   0.0000   1.1023
  -5.500   0.1078   0.09426   0.09092  -0.0827  0.9077  0.0300  -1.1125   0.0000   0.0000   0.0000   1.0445
  -5.400   0.1040   0.09378   0.09046  -0.0811  0.8994  0.0300  -1.1183   0.0000   0.0000   0.0000   1.0568
  -5.300   0.1084   0.09262   0.08931  -0.0816  0.8942  0.0300  -1.1208   0.0000   0.0000   0.0000   1.0274
  -5.200   0.1171   0.09113   0.08782  -0.0831  0.8908  0.0301  -1.1216   0.0000   0.0000   0.0000   0.9828
  -5.100   0.1173   0.08688   0.08361  -0.0842  0.8888  0.0308  -1.1956   0.0000   0.0000   0.0000   0.9906
  -5.000   0.1253   0.08467   0.08140  -0.0847  0.8870  0.0313  -1.1735   0.0000   0.0000   0.0000   0.9472
  -4.800   0.1322   0.08237   0.07913  -0.0834  0.8758  0.0318  -1.1262   0.0000   0.0000   0.0000   0.8995
  -4.700   0.1372   0.08121   0.07797  -0.0829  0.8700  0.0322  -1.0985   0.0000   0.0000   0.0000   0.8717
  -4.600   0.1457   0.07984   0.07660  -0.0832  0.8660  0.0325  -1.0670   0.0000   0.0000   0.0000   0.8375
  -4.500   0.1563   0.07835   0.07511  -0.0843  0.8627  0.0330  -1.0367   0.0000   0.0000   0.0000   0.8038
  -4.300   0.1655   0.07633   0.07310  -0.0841  0.8471  0.0337  -1.0051   0.0000   0.0000   0.0000   0.7713
  -4.200   0.1755   0.07493   0.07169  -0.0854  0.8410  0.0342  -0.9848   0.0000   0.0000   0.0000   0.7482
  -4.100   0.1897   0.07326   0.06999  -0.0877  0.8361  0.0348  -0.9624   0.0000   0.0000   0.0000   0.7228
  -4.000   0.2010   0.07180   0.06852  -0.0894  0.8285  0.0354  -0.9462   0.0000   0.0000   0.0000   0.7046
  -3.900   0.2109   0.07046   0.06716  -0.0909  0.8176  0.0359  -0.9336   0.0000   0.0000   0.0000   0.6899
  -3.800   0.2309   0.06844   0.06508  -0.0948  0.8093  0.0369  -0.9140   0.0000   0.0000   0.0000   0.6687
  -3.700   0.2525   0.06637   0.06295  -0.0993  0.7990  0.0380  -0.8968   0.0000   0.0000   0.0000   0.6505
  -3.600   0.2745   0.06433   0.06083  -0.1040  0.7846  0.0392  -0.8883   0.0000   0.0000   0.0000   0.6355
  -3.500   0.3059   0.06184   0.05822  -0.1114  0.7701  0.0410  -0.9064   0.0000   0.0000   0.0000   0.6202
  -3.400   0.3341   0.05973   0.05597  -0.1187  0.7501  0.0430  -0.9214   0.0000   0.0000   0.0000   0.6105
  -3.300   0.3762   0.05789   0.05394  -0.1311  0.7267  0.0455  -0.9402   0.0000   0.0000   0.0000   0.6032
  -3.200   0.4053   0.05622   0.05207  -0.1383  0.7047  0.0460  -0.9558   0.0000   0.0000   0.0000   0.5953
  -3.100   0.4228   0.05484   0.05055  -0.1423  0.6848  0.0461  -0.9658   0.0000   0.0000   0.0000   0.5903
  -3.000   0.4398   0.05341   0.04897  -0.1462  0.6682  0.0462  -0.9755   0.0000   0.0000   0.0000   0.5858
  -2.900   0.4433   0.04961   0.04514  -0.1491  0.6585  0.0475  -1.0037   0.0000   0.0000   0.0000   0.5895
  -2.800   0.4470   0.04872   0.04415  -0.1482  0.6454  0.0483  -0.9816   0.0000   0.0000   0.0000   0.5846
  -2.700   0.4519   0.04818   0.04352  -0.1474  0.6339  0.0490  -0.9878   0.0000   0.0000   0.0000   0.5789
  -2.600   0.4569   0.04764   0.04295  -0.1468  0.6234  0.0496  -0.9936   0.0000   0.0000   0.0000   0.5738
  -2.500   0.4633   0.04713   0.04236  -0.1465  0.6135  0.0504  -1.0002   0.0000   0.0000   0.0000   0.5685
  -2.300   0.4819   0.04581   0.04090  -0.1479  0.5967  0.0525  -1.0153   0.0000   0.0000   0.0000   0.5587
  -2.200   0.4928   0.04498   0.04002  -0.1493  0.5896  0.0538  -1.0231   0.0000   0.0000   0.0000   0.5545
  -2.100   0.5069   0.04396   0.03894  -0.1517  0.5824  0.0555  -1.0324   0.0000   0.0000   0.0000   0.5506
  -2.000   0.5268   0.04263   0.03751  -0.1559  0.5752  0.0578  -1.0440   0.0000   0.0000   0.0000   0.5470
  -1.900   0.8447   0.02056   0.01319  -0.2435  0.5542  0.0334  -1.3302   0.0000   0.0000   0.0000   0.5391
  -1.800   0.8710   0.01990   0.01230  -0.2470  0.5478  0.0343  -1.2963   0.0000   0.0000   0.0000   0.5343
  -1.700   0.8918   0.01956   0.01181  -0.2492  0.5419  0.0359  -1.2474   0.0000   0.0000   0.0000   0.5299
  -1.600   0.9102   0.01939   0.01149  -0.2508  0.5364  0.0378  -1.2504   0.0000   0.0000   0.0000   0.5259
  -1.500   0.9302   0.01929   0.01121  -0.2527  0.5304  0.0398  -1.2668   0.0000   0.0000   0.0000   0.5218
  -1.400   0.9493   0.01914   0.01095  -0.2544  0.5258  0.0415  -1.2826   0.0000   0.0000   0.0000   0.5180
  -1.300   0.9646   0.01898   0.01072  -0.2553  0.5225  0.0427  -1.2961   0.0000   0.0000   0.0000   0.5144
  -1.100   0.9987   0.01858   0.01020  -0.2580  0.5151  0.0504  -1.3257   0.0000   0.0000   0.0000   0.5077
  -1.000   1.0137   0.01851   0.01012  -0.2589  0.5113  0.0539  -1.3396   0.0000   0.0000   0.0000   0.5047
  -0.900   1.0297   0.01840   0.00995  -0.2599  0.5076  0.0550  -1.3537   0.0000   0.0000   0.0000   0.5015
  -0.800   1.0466   0.01828   0.00973  -0.2610  0.5040  0.0546  -1.3685   0.0000   0.0000   0.0000   0.4983
  -0.700   1.0636   0.01821   0.00957  -0.2621  0.5004  0.0545  -1.3833   0.0000   0.0000   0.0000   0.4952
  -0.600   1.0813   0.01820   0.00946  -0.2634  0.4965  0.0546  -1.3986   0.0000   0.0000   0.0000   0.4922
  -0.500   1.1010   0.01826   0.00942  -0.2651  0.4918  0.0551  -1.4150   0.0000   0.0000   0.0000   0.4893
  -0.400   1.1173   0.01825   0.00937  -0.2662  0.4890  0.0559  -1.4293   0.0000   0.0000   0.0000   0.4865
  -0.300   1.1317   0.01819   0.00929  -0.2667  0.4869  0.0573  -1.4426   0.0000   0.0000   0.0000   0.4838
  -0.200   1.1461   0.01816   0.00922  -0.2673  0.4846  0.0592  -1.4560   0.0000   0.0000   0.0000   0.4812
  -0.100   1.1605   0.01815   0.00916  -0.2679  0.4820  0.0621  -1.4694   0.0000   0.0000   0.0000   0.4786
   0.000   1.1886   0.01778   0.00918  -0.2716  0.4789  0.2287  -1.4915   0.0000   0.0000   0.0000   0.4762
   0.100   1.1984   0.01797   0.00939  -0.2712  0.4766  0.2738  -1.5022   0.0000   0.0000   0.0000   0.4738
   0.200   1.2090   0.01812   0.00960  -0.2710  0.4743  0.2966  -1.5139   0.0000   0.0000   0.0000   0.4715
   0.300   1.2184   0.01832   0.00978  -0.2705  0.4722  0.3123  -1.5258   0.0000   0.0000   0.0000   0.4692
   0.400   1.2297   0.01846   0.00988  -0.2705  0.4700  0.3223  -1.5388   0.0000   0.0000   0.0000   0.4669
   0.500   1.2401   0.01861   0.01011  -0.2703  0.4679  0.3389  -1.5515   0.0000   0.0000   0.0000   0.4647
   0.600   1.2499   0.01883   0.01031  -0.2699  0.4658  0.3522  -1.5636   0.0000   0.0000   0.0000   0.4626
   0.700   1.2610   0.01903   0.01045  -0.2698  0.4637  0.3589  -1.5765   0.0000   0.0000   0.0000   0.4604
   0.800   1.2749   0.01913   0.01048  -0.2703  0.4614  0.3641  -1.5913   0.0000   0.0000   0.0000   0.4584
   0.900   1.2896   0.01924   0.01056  -0.2711  0.4589  0.3702  -1.6065   0.0000   0.0000   0.0000   0.4564
   1.000   1.3044   0.01945   0.01073  -0.2719  0.4562  0.3760  -1.6217   0.0000   0.0000   0.0000   0.4544
   1.100   1.3202   0.01973   0.01097  -0.2729  0.4534  0.3821  -1.6372   0.0000   0.0000   0.0000   0.4525
   1.200   1.3313   0.01979   0.01105  -0.2728  0.4525  0.3874  -1.6501   0.0000   0.0000   0.0000   0.4506
   1.300   1.3426   0.01985   0.01111  -0.2728  0.4515  0.3926  -1.6630   0.0000   0.0000   0.0000   0.4487
   1.400   1.3541   0.01993   0.01119  -0.2728  0.4505  0.3976  -1.6761   0.0000   0.0000   0.0000   0.4468
   1.500   1.3656   0.02002   0.01126  -0.2728  0.4493  0.4022  -1.6892   0.0000   0.0000   0.0000   0.4449
   1.600   1.3775   0.02009   0.01133  -0.2729  0.4480  0.4075  -1.7026   0.0000   0.0000   0.0000   0.4431
   1.700   1.3900   0.02013   0.01142  -0.2732  0.4467  0.4164  -1.7164   0.0000   0.0000   0.0000   0.4414
   1.800   1.4021   0.02020   0.01157  -0.2734  0.4454  0.4248  -1.7300   0.0000   0.0000   0.0000   0.4396
   1.900   1.4137   0.02030   0.01168  -0.2734  0.4440  0.4327  -1.7432   0.0000   0.0000   0.0000   0.4379
   2.000   1.4253   0.02041   0.01179  -0.2735  0.4425  0.4411  -1.7565   0.0000   0.0000   0.0000   0.4362
   2.100   1.4367   0.02052   0.01189  -0.2735  0.4410  0.4491  -1.7697   0.0000   0.0000   0.0000   0.4345
   2.200   1.4489   0.02060   0.01199  -0.2737  0.4395  0.4605  -1.7835   0.0000   0.0000   0.0000   0.4329
   2.300   1.4607   0.02068   0.01212  -0.2738  0.4378  0.4723  -1.7972   0.0000   0.0000   0.0000   0.4313
   2.400   1.4721   0.02078   0.01223  -0.2738  0.4362  0.4848  -1.8106   0.0000   0.0000   0.0000   0.4296
   2.500   1.4834   0.02090   0.01233  -0.2738  0.4347  0.4971  -1.8240   0.0000   0.0000   0.0000   0.4281
   2.600   1.4954   0.02098   0.01246  -0.2739  0.4331  0.5139  -1.8380   0.0000   0.0000   0.0000   0.4265
   2.700   1.5069   0.02109   0.01260  -0.2740  0.4316  0.5317  -1.8517   0.0000   0.0000   0.0000   0.4250
   2.800   1.5186   0.02122   0.01272  -0.2741  0.4301  0.5501  -1.8653   0.0000   0.0000   0.0000   0.4234
   2.900   1.5305   0.02133   0.01289  -0.2742  0.4287  0.5723  -1.8792   0.0000   0.0000   0.0000   0.4220
   3.100   1.5546   0.02162   0.01324  -0.2745  0.4260  0.6228  -1.9069   0.0000   0.0000   0.0000   0.4190
   3.200   1.5667   0.02179   0.01344  -0.2747  0.4245  0.6521  -1.9207   0.0000   0.0000   0.0000   0.4176
   3.300   1.5788   0.02198   0.01366  -0.2749  0.4230  0.6866  -1.9343   0.0000   0.0000   0.0000   0.4162
   3.400   1.5901   0.02218   0.01392  -0.2749  0.4214  0.7268  -1.9471   0.0000   0.0000   0.0000   0.4148
   3.600   1.6075   0.02264   0.01453  -0.2738  0.4179  0.8475  -1.9698   0.0000   0.0000   0.0000   0.4119
   3.800   1.6220   0.02280   0.01474  -0.2721  0.4164  1.0000  -1.9920   0.0000   0.0000   0.0000   0.4090
   3.900   1.6327   0.02294   0.01487  -0.2720  0.4158  1.0000  -2.0063   0.0000   0.0000   0.0000   0.4077
   4.000   1.6433   0.02308   0.01502  -0.2719  0.4151  1.0000  -2.0204   0.0000   0.0000   0.0000   0.4064
   4.100   1.6538   0.02324   0.01517  -0.2717  0.4144  1.0000  -2.0345   0.0000   0.0000   0.0000   0.4051
   4.200   1.6642   0.02339   0.01534  -0.2716  0.4136  1.0000  -2.0484   0.0000   0.0000   0.0000   0.4038
   4.300   1.6745   0.02356   0.01551  -0.2714  0.4127  1.0000  -2.0624   0.0000   0.0000   0.0000   0.4025
   4.400   1.6849   0.02373   0.01576  -0.2713  0.4118  1.0000  -2.0763   0.0000   0.0000   0.0000   0.4012
   4.500   1.6952   0.02390   0.01594  -0.2711  0.4109  1.0000  -2.0901   0.0000   0.0000   0.0000   0.4000
   4.600   1.7054   0.02408   0.01613  -0.2709  0.4100  1.0000  -2.1047   0.0000   0.0000   0.0000   0.3987
   4.700   1.7157   0.02426   0.01632  -0.2707  0.4090  1.0000  -2.1202   0.0000   0.0000   0.0000   0.3975
   4.800   1.7258   0.02444   0.01651  -0.2706  0.4079  1.0000  -2.1356   0.0000   0.0000   0.0000   0.3963
   4.900   1.7359   0.02462   0.01669  -0.2703  0.4068  1.0000  -2.1510   0.0000   0.0000   0.0000   0.3951
   5.000   1.7458   0.02479   0.01687  -0.2701  0.4056  1.0000  -2.1665   0.0000   0.0000   0.0000   0.3939
   5.100   1.7557   0.02496   0.01704  -0.2698  0.4044  1.0000  -2.1819   0.0000   0.0000   0.0000   0.3927
   5.200   1.7655   0.02512   0.01721  -0.2696  0.4031  1.0000  -2.1974   0.0000   0.0000   0.0000   0.3915
   5.300   1.7752   0.02529   0.01737  -0.2693  0.4018  1.0000  -2.2129   0.0000   0.0000   0.0000   0.3903
   5.400   1.7851   0.02545   0.01753  -0.2690  0.4005  1.0000  -2.2289   0.0000   0.0000   0.0000   0.3892
   5.500   1.7949   0.02562   0.01770  -0.2688  0.3993  1.0000  -2.2462   0.0000   0.0000   0.0000   0.3880
   5.600   1.8049   0.02580   0.01788  -0.2686  0.3981  1.0000  -2.2636   0.0000   0.0000   0.0000   0.3869
   5.700   1.8149   0.02598   0.01807  -0.2684  0.3971  1.0000  -2.2810   0.0000   0.0000   0.0000   0.3858
   5.800   1.8250   0.02618   0.01826  -0.2682  0.3960  1.0000  -2.3003   0.0000   0.0000   0.0000   0.3846
   5.900   1.8351   0.02637   0.01845  -0.2680  0.3949  1.0000  -2.3197   0.0000   0.0000   0.0000   0.3836
   6.000   1.8452   0.02657   0.01864  -0.2678  0.3939  1.0000  -2.3391   0.0000   0.0000   0.0000   0.3825
   6.100   1.8552   0.02676   0.01883  -0.2676  0.3927  1.0000  -2.3587   0.0000   0.0000   0.0000   0.3814
   6.200   1.8653   0.02696   0.01901  -0.2674  0.3915  1.0000  -2.3784   0.0000   0.0000   0.0000   0.3803
   6.300   1.8754   0.02717   0.01921  -0.2672  0.3903  1.0000  -2.3981   0.0000   0.0000   0.0000   0.3793
   6.400   1.8857   0.02742   0.01944  -0.2671  0.3888  1.0000  -2.4180   0.0000   0.0000   0.0000   0.3782
   6.500   1.8963   0.02773   0.01974  -0.2671  0.3873  1.0000  -2.4382   0.0000   0.0000   0.0000   0.3772
   6.600   1.9076   0.02817   0.02016  -0.2673  0.3854  1.0000  -2.4587   0.0000   0.0000   0.0000   0.3763
   6.700   1.9189   0.02889   0.02090  -0.2675  0.3832  1.0000  -2.4784   0.0000   0.0000   0.0000   0.3754
   6.800   1.9284   0.02946   0.02150  -0.2674  0.3817  1.0000  -2.4979   0.0000   0.0000   0.0000   0.3745
   6.900   1.9369   0.02959   0.02168  -0.2669  0.3812  1.0000  -2.5180   0.0000   0.0000   0.0000   0.3734
   7.000   1.9451   0.02973   0.02185  -0.2663  0.3805  1.0000  -2.5379   0.0000   0.0000   0.0000   0.3723
   7.100   1.9532   0.02986   0.02218  -0.2657  0.3797  1.0000  -2.5593   0.0000   0.0000   0.0000   0.3713
   7.200   1.9612   0.03000   0.02236  -0.2651  0.3788  1.0000  -2.5813   0.0000   0.0000   0.0000   0.3702
   7.300   1.9691   0.03015   0.02254  -0.2644  0.3778  1.0000  -2.6032   0.0000   0.0000   0.0000   0.3692
   7.400   1.9767   0.03030   0.02274  -0.2638  0.3767  1.0000  -2.6249   0.0000   0.0000   0.0000   0.3681
   7.500   1.9841   0.03046   0.02294  -0.2630  0.3755  1.0000  -2.6463   0.0000   0.0000   0.0000   0.3670
   7.600   1.9915   0.03063   0.02314  -0.2623  0.3743  1.0000  -2.6677   0.0000   0.0000   0.0000   0.3660
   7.700   1.9989   0.03080   0.02335  -0.2616  0.3729  1.0000  -2.6946   0.0000   0.0000   0.0000   0.3650
   7.800   2.0064   0.03098   0.02357  -0.2609  0.3716  1.0000  -2.7255   0.0000   0.0000   0.0000   0.3639
   7.900   2.0139   0.03116   0.02378  -0.2602  0.3702  1.0000  -2.7567   0.0000   0.0000   0.0000   0.3629
   8.000   2.0214   0.03133   0.02398  -0.2596  0.3688  1.0000  -2.7881   0.0000   0.0000   0.0000   0.3619
   8.100   2.0290   0.03150   0.02417  -0.2589  0.3674  1.0000  -2.8197   0.0000   0.0000   0.0000   0.3609
   8.200   2.0367   0.03166   0.02436  -0.2583  0.3660  1.0000  -2.8517   0.0000   0.0000   0.0000   0.3599
   8.300   2.0445   0.03183   0.02455  -0.2576  0.3647  1.0000  -2.8839   0.0000   0.0000   0.0000   0.3589
   8.400   2.0525   0.03201   0.02475  -0.2571  0.3634  1.0000  -2.9165   0.0000   0.0000   0.0000   0.3579
   8.500   2.0606   0.03220   0.02496  -0.2565  0.3622  1.0000  -2.9494   0.0000   0.0000   0.0000   0.3569
   8.600   2.0687   0.03237   0.02514  -0.2560  0.3609  1.0000  -2.9826   0.0000   0.0000   0.0000   0.3560
   8.700   2.0769   0.03253   0.02530  -0.2554  0.3596  1.0000  -3.0162   0.0000   0.0000   0.0000   0.3550
   8.800   2.0853   0.03267   0.02545  -0.2549  0.3583  1.0000  -3.0502   0.0000   0.0000   0.0000   0.3541
   8.900   2.0938   0.03283   0.02560  -0.2544  0.3569  1.0000  -3.0846   0.0000   0.0000   0.0000   0.3531
   9.000   2.1024   0.03300   0.02576  -0.2540  0.3554  1.0000  -3.1195   0.0000   0.0000   0.0000   0.3522
   9.100   2.1113   0.03322   0.02597  -0.2536  0.3537  1.0000  -3.1548   0.0000   0.0000   0.0000   0.3513
   9.200   2.1216   0.03361   0.02633  -0.2536  0.3516  1.0000  -3.1924   0.0000   0.0000   0.0000   0.3505
   9.300   2.1327   0.03459   0.02733  -0.2540  0.3484  1.0000  -3.2302   0.0000   0.0000   0.0000   0.3499
   9.400   2.1381   0.03490   0.02769  -0.2530  0.3472  1.0000  -3.2592   0.0000   0.0000   0.0000   0.3489
   9.500   2.1426   0.03499   0.02785  -0.2518  0.3464  1.0000  -3.2873   0.0000   0.0000   0.0000   0.3478
   9.600   2.1469   0.03511   0.02803  -0.2505  0.3455  1.0000  -3.3148   0.0000   0.0000   0.0000   0.3468
   9.700   2.1505   0.03526   0.02823  -0.2490  0.3444  1.0000  -3.3413   0.0000   0.0000   0.0000   0.3457
   9.800   2.1531   0.03544   0.02859  -0.2474  0.3432  1.0000  -3.3658   0.0000   0.0000   0.0000   0.3446
   9.900   2.1552   0.03563   0.02885  -0.2457  0.3419  1.0000  -3.3896   0.0000   0.0000   0.0000   0.3435
  10.000   2.1571   0.03583   0.02911  -0.2440  0.3405  1.0000  -3.4131   0.0000   0.0000   0.0000   0.3424
  10.100   2.1594   0.03604   0.02937  -0.2424  0.3391  1.0000  -3.4373   0.0000   0.0000   0.0000   0.3414
  10.200   2.1618   0.03624   0.02962  -0.2408  0.3376  1.0000  -3.4617   0.0000   0.0000   0.0000   0.3403
  10.300   2.1643   0.03642   0.02984  -0.2392  0.3359  1.0000  -3.4866   0.0000   0.0000   0.0000   0.3392
  10.400   2.1671   0.03656   0.03002  -0.2376  0.3342  1.0000  -3.5123   0.0000   0.0000   0.0000   0.3381
  10.500   2.1703   0.03668   0.03016  -0.2362  0.3324  1.0000  -3.5389   0.0000   0.0000   0.0000   0.3371
  10.600   2.1738   0.03677   0.03027  -0.2348  0.3306  1.0000  -3.5663   0.0000   0.0000   0.0000   0.3360
  10.700   2.1777   0.03684   0.03035  -0.2334  0.3287  1.0000  -3.5946   0.0000   0.0000   0.0000   0.3350
  10.800   2.1819   0.03691   0.03042  -0.2322  0.3269  1.0000  -3.6238   0.0000   0.0000   0.0000   0.3340
  10.900   2.1864   0.03699   0.03050  -0.2310  0.3252  1.0000  -3.6535   0.0000   0.0000   0.0000   0.3330
  11.000   2.1909   0.03709   0.03060  -0.2298  0.3234  1.0000  -3.6832   0.0000   0.0000   0.0000   0.3320
  11.100   2.1962   0.03724   0.03073  -0.2288  0.3214  1.0000  -3.7144   0.0000   0.0000   0.0000   0.3311
  11.200   2.2039   0.03746   0.03091  -0.2283  0.3190  1.0000  -3.7501   0.0000   0.0000   0.0000   0.3302
  11.300   2.2174   0.03802   0.03143  -0.2290  0.3154  1.0000  -3.7990   0.0000   0.0000   0.0000   0.3297
  11.400   2.2180   0.03837   0.03185  -0.2272  0.3142  1.0000  -3.8237   0.0000   0.0000   0.0000   0.3287
  11.500   2.2166   0.03868   0.03225  -0.2251  0.3133  1.0000  -3.8445   0.0000   0.0000   0.0000   0.3275
  11.600   2.2154   0.03902   0.03267  -0.2230  0.3123  1.0000  -3.8658   0.0000   0.0000   0.0000   0.3264
  11.700   2.2146   0.03938   0.03312  -0.2211  0.3111  1.0000  -3.8879   0.0000   0.0000   0.0000   0.3254
  11.800   2.2140   0.03977   0.03359  -0.2192  0.3097  1.0000  -3.9104   0.0000   0.0000   0.0000   0.3243
  11.900   2.2139   0.04018   0.03407  -0.2174  0.3083  1.0000  -3.9338   0.0000   0.0000   0.0000   0.3233
  12.000   2.2143   0.04058   0.03454  -0.2157  0.3067  1.0000  -3.9584   0.0000   0.0000   0.0000   0.3223
  12.100   2.2148   0.04098   0.03501  -0.2141  0.3050  1.0000  -3.9832   0.0000   0.0000   0.0000   0.3213
  12.200   2.2156   0.04138   0.03547  -0.2126  0.3032  1.0000  -4.0088   0.0000   0.0000   0.0000   0.3204
  12.300   2.2168   0.04176   0.03590  -0.2111  0.3014  1.0000  -4.0354   0.0000   0.0000   0.0000   0.3194
  12.400   2.2184   0.04212   0.03630  -0.2097  0.2996  1.0000  -4.0629   0.0000   0.0000   0.0000   0.3185
  12.500   2.2200   0.04248   0.03670  -0.2083  0.2978  1.0000  -4.0907   0.0000   0.0000   0.0000   0.3176
  12.600   2.2217   0.04283   0.03709  -0.2070  0.2960  1.0000  -4.1187   0.0000   0.0000   0.0000   0.3166
  12.700   2.2235   0.04319   0.03747  -0.2057  0.2942  1.0000  -4.1469   0.0000   0.0000   0.0000   0.3157
  12.800   2.2257   0.04353   0.03783  -0.2044  0.2924  1.0000  -4.1763   0.0000   0.0000   0.0000   0.3148
  12.900   2.2284   0.04387   0.03816  -0.2033  0.2906  1.0000  -4.2069   0.0000   0.0000   0.0000   0.3140
  13.000   2.2314   0.04422   0.03851  -0.2022  0.2885  1.0000  -4.2381   0.0000   0.0000   0.0000   0.3131
  13.100   2.2356   0.04461   0.03887  -0.2013  0.2861  1.0000  -4.2718   0.0000   0.0000   0.0000   0.3123
  13.200   2.2409   0.04507   0.03939  -0.2006  0.2833  1.0000  -4.3076   0.0000   0.0000   0.0000   0.3115
  13.300   2.2375   0.04580   0.04022  -0.1988  0.2822  1.0000  -4.3236   0.0000   0.0000   0.0000   0.3106
  13.400   2.2342   0.04655   0.04108  -0.1970  0.2808  1.0000  -4.3397   0.0000   0.0000   0.0000   0.3097
  13.500   2.2310   0.04733   0.04196  -0.1954  0.2791  1.0000  -4.3560   0.0000   0.0000   0.0000   0.3088
  13.600   2.2283   0.04810   0.04282  -0.1938  0.2771  1.0000  -4.3734   0.0000   0.0000   0.0000   0.3080
  13.700   2.2258   0.04888   0.04369  -0.1923  0.2750  1.0000  -4.3911   0.0000   0.0000   0.0000   0.3072
  13.800   2.2234   0.04967   0.04455  -0.1909  0.2728  1.0000  -4.4092   0.0000   0.0000   0.0000   0.3064
  13.900   2.2217   0.05044   0.04538  -0.1896  0.2705  1.0000  -4.4288   0.0000   0.0000   0.0000   0.3056
  14.000   2.2201   0.05121   0.04620  -0.1884  0.2681  1.0000  -4.4488   0.0000   0.0000   0.0000   0.3048
  14.100   2.2190   0.05197   0.04700  -0.1872  0.2657  1.0000  -4.4701   0.0000   0.0000   0.0000   0.3041
  14.200   2.2187   0.05269   0.04774  -0.1861  0.2632  1.0000  -4.4932   0.0000   0.0000   0.0000   0.3034
  14.300   2.2187   0.05341   0.04845  -0.1851  0.2607  1.0000  -4.5172   0.0000   0.0000   0.0000   0.3026
  14.400   2.2180   0.05422   0.04924  -0.1841  0.2581  1.0000  -4.5393   0.0000   0.0000   0.0000   0.3019
  14.500   2.2175   0.05505   0.05004  -0.1831  0.2551  1.0000  -4.5619   0.0000   0.0000   0.0000   0.3012
  14.600   2.2151   0.05616   0.05120  -0.1821  0.2527  1.0000  -4.5788   0.0000   0.0000   0.0000   0.3006
  14.700   2.2106   0.05750   0.05266  -0.1811  0.2505  1.0000  -4.5902   0.0000   0.0000   0.0000   0.3000
  14.800   2.2061   0.05890   0.05416  -0.1802  0.2479  1.0000  -4.6013   0.0000   0.0000   0.0000   0.2995
  14.900   2.2023   0.06026   0.05561  -0.1794  0.2450  1.0000  -4.6141   0.0000   0.0000   0.0000   0.2990
  15.000   2.1983   0.06166   0.05706  -0.1786  0.2419  1.0000  -4.6266   0.0000   0.0000   0.0000   0.2985
  15.100   2.1942   0.06308   0.05852  -0.1778  0.2387  1.0000  -4.6387   0.0000   0.0000   0.0000   0.2980
  15.200   2.1905   0.06447   0.05992  -0.1772  0.2355  1.0000  -4.6521   0.0000   0.0000   0.0000   0.2976
  15.300   2.1859   0.06600   0.06144  -0.1765  0.2324  1.0000  -4.6629   0.0000   0.0000   0.0000   0.2972
  15.400   2.1809   0.06758   0.06300  -0.1759  0.2291  1.0000  -4.6726   0.0000   0.0000   0.0000   0.2968
  15.500   2.1768   0.06907   0.06443  -0.1753  0.2254  1.0000  -4.6844   0.0000   0.0000   0.0000   0.2964
  15.600   2.1699   0.07112   0.06661  -0.1750  0.2230  1.0000  -4.6869   0.0000   0.0000   0.0000   0.2962
  15.700   2.1632   0.07317   0.06876  -0.1747  0.2200  1.0000  -4.6899   0.0000   0.0000   0.0000   0.2960


