xflr5 v6.61

 Calculated polar for: S2027

 1 1 Reynolds number fixed          Mach number fixed         

 xtrf =   1.000 (top)        1.000 (bottom)
 Mach =   0.000     Re =     0.500 e 6     Ncrit =   9.000

  alpha     CL        CD       CDp       Cm    Top Xtr Bot Xtr   Cpmin    Chinge    XCp    
 ------- -------- --------- --------- -------- ------- ------- -------- --------- ---------
 -10.000  -0.3857   0.08512   0.08303  -0.0425  1.0000  0.0323  -2.0320   0.0000   0.0000   0.0000   0.1247
  -9.900  -0.3868   0.08314   0.08107  -0.0437  1.0000  0.0326  -2.0532   0.0000   0.0000   0.0000   0.1218
  -9.800  -0.3884   0.08104   0.07899  -0.0451  1.0000  0.0329  -2.0791   0.0000   0.0000   0.0000   0.1189
  -9.700  -0.3906   0.07879   0.07675  -0.0467  1.0000  0.0332  -2.1111   0.0000   0.0000   0.0000   0.1156
  -9.600  -0.3937   0.07629   0.07427  -0.0486  1.0000  0.0335  -2.1516   0.0000   0.0000   0.0000   0.1121
  -9.400  -0.4073   0.06434   0.06228  -0.0623  0.9718  0.0335  -2.4180   0.0000   0.0000   0.0000   0.0828
  -9.300  -0.4179   0.05901   0.05684  -0.0695  0.9570  0.0333  -2.5449   0.0000   0.0000   0.0000   0.0697
  -9.200  -0.4274   0.05597   0.05370  -0.0730  0.9426  0.0332  -2.6151   0.0000   0.0000   0.0000   0.0657
  -9.100  -0.4384   0.05405   0.05170  -0.0741  0.9289  0.0331  -2.6645   0.0000   0.0000   0.0000   0.0681
  -9.000  -0.4483   0.05261   0.05016  -0.0742  0.9176  0.0330  -2.6991   0.0000   0.0000   0.0000   0.0721
  -8.900  -0.4566   0.05141   0.04891  -0.0738  0.9093  0.0331  -2.7223   0.0000   0.0000   0.0000   0.0763
  -8.800  -0.4625   0.05036   0.04779  -0.0732  0.9018  0.0333  -2.7342   0.0000   0.0000   0.0000   0.0799
  -8.700  -0.4658   0.04927   0.04662  -0.0728  0.8952  0.0336  -2.7371   0.0000   0.0000   0.0000   0.0821
  -8.600  -0.4680   0.04823   0.04549  -0.0724  0.8890  0.0340  -2.7357   0.0000   0.0000   0.0000   0.0838
  -8.500  -0.4686   0.04716   0.04436  -0.0722  0.8839  0.0345  -2.7301   0.0000   0.0000   0.0000   0.0847
  -8.400  -0.4682   0.04608   0.04322  -0.0720  0.8800  0.0351  -2.7216   0.0000   0.0000   0.0000   0.0851
  -8.300  -0.4670   0.04503   0.04210  -0.0718  0.8756  0.0357  -2.7110   0.0000   0.0000   0.0000   0.0853
  -8.200  -0.4652   0.04403   0.04102  -0.0715  0.8711  0.0363  -2.6988   0.0000   0.0000   0.0000   0.0854
  -8.100  -0.4630   0.04307   0.03998  -0.0712  0.8666  0.0370  -2.6848   0.0000   0.0000   0.0000   0.0855
  -8.000  -0.4601   0.04217   0.03900  -0.0708  0.8622  0.0377  -2.6684   0.0000   0.0000   0.0000   0.0854
  -7.900  -0.4563   0.04136   0.03809  -0.0704  0.8578  0.0384  -2.6486   0.0000   0.0000   0.0000   0.0851
  -7.800  -0.4517   0.04065   0.03730  -0.0700  0.8530  0.0392  -2.6246   0.0000   0.0000   0.0000   0.0845
  -7.700  -0.4457   0.04008   0.03665  -0.0697  0.8483  0.0400  -2.5944   0.0000   0.0000   0.0000   0.0832
  -7.600  -0.4381   0.03969   0.03621  -0.0694  0.8458  0.0409  -2.5551   0.0000   0.0000   0.0000   0.0811
  -7.500  -0.4283   0.03979   0.03627  -0.0691  0.8427  0.0419  -2.4984   0.0000   0.0000   0.0000   0.0781
  -7.400  -0.4138   0.04113   0.03760  -0.0687  0.8392  0.0430  -2.4018   0.0000   0.0000   0.0000   0.0733
  -7.300  -0.4044   0.04147   0.03789  -0.0683  0.8353  0.0434  -2.3441   0.0000   0.0000   0.0000   0.0704
  -7.200  -0.3982   0.04096   0.03729  -0.0680  0.8312  0.0435  -2.3144   0.0000   0.0000   0.0000   0.0687
  -7.100  -0.3926   0.04019   0.03638  -0.0676  0.8271  0.0436  -2.2939   0.0000   0.0000   0.0000   0.0672
  -7.000  -0.3872   0.03934   0.03543  -0.0673  0.8231  0.0436  -2.2736   0.0000   0.0000   0.0000   0.0657
  -6.900  -0.3816   0.03843   0.03442  -0.0669  0.8192  0.0437  -2.2545   0.0000   0.0000   0.0000   0.0641
  -6.800  -0.4043   0.02988   0.02538  -0.0665  0.8149  0.0467  -2.4827   0.0000   0.0000   0.0000   0.0753
  -6.700  -0.3985   0.02843   0.02381  -0.0663  0.8104  0.0481  -2.4580   0.0000   0.0000   0.0000   0.0733
  -6.600  -0.3907   0.02759   0.02293  -0.0662  0.8075  0.0490  -2.4161   0.0000   0.0000   0.0000   0.0703
  -6.500  -0.3824   0.02688   0.02218  -0.0661  0.8055  0.0499  -2.3712   0.0000   0.0000   0.0000   0.0669
  -5.700  -0.3066   0.01733   0.01143  -0.0620  0.7824  0.0287  -2.4909   0.0000   0.0000   0.0000   0.0369
  -5.600  -0.2952   0.01730   0.01132  -0.0617  0.7789  0.0270  -2.4428   0.0000   0.0000   0.0000   0.0299
  -5.500  -0.2839   0.01740   0.01140  -0.0616  0.7748  0.0262  -2.3766   0.0000   0.0000   0.0000   0.0220
  -5.400  -0.2726   0.01757   0.01155  -0.0614  0.7701  0.0256  -2.3062   0.0000   0.0000   0.0000   0.0132
  -5.300  -0.2639   0.01618   0.01005  -0.0609  0.7654  0.0236  -2.3437   0.0000   0.0000   0.0000   0.0079
  -5.200  -0.2548   0.01531   0.00911  -0.0604  0.7638  0.0231  -2.3376   0.0000   0.0000   0.0000   0.0012
  -5.100  -0.2454   0.01465   0.00840  -0.0601  0.7616  0.0226  -2.3191   0.0000   0.0000   0.0000  -0.0065
  -5.000  -0.2359   0.01410   0.00780  -0.0597  0.7591  0.0222  -2.2946   0.0000   0.0000   0.0000  -0.0151
  -4.900  -0.2263   0.01363   0.00727  -0.0594  0.7561  0.0218  -2.2662   0.0000   0.0000   0.0000  -0.0245
  -4.800  -0.2167   0.01322   0.00680  -0.0591  0.7530  0.0215  -2.2347   0.0000   0.0000   0.0000  -0.0349
  -4.700  -0.2069   0.01285   0.00637  -0.0588  0.7496  0.0212  -2.2006   0.0000   0.0000   0.0000  -0.0466
  -4.600  -0.1970   0.01253   0.00597  -0.0585  0.7462  0.0210  -2.1644   0.0000   0.0000   0.0000  -0.0597
  -4.500  -0.1869   0.01224   0.00562  -0.0582  0.7428  0.0208  -2.1259   0.0000   0.0000   0.0000  -0.0746
  -4.400  -0.1768   0.01198   0.00529  -0.0580  0.7394  0.0206  -2.0858   0.0000   0.0000   0.0000  -0.0915
  -4.300  -0.1665   0.01175   0.00499  -0.0578  0.7358  0.0205  -2.0442   0.0000   0.0000   0.0000  -0.1108
  -4.200  -0.1561   0.01155   0.00471  -0.0576  0.7319  0.0204  -2.0014   0.0000   0.0000   0.0000  -0.1331
  -4.100  -0.1456   0.01139   0.00446  -0.0574  0.7276  0.0204  -1.9578   0.0000   0.0000   0.0000  -0.1591
  -4.000  -0.1348   0.01125   0.00425  -0.0573  0.7226  0.0205  -1.9133   0.0000   0.0000   0.0000  -0.1902
  -3.900  -0.1238   0.01111   0.00405  -0.0572  0.7195  0.0206  -1.8684   0.0000   0.0000   0.0000  -0.2280
  -3.800  -0.1127   0.01096   0.00386  -0.0571  0.7180  0.0210  -1.8242   0.0000   0.0000   0.0000  -0.2737
  -3.700  -0.1016   0.01083   0.00368  -0.0570  0.7160  0.0216  -1.7824   0.0000   0.0000   0.0000  -0.3299
  -3.500  -0.0858   0.00927   0.00297  -0.0566  0.7112  0.2074  -1.7989   0.0000   0.0000   0.0000  -0.4297
  -3.400  -0.0760   0.00896   0.00287  -0.0565  0.7083  0.2564  -1.7353   0.0000   0.0000   0.0000  -0.5163
  -3.300  -0.0657   0.00874   0.00280  -0.0565  0.7049  0.2929  -1.6685   0.0000   0.0000   0.0000  -0.6342
  -3.200  -0.0556   0.00853   0.00273  -0.0565  0.7013  0.3303  -1.6016   0.0000   0.0000   0.0000  -0.7938
  -3.100  -0.0451   0.00837   0.00267  -0.0564  0.6975  0.3608  -1.5340   0.0000   0.0000   0.0000  -1.0327
  -3.000  -0.0335   0.00840   0.00254  -0.0564  0.6936  0.3561  -1.4575   0.0000   0.0000   0.0000  -1.4742
  -2.900  -0.0231   0.00827   0.00250  -0.0563  0.6895  0.3852  -1.3912   0.0000   0.0000   0.0000  -2.2433
  -2.800  -0.0127   0.00816   0.00246  -0.0563  0.6851  0.4121  -1.3254   0.0000   0.0000   0.0000  -4.2796
  -2.700  -0.0020   0.00809   0.00244  -0.0562  0.6803  0.4359  -1.2596   0.0000   0.0000   0.0000  -27.8269
  -2.600   0.0087   0.00804   0.00244  -0.0562  0.6751  0.4576  -1.1942   0.0000   0.0000   0.0000   6.8211
  -2.500   0.0194   0.00795   0.00245  -0.0561  0.6725  0.4865  -1.1295   0.0000   0.0000   0.0000   3.1933
  -2.400   0.0299   0.00784   0.00247  -0.0560  0.6710  0.5181  -1.0659   0.0000   0.0000   0.0000   2.1537
  -2.300   0.0409   0.00780   0.00251  -0.0559  0.6691  0.5432  -1.0018   0.0000   0.0000   0.0000   1.6410
  -2.200   0.0519   0.00775   0.00252  -0.0559  0.6670  0.5607  -0.9387   0.0000   0.0000   0.0000   1.3437
  -2.100   0.0630   0.00771   0.00253  -0.0558  0.6646  0.5719  -0.8764   0.0000   0.0000   0.0000   1.1495
  -2.000   0.0743   0.00770   0.00252  -0.0558  0.6619  0.5793  -0.8144   0.0000   0.0000   0.0000   1.0114
  -1.900   0.0857   0.00769   0.00251  -0.0558  0.6589  0.5855  -0.7532   0.0000   0.0000   0.0000   0.9095
  -1.800   0.0971   0.00770   0.00250  -0.0558  0.6557  0.5913  -0.6929   0.0000   0.0000   0.0000   0.8314
  -1.700   0.1086   0.00771   0.00248  -0.0559  0.6523  0.5959  -0.6335   0.0000   0.0000   0.0000   0.7697
  -1.600   0.1200   0.00774   0.00247  -0.0559  0.6486  0.5991  -0.6231   0.0000   0.0000   0.0000   0.7197
  -1.500   0.1312   0.00773   0.00244  -0.0558  0.6446  0.6056  -0.6319   0.0000   0.0000   0.0000   0.6790
  -1.400   0.1421   0.00772   0.00242  -0.0558  0.6403  0.6137  -0.6407   0.0000   0.0000   0.0000   0.6451
  -1.300   0.1530   0.00772   0.00242  -0.0557  0.6353  0.6208  -0.6494   0.0000   0.0000   0.0000   0.6160
  -1.200   0.1640   0.00775   0.00243  -0.0556  0.6296  0.6270  -0.6581   0.0000   0.0000   0.0000   0.5907
  -1.100   0.1753   0.00779   0.00245  -0.0556  0.6249  0.6327  -0.6670   0.0000   0.0000   0.0000   0.5684
  -1.000   0.1868   0.00778   0.00245  -0.0557  0.6235  0.6380  -0.6760   0.0000   0.0000   0.0000   0.5487
  -0.900   0.1983   0.00778   0.00245  -0.0557  0.6219  0.6427  -0.6851   0.0000   0.0000   0.0000   0.5313
  -0.800   0.2098   0.00778   0.00245  -0.0558  0.6201  0.6465  -0.6943   0.0000   0.0000   0.0000   0.5157
  -0.700   0.2214   0.00780   0.00245  -0.0558  0.6179  0.6495  -0.7034   0.0000   0.0000   0.0000   0.5018
  -0.600   0.2330   0.00781   0.00245  -0.0559  0.6155  0.6516  -0.7136   0.0000   0.0000   0.0000   0.4893
  -0.500   0.2444   0.00779   0.00243  -0.0560  0.6128  0.6566  -0.7239   0.0000   0.0000   0.0000   0.4780
  -0.400   0.2556   0.00776   0.00242  -0.0560  0.6100  0.6637  -0.7341   0.0000   0.0000   0.0000   0.4678
  -0.300   0.2668   0.00775   0.00243  -0.0559  0.6069  0.6698  -0.7443   0.0000   0.0000   0.0000   0.4583
  -0.200   0.2779   0.00775   0.00243  -0.0559  0.6037  0.6753  -0.7545   0.0000   0.0000   0.0000   0.4496
  -0.100   0.2890   0.00776   0.00243  -0.0559  0.6002  0.6801  -0.7647   0.0000   0.0000   0.0000   0.4416
   0.000   0.3001   0.00777   0.00243  -0.0559  0.5964  0.6845  -0.7749   0.0000   0.0000   0.0000   0.4341
   0.100   0.3112   0.00780   0.00243  -0.0558  0.5922  0.6888  -0.7852   0.0000   0.0000   0.0000   0.4272
   0.200   0.3223   0.00784   0.00244  -0.0558  0.5872  0.6929  -0.7954   0.0000   0.0000   0.0000   0.4208
   0.300   0.3335   0.00790   0.00246  -0.0558  0.5815  0.6966  -0.8056   0.0000   0.0000   0.0000   0.4149
   0.400   0.3448   0.00797   0.00245  -0.0558  0.5762  0.6997  -0.8159   0.0000   0.0000   0.0000   0.4094
   0.500   0.3563   0.00797   0.00245  -0.0559  0.5749  0.7021  -0.8265   0.0000   0.0000   0.0000   0.4042
   0.600   0.3678   0.00797   0.00245  -0.0560  0.5734  0.7055  -0.8370   0.0000   0.0000   0.0000   0.3994
   0.700   0.3792   0.00793   0.00245  -0.0560  0.5717  0.7115  -0.8475   0.0000   0.0000   0.0000   0.3948
   0.800   0.3904   0.00791   0.00246  -0.0561  0.5697  0.7170  -0.8580   0.0000   0.0000   0.0000   0.3905
   0.900   0.4016   0.00790   0.00249  -0.0561  0.5674  0.7222  -0.8684   0.0000   0.0000   0.0000   0.3863
   1.000   0.4128   0.00790   0.00250  -0.0560  0.5649  0.7272  -0.8788   0.0000   0.0000   0.0000   0.3824
   1.100   0.4240   0.00790   0.00252  -0.0560  0.5622  0.7322  -0.8893   0.0000   0.0000   0.0000   0.3787
   1.200   0.4351   0.00792   0.00253  -0.0560  0.5592  0.7370  -0.9005   0.0000   0.0000   0.0000   0.3752
   1.300   0.4463   0.00794   0.00254  -0.0560  0.5562  0.7415  -0.9125   0.0000   0.0000   0.0000   0.3719
   1.400   0.4576   0.00796   0.00255  -0.0560  0.5529  0.7454  -0.9244   0.0000   0.0000   0.0000   0.3687
   1.500   0.4687   0.00800   0.00255  -0.0561  0.5495  0.7487  -0.9364   0.0000   0.0000   0.0000   0.3657
   1.600   0.4799   0.00804   0.00256  -0.0561  0.5459  0.7514  -0.9484   0.0000   0.0000   0.0000   0.3629
   1.700   0.4909   0.00808   0.00258  -0.0561  0.5417  0.7555  -0.9602   0.0000   0.0000   0.0000   0.3602
   1.800   0.5016   0.00810   0.00260  -0.0560  0.5368  0.7622  -0.9719   0.0000   0.0000   0.0000   0.3575
   1.900   0.5122   0.00815   0.00264  -0.0559  0.5311  0.7684  -0.9835   0.0000   0.0000   0.0000   0.3549
   2.000   0.5231   0.00819   0.00269  -0.0559  0.5268  0.7744  -0.9952   0.0000   0.0000   0.0000   0.3524
   2.100   0.5341   0.00818   0.00271  -0.0558  0.5256  0.7802  -1.0073   0.0000   0.0000   0.0000   0.3500
   2.200   0.5453   0.00817   0.00273  -0.0558  0.5240  0.7859  -1.0195   0.0000   0.0000   0.0000   0.3478
   2.300   0.5565   0.00817   0.00275  -0.0558  0.5220  0.7910  -1.0317   0.0000   0.0000   0.0000   0.3456
   2.400   0.5678   0.00818   0.00277  -0.0559  0.5198  0.7955  -1.0440   0.0000   0.0000   0.0000   0.3436
   2.500   0.5791   0.00821   0.00279  -0.0559  0.5174  0.7991  -1.0563   0.0000   0.0000   0.0000   0.3417
   2.600   0.5900   0.00820   0.00281  -0.0559  0.5147  0.8063  -1.0683   0.0000   0.0000   0.0000   0.3397
   2.700   0.6006   0.00820   0.00284  -0.0558  0.5119  0.8133  -1.0802   0.0000   0.0000   0.0000   0.3378
   2.800   0.6112   0.00821   0.00287  -0.0556  0.5088  0.8204  -1.0921   0.0000   0.0000   0.0000   0.3358
   2.900   0.6218   0.00823   0.00289  -0.0555  0.5056  0.8277  -1.1041   0.0000   0.0000   0.0000   0.3340
   3.000   0.6324   0.00826   0.00292  -0.0554  0.5022  0.8347  -1.1166   0.0000   0.0000   0.0000   0.3323
   3.100   0.6431   0.00830   0.00295  -0.0553  0.4986  0.8410  -1.1303   0.0000   0.0000   0.0000   0.3306
   3.200   0.6532   0.00833   0.00298  -0.0551  0.4946  0.8491  -1.1436   0.0000   0.0000   0.0000   0.3288
   3.300   0.6629   0.00837   0.00303  -0.0548  0.4901  0.8578  -1.1566   0.0000   0.0000   0.0000   0.3270
   3.400   0.6727   0.00843   0.00309  -0.0545  0.4851  0.8665  -1.1697   0.0000   0.0000   0.0000   0.3253
   3.500   0.6829   0.00851   0.00316  -0.0544  0.4796  0.8749  -1.1829   0.0000   0.0000   0.0000   0.3238
   3.700   0.7033   0.00851   0.00322  -0.0539  0.4763  0.8928  -1.2100   0.0000   0.0000   0.0000   0.3206
   3.800   0.7132   0.00849   0.00325  -0.0536  0.4746  0.9035  -1.2234   0.0000   0.0000   0.0000   0.3190
   3.900   0.7234   0.00850   0.00334  -0.0534  0.4724  0.9142  -1.2370   0.0000   0.0000   0.0000   0.3175
   4.000   0.7336   0.00849   0.00337  -0.0531  0.4699  0.9254  -1.2507   0.0000   0.0000   0.0000   0.3161
   4.100   0.7445   0.00850   0.00340  -0.0530  0.4669  0.9384  -1.2649   0.0000   0.0000   0.0000   0.3148
   4.200   0.7568   0.00851   0.00342  -0.0533  0.4636  0.9506  -1.2803   0.0000   0.0000   0.0000   0.3139
   4.300   0.7713   0.00854   0.00345  -0.0540  0.4600  0.9626  -1.2973   0.0000   0.0000   0.0000   0.3134
   4.400   0.7868   0.00859   0.00348  -0.0550  0.4562  0.9734  -1.3151   0.0000   0.0000   0.0000   0.3131
   4.500   0.8029   0.00865   0.00352  -0.0561  0.4521  0.9842  -1.3344   0.0000   0.0000   0.0000   0.3131
   4.600   0.8193   0.00872   0.00355  -0.0574  0.4474  0.9950  -1.3554   0.0000   0.0000   0.0000   0.3131
   4.700   0.8315   0.00881   0.00361  -0.0578  0.4425  1.0000  -1.3729   0.0000   0.0000   0.0000   0.3124
   4.800   0.8414   0.00891   0.00368  -0.0577  0.4371  1.0000  -1.3884   0.0000   0.0000   0.0000   0.3114
   4.900   0.8516   0.00903   0.00376  -0.0576  0.4315  1.0000  -1.4040   0.0000   0.0000   0.0000   0.3104
   5.000   0.8624   0.00908   0.00381  -0.0576  0.4294  1.0000  -1.4205   0.0000   0.0000   0.0000   0.3094
   5.100   0.8733   0.00911   0.00386  -0.0576  0.4280  1.0000  -1.4372   0.0000   0.0000   0.0000   0.3085
   5.200   0.8842   0.00914   0.00390  -0.0577  0.4262  1.0000  -1.4539   0.0000   0.0000   0.0000   0.3077
   5.300   0.8951   0.00918   0.00395  -0.0577  0.4239  1.0000  -1.4707   0.0000   0.0000   0.0000   0.3068
   5.400   0.9059   0.00922   0.00399  -0.0577  0.4210  1.0000  -1.4874   0.0000   0.0000   0.0000   0.3059
   5.500   0.9165   0.00928   0.00404  -0.0577  0.4177  1.0000  -1.5053   0.0000   0.0000   0.0000   0.3051
   5.600   0.9271   0.00934   0.00409  -0.0577  0.4141  1.0000  -1.5245   0.0000   0.0000   0.0000   0.3042
   5.700   0.9376   0.00941   0.00415  -0.0576  0.4105  1.0000  -1.5436   0.0000   0.0000   0.0000   0.3034
   5.800   0.9479   0.00949   0.00421  -0.0576  0.4067  1.0000  -1.5626   0.0000   0.0000   0.0000   0.3025
   5.900   0.9580   0.00959   0.00427  -0.0575  0.4027  1.0000  -1.5815   0.0000   0.0000   0.0000   0.3017
   6.000   0.9680   0.00969   0.00435  -0.0574  0.3981  1.0000  -1.6002   0.0000   0.0000   0.0000   0.3008
   6.100   0.9777   0.00982   0.00444  -0.0572  0.3926  1.0000  -1.6186   0.0000   0.0000   0.0000   0.2999
   6.200   0.9875   0.00996   0.00455  -0.0571  0.3863  1.0000  -1.6371   0.0000   0.0000   0.0000   0.2991
   6.300   0.9979   0.01006   0.00464  -0.0571  0.3826  1.0000  -1.6563   0.0000   0.0000   0.0000   0.2984
   6.400   1.0088   0.01009   0.00470  -0.0571  0.3811  1.0000  -1.6763   0.0000   0.0000   0.0000   0.2976
   6.500   1.0196   0.01013   0.00476  -0.0571  0.3792  1.0000  -1.6976   0.0000   0.0000   0.0000   0.2969
   6.600   1.0303   0.01018   0.00483  -0.0571  0.3767  1.0000  -1.7247   0.0000   0.0000   0.0000   0.2962
   6.700   1.0409   0.01025   0.00490  -0.0571  0.3740  1.0000  -1.7548   0.0000   0.0000   0.0000   0.2955
   6.800   1.0513   0.01032   0.00498  -0.0571  0.3710  1.0000  -1.7881   0.0000   0.0000   0.0000   0.2948
   6.900   1.0617   0.01040   0.00506  -0.0570  0.3677  1.0000  -1.8213   0.0000   0.0000   0.0000   0.2941
   7.000   1.0718   0.01049   0.00514  -0.0569  0.3642  1.0000  -1.8545   0.0000   0.0000   0.0000   0.2934
   7.100   1.0817   0.01060   0.00522  -0.0568  0.3604  1.0000  -1.8874   0.0000   0.0000   0.0000   0.2927
   7.200   1.0913   0.01072   0.00532  -0.0566  0.3562  1.0000  -1.9231   0.0000   0.0000   0.0000   0.2920
   7.300   1.1006   0.01085   0.00558  -0.0564  0.3510  1.0000  -1.9614   0.0000   0.0000   0.0000   0.2912
   7.400   1.1096   0.01102   0.00572  -0.0562  0.3443  1.0000  -2.0010   0.0000   0.0000   0.0000   0.2904
   7.500   1.1188   0.01120   0.00587  -0.0560  0.3374  1.0000  -2.0427   0.0000   0.0000   0.0000   0.2897
   7.600   1.1295   0.01123   0.00594  -0.0560  0.3357  1.0000  -2.1025   0.0000   0.0000   0.0000   0.2891
   7.700   1.1400   0.01128   0.00601  -0.0560  0.3328  1.0000  -2.1864   0.0000   0.0000   0.0000   0.2885
   7.800   1.1502   0.01135   0.00609  -0.0559  0.3290  1.0000  -2.2699   0.0000   0.0000   0.0000   0.2878
   7.900   1.1600   0.01144   0.00618  -0.0558  0.3242  1.0000  -2.3530   0.0000   0.0000   0.0000   0.2872
   8.000   1.1692   0.01157   0.00628  -0.0556  0.3182  1.0000  -2.4350   0.0000   0.0000   0.0000   0.2865
   8.100   1.1775   0.01175   0.00640  -0.0552  0.3108  1.0000  -2.5142   0.0000   0.0000   0.0000   0.2857
   8.200   1.1850   0.01197   0.00656  -0.0548  0.3012  1.0000  -2.5908   0.0000   0.0000   0.0000   0.2849
   8.300   1.1934   0.01215   0.00671  -0.0545  0.2930  1.0000  -2.6717   0.0000   0.0000   0.0000   0.2842
   8.400   1.2036   0.01222   0.00680  -0.0544  0.2897  1.0000  -2.7615   0.0000   0.0000   0.0000   0.2836
   8.500   1.2131   0.01233   0.00691  -0.0543  0.2848  1.0000  -2.8495   0.0000   0.0000   0.0000   0.2830
   8.600   1.2218   0.01248   0.00703  -0.0540  0.2781  1.0000  -2.9352   0.0000   0.0000   0.0000   0.2823
   8.700   1.2297   0.01268   0.00718  -0.0536  0.2704  1.0000  -3.0176   0.0000   0.0000   0.0000   0.2816
   8.800   1.2366   0.01292   0.00736  -0.0531  0.2618  1.0000  -3.0968   0.0000   0.0000   0.0000   0.2808
   8.900   1.2437   0.01316   0.00756  -0.0526  0.2527  1.0000  -3.1770   0.0000   0.0000   0.0000   0.2800
   9.000   1.2530   0.01327   0.00769  -0.0524  0.2494  1.0000  -3.2685   0.0000   0.0000   0.0000   0.2794
   9.100   1.2621   0.01340   0.00783  -0.0522  0.2458  1.0000  -3.3598   0.0000   0.0000   0.0000   0.2788
   9.200   1.2707   0.01355   0.00797  -0.0520  0.2411  1.0000  -3.4495   0.0000   0.0000   0.0000   0.2781
   9.300   1.2786   0.01373   0.00814  -0.0516  0.2354  1.0000  -3.5369   0.0000   0.0000   0.0000   0.2775
   9.400   1.2856   0.01395   0.00832  -0.0511  0.2289  1.0000  -3.6209   0.0000   0.0000   0.0000   0.2767
   9.500   1.2917   0.01422   0.00854  -0.0505  0.2216  1.0000  -3.7014   0.0000   0.0000   0.0000   0.2759
   9.600   1.2979   0.01447   0.00877  -0.0499  0.2137  1.0000  -3.7828   0.0000   0.0000   0.0000   0.2751
   9.700   1.3060   0.01463   0.00894  -0.0495  0.2100  1.0000  -3.8739   0.0000   0.0000   0.0000   0.2744
   9.800   1.3136   0.01480   0.00912  -0.0491  0.2055  1.0000  -3.9636   0.0000   0.0000   0.0000   0.2737
   9.900   1.3200   0.01502   0.00932  -0.0485  0.1995  1.0000  -4.0480   0.0000   0.0000   0.0000   0.2730
  10.000   1.3245   0.01529   0.00954  -0.0476  0.1926  1.0000  -4.1242   0.0000   0.0000   0.0000   0.2720
  10.100   1.3277   0.01561   0.00980  -0.0466  0.1851  1.0000  -4.1939   0.0000   0.0000   0.0000   0.2710
  10.200   1.3310   0.01594   0.01010  -0.0456  0.1768  1.0000  -4.2642   0.0000   0.0000   0.0000   0.2700
  10.300   1.3368   0.01616   0.01033  -0.0449  0.1724  1.0000  -4.3479   0.0000   0.0000   0.0000   0.2692
  10.400   1.3417   0.01642   0.01058  -0.0442  0.1668  1.0000  -4.4272   0.0000   0.0000   0.0000   0.2683
  10.500   1.3449   0.01678   0.01090  -0.0432  0.1595  1.0000  -4.5003   0.0000   0.0000   0.0000   0.2674
  10.600   1.3463   0.01723   0.01128  -0.0421  0.1511  1.0000  -4.5664   0.0000   0.0000   0.0000   0.2664
  10.700   1.3483   0.01768   0.01168  -0.0411  0.1418  1.0000  -4.6354   0.0000   0.0000   0.0000   0.2654
  10.800   1.3514   0.01807   0.01211  -0.0403  0.1346  1.0000  -4.7005   0.0000   0.0000   0.0000   0.2646
  10.900   1.3532   0.01854   0.01254  -0.0393  0.1266  1.0000  -4.7673   0.0000   0.0000   0.0000   0.2637
  11.000   1.3531   0.01913   0.01306  -0.0382  0.1186  1.0000  -4.8249   0.0000   0.0000   0.0000   0.2627
  11.100   1.3551   0.01963   0.01352  -0.0374  0.1106  1.0000  -4.8940   0.0000   0.0000   0.0000   0.2618
  11.200   1.3584   0.02006   0.01394  -0.0367  0.1051  1.0000  -4.9707   0.0000   0.0000   0.0000   0.2611
  11.300   1.3598   0.02062   0.01447  -0.0358  0.0984  1.0000  -5.0371   0.0000   0.0000   0.0000   0.2603
  11.400   1.3591   0.02131   0.01511  -0.0349  0.0917  1.0000  -5.0914   0.0000   0.0000   0.0000   0.2594
  11.500   1.3595   0.02195   0.01570  -0.0340  0.0840  1.0000  -5.1522   0.0000   0.0000   0.0000   0.2586
  11.600   1.3623   0.02245   0.01619  -0.0334  0.0796  1.0000  -5.2274   0.0000   0.0000   0.0000   0.2579
  11.700   1.3638   0.02305   0.01677  -0.0327  0.0748  1.0000  -5.2946   0.0000   0.0000   0.0000   0.2572
  11.800   1.3635   0.02378   0.01748  -0.0320  0.0700  1.0000  -5.3514   0.0000   0.0000   0.0000   0.2565
  11.900   1.3631   0.02455   0.01822  -0.0312  0.0647  1.0000  -5.4069   0.0000   0.0000   0.0000   0.2557
  12.000   1.3649   0.02518   0.01884  -0.0306  0.0596  1.0000  -5.4760   0.0000   0.0000   0.0000   0.2551
  12.100   1.3672   0.02578   0.01945  -0.0302  0.0565  1.0000  -5.5481   0.0000   0.0000   0.0000   0.2545
  12.200   1.3678   0.02652   0.02018  -0.0296  0.0530  1.0000  -5.6099   0.0000   0.0000   0.0000   0.2539
  12.300   1.3675   0.02735   0.02098  -0.0290  0.0491  1.0000  -5.6660   0.0000   0.0000   0.0000   0.2533
  12.400   1.3665   0.02825   0.02186  -0.0284  0.0447  1.0000  -5.7167   0.0000   0.0000   0.0000   0.2527
  12.500   1.3669   0.02905   0.02265  -0.0280  0.0399  1.0000  -5.7752   0.0000   0.0000   0.0000   0.2521
  12.600   1.3674   0.02987   0.02348  -0.0275  0.0372  1.0000  -5.8343   0.0000   0.0000   0.0000   0.2516
  12.700   1.3658   0.03085   0.02445  -0.0271  0.0338  1.0000  -5.8801   0.0000   0.0000   0.0000   0.2511
  12.800   1.3628   0.03195   0.02552  -0.0265  0.0298  1.0000  -5.9156   0.0000   0.0000   0.0000   0.2505
  12.900   1.3596   0.03309   0.02662  -0.0260  0.0243  1.0000  -5.9468   0.0000   0.0000   0.0000   0.2500
  13.000   1.3577   0.03417   0.02771  -0.0256  0.0210  1.0000  -5.9835   0.0000   0.0000   0.0000   0.2495
  13.100   1.3528   0.03557   0.02910  -0.0253  0.0181  1.0000  -5.9999   0.0000   0.0000   0.0000   0.2491
  13.200   1.3465   0.03714   0.03063  -0.0248  0.0144  1.0000  -5.9977   0.0000   0.0000   0.0000   0.2487
  13.300   1.3416   0.03864   0.03217  -0.0244  0.0112  1.0000  -5.9739   0.0000   0.0000   0.0000   0.2482
  13.400   1.3417   0.03965   0.03324  -0.0243  0.0109  1.0000  -6.0197   0.0000   0.0000   0.0000   0.2479
  13.500   1.3404   0.04085   0.03449  -0.0242  0.0106  1.0000  -6.0559   0.0000   0.0000   0.0000   0.2476
  13.600   1.3397   0.04199   0.03568  -0.0240  0.0103  1.0000  -6.0948   0.0000   0.0000   0.0000   0.2473
  13.700   1.3393   0.04311   0.03685  -0.0239  0.0101  1.0000  -6.1355   0.0000   0.0000   0.0000   0.2470
  13.800   1.3387   0.04424   0.03803  -0.0238  0.0099  1.0000  -6.1756   0.0000   0.0000   0.0000   0.2468
  13.900   1.3380   0.04541   0.03926  -0.0238  0.0097  1.0000  -6.2147   0.0000   0.0000   0.0000   0.2465
  14.000   1.3361   0.04676   0.04067  -0.0238  0.0096  1.0000  -6.2462   0.0000   0.0000   0.0000   0.2464
  14.100   1.3336   0.04821   0.04217  -0.0239  0.0094  1.0000  -6.2743   0.0000   0.0000   0.0000   0.2462
  14.200   1.3319   0.04955   0.04356  -0.0240  0.0093  1.0000  -6.3073   0.0000   0.0000   0.0000   0.2461
  14.300   1.3306   0.05086   0.04492  -0.0240  0.0092  1.0000  -6.3417   0.0000   0.0000   0.0000   0.2459
  14.400   1.3291   0.05218   0.04631  -0.0241  0.0091  1.0000  -6.3754   0.0000   0.0000   0.0000   0.2458
  14.500   1.3272   0.05356   0.04774  -0.0242  0.0091  1.0000  -6.4069   0.0000   0.0000   0.0000   0.2457
  14.600   1.3236   0.05524   0.04948  -0.0245  0.0090  1.0000  -6.4267   0.0000   0.0000   0.0000   0.2457
  14.700   1.3205   0.05685   0.05114  -0.0248  0.0090  1.0000  -6.4491   0.0000   0.0000   0.0000   0.2457
  14.800   1.3180   0.05831   0.05266  -0.0250  0.0089  1.0000  -6.4751   0.0000   0.0000   0.0000   0.2457
  14.900   1.3156   0.05975   0.05416  -0.0251  0.0089  1.0000  -6.5020   0.0000   0.0000   0.0000   0.2457
  15.000   1.3132   0.06122   0.05568  -0.0253  0.0088  1.0000  -6.5284   0.0000   0.0000   0.0000   0.2456
  15.100   1.3106   0.06276   0.05728  -0.0256  0.0088  1.0000  -6.5528   0.0000   0.0000   0.0000   0.2457
  15.200   1.3060   0.06468   0.05925  -0.0261  0.0088  1.0000  -6.5633   0.0000   0.0000   0.0000   0.2459
  15.300   1.3023   0.06651   0.06114  -0.0265  0.0087  1.0000  -6.5792   0.0000   0.0000   0.0000   0.2460
  15.400   1.2995   0.06819   0.06287  -0.0269  0.0087  1.0000  -6.6011   0.0000   0.0000   0.0000   0.2462
  15.500   1.2971   0.06983   0.06457  -0.0273  0.0087  1.0000  -6.6246   0.0000   0.0000   0.0000   0.2463
  15.600   1.2946   0.07149   0.06628  -0.0276  0.0087  1.0000  -6.6476   0.0000   0.0000   0.0000   0.2464
  15.700   1.2921   0.07318   0.06803  -0.0281  0.0086  1.0000  -6.6699   0.0000   0.0000   0.0000   0.2465
  15.800   1.2891   0.07500   0.06990  -0.0286  0.0086  1.0000  -6.6879   0.0000   0.0000   0.0000   0.2467
  15.900   1.2842   0.07720   0.07216  -0.0293  0.0086  1.0000  -6.6917   0.0000   0.0000   0.0000   0.2472
  16.000   1.2808   0.07911   0.07413  -0.0299  0.0086  1.0000  -6.7056   0.0000   0.0000   0.0000   0.2475
  16.100   1.2781   0.08089   0.07596  -0.0304  0.0086  1.0000  -6.7242   0.0000   0.0000   0.0000   0.2477
  16.200   1.2759   0.08262   0.07774  -0.0309  0.0086  1.0000  -6.7453   0.0000   0.0000   0.0000   0.2479
  16.300   1.2737   0.08435   0.07952  -0.0314  0.0086  1.0000  -6.7663   0.0000   0.0000   0.0000   0.2481
  16.400   1.2715   0.08608   0.08130  -0.0319  0.0086  1.0000  -6.7862   0.0000   0.0000   0.0000   0.2483
  16.500   1.2690   0.08784   0.08311  -0.0324  0.0086  1.0000  -6.8045   0.0000   0.0000   0.0000   0.2486
  16.600   1.2657   0.08978   0.08511  -0.0331  0.0086  1.0000  -6.8153   0.0000   0.0000   0.0000   0.2490
  16.700   1.2612   0.09197   0.08736  -0.0339  0.0086  1.0000  -6.8164   0.0000   0.0000   0.0000   0.2495
  16.800   1.2584   0.09383   0.08927  -0.0346  0.0086  1.0000  -6.8301   0.0000   0.0000   0.0000   0.2499
  16.900   1.2564   0.09556   0.09106  -0.0352  0.0086  1.0000  -6.8479   0.0000   0.0000   0.0000   0.2502
  17.000   1.2546   0.09723   0.09277  -0.0358  0.0086  1.0000  -6.8673   0.0000   0.0000   0.0000   0.2505
  17.100   1.2529   0.09886   0.09446  -0.0363  0.0086  1.0000  -6.8873   0.0000   0.0000   0.0000   0.2507
  17.200   1.2513   0.10048   0.09612  -0.0369  0.0086  1.0000  -6.9072   0.0000   0.0000   0.0000   0.2510
  17.300   1.2497   0.10208   0.09778  -0.0375  0.0086  1.0000  -6.9269   0.0000   0.0000   0.0000   0.2513
  17.400   1.2481   0.10369   0.09944  -0.0380  0.0086  1.0000  -6.9459   0.0000   0.0000   0.0000   0.2515
  17.500   1.2464   0.10531   0.10111  -0.0387  0.0086  1.0000  -6.9639   0.0000   0.0000   0.0000   0.2519
  17.600   1.2444   0.10698   0.10283  -0.0393  0.0086  1.0000  -6.9798   0.0000   0.0000   0.0000   0.2522
  17.700   1.2410   0.10899   0.10490  -0.0403  0.0086  1.0000  -6.9828   0.0000   0.0000   0.0000   0.2528
  17.800   1.2383   0.11086   0.10683  -0.0411  0.0086  1.0000  -6.9907   0.0000   0.0000   0.0000   0.2534
  17.900   1.2364   0.11255   0.10857  -0.0419  0.0086  1.0000  -7.0052   0.0000   0.0000   0.0000   0.2538
  18.000   1.2349   0.11415   0.11022  -0.0426  0.0085  1.0000  -7.0226   0.0000   0.0000   0.0000   0.2542
  18.100   1.2335   0.11572   0.11184  -0.0433  0.0085  1.0000  -7.0414   0.0000   0.0000   0.0000   0.2546
  18.200   1.2323   0.11725   0.11342  -0.0440  0.0085  1.0000  -7.0607   0.0000   0.0000   0.0000   0.2550
  18.300   1.2310   0.11869   0.11490  -0.0447  0.0085  1.0000  -7.0797   0.0000   0.0000   0.0000   0.2554
  18.400   1.2296   0.12009   0.11636  -0.0455  0.0085  1.0000  -7.0979   0.0000   0.0000   0.0000   0.2558
  18.500   1.2281   0.12152   0.11784  -0.0462  0.0084  1.0000  -7.1150   0.0000   0.0000   0.0000   0.2563
  18.600   1.2265   0.12301   0.11938  -0.0471  0.0084  1.0000  -7.1304   0.0000   0.0000   0.0000   0.2568
  18.700   1.2248   0.12459   0.12100  -0.0480  0.0084  1.0000  -7.1446   0.0000   0.0000   0.0000   0.2573
  18.800   1.2219   0.12645   0.12292  -0.0490  0.0083  1.0000  -7.1471   0.0000   0.0000   0.0000   0.2581
  18.900   1.2180   0.12859   0.12512  -0.0503  0.0083  1.0000  -7.1379   0.0000   0.0000   0.0000   0.2591
  19.000   1.2154   0.13048   0.12706  -0.0514  0.0083  1.0000  -7.1411   0.0000   0.0000   0.0000   0.2599
  19.100   1.2133   0.13229   0.12892  -0.0525  0.0083  1.0000  -7.1487   0.0000   0.0000   0.0000   0.2606
  19.200   1.2113   0.13409   0.13077  -0.0535  0.0082  1.0000  -7.1573   0.0000   0.0000   0.0000   0.2613
  19.300   1.2094   0.13593   0.13265  -0.0545  0.0082  1.0000  -7.1648   0.0000   0.0000   0.0000   0.2620
  19.400   1.2073   0.13783   0.13460  -0.0556  0.0082  1.0000  -7.1698   0.0000   0.0000   0.0000   0.2628
  19.500   1.2065   0.13953   0.13640  -0.0567  0.0081  1.0000  -7.2065   0.0000   0.0000   0.0000   0.2634
  19.600   1.2042   0.14156   0.13849  -0.0578  0.0080  1.0000  -7.2102   0.0000   0.0000   0.0000   0.2643
  19.700   1.2011   0.14382   0.14079  -0.0591  0.0080  1.0000  -7.2021   0.0000   0.0000   0.0000   0.2653
  19.800   1.1952   0.14678   0.14382  -0.0609  0.0080  1.0000  -7.1611   0.0000   0.0000   0.0000   0.2668
  19.900   1.1910   0.14935   0.14645  -0.0624  0.0080  1.0000  -7.1382   0.0000   0.0000   0.0000   0.2681
  20.000   1.1876   0.15180   0.14895  -0.0638  0.0080  1.0000  -7.1203   0.0000   0.0000   0.0000   0.2692
  20.100   1.1840   0.15429   0.15149  -0.0652  0.0080  1.0000  -7.0996   0.0000   0.0000   0.0000   0.2703
  20.200   1.1801   0.15690   0.15416  -0.0666  0.0080  1.0000  -7.0727   0.0000   0.0000   0.0000   0.2716
  20.300   1.1758   0.15969   0.15701  -0.0682  0.0080  1.0000  -7.0379   0.0000   0.0000   0.0000   0.2729
  20.400   1.1706   0.16276   0.16014  -0.0699  0.0080  1.0000  -6.9923   0.0000   0.0000   0.0000   0.2745
  20.500   1.1623   0.16680   0.16424  -0.0722  0.0080  1.0000  -6.9073   0.0000   0.0000   0.0000   0.2767
  20.600   1.1562   0.17028   0.16778  -0.0741  0.0081  1.0000  -6.8446   0.0000   0.0000   0.0000   0.2786
  20.700   1.1505   0.17370   0.17126  -0.0759  0.0081  1.0000  -6.7838   0.0000   0.0000   0.0000   0.2803
  20.800   1.1443   0.17732   0.17493  -0.0778  0.0081  1.0000  -6.7140   0.0000   0.0000   0.0000   0.2823
  20.900   1.1371   0.18138   0.17907  -0.0799  0.0082  1.0000  -6.6255   0.0000   0.0000   0.0000   0.2844
  21.000   1.1235   0.18756   0.18526  -0.0831  0.0083  1.0000  -6.4380   0.0000   0.0000   0.0000   0.2881
  21.100   1.1148   0.19233   0.19010  -0.0854  0.0083  1.0000  -6.3206   0.0000   0.0000   0.0000   0.2908
  21.200   1.1049   0.19764   0.19547  -0.0880  0.0084  1.0000  -6.1787   0.0000   0.0000   0.0000   0.2938
  21.300   1.0861   0.20632   0.20423  -0.0919  0.0085  1.0000  -5.8871   0.0000   0.0000   0.0000   0.2990
  21.400   1.0455   0.22401   0.22204  -0.0989  0.0091  1.0000  -5.1524   0.0000   0.0000   0.0000   0.3099
  21.500   0.9878   0.25291   0.25095  -0.1070  0.0100  1.0000  -3.8069   0.0000   0.0000   0.0000   0.3256
  21.600   0.9822   0.25852   0.25655  -0.1085  0.0100  1.0000  -3.6418   0.0000   0.0000   0.0000   0.3279
  21.700   0.9785   0.26315   0.26118  -0.1098  0.0100  1.0000  -3.5261   0.0000   0.0000   0.0000   0.3297
  21.800   0.9756   0.26737   0.26540  -0.1110  0.0100  1.0000  -3.4307   0.0000   0.0000   0.0000   0.3313
  21.900   0.9730   0.27143   0.26946  -0.1122  0.0100  1.0000  -3.3426   0.0000   0.0000   0.0000   0.3327
  22.000   0.9703   0.27551   0.27354  -0.1133  0.0101  1.0000  -3.2510   0.0000   0.0000   0.0000   0.3342
  22.100   0.9672   0.27970   0.27773  -0.1144  0.0102  1.0000  -3.1517   0.0000   0.0000   0.0000   0.3357
  22.200   0.9643   0.28371   0.28175  -0.1154  0.0103  1.0000  -3.0600   0.0000   0.0000   0.0000   0.3371
  22.300   0.9614   0.28760   0.28564  -0.1163  0.0104  1.0000  -2.9734   0.0000   0.0000   0.0000   0.3384
  22.400   0.9584   0.29141   0.28945  -0.1173  0.0105  1.0000  -2.8885   0.0000   0.0000   0.0000   0.3397
  22.500   0.9550   0.29526   0.29330  -0.1181  0.0107  1.0000  -2.7990   0.0000   0.0000   0.0000   0.3411
  23.300   0.8958   0.30485   0.30307  -0.1180  0.0120  1.0000  -2.3829   0.0000   0.0000   0.0000   0.3497
  23.400   0.8832   0.30442   0.30266  -0.1177  0.0120  1.0000  -2.2947   0.0000   0.0000   0.0000   0.3515
  23.500   0.8510   0.30547   0.30371  -0.1169  0.0116  1.0000  -1.9216   0.0000   0.0000   0.0000   0.3568
  23.600   0.8472   0.30598   0.30423  -0.1171  0.0115  1.0000  -1.8881   0.0000   0.0000   0.0000   0.3578
  23.700   0.8437   0.30654   0.30480  -0.1174  0.0115  1.0000  -1.8562   0.0000   0.0000   0.0000   0.3587
  23.800   0.8405   0.30712   0.30539  -0.1177  0.0115  1.0000  -1.8258   0.0000   0.0000   0.0000   0.3595
  23.900   0.8376   0.30773   0.30601  -0.1180  0.0115  1.0000  -1.7968   0.0000   0.0000   0.0000   0.3603
  24.000   0.8349   0.30837   0.30665  -0.1183  0.0115  1.0000  -1.7689   0.0000   0.0000   0.0000   0.3612
  24.100   0.8324   0.30901   0.30731  -0.1186  0.0115  1.0000  -1.7421   0.0000   0.0000   0.0000   0.3619
  24.200   0.8302   0.30968   0.30798  -0.1189  0.0115  1.0000  -1.7163   0.0000   0.0000   0.0000   0.3627
  24.300   0.8280   0.31035   0.30866  -0.1192  0.0115  1.0000  -1.6914   0.0000   0.0000   0.0000   0.3634
  24.400   0.8261   0.31103   0.30935  -0.1196  0.0115  1.0000  -1.6674   0.0000   0.0000   0.0000   0.3642
  24.500   0.8242   0.31172   0.31005  -0.1199  0.0115  1.0000  -1.6443   0.0000   0.0000   0.0000   0.3649
  24.600   0.8225   0.31242   0.31075  -0.1203  0.0115  1.0000  -1.6219   0.0000   0.0000   0.0000   0.3656
  24.700   0.8209   0.31312   0.31146  -0.1207  0.0115  1.0000  -1.6002   0.0000   0.0000   0.0000   0.3662
  24.800   0.8194   0.31383   0.31218  -0.1210  0.0115  1.0000  -1.5793   0.0000   0.0000   0.0000   0.3669
  24.900   0.8179   0.31455   0.31290  -0.1214  0.0115  1.0000  -1.5590   0.0000   0.0000   0.0000   0.3676
  25.000   0.8166   0.31526   0.31363  -0.1218  0.0115  1.0000  -1.5393   0.0000   0.0000   0.0000   0.3682
  25.100   0.8153   0.31599   0.31435  -0.1222  0.0115  1.0000  -1.5203   0.0000   0.0000   0.0000   0.3688
  25.200   0.8142   0.31671   0.31508  -0.1226  0.0115  1.0000  -1.5018   0.0000   0.0000   0.0000   0.3694
  25.300   0.8130   0.31744   0.31582  -0.1230  0.0115  1.0000  -1.4837   0.0000   0.0000   0.0000   0.3701
  25.400   0.8120   0.31817   0.31655  -0.1233  0.0114  1.0000  -1.4662   0.0000   0.0000   0.0000   0.3707
  25.500   0.8110   0.31890   0.31729  -0.1237  0.0114  1.0000  -1.4492   0.0000   0.0000   0.0000   0.3712
  25.600   0.8100   0.31963   0.31803  -0.1241  0.0114  1.0000  -1.4327   0.0000   0.0000   0.0000   0.3718
  25.700   0.8092   0.32036   0.31877  -0.1246  0.0114  1.0000  -1.4166   0.0000   0.0000   0.0000   0.3724
  25.800   0.8083   0.32110   0.31951  -0.1250  0.0114  1.0000  -1.4010   0.0000   0.0000   0.0000   0.3730
  25.900   0.8075   0.32184   0.32025  -0.1254  0.0114  1.0000  -1.3857   0.0000   0.0000   0.0000   0.3735
  26.000   0.8068   0.32257   0.32100  -0.1258  0.0114  1.0000  -1.3709   0.0000   0.0000   0.0000   0.3741
  26.100   0.8061   0.32331   0.32174  -0.1262  0.0114  1.0000  -1.3565   0.0000   0.0000   0.0000   0.3746
  26.200   0.8054   0.32405   0.32248  -0.1266  0.0114  1.0000  -1.3424   0.0000   0.0000   0.0000   0.3751
  26.300   0.8048   0.32479   0.32323  -0.1270  0.0114  1.0000  -1.3287   0.0000   0.0000   0.0000   0.3757
  26.400   0.8042   0.32553   0.32398  -0.1274  0.0114  1.0000  -1.3154   0.0000   0.0000   0.0000   0.3762
  26.500   0.8037   0.32628   0.32472  -0.1279  0.0114  1.0000  -1.3023   0.0000   0.0000   0.0000   0.3767
  26.600   0.8032   0.32702   0.32547  -0.1283  0.0114  1.0000  -1.2896   0.0000   0.0000   0.0000   0.3772
  26.700   0.8027   0.32776   0.32622  -0.1287  0.0114  1.0000  -1.2772   0.0000   0.0000   0.0000   0.3777
  26.800   0.8022   0.32850   0.32697  -0.1291  0.0114  1.0000  -1.2650   0.0000   0.0000   0.0000   0.3782
  26.900   0.8018   0.32925   0.32772  -0.1295  0.0114  1.0000  -1.2530   0.0000   0.0000   0.0000   0.3787
  27.000   0.8013   0.32999   0.32846  -0.1300  0.0114  1.0000  -1.2413   0.0000   0.0000   0.0000   0.3792
  27.100   0.8009   0.33073   0.32921  -0.1304  0.0113  1.0000  -1.2299   0.0000   0.0000   0.0000   0.3797
  27.200   0.8006   0.33148   0.32996  -0.1308  0.0113  1.0000  -1.2187   0.0000   0.0000   0.0000   0.3802
  27.300   0.8002   0.33222   0.33071  -0.1313  0.0113  1.0000  -1.2078   0.0000   0.0000   0.0000   0.3807
  27.400   0.7999   0.33296   0.33146  -0.1317  0.0113  1.0000  -1.1971   0.0000   0.0000   0.0000   0.3811
  27.500   0.7996   0.33371   0.33221  -0.1321  0.0113  1.0000  -1.1866   0.0000   0.0000   0.0000   0.3816
  27.600   0.7993   0.33445   0.33296  -0.1326  0.0113  1.0000  -1.1764   0.0000   0.0000   0.0000   0.3821
  27.700   0.7990   0.33519   0.33370  -0.1330  0.0113  1.0000  -1.1664   0.0000   0.0000   0.0000   0.3825
  27.800   0.7987   0.33594   0.33445  -0.1334  0.0113  1.0000  -1.1567   0.0000   0.0000   0.0000   0.3830
  27.900   0.7985   0.33668   0.33520  -0.1339  0.0113  1.0000  -1.1471   0.0000   0.0000   0.0000   0.3834
  28.000   0.7983   0.33742   0.33595  -0.1343  0.0113  1.0000  -1.1377   0.0000   0.0000   0.0000   0.3839
  28.100   0.7981   0.33816   0.33669  -0.1348  0.0113  1.0000  -1.1285   0.0000   0.0000   0.0000   0.3843
  28.200   0.7979   0.33891   0.33744  -0.1352  0.0113  1.0000  -1.1195   0.0000   0.0000   0.0000   0.3847
  28.300   0.7977   0.33966   0.33824  -0.1357  0.0113  1.0000  -1.1099   0.0000   0.0000   0.0000   0.3852
  28.400   0.7975   0.34041   0.33899  -0.1361  0.0112  1.0000  -1.1014   0.0000   0.0000   0.0000   0.3856
  28.500   0.7974   0.34115   0.33974  -0.1366  0.0112  1.0000  -1.0929   0.0000   0.0000   0.0000   0.3861
  28.600   0.7973   0.34189   0.34048  -0.1370  0.0112  1.0000  -1.0848   0.0000   0.0000   0.0000   0.3865
  28.700   0.7972   0.34264   0.34123  -0.1375  0.0112  1.0000  -1.0771   0.0000   0.0000   0.0000   0.3869
  28.800   0.7971   0.34338   0.34198  -0.1380  0.0112  1.0000  -1.0696   0.0000   0.0000   0.0000   0.3874
  28.900   0.7970   0.34412   0.34272  -0.1384  0.0112  1.0000  -1.0624   0.0000   0.0000   0.0000   0.3878
  29.000   0.7970   0.34486   0.34347  -0.1389  0.0111  1.0000  -1.0555   0.0000   0.0000   0.0000   0.3882
  29.100   0.7970   0.34560   0.34422  -0.1394  0.0111  1.0000  -1.0487   0.0000   0.0000   0.0000   0.3886
  29.200   0.7970   0.34635   0.34497  -0.1399  0.0111  1.0000  -1.0421   0.0000   0.0000   0.0000   0.3891
  29.300   0.7969   0.34711   0.34573  -0.1404  0.0111  1.0000  -1.0344   0.0000   0.0000   0.0000   0.3895
  29.400   0.7969   0.34787   0.34650  -0.1408  0.0110  1.0000  -1.0266   0.0000   0.0000   0.0000   0.3899
  29.500   0.7968   0.34863   0.34727  -0.1413  0.0110  1.0000  -1.0190   0.0000   0.0000   0.0000   0.3904
  29.600   0.7968   0.34940   0.34803  -0.1418  0.0110  1.0000  -1.0115   0.0000   0.0000   0.0000   0.3908
  29.700   0.7967   0.35016   0.34881  -0.1423  0.0109  1.0000  -1.0042   0.0000   0.0000   0.0000   0.3912
  29.800   0.7967   0.35094   0.34958  -0.1428  0.0109  1.0000  -0.9971   0.0000   0.0000   0.0000   0.3916
  29.900   0.7968   0.35171   0.35036  -0.1433  0.0109  1.0000  -0.9902   0.0000   0.0000   0.0000   0.3921
  30.000   0.7968   0.35250   0.35116  -0.1438  0.0108  1.0000  -0.9920   0.0000   0.0000   0.0000   0.3925


