xflr5 v6.61

 Calculated polar for: S2027

 1 1 Reynolds number fixed          Mach number fixed         

 xtrf =   1.000 (top)        1.000 (bottom)
 Mach =   0.000     Re =     0.300 e 6     Ncrit =   9.000

  alpha     CL        CD       CDp       Cm    Top Xtr Bot Xtr   Cpmin    Chinge    XCp    
 ------- -------- --------- --------- -------- ------- ------- -------- --------- ---------
 -10.000  -0.3988   0.08353   0.08088  -0.0480  1.0000  0.0473  -2.1114   0.0000   0.0000   0.0000   0.1147
  -9.900  -0.3991   0.08181   0.07918  -0.0489  1.0000  0.0477  -2.1163   0.0000   0.0000   0.0000   0.1126
  -9.800  -0.3971   0.08064   0.07802  -0.0493  1.0000  0.0481  -2.0999   0.0000   0.0000   0.0000   0.1112
  -9.700  -0.3956   0.07936   0.07675  -0.0498  1.0000  0.0485  -2.0889   0.0000   0.0000   0.0000   0.1095
  -9.600  -0.3948   0.07794   0.07535  -0.0506  1.0000  0.0489  -2.0836   0.0000   0.0000   0.0000   0.1075
  -9.500  -0.3947   0.07634   0.07377  -0.0515  1.0000  0.0493  -2.0848   0.0000   0.0000   0.0000   0.1052
  -9.400  -0.3955   0.07449   0.07193  -0.0528  1.0000  0.0496  -2.0949   0.0000   0.0000   0.0000   0.1024
  -9.300  -0.3983   0.07207   0.06953  -0.0548  1.0000  0.0500  -2.1238   0.0000   0.0000   0.0000   0.0985
  -9.200  -0.4056   0.06881   0.06629  -0.0579  1.0000  0.0503  -2.1850   0.0000   0.0000   0.0000   0.0936
  -9.100  -0.4177   0.06614   0.06363  -0.0603  1.0000  0.0503  -2.2508   0.0000   0.0000   0.0000   0.0925
  -9.000  -0.4177   0.06284   0.06028  -0.0654  0.9886  0.0507  -2.2863   0.0000   0.0000   0.0000   0.0805
  -8.900  -0.4180   0.05990   0.05728  -0.0702  0.9796  0.0511  -2.3155   0.0000   0.0000   0.0000   0.0693
  -8.800  -0.4168   0.05738   0.05469  -0.0743  0.9716  0.0516  -2.3320   0.0000   0.0000   0.0000   0.0591
  -8.700  -0.4170   0.05546   0.05270  -0.0768  0.9625  0.0521  -2.3415   0.0000   0.0000   0.0000   0.0534
  -8.600  -0.4176   0.05392   0.05110  -0.0781  0.9539  0.0525  -2.3453   0.0000   0.0000   0.0000   0.0508
  -8.500  -0.4167   0.05246   0.04956  -0.0791  0.9473  0.0531  -2.3436   0.0000   0.0000   0.0000   0.0481
  -8.400  -0.4185   0.05131   0.04836  -0.0791  0.9394  0.0536  -2.3441   0.0000   0.0000   0.0000   0.0492
  -8.300  -0.4199   0.05021   0.04719  -0.0789  0.9318  0.0542  -2.3424   0.0000   0.0000   0.0000   0.0505
  -8.200  -0.4205   0.04914   0.04604  -0.0786  0.9251  0.0548  -2.3387   0.0000   0.0000   0.0000   0.0516
  -8.100  -0.4207   0.04811   0.04494  -0.0782  0.9193  0.0555  -2.3333   0.0000   0.0000   0.0000   0.0528
  -8.000  -0.4201   0.04708   0.04384  -0.0779  0.9139  0.0563  -2.3265   0.0000   0.0000   0.0000   0.0533
  -7.900  -0.4189   0.04607   0.04276  -0.0775  0.9083  0.0571  -2.3182   0.0000   0.0000   0.0000   0.0537
  -7.800  -0.4174   0.04511   0.04173  -0.0771  0.9029  0.0581  -2.3086   0.0000   0.0000   0.0000   0.0542
  -7.700  -0.4153   0.04421   0.04074  -0.0766  0.8978  0.0591  -2.2974   0.0000   0.0000   0.0000   0.0546
  -7.600  -0.4126   0.04340   0.03984  -0.0760  0.8931  0.0603  -2.2839   0.0000   0.0000   0.0000   0.0548
  -7.500  -0.4088   0.04272   0.03906  -0.0755  0.8885  0.0615  -2.2666   0.0000   0.0000   0.0000   0.0546
  -6.300  -0.3487   0.02498   0.01929  -0.0686  0.8419  0.0383  -2.4783   0.0000   0.0000   0.0000   0.0422
  -6.200  -0.3412   0.02315   0.01724  -0.0679  0.8385  0.0352  -2.5235   0.0000   0.0000   0.0000   0.0399
  -6.100  -0.3325   0.02140   0.01524  -0.0671  0.8351  0.0320  -2.5846   0.0000   0.0000   0.0000   0.0369
  -6.000  -0.3228   0.02020   0.01383  -0.0664  0.8317  0.0297  -2.6184   0.0000   0.0000   0.0000   0.0329
  -5.900  -0.3128   0.01960   0.01312  -0.0660  0.8284  0.0286  -2.6023   0.0000   0.0000   0.0000   0.0277
  -5.800  -0.3028   0.01921   0.01265  -0.0656  0.8251  0.0278  -2.5661   0.0000   0.0000   0.0000   0.0219
  -5.700  -0.2928   0.01889   0.01227  -0.0652  0.8218  0.0273  -2.5226   0.0000   0.0000   0.0000   0.0156
  -5.600  -0.2828   0.01860   0.01192  -0.0648  0.8185  0.0268  -2.4761   0.0000   0.0000   0.0000   0.0089
  -5.500  -0.2728   0.01834   0.01161  -0.0645  0.8150  0.0265  -2.4284   0.0000   0.0000   0.0000   0.0016
  -5.400  -0.2627   0.01809   0.01131  -0.0642  0.8112  0.0261  -2.3804   0.0000   0.0000   0.0000  -0.0064
  -5.300  -0.2525   0.01784   0.01102  -0.0640  0.8077  0.0258  -2.3324   0.0000   0.0000   0.0000  -0.0157
  -5.200  -0.2422   0.01753   0.01069  -0.0638  0.8054  0.0255  -2.2850   0.0000   0.0000   0.0000  -0.0259
  -5.100  -0.2319   0.01721   0.01035  -0.0636  0.8026  0.0253  -2.2392   0.0000   0.0000   0.0000  -0.0368
  -5.000  -0.2219   0.01688   0.00999  -0.0633  0.7996  0.0251  -2.1951   0.0000   0.0000   0.0000  -0.0484
  -4.900  -0.2120   0.01652   0.00960  -0.0631  0.7964  0.0249  -2.1533   0.0000   0.0000   0.0000  -0.0607
  -4.800  -0.2024   0.01611   0.00913  -0.0627  0.7929  0.0247  -2.1164   0.0000   0.0000   0.0000  -0.0734
  -4.700  -0.1936   0.01556   0.00852  -0.0623  0.7894  0.0247  -2.0920   0.0000   0.0000   0.0000  -0.0854
  -4.600  -0.1846   0.01510   0.00800  -0.0619  0.7859  0.0246  -2.0628   0.0000   0.0000   0.0000  -0.0990
  -4.500  -0.1755   0.01470   0.00753  -0.0614  0.7822  0.0246  -2.0307   0.0000   0.0000   0.0000  -0.1143
  -4.400  -0.1662   0.01435   0.00711  -0.0610  0.7786  0.0247  -1.9963   0.0000   0.0000   0.0000  -0.1318
  -4.300  -0.1567   0.01405   0.00672  -0.0607  0.7748  0.0247  -1.9600   0.0000   0.0000   0.0000  -0.1520
  -4.200  -0.1472   0.01375   0.00634  -0.0603  0.7706  0.0249  -1.9284   0.0000   0.0000   0.0000  -0.1751
  -4.100  -0.1376   0.01346   0.00592  -0.0600  0.7657  0.0255  -1.9054   0.0000   0.0000   0.0000  -0.2021
  -4.000  -0.1274   0.01314   0.00549  -0.0597  0.7635  0.0267  -1.8884   0.0000   0.0000   0.0000  -0.2357
  -3.900  -0.1170   0.01280   0.00503  -0.0594  0.7611  0.0326  -1.9030   0.0000   0.0000   0.0000  -0.2754
  -3.800  -0.1133   0.01130   0.00445  -0.0589  0.7584  0.2017  -1.9638   0.0000   0.0000   0.0000  -0.2876
  -3.700  -0.1054   0.01075   0.00432  -0.0588  0.7554  0.2863  -1.9182   0.0000   0.0000   0.0000  -0.3260
  -3.600  -0.0960   0.01046   0.00425  -0.0586  0.7522  0.3373  -1.8571   0.0000   0.0000   0.0000  -0.3801
  -3.500  -0.0862   0.01025   0.00420  -0.0585  0.7490  0.3713  -1.7920   0.0000   0.0000   0.0000  -0.4494
  -3.400  -0.0758   0.01014   0.00415  -0.0584  0.7457  0.3977  -1.7242   0.0000   0.0000   0.0000  -0.5432
  -3.300  -0.0657   0.00999   0.00412  -0.0582  0.7424  0.4269  -1.6573   0.0000   0.0000   0.0000  -0.6601
  -3.200  -0.0552   0.00991   0.00408  -0.0580  0.7391  0.4492  -1.5890   0.0000   0.0000   0.0000  -0.8306
  -3.100  -0.0452   0.00980   0.00407  -0.0578  0.7358  0.4762  -1.5227   0.0000   0.0000   0.0000  -1.0634
  -3.000  -0.0339   0.00979   0.00390  -0.0577  0.7323  0.4812  -1.4463   0.0000   0.0000   0.0000  -1.4931
  -2.900  -0.0233   0.00976   0.00388  -0.0576  0.7285  0.5003  -1.3795   0.0000   0.0000   0.0000  -2.2852
  -2.800  -0.0135   0.00973   0.00397  -0.0572  0.7240  0.5314  -1.3153   0.0000   0.0000   0.0000  -4.0906
  -2.700  -0.0029   0.00977   0.00404  -0.0570  0.7197  0.5549  -1.2497   0.0000   0.0000   0.0000  -19.5900
  -2.600   0.0070   0.00972   0.00413  -0.0567  0.7176  0.5774  -1.1859   0.0000   0.0000   0.0000   8.4619
  -2.500   0.0179   0.00973   0.00416  -0.0565  0.7150  0.5912  -1.1209   0.0000   0.0000   0.0000   3.4739
  -2.400   0.0291   0.00975   0.00414  -0.0565  0.7120  0.5973  -1.0561   0.0000   0.0000   0.0000   2.2237
  -2.300   0.0403   0.00973   0.00410  -0.0564  0.7087  0.6032  -0.9925   0.0000   0.0000   0.0000   1.6735
  -2.200   0.0511   0.00967   0.00408  -0.0563  0.7053  0.6120  -0.9308   0.0000   0.0000   0.0000   1.3693
  -2.100   0.0619   0.00965   0.00407  -0.0561  0.7019  0.6197  -0.8697   0.0000   0.0000   0.0000   1.1704
  -2.000   0.0728   0.00964   0.00407  -0.0560  0.6986  0.6266  -0.8093   0.0000   0.0000   0.0000   1.0296
  -1.900   0.0838   0.00964   0.00406  -0.0558  0.6953  0.6334  -0.7495   0.0000   0.0000   0.0000   0.9251
  -1.800   0.0949   0.00966   0.00404  -0.0558  0.6919  0.6395  -0.6904   0.0000   0.0000   0.0000   0.8445
  -1.700   0.1061   0.00968   0.00402  -0.0557  0.6885  0.6449  -0.6322   0.0000   0.0000   0.0000   0.7807
  -1.600   0.1173   0.00972   0.00400  -0.0556  0.6849  0.6493  -0.6192   0.0000   0.0000   0.0000   0.7290
  -1.500   0.1284   0.00977   0.00399  -0.0556  0.6809  0.6534  -0.6279   0.0000   0.0000   0.0000   0.6864
  -1.400   0.1393   0.00977   0.00398  -0.0555  0.6763  0.6614  -0.6365   0.0000   0.0000   0.0000   0.6513
  -1.300   0.1502   0.00978   0.00402  -0.0554  0.6727  0.6680  -0.6450   0.0000   0.0000   0.0000   0.6211
  -1.200   0.1612   0.00976   0.00402  -0.0553  0.6708  0.6738  -0.6537   0.0000   0.0000   0.0000   0.5949
  -1.100   0.1722   0.00974   0.00402  -0.0552  0.6686  0.6792  -0.6625   0.0000   0.0000   0.0000   0.5720
  -1.000   0.1833   0.00973   0.00402  -0.0551  0.6659  0.6844  -0.6713   0.0000   0.0000   0.0000   0.5518
  -0.900   0.1944   0.00973   0.00401  -0.0551  0.6629  0.6894  -0.6801   0.0000   0.0000   0.0000   0.5339
  -0.800   0.2055   0.00973   0.00400  -0.0550  0.6596  0.6941  -0.6890   0.0000   0.0000   0.0000   0.5180
  -0.700   0.2167   0.00974   0.00398  -0.0550  0.6562  0.6984  -0.6979   0.0000   0.0000   0.0000   0.5037
  -0.600   0.2279   0.00976   0.00397  -0.0550  0.6526  0.7018  -0.7081   0.0000   0.0000   0.0000   0.4907
  -0.500   0.2391   0.00974   0.00392  -0.0549  0.6490  0.7062  -0.7182   0.0000   0.0000   0.0000   0.4791
  -0.400   0.2499   0.00970   0.00388  -0.0548  0.6455  0.7126  -0.7282   0.0000   0.0000   0.0000   0.4684
  -0.300   0.2607   0.00968   0.00386  -0.0547  0.6420  0.7182  -0.7382   0.0000   0.0000   0.0000   0.4586
  -0.200   0.2715   0.00969   0.00386  -0.0545  0.6385  0.7235  -0.7481   0.0000   0.0000   0.0000   0.4495
  -0.100   0.2823   0.00971   0.00387  -0.0544  0.6346  0.7287  -0.7581   0.0000   0.0000   0.0000   0.4411
   0.000   0.2932   0.00977   0.00390  -0.0543  0.6301  0.7338  -0.7680   0.0000   0.0000   0.0000   0.4335
   0.100   0.3043   0.00987   0.00397  -0.0543  0.6251  0.7384  -0.7780   0.0000   0.0000   0.0000   0.4266
   0.200   0.3155   0.00986   0.00397  -0.0543  0.6236  0.7428  -0.7882   0.0000   0.0000   0.0000   0.4201
   0.300   0.3268   0.00986   0.00397  -0.0544  0.6217  0.7466  -0.7984   0.0000   0.0000   0.0000   0.4141
   0.400   0.3380   0.00987   0.00392  -0.0544  0.6196  0.7503  -0.8087   0.0000   0.0000   0.0000   0.4084
   0.500   0.3492   0.00987   0.00392  -0.0544  0.6170  0.7542  -0.8190   0.0000   0.0000   0.0000   0.4032
   0.600   0.3600   0.00982   0.00390  -0.0543  0.6141  0.7607  -0.8290   0.0000   0.0000   0.0000   0.3981
   0.700   0.3706   0.00979   0.00390  -0.0541  0.6110  0.7664  -0.8391   0.0000   0.0000   0.0000   0.3932
   0.800   0.3813   0.00978   0.00391  -0.0540  0.6077  0.7717  -0.8491   0.0000   0.0000   0.0000   0.3886
   0.900   0.3920   0.00977   0.00390  -0.0538  0.6042  0.7769  -0.8593   0.0000   0.0000   0.0000   0.3842
   1.000   0.4028   0.00978   0.00392  -0.0537  0.6006  0.7820  -0.8695   0.0000   0.0000   0.0000   0.3801
   1.100   0.4137   0.00979   0.00390  -0.0536  0.5969  0.7867  -0.8798   0.0000   0.0000   0.0000   0.3763
   1.200   0.4247   0.00981   0.00389  -0.0536  0.5932  0.7912  -0.8908   0.0000   0.0000   0.0000   0.3727
   1.300   0.4356   0.00985   0.00388  -0.0535  0.5894  0.7957  -0.9025   0.0000   0.0000   0.0000   0.3693
   1.500   0.4570   0.00995   0.00394  -0.0533  0.5806  0.8066  -0.9254   0.0000   0.0000   0.0000   0.3629
   1.600   0.4675   0.01003   0.00402  -0.0532  0.5760  0.8127  -0.9366   0.0000   0.0000   0.0000   0.3599
   1.700   0.4779   0.01000   0.00404  -0.0530  0.5746  0.8187  -0.9481   0.0000   0.0000   0.0000   0.3569
   1.800   0.4884   0.00999   0.00406  -0.0528  0.5728  0.8248  -0.9596   0.0000   0.0000   0.0000   0.3540
   1.900   0.4990   0.00999   0.00408  -0.0527  0.5707  0.8308  -0.9712   0.0000   0.0000   0.0000   0.3514
   2.000   0.5098   0.01000   0.00410  -0.0526  0.5683  0.8365  -0.9829   0.0000   0.0000   0.0000   0.3489
   2.100   0.5208   0.01001   0.00411  -0.0526  0.5657  0.8415  -0.9948   0.0000   0.0000   0.0000   0.3466
   2.200   0.5311   0.01000   0.00413  -0.0524  0.5629  0.8479  -1.0062   0.0000   0.0000   0.0000   0.3442
   2.300   0.5410   0.00999   0.00415  -0.0521  0.5599  0.8549  -1.0175   0.0000   0.0000   0.0000   0.3417
   2.400   0.5508   0.00999   0.00416  -0.0518  0.5567  0.8623  -1.0287   0.0000   0.0000   0.0000   0.3392
   2.500   0.5608   0.00999   0.00417  -0.0515  0.5533  0.8702  -1.0401   0.0000   0.0000   0.0000   0.3369
   2.600   0.5710   0.01001   0.00418  -0.0512  0.5497  0.8780  -1.0516   0.0000   0.0000   0.0000   0.3348
   2.700   0.5808   0.01002   0.00417  -0.0509  0.5460  0.8854  -1.0630   0.0000   0.0000   0.0000   0.3326
   2.800   0.5902   0.01003   0.00418  -0.0504  0.5421  0.8937  -1.0741   0.0000   0.0000   0.0000   0.3303
   2.900   0.5998   0.01007   0.00420  -0.0500  0.5377  0.9025  -1.0852   0.0000   0.0000   0.0000   0.3282
   3.000   0.6097   0.01015   0.00425  -0.0498  0.5325  0.9116  -1.0965   0.0000   0.0000   0.0000   0.3263
   3.100   0.6202   0.01027   0.00435  -0.0496  0.5271  0.9201  -1.1095   0.0000   0.0000   0.0000   0.3246
   3.200   0.6317   0.01025   0.00437  -0.0496  0.5257  0.9292  -1.1237   0.0000   0.0000   0.0000   0.3231
   3.300   0.6435   0.01024   0.00439  -0.0498  0.5239  0.9393  -1.1382   0.0000   0.0000   0.0000   0.3217
   3.400   0.6565   0.01024   0.00441  -0.0502  0.5217  0.9485  -1.1536   0.0000   0.0000   0.0000   0.3207
   3.500   0.6719   0.01024   0.00444  -0.0511  0.5191  0.9569  -1.1709   0.0000   0.0000   0.0000   0.3202
   3.600   0.6871   0.01026   0.00447  -0.0519  0.5162  0.9664  -1.1880   0.0000   0.0000   0.0000   0.3197
   3.700   0.7041   0.01028   0.00450  -0.0532  0.5129  0.9740  -1.2065   0.0000   0.0000   0.0000   0.3196
   3.800   0.7213   0.01030   0.00452  -0.0546  0.5094  0.9819  -1.2253   0.0000   0.0000   0.0000   0.3196
   3.900   0.7387   0.01034   0.00462  -0.0560  0.5056  0.9893  -1.2442   0.0000   0.0000   0.0000   0.3196
   4.100   0.7683   0.01043   0.00465  -0.0578  0.4978  1.0000  -1.2784   0.0000   0.0000   0.0000   0.3189
   4.200   0.7769   0.01050   0.00467  -0.0575  0.4939  1.0000  -1.2907   0.0000   0.0000   0.0000   0.3176
   4.300   0.7861   0.01059   0.00471  -0.0573  0.4894  1.0000  -1.3034   0.0000   0.0000   0.0000   0.3163
   4.400   0.7957   0.01072   0.00478  -0.0571  0.4839  1.0000  -1.3164   0.0000   0.0000   0.0000   0.3151
   4.500   0.8060   0.01089   0.00491  -0.0571  0.4781  1.0000  -1.3315   0.0000   0.0000   0.0000   0.3141
   4.600   0.8162   0.01090   0.00494  -0.0570  0.4766  1.0000  -1.3473   0.0000   0.0000   0.0000   0.3130
   4.700   0.8265   0.01093   0.00499  -0.0570  0.4746  1.0000  -1.3632   0.0000   0.0000   0.0000   0.3120
   4.800   0.8369   0.01096   0.00504  -0.0569  0.4723  1.0000  -1.3792   0.0000   0.0000   0.0000   0.3109
   4.900   0.8473   0.01101   0.00510  -0.0569  0.4698  1.0000  -1.3952   0.0000   0.0000   0.0000   0.3100
   5.000   0.8578   0.01106   0.00515  -0.0568  0.4669  1.0000  -1.4113   0.0000   0.0000   0.0000   0.3090
   5.100   0.8682   0.01111   0.00521  -0.0568  0.4638  1.0000  -1.4274   0.0000   0.0000   0.0000   0.3080
   5.200   0.8787   0.01117   0.00527  -0.0568  0.4605  1.0000  -1.4436   0.0000   0.0000   0.0000   0.3071
   5.300   0.8890   0.01124   0.00532  -0.0567  0.4570  1.0000  -1.4598   0.0000   0.0000   0.0000   0.3062
   5.400   0.8994   0.01131   0.00537  -0.0566  0.4534  1.0000  -1.4760   0.0000   0.0000   0.0000   0.3052
   5.500   0.9096   0.01139   0.00543  -0.0565  0.4497  1.0000  -1.4929   0.0000   0.0000   0.0000   0.3043
   5.600   0.9197   0.01149   0.00548  -0.0564  0.4457  1.0000  -1.5114   0.0000   0.0000   0.0000   0.3034
   5.700   0.9296   0.01160   0.00556  -0.0563  0.4410  1.0000  -1.5298   0.0000   0.0000   0.0000   0.3025
   5.800   0.9396   0.01177   0.00568  -0.0562  0.4351  1.0000  -1.5482   0.0000   0.0000   0.0000   0.3016
   5.900   0.9501   0.01195   0.00583  -0.0562  0.4298  1.0000  -1.5670   0.0000   0.0000   0.0000   0.3008
   6.000   0.9604   0.01197   0.00589  -0.0561  0.4281  1.0000  -1.5861   0.0000   0.0000   0.0000   0.3000
   6.100   0.9708   0.01201   0.00596  -0.0560  0.4259  1.0000  -1.6053   0.0000   0.0000   0.0000   0.2992
   6.200   0.9811   0.01206   0.00603  -0.0560  0.4234  1.0000  -1.6245   0.0000   0.0000   0.0000   0.2984
   6.300   0.9915   0.01212   0.00611  -0.0559  0.4206  1.0000  -1.6436   0.0000   0.0000   0.0000   0.2976
   6.400   1.0018   0.01219   0.00620  -0.0559  0.4175  1.0000  -1.6628   0.0000   0.0000   0.0000   0.2969
   6.500   1.0120   0.01227   0.00628  -0.0558  0.4142  1.0000  -1.6832   0.0000   0.0000   0.0000   0.2961
   6.600   1.0222   0.01235   0.00636  -0.0557  0.4106  1.0000  -1.7080   0.0000   0.0000   0.0000   0.2954
   6.700   1.0321   0.01244   0.00644  -0.0556  0.4067  1.0000  -1.7359   0.0000   0.0000   0.0000   0.2946
   6.800   1.0419   0.01254   0.00651  -0.0554  0.4026  1.0000  -1.7680   0.0000   0.0000   0.0000   0.2938
   6.900   1.0514   0.01266   0.00659  -0.0552  0.3981  1.0000  -1.7999   0.0000   0.0000   0.0000   0.2930
   7.000   1.0607   0.01281   0.00670  -0.0550  0.3928  1.0000  -1.8315   0.0000   0.0000   0.0000   0.2922
   7.100   1.0704   0.01302   0.00687  -0.0549  0.3864  1.0000  -1.8634   0.0000   0.0000   0.0000   0.2915
   7.200   1.0805   0.01318   0.00702  -0.0548  0.3824  1.0000  -1.8965   0.0000   0.0000   0.0000   0.2908
   7.300   1.0906   0.01323   0.00712  -0.0547  0.3807  1.0000  -1.9308   0.0000   0.0000   0.0000   0.2901
   7.400   1.1006   0.01330   0.00743  -0.0546  0.3786  1.0000  -1.9713   0.0000   0.0000   0.0000   0.2895
   7.500   1.1106   0.01337   0.00754  -0.0545  0.3762  1.0000  -2.0172   0.0000   0.0000   0.0000   0.2888
   7.600   1.1206   0.01346   0.00766  -0.0544  0.3733  1.0000  -2.0727   0.0000   0.0000   0.0000   0.2881
   7.700   1.1304   0.01355   0.00778  -0.0543  0.3701  1.0000  -2.1284   0.0000   0.0000   0.0000   0.2874
   7.800   1.1400   0.01365   0.00789  -0.0541  0.3663  1.0000  -2.2009   0.0000   0.0000   0.0000   0.2868
   7.900   1.1494   0.01375   0.00798  -0.0539  0.3620  1.0000  -2.2809   0.0000   0.0000   0.0000   0.2861
   8.000   1.1584   0.01387   0.00808  -0.0536  0.3572  1.0000  -2.3606   0.0000   0.0000   0.0000   0.2853
   8.100   1.1668   0.01402   0.00818  -0.0533  0.3519  1.0000  -2.4393   0.0000   0.0000   0.0000   0.2846
   8.200   1.1750   0.01421   0.00833  -0.0529  0.3456  1.0000  -2.5171   0.0000   0.0000   0.0000   0.2838
   8.300   1.1838   0.01449   0.00856  -0.0527  0.3383  1.0000  -2.5979   0.0000   0.0000   0.0000   0.2831
   8.400   1.1932   0.01455   0.00868  -0.0525  0.3358  1.0000  -2.6830   0.0000   0.0000   0.0000   0.2825
   8.500   1.2025   0.01460   0.00878  -0.0523  0.3331  1.0000  -2.7689   0.0000   0.0000   0.0000   0.2818
   8.600   1.2118   0.01467   0.00889  -0.0521  0.3295  1.0000  -2.8554   0.0000   0.0000   0.0000   0.2812
   8.700   1.2207   0.01477   0.00901  -0.0518  0.3248  1.0000  -2.9414   0.0000   0.0000   0.0000   0.2805
   8.800   1.2291   0.01489   0.00912  -0.0515  0.3196  1.0000  -3.0265   0.0000   0.0000   0.0000   0.2798
   8.900   1.2371   0.01504   0.00925  -0.0511  0.3141  1.0000  -3.1101   0.0000   0.0000   0.0000   0.2791
   9.000   1.2443   0.01522   0.00939  -0.0506  0.3082  1.0000  -3.1912   0.0000   0.0000   0.0000   0.2783
   9.100   1.2507   0.01546   0.00957  -0.0500  0.3012  1.0000  -3.2694   0.0000   0.0000   0.0000   0.2774
   9.200   1.2575   0.01573   0.00980  -0.0495  0.2935  1.0000  -3.3492   0.0000   0.0000   0.0000   0.2767
   9.300   1.2665   0.01579   0.00993  -0.0493  0.2906  1.0000  -3.4406   0.0000   0.0000   0.0000   0.2760
   9.400   1.2749   0.01589   0.01007  -0.0490  0.2861  1.0000  -3.5306   0.0000   0.0000   0.0000   0.2754
   9.500   1.2825   0.01604   0.01022  -0.0485  0.2802  1.0000  -3.6173   0.0000   0.0000   0.0000   0.2747
   9.600   1.2890   0.01624   0.01039  -0.0480  0.2733  1.0000  -3.6994   0.0000   0.0000   0.0000   0.2739
   9.700   1.2940   0.01650   0.01058  -0.0472  0.2659  1.0000  -3.7755   0.0000   0.0000   0.0000   0.2730
   9.800   1.2978   0.01681   0.01083  -0.0463  0.2578  1.0000  -3.8460   0.0000   0.0000   0.0000   0.2720
   9.900   1.3027   0.01705   0.01106  -0.0455  0.2509  1.0000  -3.9218   0.0000   0.0000   0.0000   0.2711
  10.000   1.3099   0.01719   0.01123  -0.0450  0.2464  1.0000  -4.0097   0.0000   0.0000   0.0000   0.2704
  10.100   1.3157   0.01739   0.01144  -0.0443  0.2405  1.0000  -4.0915   0.0000   0.0000   0.0000   0.2696
  10.200   1.3202   0.01764   0.01167  -0.0435  0.2341  1.0000  -4.1673   0.0000   0.0000   0.0000   0.2687
  10.300   1.3236   0.01794   0.01195  -0.0425  0.2279  1.0000  -4.2377   0.0000   0.0000   0.0000   0.2677
  10.400   1.3262   0.01829   0.01226  -0.0415  0.2218  1.0000  -4.3045   0.0000   0.0000   0.0000   0.2667
  10.500   1.3285   0.01867   0.01260  -0.0405  0.2153  1.0000  -4.3695   0.0000   0.0000   0.0000   0.2657
  10.600   1.3337   0.01895   0.01289  -0.0398  0.2106  1.0000  -4.4496   0.0000   0.0000   0.0000   0.2650
  10.700   1.3397   0.01919   0.01316  -0.0393  0.2061  1.0000  -4.5343   0.0000   0.0000   0.0000   0.2643
  10.800   1.3439   0.01951   0.01356  -0.0386  0.1994  1.0000  -4.6096   0.0000   0.0000   0.0000   0.2635
  10.900   1.3464   0.01993   0.01394  -0.0377  0.1922  1.0000  -4.6768   0.0000   0.0000   0.0000   0.2626
  11.000   1.3471   0.02044   0.01441  -0.0367  0.1851  1.0000  -4.7345   0.0000   0.0000   0.0000   0.2617
  11.100   1.3472   0.02101   0.01493  -0.0357  0.1775  1.0000  -4.7893   0.0000   0.0000   0.0000   0.2608
  11.200   1.3514   0.02139   0.01532  -0.0351  0.1716  1.0000  -4.8687   0.0000   0.0000   0.0000   0.2601
  11.300   1.3547   0.02183   0.01575  -0.0345  0.1645  1.0000  -4.9449   0.0000   0.0000   0.0000   0.2594
  11.400   1.3557   0.02240   0.01629  -0.0337  0.1568  1.0000  -5.0086   0.0000   0.0000   0.0000   0.2586
  11.500   1.3549   0.02310   0.01693  -0.0328  0.1494  1.0000  -5.0613   0.0000   0.0000   0.0000   0.2577
  11.600   1.3543   0.02381   0.01760  -0.0319  0.1420  1.0000  -5.1154   0.0000   0.0000   0.0000   0.2569
  11.700   1.3571   0.02432   0.01812  -0.0314  0.1366  1.0000  -5.1895   0.0000   0.0000   0.0000   0.2563
  11.800   1.3584   0.02495   0.01874  -0.0307  0.1300  1.0000  -5.2544   0.0000   0.0000   0.0000   0.2556
  11.900   1.3581   0.02571   0.01945  -0.0300  0.1230  1.0000  -5.3106   0.0000   0.0000   0.0000   0.2549
  12.000   1.3567   0.02657   0.02026  -0.0293  0.1159  1.0000  -5.3599   0.0000   0.0000   0.0000   0.2542
  12.100   1.3567   0.02735   0.02103  -0.0287  0.1097  1.0000  -5.4170   0.0000   0.0000   0.0000   0.2536
  12.200   1.3576   0.02808   0.02177  -0.0282  0.1044  1.0000  -5.4791   0.0000   0.0000   0.0000   0.2530
  12.300   1.3572   0.02892   0.02259  -0.0277  0.0985  1.0000  -5.5337   0.0000   0.0000   0.0000   0.2524
  12.400   1.3556   0.02987   0.02351  -0.0271  0.0925  1.0000  -5.5810   0.0000   0.0000   0.0000   0.2518
  12.500   1.3533   0.03090   0.02449  -0.0266  0.0864  1.0000  -5.6239   0.0000   0.0000   0.0000   0.2513
  12.600   1.3530   0.03178   0.02538  -0.0261  0.0818  1.0000  -5.6780   0.0000   0.0000   0.0000   0.2508
  12.700   1.3529   0.03264   0.02624  -0.0257  0.0775  1.0000  -5.7336   0.0000   0.0000   0.0000   0.2503
  12.800   1.3518   0.03360   0.02720  -0.0253  0.0731  1.0000  -5.7827   0.0000   0.0000   0.0000   0.2498
  12.900   1.3496   0.03469   0.02827  -0.0249  0.0687  1.0000  -5.8244   0.0000   0.0000   0.0000   0.2493
  13.000   1.3462   0.03594   0.02949  -0.0246  0.0644  1.0000  -5.8577   0.0000   0.0000   0.0000   0.2489
  13.100   1.3442   0.03708   0.03065  -0.0243  0.0599  1.0000  -5.8989   0.0000   0.0000   0.0000   0.2485
  13.200   1.3444   0.03803   0.03162  -0.0241  0.0567  1.0000  -5.9542   0.0000   0.0000   0.0000   0.2481
  13.300   1.3434   0.03912   0.03270  -0.0239  0.0529  1.0000  -6.0006   0.0000   0.0000   0.0000   0.2478
  13.400   1.3407   0.04037   0.03394  -0.0236  0.0490  1.0000  -6.0364   0.0000   0.0000   0.0000   0.2474
  13.500   1.3361   0.04187   0.03542  -0.0235  0.0453  1.0000  -6.0582   0.0000   0.0000   0.0000   0.2472
  13.600   1.3316   0.04338   0.03693  -0.0234  0.0406  1.0000  -6.0778   0.0000   0.0000   0.0000   0.2469
  13.700   1.3300   0.04460   0.03817  -0.0233  0.0374  1.0000  -6.1150   0.0000   0.0000   0.0000   0.2467
  13.800   1.3261   0.04607   0.03963  -0.0232  0.0337  1.0000  -6.1362   0.0000   0.0000   0.0000   0.2464
  13.900   1.3200   0.04783   0.04137  -0.0232  0.0303  1.0000  -6.1410   0.0000   0.0000   0.0000   0.2463
  14.000   1.3117   0.04990   0.04342  -0.0234  0.0264  1.0000  -6.1248   0.0000   0.0000   0.0000   0.2463
  14.100   1.3055   0.05175   0.04530  -0.0234  0.0229  1.0000  -6.1107   0.0000   0.0000   0.0000   0.2462
  14.200   1.3030   0.05318   0.04678  -0.0235  0.0211  1.0000  -6.1290   0.0000   0.0000   0.0000   0.2461
  14.300   1.2992   0.05478   0.04840  -0.0236  0.0195  1.0000  -6.1378   0.0000   0.0000   0.0000   0.2460
  14.400   1.2939   0.05662   0.05027  -0.0239  0.0185  1.0000  -6.1390   0.0000   0.0000   0.0000   0.2461
  14.500   1.2885   0.05844   0.05212  -0.0242  0.0176  1.0000  -6.1399   0.0000   0.0000   0.0000   0.2462
  14.600   1.2836   0.06019   0.05390  -0.0245  0.0167  1.0000  -6.1419   0.0000   0.0000   0.0000   0.2462
  14.700   1.2787   0.06200   0.05575  -0.0247  0.0159  1.0000  -6.1415   0.0000   0.0000   0.0000   0.2463
  14.800   1.2737   0.06388   0.05768  -0.0251  0.0152  1.0000  -6.1372   0.0000   0.0000   0.0000   0.2464
  14.900   1.2677   0.06599   0.05985  -0.0256  0.0147  1.0000  -6.1267   0.0000   0.0000   0.0000   0.2467
  15.000   1.2618   0.06814   0.06206  -0.0261  0.0143  1.0000  -6.1157   0.0000   0.0000   0.0000   0.2470
  15.100   1.2565   0.07020   0.06419  -0.0266  0.0139  1.0000  -6.1066   0.0000   0.0000   0.0000   0.2472
  15.200   1.2514   0.07225   0.06631  -0.0271  0.0136  1.0000  -6.0981   0.0000   0.0000   0.0000   0.2475
  15.300   1.2463   0.07431   0.06844  -0.0276  0.0133  1.0000  -6.0898   0.0000   0.0000   0.0000   0.2477
  15.400   1.2410   0.07646   0.07066  -0.0281  0.0131  1.0000  -6.0808   0.0000   0.0000   0.0000   0.2481
  15.500   1.2352   0.07877   0.07303  -0.0289  0.0129  1.0000  -6.0692   0.0000   0.0000   0.0000   0.2486
  15.600   1.2303   0.08088   0.07522  -0.0295  0.0127  1.0000  -6.0614   0.0000   0.0000   0.0000   0.2489
  15.700   1.2259   0.08288   0.07728  -0.0300  0.0126  1.0000  -6.0561   0.0000   0.0000   0.0000   0.2492
  15.800   1.2220   0.08481   0.07927  -0.0305  0.0124  1.0000  -6.0525   0.0000   0.0000   0.0000   0.2495
  15.900   1.2185   0.08669   0.08122  -0.0310  0.0123  1.0000  -6.0505   0.0000   0.0000   0.0000   0.2498
  16.000   1.2151   0.08851   0.08310  -0.0314  0.0121  1.0000  -6.0496   0.0000   0.0000   0.0000   0.2500
  16.100   1.2120   0.09030   0.08495  -0.0319  0.0120  1.0000  -6.0496   0.0000   0.0000   0.0000   0.2502
  16.200   1.2090   0.09207   0.08679  -0.0323  0.0119  1.0000  -6.0499   0.0000   0.0000   0.0000   0.2504
  16.300   1.2056   0.09393   0.08871  -0.0328  0.0118  1.0000  -6.0480   0.0000   0.0000   0.0000   0.2507
  16.400   1.2026   0.09570   0.09055  -0.0333  0.0118  1.0000  -6.0478   0.0000   0.0000   0.0000   0.2510
  16.500   1.2001   0.09736   0.09227  -0.0338  0.0117  1.0000  -6.0502   0.0000   0.0000   0.0000   0.2512
  16.600   1.1979   0.09894   0.09392  -0.0341  0.0117  1.0000  -6.0543   0.0000   0.0000   0.0000   0.2514
  16.700   1.1960   0.10050   0.09554  -0.0345  0.0116  1.0000  -6.0590   0.0000   0.0000   0.0000   0.2515
  16.800   1.1942   0.10202   0.09714  -0.0349  0.0116  1.0000  -6.0645   0.0000   0.0000   0.0000   0.2517
  16.900   1.1934   0.10347   0.09861  -0.0354  0.0115  1.0000  -6.0829   0.0000   0.0000   0.0000   0.2519
  17.000   1.1926   0.10490   0.10010  -0.0358  0.0115  1.0000  -6.1023   0.0000   0.0000   0.0000   0.2521
  17.100   1.1918   0.10635   0.10161  -0.0363  0.0115  1.0000  -6.1199   0.0000   0.0000   0.0000   0.2523
  17.200   1.1908   0.10783   0.10314  -0.0368  0.0115  1.0000  -6.1352   0.0000   0.0000   0.0000   0.2525
  17.300   1.1895   0.10933   0.10471  -0.0374  0.0115  1.0000  -6.1481   0.0000   0.0000   0.0000   0.2528
  17.400   1.1881   0.11088   0.10632  -0.0380  0.0115  1.0000  -6.1581   0.0000   0.0000   0.0000   0.2532
  17.500   1.1863   0.11241   0.10791  -0.0386  0.0115  1.0000  -6.1647   0.0000   0.0000   0.0000   0.2535
  17.600   1.1842   0.11393   0.10950  -0.0393  0.0115  1.0000  -6.1676   0.0000   0.0000   0.0000   0.2540
  17.700   1.1814   0.11558   0.11121  -0.0402  0.0115  1.0000  -6.1641   0.0000   0.0000   0.0000   0.2545
  17.800   1.1775   0.11748   0.11319  -0.0412  0.0115  1.0000  -6.1512   0.0000   0.0000   0.0000   0.2553
  17.900   1.1738   0.11940   0.11518  -0.0422  0.0115  1.0000  -6.1375   0.0000   0.0000   0.0000   0.2561
  18.000   1.1702   0.12134   0.11719  -0.0432  0.0115  1.0000  -6.1227   0.0000   0.0000   0.0000   0.2569
  18.100   1.1665   0.12335   0.11928  -0.0443  0.0115  1.0000  -6.1053   0.0000   0.0000   0.0000   0.2577
  18.200   1.1626   0.12548   0.12147  -0.0454  0.0115  1.0000  -6.0833   0.0000   0.0000   0.0000   0.2586
  19.000   1.1356   0.14388   0.14039  -0.0560  0.0117  1.0000  -5.9748   0.0000   0.0000   0.0000   0.2674
  19.100   1.1325   0.14634   0.14290  -0.0574  0.0118  1.0000  -5.9601   0.0000   0.0000   0.0000   0.2686
  19.200   1.1291   0.14889   0.14550  -0.0589  0.0118  1.0000  -5.9428   0.0000   0.0000   0.0000   0.2699
  19.300   1.1245   0.15183   0.14850  -0.0607  0.0118  1.0000  -5.9133   0.0000   0.0000   0.0000   0.2715
  19.400   1.1204   0.15472   0.15144  -0.0624  0.0119  1.0000  -5.8860   0.0000   0.0000   0.0000   0.2730
  19.500   1.1169   0.15750   0.15427  -0.0640  0.0119  1.0000  -5.8628   0.0000   0.0000   0.0000   0.2745
  19.600   1.1135   0.16028   0.15710  -0.0655  0.0119  1.0000  -5.8395   0.0000   0.0000   0.0000   0.2759
  19.700   1.1100   0.16313   0.16000  -0.0671  0.0120  1.0000  -5.8139   0.0000   0.0000   0.0000   0.2774
  19.800   1.1063   0.16609   0.16301  -0.0688  0.0120  1.0000  -5.7843   0.0000   0.0000   0.0000   0.2789
  19.900   1.1011   0.16956   0.16653  -0.0707  0.0121  1.0000  -5.7382   0.0000   0.0000   0.0000   0.2809
  20.000   1.0965   0.17294   0.16996  -0.0726  0.0121  1.0000  -5.6959   0.0000   0.0000   0.0000   0.2827
  20.100   1.0925   0.17619   0.17326  -0.0743  0.0122  1.0000  -5.6571   0.0000   0.0000   0.0000   0.2844
  20.200   1.0885   0.17949   0.17660  -0.0761  0.0122  1.0000  -5.6161   0.0000   0.0000   0.0000   0.2861
  20.300   1.0842   0.18295   0.18011  -0.0779  0.0123  1.0000  -5.5691   0.0000   0.0000   0.0000   0.2880
  20.400   1.0782   0.18705   0.18425  -0.0800  0.0124  1.0000  -5.4998   0.0000   0.0000   0.0000   0.2903
  20.500   1.0727   0.19109   0.18833  -0.0820  0.0124  1.0000  -5.4321   0.0000   0.0000   0.0000   0.2925
  20.600   1.0678   0.19502   0.19231  -0.0839  0.0125  1.0000  -5.3664   0.0000   0.0000   0.0000   0.2946
  20.700   1.0624   0.19917   0.19649  -0.0859  0.0126  1.0000  -5.2913   0.0000   0.0000   0.0000   0.2967
  20.800   1.0547   0.20431   0.20167  -0.0882  0.0127  1.0000  -5.1773   0.0000   0.0000   0.0000   0.2996
  20.900   1.0471   0.20957   0.20698  -0.0905  0.0129  1.0000  -5.0545   0.0000   0.0000   0.0000   0.3025
  21.000   1.0381   0.21554   0.21299  -0.0930  0.0131  1.0000  -4.8961   0.0000   0.0000   0.0000   0.3057
  21.200   0.9470   0.26679   0.26419  -0.1060  0.0207  1.0000  -2.6398   0.0000   0.0000   0.0000   0.3315
  21.300   0.9438   0.27073   0.26813  -0.1068  0.0221  1.0000  -2.5663   0.0000   0.0000   0.0000   0.3327
  21.400   0.9552   0.26873   0.26619  -0.1055  0.0252  1.0000  -2.7030   0.0000   0.0000   0.0000   0.3295
  21.500   0.9527   0.27376   0.27121  -0.1070  0.0262  1.0000  -2.5728   0.0000   0.0000   0.0000   0.3315
  21.600   0.9506   0.27755   0.27501  -0.1082  0.0263  1.0000  -2.5057   0.0000   0.0000   0.0000   0.3329
  21.700   0.9498   0.28053   0.27799  -0.1090  0.0263  1.0000  -2.4728   0.0000   0.0000   0.0000   0.3339
  21.800   0.9496   0.28312   0.28058  -0.1098  0.0263  1.0000  -2.4555   0.0000   0.0000   0.0000   0.3345
  21.900   0.9498   0.28546   0.28293  -0.1104  0.0262  1.0000  -2.4486   0.0000   0.0000   0.0000   0.3350
  22.000   0.9503   0.28759   0.28507  -0.1109  0.0260  1.0000  -2.4499   0.0000   0.0000   0.0000   0.3354
  22.100   0.9505   0.28973   0.28721  -0.1115  0.0258  1.0000  -2.4516   0.0000   0.0000   0.0000   0.3358
  22.200   0.9503   0.29190   0.28940  -0.1120  0.0255  1.0000  -2.4523   0.0000   0.0000   0.0000   0.3362
  22.300   0.9494   0.29419   0.29169  -0.1125  0.0252  1.0000  -2.4503   0.0000   0.0000   0.0000   0.3367
  22.400   0.9452   0.29760   0.29511  -0.1130  0.0246  1.0000  -2.4107   0.0000   0.0000   0.0000   0.3377
  22.500   0.9237   0.30709   0.30458  -0.1141  0.0238  1.0000  -2.1308   0.0000   0.0000   0.0000   0.3422
  22.600   0.9210   0.30929   0.30679  -0.1146  0.0238  1.0000  -2.1037   0.0000   0.0000   0.0000   0.3430
  22.700   0.9177   0.31131   0.30882  -0.1150  0.0238  1.0000  -2.0749   0.0000   0.0000   0.0000   0.3439
  23.100   0.8546   0.30456   0.30222  -0.1115  0.0237  1.0000  -1.8184   0.0000   0.0000   0.0000   0.3505
  23.200   0.8499   0.30490   0.30258  -0.1116  0.0237  1.0000  -1.7882   0.0000   0.0000   0.0000   0.3515
  23.300   0.8458   0.30531   0.30301  -0.1119  0.0237  1.0000  -1.7600   0.0000   0.0000   0.0000   0.3524
  23.400   0.8421   0.30579   0.30350  -0.1121  0.0237  1.0000  -1.7335   0.0000   0.0000   0.0000   0.3533
  23.500   0.8388   0.30630   0.30403  -0.1124  0.0236  1.0000  -1.7083   0.0000   0.0000   0.0000   0.3542
  23.600   0.8358   0.30684   0.30458  -0.1127  0.0236  1.0000  -1.6841   0.0000   0.0000   0.0000   0.3550
  23.700   0.8331   0.30741   0.30516  -0.1130  0.0236  1.0000  -1.6610   0.0000   0.0000   0.0000   0.3558
  23.800   0.8306   0.30801   0.30577  -0.1133  0.0236  1.0000  -1.6386   0.0000   0.0000   0.0000   0.3566
  23.900   0.8282   0.30862   0.30639  -0.1137  0.0235  1.0000  -1.6170   0.0000   0.0000   0.0000   0.3574
  24.000   0.8261   0.30925   0.30703  -0.1140  0.0235  1.0000  -1.5961   0.0000   0.0000   0.0000   0.3581
  24.100   0.8241   0.30988   0.30767  -0.1144  0.0235  1.0000  -1.5759   0.0000   0.0000   0.0000   0.3588
  24.200   0.8222   0.31053   0.30833  -0.1147  0.0235  1.0000  -1.5564   0.0000   0.0000   0.0000   0.3596
  24.300   0.8205   0.31118   0.30899  -0.1151  0.0234  1.0000  -1.5375   0.0000   0.0000   0.0000   0.3603
  24.400   0.8189   0.31183   0.30965  -0.1155  0.0234  1.0000  -1.5191   0.0000   0.0000   0.0000   0.3610
  24.500   0.8174   0.31249   0.31032  -0.1159  0.0234  1.0000  -1.5012   0.0000   0.0000   0.0000   0.3617
  24.600   0.8160   0.31315   0.31099  -0.1164  0.0233  1.0000  -1.4840   0.0000   0.0000   0.0000   0.3624
  24.700   0.8147   0.31381   0.31166  -0.1168  0.0233  1.0000  -1.4674   0.0000   0.0000   0.0000   0.3630
  24.800   0.8136   0.31447   0.31233  -0.1172  0.0232  1.0000  -1.4513   0.0000   0.0000   0.0000   0.3637
  24.900   0.8125   0.31513   0.31300  -0.1177  0.0232  1.0000  -1.4355   0.0000   0.0000   0.0000   0.3644
  25.000   0.8116   0.31580   0.31367  -0.1182  0.0231  1.0000  -1.4202   0.0000   0.0000   0.0000   0.3651
  25.100   0.8108   0.31647   0.31435  -0.1187  0.0229  1.0000  -1.4050   0.0000   0.0000   0.0000   0.3658
  25.200   0.8095   0.31722   0.31510  -0.1194  0.0227  1.0000  -1.3823   0.0000   0.0000   0.0000   0.3668
  25.300   0.8086   0.31810   0.31599  -0.1202  0.0224  1.0000  -1.3570   0.0000   0.0000   0.0000   0.3679
  25.400   0.8082   0.31925   0.31715  -0.1212  0.0217  1.0000  -1.3264   0.0000   0.0000   0.0000   0.3691
  25.500   0.8078   0.32037   0.31827  -0.1219  0.0208  1.0000  -1.3001   0.0000   0.0000   0.0000   0.3700
  25.600   0.8072   0.32128   0.31919  -0.1225  0.0201  1.0000  -1.2820   0.0000   0.0000   0.0000   0.3707
  25.700   0.8065   0.32208   0.32000  -0.1230  0.0195  1.0000  -1.2682   0.0000   0.0000   0.0000   0.3713
  25.800   0.8059   0.32283   0.32075  -0.1234  0.0189  1.0000  -1.2571   0.0000   0.0000   0.0000   0.3719
  25.900   0.8053   0.32354   0.32147  -0.1239  0.0184  1.0000  -1.2478   0.0000   0.0000   0.0000   0.3725
  26.000   0.8048   0.32423   0.32216  -0.1243  0.0180  1.0000  -1.2399   0.0000   0.0000   0.0000   0.3730
  26.100   0.8043   0.32490   0.32284  -0.1247  0.0175  1.0000  -1.2331   0.0000   0.0000   0.0000   0.3735
  26.200   0.8039   0.32555   0.32351  -0.1251  0.0172  1.0000  -1.2274   0.0000   0.0000   0.0000   0.3740
  26.300   0.8035   0.32620   0.32416  -0.1255  0.0168  1.0000  -1.2227   0.0000   0.0000   0.0000   0.3744
  26.400   0.8031   0.32683   0.32480  -0.1260  0.0164  1.0000  -1.2188   0.0000   0.0000   0.0000   0.3749
  26.500   0.8028   0.32745   0.32543  -0.1264  0.0161  1.0000  -1.2159   0.0000   0.0000   0.0000   0.3753
  26.600   0.8025   0.32807   0.32605  -0.1268  0.0158  1.0000  -1.2137   0.0000   0.0000   0.0000   0.3757
  26.700   0.8023   0.32867   0.32666  -0.1272  0.0155  1.0000  -1.2125   0.0000   0.0000   0.0000   0.3762
  26.800   0.8021   0.32926   0.32725  -0.1276  0.0153  1.0000  -1.2120   0.0000   0.0000   0.0000   0.3765
  26.900   0.8019   0.32983   0.32784  -0.1280  0.0150  1.0000  -1.2125   0.0000   0.0000   0.0000   0.3769
  27.000   0.8018   0.33040   0.32841  -0.1284  0.0148  1.0000  -1.2138   0.0000   0.0000   0.0000   0.3773
  27.100   0.8017   0.33095   0.32898  -0.1288  0.0145  1.0000  -1.2159   0.0000   0.0000   0.0000   0.3776
  27.200   0.8016   0.33149   0.32952  -0.1292  0.0143  1.0000  -1.2191   0.0000   0.0000   0.0000   0.3780
  27.300   0.8016   0.33202   0.33005  -0.1296  0.0141  1.0000  -1.2232   0.0000   0.0000   0.0000   0.3783
  27.400   0.8016   0.33253   0.33057  -0.1300  0.0139  1.0000  -1.2282   0.0000   0.0000   0.0000   0.3786
  27.500   0.8017   0.33302   0.33107  -0.1304  0.0138  1.0000  -1.2342   0.0000   0.0000   0.0000   0.3789
  27.600   0.8017   0.33350   0.33156  -0.1307  0.0136  1.0000  -1.2411   0.0000   0.0000   0.0000   0.3791
  27.700   0.8018   0.33396   0.33203  -0.1311  0.0134  1.0000  -1.2491   0.0000   0.0000   0.0000   0.3793
  27.800   0.8019   0.33440   0.33248  -0.1315  0.0133  1.0000  -1.2580   0.0000   0.0000   0.0000   0.3796
  27.900   0.8021   0.33483   0.33291  -0.1318  0.0131  1.0000  -1.2680   0.0000   0.0000   0.0000   0.3797
  28.000   0.8023   0.33524   0.33333  -0.1321  0.0130  1.0000  -1.2789   0.0000   0.0000   0.0000   0.3799
  28.100   0.8026   0.33553   0.33368  -0.1324  0.0128  1.0000  -1.2972   0.0000   0.0000   0.0000   0.3799
  28.200   0.8029   0.33589   0.33404  -0.1326  0.0127  1.0000  -1.3116   0.0000   0.0000   0.0000   0.3800
  28.300   0.8032   0.33625   0.33442  -0.1329  0.0125  1.0000  -1.3260   0.0000   0.0000   0.0000   0.3800
  28.400   0.8034   0.33663   0.33481  -0.1331  0.0124  1.0000  -1.3404   0.0000   0.0000   0.0000   0.3799
  28.500   0.8032   0.33715   0.33534  -0.1333  0.0122  1.0000  -1.3460   0.0000   0.0000   0.0000   0.3800
  28.600   0.7949   0.34005   0.33821  -0.1330  0.0116  1.0000  -1.1876   0.0000   0.0000   0.0000   0.3819
  28.700   0.7947   0.34081   0.33898  -0.1334  0.0115  1.0000  -1.1776   0.0000   0.0000   0.0000   0.3823
  28.800   0.7945   0.34158   0.33974  -0.1339  0.0115  1.0000  -1.1678   0.0000   0.0000   0.0000   0.3828
  28.900   0.7943   0.34234   0.34051  -0.1343  0.0115  1.0000  -1.1582   0.0000   0.0000   0.0000   0.3832
  29.000   0.7941   0.34310   0.34128  -0.1348  0.0115  1.0000  -1.1487   0.0000   0.0000   0.0000   0.3836
  29.100   0.7940   0.34386   0.34204  -0.1352  0.0115  1.0000  -1.1394   0.0000   0.0000   0.0000   0.3841
  29.200   0.7938   0.34461   0.34281  -0.1357  0.0115  1.0000  -1.1303   0.0000   0.0000   0.0000   0.3845
  29.300   0.7936   0.34537   0.34357  -0.1361  0.0115  1.0000  -1.1214   0.0000   0.0000   0.0000   0.3849
  29.400   0.7935   0.34613   0.34433  -0.1366  0.0115  1.0000  -1.1126   0.0000   0.0000   0.0000   0.3854
  29.500   0.7933   0.34687   0.34508  -0.1371  0.0115  1.0000  -1.1038   0.0000   0.0000   0.0000   0.3858
  29.600   0.7932   0.34762   0.34583  -0.1375  0.0115  1.0000  -1.0948   0.0000   0.0000   0.0000   0.3863
  29.700   0.7930   0.34835   0.34658  -0.1380  0.0115  1.0000  -1.0858   0.0000   0.0000   0.0000   0.3867
  29.800   0.7928   0.34908   0.34731  -0.1385  0.0115  1.0000  -1.0769   0.0000   0.0000   0.0000   0.3872
  29.900   0.7926   0.34981   0.34805  -0.1390  0.0115  1.0000  -1.0681   0.0000   0.0000   0.0000   0.3877
  30.000   0.7924   0.35054   0.34878  -0.1395  0.0115  1.0000  -1.0595   0.0000   0.0000   0.0000   0.3882


