xflr5 v6.61

 Calculated polar for: S2027

 1 1 Reynolds number fixed          Mach number fixed         

 xtrf =   1.000 (top)        1.000 (bottom)
 Mach =   0.000     Re =     0.450 e 6     Ncrit =   9.000

  alpha     CL        CD       CDp       Cm    Top Xtr Bot Xtr   Cpmin    Chinge    XCp    
 ------- -------- --------- --------- -------- ------- ------- -------- --------- ---------
 -10.000  -0.3772   0.08749   0.08529  -0.0414  1.0000  0.0358  -1.9184   0.0000   0.0000   0.0000   0.1250
  -9.900  -0.3784   0.08544   0.08324  -0.0427  1.0000  0.0362  -1.9454   0.0000   0.0000   0.0000   0.1219
  -9.800  -0.3800   0.08328   0.08110  -0.0442  1.0000  0.0366  -1.9761   0.0000   0.0000   0.0000   0.1187
  -9.700  -0.3821   0.08099   0.07883  -0.0458  1.0000  0.0370  -2.0116   0.0000   0.0000   0.0000   0.1153
  -9.600  -0.3845   0.07859   0.07645  -0.0475  1.0000  0.0373  -2.0498   0.0000   0.0000   0.0000   0.1116
  -9.500  -0.3877   0.07593   0.07381  -0.0496  1.0000  0.0377  -2.0964   0.0000   0.0000   0.0000   0.1075
  -9.400  -0.3918   0.07236   0.07026  -0.0529  0.9945  0.0380  -2.1654   0.0000   0.0000   0.0000   0.1007
  -9.300  -0.3989   0.06547   0.06331  -0.0617  0.9766  0.0382  -2.3160   0.0000   0.0000   0.0000   0.0811
  -9.200  -0.4048   0.06082   0.05858  -0.0685  0.9645  0.0382  -2.4078   0.0000   0.0000   0.0000   0.0670
  -9.100  -0.4107   0.05770   0.05537  -0.0727  0.9512  0.0383  -2.4658   0.0000   0.0000   0.0000   0.0595
  -9.000  -0.4190   0.05569   0.05328  -0.0744  0.9382  0.0384  -2.5061   0.0000   0.0000   0.0000   0.0593
  -8.900  -0.4278   0.05424   0.05175  -0.0748  0.9261  0.0384  -2.5365   0.0000   0.0000   0.0000   0.0626
  -8.800  -0.4360   0.05308   0.05052  -0.0744  0.9165  0.0385  -2.5594   0.0000   0.0000   0.0000   0.0672
  -8.700  -0.4420   0.05203   0.04941  -0.0739  0.9092  0.0388  -2.5748   0.0000   0.0000   0.0000   0.0709
  -8.600  -0.4448   0.05096   0.04826  -0.0736  0.9024  0.0392  -2.5813   0.0000   0.0000   0.0000   0.0728
  -8.500  -0.4459   0.05002   0.04724  -0.0732  0.8962  0.0397  -2.5806   0.0000   0.0000   0.0000   0.0743
  -8.400  -0.4453   0.04925   0.04639  -0.0727  0.8905  0.0403  -2.5715   0.0000   0.0000   0.0000   0.0753
  -8.300  -0.4426   0.04870   0.04576  -0.0723  0.8851  0.0410  -2.5522   0.0000   0.0000   0.0000   0.0753
  -8.200  -0.4368   0.04852   0.04553  -0.0720  0.8816  0.0418  -2.5154   0.0000   0.0000   0.0000   0.0739
  -8.100  -0.4262   0.04937   0.04634  -0.0715  0.8778  0.0427  -2.4436   0.0000   0.0000   0.0000   0.0709
  -8.000  -0.4197   0.04968   0.04659  -0.0710  0.8734  0.0432  -2.3958   0.0000   0.0000   0.0000   0.0695
  -7.900  -0.4167   0.04917   0.04600  -0.0707  0.8687  0.0434  -2.3749   0.0000   0.0000   0.0000   0.0693
  -7.800  -0.4144   0.04841   0.04516  -0.0703  0.8641  0.0435  -2.3609   0.0000   0.0000   0.0000   0.0693
  -7.700  -0.4120   0.04754   0.04420  -0.0699  0.8595  0.0435  -2.3491   0.0000   0.0000   0.0000   0.0694
  -7.600  -0.4094   0.04662   0.04317  -0.0695  0.8548  0.0436  -2.3379   0.0000   0.0000   0.0000   0.0694
  -7.500  -0.4063   0.04565   0.04210  -0.0691  0.8495  0.0436  -2.3265   0.0000   0.0000   0.0000   0.0691
  -7.400  -0.4024   0.04460   0.04097  -0.0689  0.8465  0.0437  -2.3143   0.0000   0.0000   0.0000   0.0680
  -7.300  -0.3981   0.04352   0.03982  -0.0687  0.8433  0.0437  -2.3015   0.0000   0.0000   0.0000   0.0668
  -7.200  -0.4291   0.03391   0.02972  -0.0687  0.8395  0.0467  -2.5706   0.0000   0.0000   0.0000   0.0797
  -7.100  -0.4244   0.03243   0.02818  -0.0685  0.8359  0.0478  -2.5473   0.0000   0.0000   0.0000   0.0783
  -7.000  -0.4179   0.03145   0.02715  -0.0683  0.8321  0.0486  -2.5102   0.0000   0.0000   0.0000   0.0764
  -6.900  -0.4108   0.03065   0.02630  -0.0681  0.8283  0.0494  -2.4692   0.0000   0.0000   0.0000   0.0741
  -6.800  -0.4034   0.02993   0.02546  -0.0678  0.8245  0.0503  -2.4289   0.0000   0.0000   0.0000   0.0718
  -6.700  -0.3953   0.02929   0.02478  -0.0675  0.8208  0.0512  -2.3835   0.0000   0.0000   0.0000   0.0689
  -6.600  -0.3871   0.02868   0.02413  -0.0673  0.8170  0.0521  -2.3388   0.0000   0.0000   0.0000   0.0659
  -6.500  -0.3787   0.02810   0.02349  -0.0671  0.8129  0.0531  -2.2953   0.0000   0.0000   0.0000   0.0627
  -6.400  -0.3701   0.02754   0.02288  -0.0669  0.8084  0.0541  -2.2527   0.0000   0.0000   0.0000   0.0591
  -6.300  -0.3611   0.02694   0.02224  -0.0667  0.8065  0.0553  -2.2109   0.0000   0.0000   0.0000   0.0550
  -6.200  -0.3520   0.02636   0.02162  -0.0665  0.8043  0.0566  -2.1702   0.0000   0.0000   0.0000   0.0507
  -6.100  -0.3428   0.02581   0.02102  -0.0664  0.8017  0.0580  -2.1305   0.0000   0.0000   0.0000   0.0461
  -6.000  -0.3334   0.02528   0.02044  -0.0662  0.7988  0.0594  -2.0917   0.0000   0.0000   0.0000   0.0411
  -5.800  -0.3144   0.01806   0.01209  -0.0627  0.7939  0.0286  -2.5384   0.0000   0.0000   0.0000   0.0395
  -5.700  -0.3031   0.01793   0.01190  -0.0625  0.7906  0.0271  -2.4930   0.0000   0.0000   0.0000   0.0327
  -5.600  -0.2919   0.01794   0.01188  -0.0623  0.7872  0.0263  -2.4309   0.0000   0.0000   0.0000   0.0253
  -5.500  -0.2807   0.01800   0.01192  -0.0622  0.7838  0.0258  -2.3646   0.0000   0.0000   0.0000   0.0171
  -5.400  -0.2696   0.01809   0.01199  -0.0620  0.7803  0.0253  -2.2965   0.0000   0.0000   0.0000   0.0084
  -5.300  -0.2617   0.01645   0.01022  -0.0613  0.7768  0.0238  -2.3427   0.0000   0.0000   0.0000   0.0040
  -5.200  -0.2529   0.01565   0.00934  -0.0609  0.7727  0.0233  -2.3329   0.0000   0.0000   0.0000  -0.0025
  -5.100  -0.2437   0.01506   0.00865  -0.0605  0.7678  0.0230  -2.3127   0.0000   0.0000   0.0000  -0.0100
  -5.000  -0.2343   0.01453   0.00807  -0.0601  0.7645  0.0227  -2.2869   0.0000   0.0000   0.0000  -0.0186
  -4.900  -0.2247   0.01406   0.00754  -0.0598  0.7625  0.0224  -2.2575   0.0000   0.0000   0.0000  -0.0283
  -4.800  -0.2150   0.01363   0.00707  -0.0595  0.7599  0.0221  -2.2253   0.0000   0.0000   0.0000  -0.0390
  -4.700  -0.2053   0.01326   0.00664  -0.0592  0.7571  0.0219  -2.1908   0.0000   0.0000   0.0000  -0.0510
  -4.600  -0.1954   0.01292   0.00624  -0.0589  0.7540  0.0217  -2.1543   0.0000   0.0000   0.0000  -0.0645
  -4.500  -0.1853   0.01261   0.00588  -0.0587  0.7507  0.0216  -2.1160   0.0000   0.0000   0.0000  -0.0798
  -4.400  -0.1752   0.01234   0.00555  -0.0584  0.7474  0.0214  -2.0758   0.0000   0.0000   0.0000  -0.0972
  -4.300  -0.1649   0.01210   0.00523  -0.0582  0.7441  0.0214  -2.0344   0.0000   0.0000   0.0000  -0.1172
  -4.200  -0.1545   0.01189   0.00495  -0.0580  0.7407  0.0214  -1.9918   0.0000   0.0000   0.0000  -0.1402
  -4.100  -0.1439   0.01170   0.00469  -0.0578  0.7372  0.0214  -1.9486   0.0000   0.0000   0.0000  -0.1669
  -4.000  -0.1333   0.01153   0.00444  -0.0577  0.7336  0.0215  -1.9052   0.0000   0.0000   0.0000  -0.1982
  -3.900  -0.1227   0.01139   0.00422  -0.0575  0.7296  0.0218  -1.8621   0.0000   0.0000   0.0000  -0.2353
  -3.800  -0.1118   0.01128   0.00403  -0.0574  0.7250  0.0222  -1.8203   0.0000   0.0000   0.0000  -0.2805
  -3.700  -0.1008   0.01118   0.00385  -0.0573  0.7202  0.0231  -1.7827   0.0000   0.0000   0.0000  -0.3367
  -3.600  -0.0953   0.00989   0.00327  -0.0568  0.7187  0.1725  -1.8557   0.0000   0.0000   0.0000  -0.3656
  -3.500  -0.0864   0.00941   0.00314  -0.0568  0.7169  0.2452  -1.7999   0.0000   0.0000   0.0000  -0.4280
  -3.400  -0.0764   0.00914   0.00306  -0.0568  0.7147  0.2881  -1.7348   0.0000   0.0000   0.0000  -0.5158
  -3.300  -0.0661   0.00891   0.00300  -0.0567  0.7120  0.3250  -1.6679   0.0000   0.0000   0.0000  -0.6327
  -3.200  -0.0556   0.00876   0.00294  -0.0567  0.7091  0.3547  -1.5996   0.0000   0.0000   0.0000  -0.7990
  -3.100  -0.0451   0.00860   0.00290  -0.0567  0.7057  0.3850  -1.5320   0.0000   0.0000   0.0000  -1.0396
  -3.000  -0.0335   0.00860   0.00276  -0.0567  0.7021  0.3829  -1.4554   0.0000   0.0000   0.0000  -1.4820
  -2.900  -0.0230   0.00847   0.00272  -0.0566  0.6984  0.4094  -1.3889   0.0000   0.0000   0.0000  -2.2685
  -2.800  -0.0124   0.00837   0.00269  -0.0565  0.6945  0.4347  -1.3226   0.0000   0.0000   0.0000  -4.4057
  -2.700  -0.0018   0.00829   0.00266  -0.0564  0.6906  0.4571  -1.2569   0.0000   0.0000   0.0000  -31.6919
  -2.600   0.0086   0.00822   0.00265  -0.0563  0.6866  0.4837  -1.1922   0.0000   0.0000   0.0000   6.8996
  -2.500   0.0189   0.00815   0.00267  -0.0561  0.6823  0.5134  -1.1286   0.0000   0.0000   0.0000   3.2713
  -2.400   0.0294   0.00814   0.00272  -0.0560  0.6774  0.5414  -1.0649   0.0000   0.0000   0.0000   2.1856
  -2.300   0.0403   0.00814   0.00276  -0.0559  0.6730  0.5608  -1.0016   0.0000   0.0000   0.0000   1.6619
  -2.200   0.0512   0.00809   0.00278  -0.0558  0.6716  0.5748  -0.9387   0.0000   0.0000   0.0000   1.3577
  -2.100   0.0625   0.00807   0.00278  -0.0558  0.6698  0.5824  -0.8758   0.0000   0.0000   0.0000   1.1555
  -2.000   0.0740   0.00806   0.00277  -0.0558  0.6677  0.5882  -0.8136   0.0000   0.0000   0.0000   1.0147
  -1.900   0.0855   0.00807   0.00276  -0.0558  0.6653  0.5936  -0.7522   0.0000   0.0000   0.0000   0.9114
  -1.800   0.0970   0.00808   0.00275  -0.0559  0.6627  0.5979  -0.6917   0.0000   0.0000   0.0000   0.8325
  -1.700   0.1085   0.00808   0.00273  -0.0559  0.6598  0.6026  -0.6325   0.0000   0.0000   0.0000   0.7707
  -1.600   0.1196   0.00804   0.00271  -0.0559  0.6566  0.6111  -0.6224   0.0000   0.0000   0.0000   0.7215
  -1.500   0.1307   0.00801   0.00270  -0.0558  0.6531  0.6184  -0.6312   0.0000   0.0000   0.0000   0.6806
  -1.400   0.1417   0.00801   0.00269  -0.0557  0.6494  0.6250  -0.6400   0.0000   0.0000   0.0000   0.6460
  -1.300   0.1528   0.00801   0.00268  -0.0557  0.6455  0.6310  -0.6489   0.0000   0.0000   0.0000   0.6164
  -1.200   0.1639   0.00803   0.00267  -0.0556  0.6414  0.6366  -0.6578   0.0000   0.0000   0.0000   0.5909
  -1.100   0.1750   0.00806   0.00267  -0.0556  0.6368  0.6416  -0.6666   0.0000   0.0000   0.0000   0.5686
  -1.000   0.1862   0.00812   0.00267  -0.0556  0.6315  0.6458  -0.6755   0.0000   0.0000   0.0000   0.5490
  -0.900   0.1976   0.00819   0.00269  -0.0556  0.6258  0.6492  -0.6843   0.0000   0.0000   0.0000   0.5316
  -0.800   0.2092   0.00821   0.00269  -0.0557  0.6240  0.6517  -0.6935   0.0000   0.0000   0.0000   0.5160
  -0.700   0.2206   0.00817   0.00267  -0.0557  0.6225  0.6572  -0.7025   0.0000   0.0000   0.0000   0.5022
  -0.600   0.2319   0.00813   0.00266  -0.0557  0.6207  0.6638  -0.7125   0.0000   0.0000   0.0000   0.4897
  -0.500   0.2431   0.00810   0.00267  -0.0557  0.6187  0.6697  -0.7227   0.0000   0.0000   0.0000   0.4783
  -0.400   0.2543   0.00809   0.00267  -0.0557  0.6163  0.6752  -0.7329   0.0000   0.0000   0.0000   0.4679
  -0.300   0.2655   0.00808   0.00268  -0.0557  0.6138  0.6803  -0.7431   0.0000   0.0000   0.0000   0.4583
  -0.200   0.2768   0.00809   0.00269  -0.0557  0.6109  0.6851  -0.7534   0.0000   0.0000   0.0000   0.4496
  -0.100   0.2881   0.00810   0.00269  -0.0557  0.6079  0.6894  -0.7637   0.0000   0.0000   0.0000   0.4416
   0.000   0.2994   0.00811   0.00269  -0.0557  0.6046  0.6933  -0.7740   0.0000   0.0000   0.0000   0.4341
   0.100   0.3107   0.00813   0.00268  -0.0557  0.6011  0.6969  -0.7844   0.0000   0.0000   0.0000   0.4272
   0.200   0.3220   0.00816   0.00268  -0.0557  0.5973  0.7001  -0.7947   0.0000   0.0000   0.0000   0.4208
   0.300   0.3331   0.00820   0.00267  -0.0557  0.5932  0.7027  -0.8051   0.0000   0.0000   0.0000   0.4148
   0.400   0.3442   0.00822   0.00263  -0.0557  0.5886  0.7078  -0.8153   0.0000   0.0000   0.0000   0.4092
   0.500   0.3550   0.00824   0.00263  -0.0556  0.5832  0.7140  -0.8254   0.0000   0.0000   0.0000   0.4040
   0.600   0.3660   0.00829   0.00267  -0.0556  0.5774  0.7190  -0.8354   0.0000   0.0000   0.0000   0.3991
   0.700   0.3772   0.00828   0.00268  -0.0556  0.5754  0.7236  -0.8458   0.0000   0.0000   0.0000   0.3945
   0.800   0.3884   0.00827   0.00269  -0.0556  0.5739  0.7284  -0.8562   0.0000   0.0000   0.0000   0.3901
   0.900   0.3997   0.00826   0.00273  -0.0556  0.5722  0.7332  -0.8667   0.0000   0.0000   0.0000   0.3859
   1.000   0.4109   0.00826   0.00274  -0.0556  0.5703  0.7380  -0.8772   0.0000   0.0000   0.0000   0.3820
   1.100   0.4222   0.00827   0.00275  -0.0556  0.5681  0.7425  -0.8877   0.0000   0.0000   0.0000   0.3784
   1.200   0.4336   0.00828   0.00276  -0.0557  0.5656  0.7464  -0.8990   0.0000   0.0000   0.0000   0.3749
   1.300   0.4450   0.00830   0.00277  -0.0557  0.5629  0.7497  -0.9110   0.0000   0.0000   0.0000   0.3716
   1.400   0.4563   0.00833   0.00278  -0.0558  0.5600  0.7524  -0.9231   0.0000   0.0000   0.0000   0.3685
   1.500   0.4674   0.00832   0.00278  -0.0558  0.5569  0.7582  -0.9350   0.0000   0.0000   0.0000   0.3655
   1.600   0.4783   0.00831   0.00279  -0.0557  0.5538  0.7641  -0.9468   0.0000   0.0000   0.0000   0.3625
   1.700   0.4891   0.00832   0.00280  -0.0556  0.5505  0.7698  -0.9585   0.0000   0.0000   0.0000   0.3597
   1.800   0.4998   0.00834   0.00282  -0.0555  0.5469  0.7754  -0.9702   0.0000   0.0000   0.0000   0.3569
   1.900   0.5105   0.00837   0.00284  -0.0554  0.5429  0.7811  -0.9820   0.0000   0.0000   0.0000   0.3543
   2.000   0.5211   0.00842   0.00287  -0.0553  0.5381  0.7866  -0.9937   0.0000   0.0000   0.0000   0.3518
   2.100   0.5319   0.00850   0.00291  -0.0553  0.5325  0.7918  -1.0054   0.0000   0.0000   0.0000   0.3495
   2.200   0.5430   0.00858   0.00297  -0.0553  0.5270  0.7962  -1.0173   0.0000   0.0000   0.0000   0.3473
   2.400   0.5651   0.00855   0.00299  -0.0553  0.5242  0.8075  -1.0415   0.0000   0.0000   0.0000   0.3430
   2.500   0.5758   0.00853   0.00302  -0.0552  0.5223  0.8140  -1.0534   0.0000   0.0000   0.0000   0.3409
   2.600   0.5865   0.00853   0.00305  -0.0551  0.5201  0.8206  -1.0654   0.0000   0.0000   0.0000   0.3389
   2.700   0.5973   0.00853   0.00308  -0.0550  0.5178  0.8274  -1.0773   0.0000   0.0000   0.0000   0.3370
   2.800   0.6081   0.00854   0.00311  -0.0549  0.5152  0.8343  -1.0894   0.0000   0.0000   0.0000   0.3351
   2.900   0.6190   0.00857   0.00313  -0.0549  0.5123  0.8405  -1.1015   0.0000   0.0000   0.0000   0.3334
   3.000   0.6295   0.00857   0.00316  -0.0547  0.5092  0.8480  -1.1138   0.0000   0.0000   0.0000   0.3316
   3.100   0.6395   0.00858   0.00319  -0.0544  0.5061  0.8565  -1.1270   0.0000   0.0000   0.0000   0.3297
   3.200   0.6495   0.00860   0.00321  -0.0542  0.5028  0.8649  -1.1403   0.0000   0.0000   0.0000   0.3279
   3.300   0.6596   0.00863   0.00324  -0.0539  0.4993  0.8734  -1.1536   0.0000   0.0000   0.0000   0.3261
   3.400   0.6698   0.00868   0.00327  -0.0538  0.4955  0.8811  -1.1670   0.0000   0.0000   0.0000   0.3245
   3.500   0.6792   0.00871   0.00332  -0.0534  0.4913  0.8904  -1.1799   0.0000   0.0000   0.0000   0.3227
   3.600   0.6885   0.00876   0.00337  -0.0530  0.4864  0.9006  -1.1926   0.0000   0.0000   0.0000   0.3210
   3.700   0.6982   0.00885   0.00344  -0.0527  0.4808  0.9112  -1.2055   0.0000   0.0000   0.0000   0.3194
   3.800   0.7084   0.00888   0.00348  -0.0524  0.4777  0.9216  -1.2189   0.0000   0.0000   0.0000   0.3179
   3.900   0.7193   0.00886   0.00357  -0.0523  0.4763  0.9335  -1.2331   0.0000   0.0000   0.0000   0.3165
   4.100   0.7453   0.00886   0.00362  -0.0531  0.4720  0.9568  -1.2648   0.0000   0.0000   0.0000   0.3148
   4.200   0.7600   0.00887   0.00365  -0.0538  0.4691  0.9687  -1.2819   0.0000   0.0000   0.0000   0.3143
   4.300   0.7769   0.00890   0.00368  -0.0551  0.4657  0.9778  -1.3008   0.0000   0.0000   0.0000   0.3144
   4.400   0.7933   0.00893   0.00371  -0.0563  0.4622  0.9879  -1.3193   0.0000   0.0000   0.0000   0.3143
   4.500   0.8101   0.00898   0.00374  -0.0576  0.4584  0.9983  -1.3397   0.0000   0.0000   0.0000   0.3143
   4.600   0.8211   0.00904   0.00377  -0.0577  0.4549  1.0000  -1.3561   0.0000   0.0000   0.0000   0.3134
   4.700   0.8312   0.00911   0.00381  -0.0577  0.4512  1.0000  -1.3719   0.0000   0.0000   0.0000   0.3124
   4.800   0.8412   0.00919   0.00386  -0.0576  0.4471  1.0000  -1.3876   0.0000   0.0000   0.0000   0.3113
   4.900   0.8512   0.00928   0.00392  -0.0575  0.4425  1.0000  -1.4032   0.0000   0.0000   0.0000   0.3103
   5.000   0.8612   0.00940   0.00399  -0.0574  0.4372  1.0000  -1.4189   0.0000   0.0000   0.0000   0.3093
   5.100   0.8714   0.00953   0.00409  -0.0573  0.4313  1.0000  -1.4346   0.0000   0.0000   0.0000   0.3083
   5.200   0.8822   0.00958   0.00415  -0.0573  0.4293  1.0000  -1.4511   0.0000   0.0000   0.0000   0.3074
   5.300   0.8930   0.00961   0.00419  -0.0573  0.4277  1.0000  -1.4679   0.0000   0.0000   0.0000   0.3065
   5.400   0.9039   0.00964   0.00424  -0.0574  0.4257  1.0000  -1.4846   0.0000   0.0000   0.0000   0.3057
   5.500   0.9146   0.00968   0.00429  -0.0574  0.4232  1.0000  -1.5025   0.0000   0.0000   0.0000   0.3048
   5.600   0.9254   0.00973   0.00434  -0.0574  0.4202  1.0000  -1.5218   0.0000   0.0000   0.0000   0.3040
   5.700   0.9360   0.00979   0.00440  -0.0573  0.4169  1.0000  -1.5410   0.0000   0.0000   0.0000   0.3032
   5.800   0.9465   0.00986   0.00446  -0.0573  0.4134  1.0000  -1.5602   0.0000   0.0000   0.0000   0.3023
   5.900   0.9569   0.00993   0.00452  -0.0573  0.4099  1.0000  -1.5794   0.0000   0.0000   0.0000   0.3015
   6.000   0.9671   0.01001   0.00458  -0.0572  0.4062  1.0000  -1.5984   0.0000   0.0000   0.0000   0.3007
   6.100   0.9771   0.01011   0.00465  -0.0571  0.4021  1.0000  -1.6172   0.0000   0.0000   0.0000   0.2998
   6.200   0.9869   0.01023   0.00473  -0.0569  0.3974  1.0000  -1.6359   0.0000   0.0000   0.0000   0.2990
   6.300   0.9966   0.01036   0.00483  -0.0568  0.3917  1.0000  -1.6543   0.0000   0.0000   0.0000   0.2982
   6.400   1.0063   0.01052   0.00496  -0.0566  0.3852  1.0000  -1.6727   0.0000   0.0000   0.0000   0.2973
   6.500   1.0168   0.01060   0.00504  -0.0566  0.3823  1.0000  -1.6933   0.0000   0.0000   0.0000   0.2966
   6.600   1.0275   0.01064   0.00511  -0.0566  0.3806  1.0000  -1.7199   0.0000   0.0000   0.0000   0.2959
   6.700   1.0382   0.01069   0.00518  -0.0566  0.3785  1.0000  -1.7497   0.0000   0.0000   0.0000   0.2952
   6.800   1.0488   0.01074   0.00525  -0.0566  0.3761  1.0000  -1.7832   0.0000   0.0000   0.0000   0.2945
   6.900   1.0593   0.01081   0.00533  -0.0566  0.3733  1.0000  -1.8167   0.0000   0.0000   0.0000   0.2938
   7.000   1.0696   0.01089   0.00542  -0.0565  0.3703  1.0000  -1.8501   0.0000   0.0000   0.0000   0.2932
   7.100   1.0798   0.01098   0.00550  -0.0564  0.3669  1.0000  -1.8835   0.0000   0.0000   0.0000   0.2925
   7.200   1.0898   0.01107   0.00559  -0.0563  0.3633  1.0000  -1.9180   0.0000   0.0000   0.0000   0.2918
   7.300   1.0995   0.01118   0.00584  -0.0562  0.3594  1.0000  -1.9574   0.0000   0.0000   0.0000   0.2910
   7.400   1.1089   0.01131   0.00595  -0.0560  0.3549  1.0000  -1.9979   0.0000   0.0000   0.0000   0.2903
   7.500   1.1178   0.01147   0.00607  -0.0557  0.3491  1.0000  -2.0403   0.0000   0.0000   0.0000   0.2895
   7.600   1.1265   0.01166   0.00623  -0.0554  0.3418  1.0000  -2.0926   0.0000   0.0000   0.0000   0.2888
   7.700   1.1362   0.01179   0.00636  -0.0553  0.3368  1.0000  -2.1663   0.0000   0.0000   0.0000   0.2881
   7.800   1.1467   0.01183   0.00643  -0.0553  0.3346  1.0000  -2.2507   0.0000   0.0000   0.0000   0.2875
   7.900   1.1569   0.01188   0.00651  -0.0552  0.3315  1.0000  -2.3355   0.0000   0.0000   0.0000   0.2869
   8.000   1.1669   0.01197   0.00660  -0.0551  0.3275  1.0000  -2.4199   0.0000   0.0000   0.0000   0.2862
   8.100   1.1764   0.01207   0.00670  -0.0549  0.3225  1.0000  -2.5038   0.0000   0.0000   0.0000   0.2856
   8.200   1.1852   0.01221   0.00680  -0.0547  0.3162  1.0000  -2.5859   0.0000   0.0000   0.0000   0.2849
   8.300   1.1930   0.01240   0.00693  -0.0543  0.3085  1.0000  -2.6647   0.0000   0.0000   0.0000   0.2841
   8.400   1.2002   0.01263   0.00711  -0.0538  0.2989  1.0000  -2.7413   0.0000   0.0000   0.0000   0.2832
   8.500   1.2089   0.01279   0.00725  -0.0535  0.2926  1.0000  -2.8255   0.0000   0.0000   0.0000   0.2826
   8.600   1.2189   0.01286   0.00735  -0.0534  0.2892  1.0000  -2.9159   0.0000   0.0000   0.0000   0.2820
   8.700   1.2281   0.01298   0.00747  -0.0533  0.2840  1.0000  -3.0044   0.0000   0.0000   0.0000   0.2814
   8.800   1.2365   0.01314   0.00760  -0.0529  0.2772  1.0000  -3.0902   0.0000   0.0000   0.0000   0.2807
   8.900   1.2439   0.01335   0.00775  -0.0525  0.2696  1.0000  -3.1723   0.0000   0.0000   0.0000   0.2799
   9.000   1.2504   0.01360   0.00795  -0.0519  0.2610  1.0000  -3.2506   0.0000   0.0000   0.0000   0.2791
   9.100   1.2569   0.01385   0.00817  -0.0514  0.2520  1.0000  -3.3298   0.0000   0.0000   0.0000   0.2783
   9.200   1.2662   0.01396   0.00830  -0.0512  0.2488  1.0000  -3.4226   0.0000   0.0000   0.0000   0.2777
   9.300   1.2750   0.01410   0.00845  -0.0509  0.2447  1.0000  -3.5134   0.0000   0.0000   0.0000   0.2771
   9.400   1.2831   0.01427   0.00861  -0.0506  0.2397  1.0000  -3.6023   0.0000   0.0000   0.0000   0.2764
   9.500   1.2904   0.01447   0.00879  -0.0501  0.2338  1.0000  -3.6882   0.0000   0.0000   0.0000   0.2757
   9.600   1.2967   0.01471   0.00899  -0.0495  0.2272  1.0000  -3.7702   0.0000   0.0000   0.0000   0.2749
   9.700   1.3021   0.01499   0.00922  -0.0488  0.2200  1.0000  -3.8486   0.0000   0.0000   0.0000   0.2740
   9.800   1.3076   0.01525   0.00947  -0.0481  0.2125  1.0000  -3.9273   0.0000   0.0000   0.0000   0.2732
   9.900   1.3151   0.01540   0.00963  -0.0477  0.2093  1.0000  -4.0169   0.0000   0.0000   0.0000   0.2725
  10.000   1.3216   0.01558   0.00982  -0.0471  0.2047  1.0000  -4.1021   0.0000   0.0000   0.0000   0.2717
  10.100   1.3268   0.01582   0.01004  -0.0463  0.1987  1.0000  -4.1818   0.0000   0.0000   0.0000   0.2708
  10.200   1.3306   0.01612   0.01030  -0.0454  0.1919  1.0000  -4.2548   0.0000   0.0000   0.0000   0.2698
  10.300   1.3333   0.01648   0.01060  -0.0443  0.1845  1.0000  -4.3224   0.0000   0.0000   0.0000   0.2688
  10.400   1.3362   0.01684   0.01093  -0.0433  0.1765  1.0000  -4.3912   0.0000   0.0000   0.0000   0.2678
  10.500   1.3418   0.01708   0.01118  -0.0427  0.1720  1.0000  -4.4743   0.0000   0.0000   0.0000   0.2671
  10.600   1.3463   0.01739   0.01148  -0.0419  0.1659  1.0000  -4.5565   0.0000   0.0000   0.0000   0.2662
  10.700   1.3488   0.01780   0.01184  -0.0410  0.1582  1.0000  -4.6284   0.0000   0.0000   0.0000   0.2653
  10.800   1.3483   0.01838   0.01240  -0.0398  0.1479  1.0000  -4.6731   0.0000   0.0000   0.0000   0.2643
  10.900   1.3511   0.01880   0.01279  -0.0389  0.1398  1.0000  -4.7452   0.0000   0.0000   0.0000   0.2634
  11.000   1.3541   0.01922   0.01320  -0.0382  0.1333  1.0000  -4.8191   0.0000   0.0000   0.0000   0.2626
  11.100   1.3554   0.01975   0.01369  -0.0372  0.1259  1.0000  -4.8847   0.0000   0.0000   0.0000   0.2617
  11.200   1.3554   0.02038   0.01425  -0.0363  0.1181  1.0000  -4.9425   0.0000   0.0000   0.0000   0.2608
  11.300   1.3570   0.02093   0.01476  -0.0355  0.1104  1.0000  -5.0097   0.0000   0.0000   0.0000   0.2600
  11.400   1.3597   0.02141   0.01524  -0.0348  0.1050  1.0000  -5.0838   0.0000   0.0000   0.0000   0.2593
  11.500   1.3609   0.02200   0.01580  -0.0340  0.0986  1.0000  -5.1487   0.0000   0.0000   0.0000   0.2585
  11.600   1.3603   0.02272   0.01647  -0.0331  0.0918  1.0000  -5.2038   0.0000   0.0000   0.0000   0.2577
  11.700   1.3597   0.02347   0.01718  -0.0323  0.0846  1.0000  -5.2582   0.0000   0.0000   0.0000   0.2570
  11.800   1.3617   0.02405   0.01776  -0.0317  0.0803  1.0000  -5.3285   0.0000   0.0000   0.0000   0.2563
  11.900   1.3631   0.02469   0.01838  -0.0311  0.0755  1.0000  -5.3953   0.0000   0.0000   0.0000   0.2556
  12.000   1.3636   0.02542   0.01908  -0.0305  0.0705  1.0000  -5.4563   0.0000   0.0000   0.0000   0.2550
  12.100   1.3626   0.02627   0.01990  -0.0298  0.0655  1.0000  -5.5080   0.0000   0.0000   0.0000   0.2543
  12.200   1.3626   0.02707   0.02069  -0.0292  0.0602  1.0000  -5.5655   0.0000   0.0000   0.0000   0.2537
  12.300   1.3645   0.02773   0.02137  -0.0288  0.0573  1.0000  -5.6348   0.0000   0.0000   0.0000   0.2531
  12.400   1.3656   0.02847   0.02210  -0.0283  0.0537  1.0000  -5.6988   0.0000   0.0000   0.0000   0.2526
  12.500   1.3654   0.02932   0.02293  -0.0278  0.0497  1.0000  -5.7547   0.0000   0.0000   0.0000   0.2520
  12.600   1.3633   0.03034   0.02393  -0.0273  0.0458  1.0000  -5.7983   0.0000   0.0000   0.0000   0.2515
  12.700   1.3617   0.03133   0.02490  -0.0268  0.0410  1.0000  -5.8438   0.0000   0.0000   0.0000   0.2510
  12.800   1.3621   0.03215   0.02574  -0.0264  0.0379  1.0000  -5.9013   0.0000   0.0000   0.0000   0.2505
  12.900   1.3610   0.03312   0.02670  -0.0260  0.0343  1.0000  -5.9482   0.0000   0.0000   0.0000   0.2500
  13.000   1.3575   0.03434   0.02789  -0.0256  0.0305  1.0000  -5.9791   0.0000   0.0000   0.0000   0.2495
  13.100   1.3525   0.03574   0.02927  -0.0252  0.0262  1.0000  -5.9988   0.0000   0.0000   0.0000   0.2491
  13.200   1.3502   0.03693   0.03045  -0.0249  0.0219  1.0000  -6.0302   0.0000   0.0000   0.0000   0.2487
  13.300   1.3465   0.03827   0.03178  -0.0246  0.0187  1.0000  -6.0501   0.0000   0.0000   0.0000   0.2483
  13.400   1.3403   0.03989   0.03337  -0.0243  0.0158  1.0000  -6.0504   0.0000   0.0000   0.0000   0.2479
  13.500   1.3253   0.04255   0.03611  -0.0239  0.0115  1.0000  -5.9329   0.0000   0.0000   0.0000   0.2476
  13.600   1.3263   0.04352   0.03712  -0.0238  0.0113  1.0000  -5.9873   0.0000   0.0000   0.0000   0.2473
  13.700   1.3267   0.04456   0.03820  -0.0238  0.0111  1.0000  -6.0357   0.0000   0.0000   0.0000   0.2470
  13.800   1.3265   0.04567   0.03936  -0.0237  0.0109  1.0000  -6.0790   0.0000   0.0000   0.0000   0.2468
  13.900   1.3249   0.04698   0.04073  -0.0237  0.0107  1.0000  -6.1125   0.0000   0.0000   0.0000   0.2466
  14.000   1.3227   0.04839   0.04220  -0.0238  0.0106  1.0000  -6.1421   0.0000   0.0000   0.0000   0.2465
  14.100   1.3213   0.04970   0.04357  -0.0239  0.0104  1.0000  -6.1754   0.0000   0.0000   0.0000   0.2464
  14.200   1.3200   0.05100   0.04492  -0.0239  0.0103  1.0000  -6.2097   0.0000   0.0000   0.0000   0.2462
  14.300   1.3185   0.05232   0.04629  -0.0240  0.0101  1.0000  -6.2426   0.0000   0.0000   0.0000   0.2461
  14.400   1.3167   0.05370   0.04773  -0.0241  0.0100  1.0000  -6.2731   0.0000   0.0000   0.0000   0.2460
  14.500   1.3133   0.05535   0.04944  -0.0244  0.0100  1.0000  -6.2928   0.0000   0.0000   0.0000   0.2460
  14.600   1.3101   0.05697   0.05112  -0.0247  0.0099  1.0000  -6.3137   0.0000   0.0000   0.0000   0.2460
  14.700   1.3074   0.05845   0.05266  -0.0249  0.0098  1.0000  -6.3379   0.0000   0.0000   0.0000   0.2460
  14.800   1.3049   0.05991   0.05417  -0.0250  0.0097  1.0000  -6.3630   0.0000   0.0000   0.0000   0.2459
  14.900   1.3024   0.06140   0.05572  -0.0253  0.0097  1.0000  -6.3878   0.0000   0.0000   0.0000   0.2459
  15.000   1.2997   0.06296   0.05733  -0.0255  0.0096  1.0000  -6.4108   0.0000   0.0000   0.0000   0.2460
  15.100   1.2952   0.06486   0.05930  -0.0260  0.0096  1.0000  -6.4213   0.0000   0.0000   0.0000   0.2462
  15.200   1.2914   0.06669   0.06119  -0.0264  0.0095  1.0000  -6.4362   0.0000   0.0000   0.0000   0.2464
  15.300   1.2886   0.06839   0.06294  -0.0268  0.0095  1.0000  -6.4569   0.0000   0.0000   0.0000   0.2465
  15.400   1.2861   0.07004   0.06465  -0.0272  0.0095  1.0000  -6.4790   0.0000   0.0000   0.0000   0.2466
  15.500   1.2836   0.07171   0.06637  -0.0276  0.0094  1.0000  -6.5007   0.0000   0.0000   0.0000   0.2467
  15.600   1.2810   0.07341   0.06812  -0.0280  0.0094  1.0000  -6.5217   0.0000   0.0000   0.0000   0.2468
  15.700   1.2781   0.07523   0.07000  -0.0285  0.0094  1.0000  -6.5390   0.0000   0.0000   0.0000   0.2471
  15.800   1.2734   0.07738   0.07221  -0.0292  0.0093  1.0000  -6.5439   0.0000   0.0000   0.0000   0.2475
  15.900   1.2700   0.07928   0.07417  -0.0298  0.0093  1.0000  -6.5578   0.0000   0.0000   0.0000   0.2478
  16.000   1.2674   0.08105   0.07599  -0.0303  0.0093  1.0000  -6.5762   0.0000   0.0000   0.0000   0.2480
  16.100   1.2652   0.08278   0.07777  -0.0307  0.0093  1.0000  -6.5966   0.0000   0.0000   0.0000   0.2482
  16.200   1.2631   0.08448   0.07952  -0.0312  0.0093  1.0000  -6.6175   0.0000   0.0000   0.0000   0.2484
  16.300   1.2610   0.08619   0.08129  -0.0317  0.0092  1.0000  -6.6377   0.0000   0.0000   0.0000   0.2486
  16.400   1.2588   0.08793   0.08307  -0.0323  0.0092  1.0000  -6.6565   0.0000   0.0000   0.0000   0.2489
  16.500   1.2560   0.08976   0.08496  -0.0329  0.0092  1.0000  -6.6711   0.0000   0.0000   0.0000   0.2492
  16.600   1.2517   0.09190   0.08716  -0.0337  0.0092  1.0000  -6.6737   0.0000   0.0000   0.0000   0.2497
  16.700   1.2489   0.09377   0.08909  -0.0344  0.0092  1.0000  -6.6860   0.0000   0.0000   0.0000   0.2501
  16.800   1.2468   0.09550   0.09086  -0.0349  0.0092  1.0000  -6.7035   0.0000   0.0000   0.0000   0.2504
  16.900   1.2451   0.09715   0.09256  -0.0355  0.0092  1.0000  -6.7229   0.0000   0.0000   0.0000   0.2507
  17.000   1.2436   0.09876   0.09422  -0.0360  0.0092  1.0000  -6.7429   0.0000   0.0000   0.0000   0.2509
  17.100   1.2421   0.10034   0.09586  -0.0366  0.0092  1.0000  -6.7629   0.0000   0.0000   0.0000   0.2512
  17.200   1.2407   0.10192   0.09748  -0.0371  0.0092  1.0000  -6.7825   0.0000   0.0000   0.0000   0.2514
  17.300   1.2392   0.10349   0.09911  -0.0377  0.0092  1.0000  -6.8013   0.0000   0.0000   0.0000   0.2517
  17.400   1.2377   0.10507   0.10074  -0.0382  0.0092  1.0000  -6.8190   0.0000   0.0000   0.0000   0.2520
  17.500   1.2361   0.10666   0.10239  -0.0389  0.0092  1.0000  -6.8353   0.0000   0.0000   0.0000   0.2523
  17.600   1.2340   0.10834   0.10413  -0.0395  0.0092  1.0000  -6.8474   0.0000   0.0000   0.0000   0.2527
  17.700   1.2309   0.11029   0.10613  -0.0404  0.0092  1.0000  -6.8500   0.0000   0.0000   0.0000   0.2533
  17.800   1.2284   0.11209   0.10799  -0.0412  0.0092  1.0000  -6.8572   0.0000   0.0000   0.0000   0.2538
  17.900   1.2265   0.11375   0.10971  -0.0420  0.0092  1.0000  -6.8684   0.0000   0.0000   0.0000   0.2542
  18.000   1.2249   0.11536   0.11137  -0.0427  0.0092  1.0000  -6.8810   0.0000   0.0000   0.0000   0.2546
  18.100   1.2233   0.11690   0.11296  -0.0434  0.0092  1.0000  -6.8939   0.0000   0.0000   0.0000   0.2550
  18.200   1.2218   0.11834   0.11446  -0.0441  0.0092  1.0000  -6.9063   0.0000   0.0000   0.0000   0.2554
  18.300   1.2201   0.11978   0.11595  -0.0448  0.0092  1.0000  -6.9175   0.0000   0.0000   0.0000   0.2558
  18.400   1.2184   0.12125   0.11748  -0.0456  0.0092  1.0000  -6.9273   0.0000   0.0000   0.0000   0.2563
  18.500   1.2165   0.12279   0.11908  -0.0464  0.0092  1.0000  -6.9355   0.0000   0.0000   0.0000   0.2568
  18.600   1.2144   0.12442   0.12076  -0.0473  0.0092  1.0000  -6.9415   0.0000   0.0000   0.0000   0.2574
  18.700   1.2120   0.12614   0.12254  -0.0483  0.0092  1.0000  -6.9449   0.0000   0.0000   0.0000   0.2581
  18.800   1.2084   0.12822   0.12468  -0.0495  0.0092  1.0000  -6.9358   0.0000   0.0000   0.0000   0.2590
  18.900   1.2043   0.13045   0.12698  -0.0508  0.0092  1.0000  -6.9212   0.0000   0.0000   0.0000   0.2600
  19.000   1.2013   0.13249   0.12907  -0.0520  0.0092  1.0000  -6.9154   0.0000   0.0000   0.0000   0.2609
  19.100   1.1986   0.13448   0.13112  -0.0531  0.0092  1.0000  -6.9124   0.0000   0.0000   0.0000   0.2617
  19.200   1.1960   0.13649   0.13318  -0.0542  0.0092  1.0000  -6.9095   0.0000   0.0000   0.0000   0.2625
  19.300   1.1933   0.13855   0.13530  -0.0554  0.0092  1.0000  -6.9048   0.0000   0.0000   0.0000   0.2634
  19.400   1.1903   0.14070   0.13750  -0.0566  0.0091  1.0000  -6.8969   0.0000   0.0000   0.0000   0.2644
  19.500   1.1870   0.14298   0.13983  -0.0579  0.0091  1.0000  -6.8843   0.0000   0.0000   0.0000   0.2654
  19.600   1.1829   0.14552   0.14244  -0.0594  0.0091  1.0000  -6.8620   0.0000   0.0000   0.0000   0.2666
  19.700   1.1766   0.14867   0.14565  -0.0613  0.0091  1.0000  -6.8147   0.0000   0.0000   0.0000   0.2683
  19.800   1.1720   0.15142   0.14846  -0.0628  0.0091  1.0000  -6.7841   0.0000   0.0000   0.0000   0.2697
  19.900   1.1680   0.15409   0.15119  -0.0644  0.0091  1.0000  -6.7574   0.0000   0.0000   0.0000   0.2710
  20.000   1.1638   0.15682   0.15397  -0.0659  0.0091  1.0000  -6.7282   0.0000   0.0000   0.0000   0.2723
  20.100   1.1592   0.15970   0.15691  -0.0675  0.0091  1.0000  -6.6924   0.0000   0.0000   0.0000   0.2738
  20.200   1.1540   0.16284   0.16011  -0.0693  0.0091  1.0000  -6.6465   0.0000   0.0000   0.0000   0.2754
  20.300   1.1452   0.16709   0.16443  -0.0717  0.0092  1.0000  -6.5539   0.0000   0.0000   0.0000   0.2779
  20.400   1.1384   0.17082   0.16822  -0.0737  0.0092  1.0000  -6.4832   0.0000   0.0000   0.0000   0.2799
  20.500   1.1322   0.17447   0.17193  -0.0756  0.0092  1.0000  -6.4155   0.0000   0.0000   0.0000   0.2819
  20.600   1.1252   0.17841   0.17592  -0.0777  0.0092  1.0000  -6.3348   0.0000   0.0000   0.0000   0.2840
  20.700   1.1143   0.18370   0.18129  -0.0805  0.0093  1.0000  -6.1962   0.0000   0.0000   0.0000   0.2871
  20.800   1.1026   0.18944   0.18709  -0.0833  0.0094  1.0000  -6.0377   0.0000   0.0000   0.0000   0.2905
  20.900   1.0916   0.19511   0.19283  -0.0861  0.0095  1.0000  -5.8794   0.0000   0.0000   0.0000   0.2938
  21.000   1.0693   0.20503   0.20285  -0.0905  0.0098  1.0000  -5.5295   0.0000   0.0000   0.0000   0.3000
  21.100   1.0296   0.22256   0.22047  -0.0973  0.0102  1.0000  -4.8145   0.0000   0.0000   0.0000   0.3108
  23.100   0.8931   0.30858   0.30665  -0.1182  0.0150  1.0000  -2.0510   0.0000   0.0000   0.0000   0.3512
  23.200   0.8825   0.30769   0.30578  -0.1178  0.0149  1.0000  -2.0086   0.0000   0.0000   0.0000   0.3526
  23.300   0.8762   0.30745   0.30557  -0.1177  0.0147  1.0000  -1.9871   0.0000   0.0000   0.0000   0.3536
  23.400   0.8714   0.30741   0.30554  -0.1178  0.0145  1.0000  -1.9741   0.0000   0.0000   0.0000   0.3544
  23.500   0.8676   0.30746   0.30561  -0.1179  0.0143  1.0000  -1.9668   0.0000   0.0000   0.0000   0.3551
  23.600   0.8644   0.30757   0.30572  -0.1181  0.0141  1.0000  -1.9641   0.0000   0.0000   0.0000   0.3557
  23.700   0.8618   0.30770   0.30587  -0.1182  0.0139  1.0000  -1.9655   0.0000   0.0000   0.0000   0.3562
  23.800   0.8596   0.30785   0.30603  -0.1184  0.0137  1.0000  -1.9702   0.0000   0.0000   0.0000   0.3567
  23.900   0.8577   0.30799   0.30619  -0.1186  0.0135  1.0000  -1.9782   0.0000   0.0000   0.0000   0.3571
  24.000   0.8562   0.30814   0.30635  -0.1188  0.0134  1.0000  -1.9886   0.0000   0.0000   0.0000   0.3574
  24.100   0.8547   0.30831   0.30652  -0.1189  0.0132  1.0000  -1.9992   0.0000   0.0000   0.0000   0.3578
  24.200   0.8531   0.30850   0.30673  -0.1192  0.0130  1.0000  -2.0078   0.0000   0.0000   0.0000   0.3581
  24.300   0.8510   0.30881   0.30705  -0.1194  0.0129  1.0000  -2.0063   0.0000   0.0000   0.0000   0.3587
  24.400   0.8488   0.30914   0.30739  -0.1197  0.0127  1.0000  -2.0025   0.0000   0.0000   0.0000   0.3593
  24.500   0.8462   0.30950   0.30775  -0.1199  0.0125  1.0000  -1.9924   0.0000   0.0000   0.0000   0.3599
  24.600   0.8422   0.30996   0.30823  -0.1201  0.0122  1.0000  -1.9613   0.0000   0.0000   0.0000   0.3608
  24.700   0.8208   0.31255   0.31080  -0.1199  0.0115  1.0000  -1.6332   0.0000   0.0000   0.0000   0.3652
  24.800   0.8193   0.31327   0.31152  -0.1203  0.0115  1.0000  -1.6116   0.0000   0.0000   0.0000   0.3659
  24.900   0.8178   0.31399   0.31225  -0.1206  0.0115  1.0000  -1.5908   0.0000   0.0000   0.0000   0.3666
  25.000   0.8164   0.31472   0.31298  -0.1210  0.0115  1.0000  -1.5705   0.0000   0.0000   0.0000   0.3672
  25.100   0.8151   0.31544   0.31372  -0.1214  0.0115  1.0000  -1.5509   0.0000   0.0000   0.0000   0.3678
  25.200   0.8139   0.31617   0.31446  -0.1218  0.0115  1.0000  -1.5318   0.0000   0.0000   0.0000   0.3685
  25.300   0.8128   0.31691   0.31520  -0.1222  0.0115  1.0000  -1.5133   0.0000   0.0000   0.0000   0.3691
  25.400   0.8117   0.31764   0.31594  -0.1226  0.0115  1.0000  -1.4953   0.0000   0.0000   0.0000   0.3697
  25.500   0.8107   0.31838   0.31668  -0.1230  0.0115  1.0000  -1.4778   0.0000   0.0000   0.0000   0.3703
  25.600   0.8098   0.31912   0.31743  -0.1234  0.0115  1.0000  -1.4608   0.0000   0.0000   0.0000   0.3709
  25.700   0.8088   0.31986   0.31817  -0.1238  0.0115  1.0000  -1.4442   0.0000   0.0000   0.0000   0.3715
  25.800   0.8080   0.32060   0.31892  -0.1242  0.0115  1.0000  -1.4280   0.0000   0.0000   0.0000   0.3720
  25.900   0.8072   0.32134   0.31967  -0.1246  0.0115  1.0000  -1.4122   0.0000   0.0000   0.0000   0.3726
  26.000   0.8064   0.32209   0.32042  -0.1250  0.0115  1.0000  -1.3969   0.0000   0.0000   0.0000   0.3732
  26.100   0.8057   0.32283   0.32117  -0.1254  0.0115  1.0000  -1.3819   0.0000   0.0000   0.0000   0.3737
  26.200   0.8050   0.32357   0.32192  -0.1258  0.0115  1.0000  -1.3673   0.0000   0.0000   0.0000   0.3742
  26.300   0.8044   0.32432   0.32267  -0.1262  0.0115  1.0000  -1.3531   0.0000   0.0000   0.0000   0.3748
  26.400   0.8038   0.32507   0.32342  -0.1267  0.0115  1.0000  -1.3392   0.0000   0.0000   0.0000   0.3753
  26.500   0.8032   0.32581   0.32417  -0.1271  0.0114  1.0000  -1.3257   0.0000   0.0000   0.0000   0.3758
  26.600   0.8026   0.32656   0.32492  -0.1275  0.0114  1.0000  -1.3125   0.0000   0.0000   0.0000   0.3763
  26.700   0.8021   0.32730   0.32568  -0.1279  0.0114  1.0000  -1.2996   0.0000   0.0000   0.0000   0.3769
  26.800   0.8016   0.32805   0.32643  -0.1284  0.0114  1.0000  -1.2870   0.0000   0.0000   0.0000   0.3774
  26.900   0.8012   0.32880   0.32718  -0.1288  0.0114  1.0000  -1.2748   0.0000   0.0000   0.0000   0.3779
  27.000   0.8008   0.32955   0.32793  -0.1292  0.0114  1.0000  -1.2627   0.0000   0.0000   0.0000   0.3784
  27.100   0.8004   0.33029   0.32869  -0.1296  0.0114  1.0000  -1.2510   0.0000   0.0000   0.0000   0.3788
  27.200   0.8000   0.33104   0.32944  -0.1301  0.0114  1.0000  -1.2395   0.0000   0.0000   0.0000   0.3793
  27.300   0.7996   0.33179   0.33019  -0.1305  0.0114  1.0000  -1.2281   0.0000   0.0000   0.0000   0.3798
  27.400   0.7993   0.33254   0.33095  -0.1309  0.0114  1.0000  -1.2170   0.0000   0.0000   0.0000   0.3803
  27.500   0.7989   0.33328   0.33170  -0.1314  0.0114  1.0000  -1.2061   0.0000   0.0000   0.0000   0.3808
  27.600   0.7986   0.33403   0.33245  -0.1318  0.0114  1.0000  -1.1955   0.0000   0.0000   0.0000   0.3812
  27.700   0.7983   0.33478   0.33320  -0.1322  0.0114  1.0000  -1.1850   0.0000   0.0000   0.0000   0.3817
  27.800   0.7980   0.33552   0.33395  -0.1327  0.0114  1.0000  -1.1748   0.0000   0.0000   0.0000   0.3822
  27.900   0.7978   0.33627   0.33470  -0.1331  0.0114  1.0000  -1.1648   0.0000   0.0000   0.0000   0.3826
  28.000   0.7975   0.33702   0.33546  -0.1336  0.0114  1.0000  -1.1550   0.0000   0.0000   0.0000   0.3831
  28.100   0.7973   0.33776   0.33621  -0.1340  0.0114  1.0000  -1.1454   0.0000   0.0000   0.0000   0.3835
  28.200   0.7971   0.33851   0.33696  -0.1345  0.0113  1.0000  -1.1360   0.0000   0.0000   0.0000   0.3840
  28.300   0.7969   0.33927   0.33776  -0.1349  0.0113  1.0000  -1.1256   0.0000   0.0000   0.0000   0.3844
  28.400   0.7967   0.34002   0.33852  -0.1353  0.0113  1.0000  -1.1164   0.0000   0.0000   0.0000   0.3848
  28.500   0.7965   0.34076   0.33927  -0.1358  0.0113  1.0000  -1.1076   0.0000   0.0000   0.0000   0.3853
  28.600   0.7964   0.34151   0.34002  -0.1362  0.0113  1.0000  -1.0990   0.0000   0.0000   0.0000   0.3857
  28.700   0.7962   0.34225   0.34076  -0.1367  0.0113  1.0000  -1.0908   0.0000   0.0000   0.0000   0.3862
  28.800   0.7961   0.34299   0.34151  -0.1372  0.0113  1.0000  -1.0828   0.0000   0.0000   0.0000   0.3866
  28.900   0.7960   0.34373   0.34226  -0.1376  0.0113  1.0000  -1.0749   0.0000   0.0000   0.0000   0.3870
  29.000   0.7959   0.34447   0.34300  -0.1381  0.0113  1.0000  -1.0670   0.0000   0.0000   0.0000   0.3875
  29.100   0.7958   0.34522   0.34375  -0.1386  0.0112  1.0000  -1.0594   0.0000   0.0000   0.0000   0.3879
  29.200   0.7958   0.34596   0.34450  -0.1391  0.0112  1.0000  -1.0521   0.0000   0.0000   0.0000   0.3883
  29.300   0.7957   0.34670   0.34525  -0.1395  0.0112  1.0000  -1.0449   0.0000   0.0000   0.0000   0.3888
  29.400   0.7957   0.34744   0.34599  -0.1400  0.0112  1.0000  -1.0379   0.0000   0.0000   0.0000   0.3892
  29.500   0.7956   0.34819   0.34674  -0.1405  0.0111  1.0000  -1.0310   0.0000   0.0000   0.0000   0.3896
  29.600   0.7956   0.34893   0.34749  -0.1409  0.0111  1.0000  -1.0240   0.0000   0.0000   0.0000   0.3900
  29.700   0.7956   0.34968   0.34824  -0.1414  0.0111  1.0000  -1.0172   0.0000   0.0000   0.0000   0.3904
  29.800   0.7955   0.35043   0.34899  -0.1419  0.0111  1.0000  -1.0101   0.0000   0.0000   0.0000   0.3908
  29.900   0.7954   0.35119   0.34976  -0.1424  0.0111  1.0000  -1.0025   0.0000   0.0000   0.0000   0.3913
  30.000   0.7954   0.35195   0.35053  -0.1428  0.0111  1.0000  -0.9951   0.0000   0.0000   0.0000   0.3917


