xflr5 v6.61

 Calculated polar for: S2027

 1 1 Reynolds number fixed          Mach number fixed         

 xtrf =   1.000 (top)        1.000 (bottom)
 Mach =   0.000     Re =     0.100 e 6     Ncrit =   9.000

  alpha     CL        CD       CDp       Cm    Top Xtr Bot Xtr   Cpmin    Chinge    XCp    
 ------- -------- --------- --------- -------- ------- ------- -------- --------- ---------
 -10.000  -0.3684   0.11213   0.10744  -0.0407  1.0000  0.1281  -1.4484   0.0000   0.0000   0.0000   0.1254
  -9.900  -0.3701   0.11079   0.10612  -0.0419  1.0000  0.1283  -1.4660   0.0000   0.0000   0.0000   0.1229
  -9.800  -0.3739   0.10257   0.09796  -0.0414  1.0000  0.1317  -1.4913   0.0000   0.0000   0.0000   0.1254
  -9.700  -0.3636   0.10076   0.09615  -0.0403  1.0000  0.1330  -1.4529   0.0000   0.0000   0.0000   0.1252
  -9.600  -0.3559   0.09932   0.09471  -0.0396  1.0000  0.1342  -1.4252   0.0000   0.0000   0.0000   0.1246
  -9.500  -0.3497   0.09801   0.09341  -0.0392  1.0000  0.1353  -1.4043   0.0000   0.0000   0.0000   0.1237
  -9.400  -0.3441   0.09676   0.09217  -0.0389  1.0000  0.1365  -1.3862   0.0000   0.0000   0.0000   0.1227
  -9.300  -0.3394   0.09555   0.09097  -0.0388  1.0000  0.1377  -1.3724   0.0000   0.0000   0.0000   0.1215
  -9.200  -0.3357   0.09435   0.08979  -0.0388  1.0000  0.1389  -1.3625   0.0000   0.0000   0.0000   0.1203
  -9.100  -0.3328   0.09315   0.08862  -0.0388  1.0000  0.1402  -1.3557   0.0000   0.0000   0.0000   0.1191
  -9.000  -0.3307   0.09196   0.08745  -0.0390  1.0000  0.1415  -1.3518   0.0000   0.0000   0.0000   0.1179
  -8.900  -0.3293   0.09077   0.08628  -0.0393  1.0000  0.1429  -1.3507   0.0000   0.0000   0.0000   0.1168
  -8.800  -0.3288   0.08958   0.08512  -0.0395  1.0000  0.1443  -1.3521   0.0000   0.0000   0.0000   0.1158
  -8.700  -0.3290   0.08839   0.08397  -0.0399  1.0000  0.1458  -1.3560   0.0000   0.0000   0.0000   0.1152
  -8.600  -0.3303   0.08723   0.08285  -0.0402  1.0000  0.1472  -1.3625   0.0000   0.0000   0.0000   0.1150
  -8.500  -0.3329   0.08613   0.08179  -0.0404  1.0000  0.1486  -1.3716   0.0000   0.0000   0.0000   0.1156
  -8.400  -0.3374   0.08516   0.08087  -0.0403  1.0000  0.1499  -1.3832   0.0000   0.0000   0.0000   0.1177
  -8.300  -0.3445   0.08445   0.08021  -0.0398  1.0000  0.1511  -1.3972   0.0000   0.0000   0.0000   0.1221
  -8.200  -0.3543   0.08400   0.07983  -0.0387  1.0000  0.1522  -1.4130   0.0000   0.0000   0.0000   0.1288
  -8.100  -0.3665   0.08384   0.07972  -0.0371  1.0000  0.1531  -1.4303   0.0000   0.0000   0.0000   0.1372
  -8.000  -0.3805   0.08383   0.07977  -0.0354  1.0000  0.1541  -1.4491   0.0000   0.0000   0.0000   0.1460
  -7.900  -0.3956   0.08388   0.07988  -0.0336  1.0000  0.1552  -1.4701   0.0000   0.0000   0.0000   0.1545
  -7.200  -0.4833   0.05706   0.05245  -0.0584  0.9730  0.0894  -2.1888   0.0000   0.0000   0.0000   0.1201
  -7.100  -0.4812   0.05273   0.04794  -0.0609  0.9701  0.0822  -2.2603   0.0000   0.0000   0.0000   0.1143
  -7.000  -0.4863   0.04961   0.04395  -0.0612  0.9623  0.0692  -2.4704   0.0000   0.0000   0.0000   0.1151
  -6.900  -0.4729   0.04783   0.04218  -0.0617  0.9597  0.0650  -2.4557   0.0000   0.0000   0.0000   0.1102
  -6.800  -0.4675   0.04521   0.03940  -0.0627  0.9561  0.0633  -2.4780   0.0000   0.0000   0.0000   0.1066
  -6.700  -0.4588   0.04296   0.03696  -0.0637  0.9531  0.0616  -2.4912   0.0000   0.0000   0.0000   0.1017
  -6.600  -0.4480   0.04088   0.03466  -0.0649  0.9505  0.0598  -2.5013   0.0000   0.0000   0.0000   0.0956
  -6.500  -0.4354   0.03890   0.03243  -0.0662  0.9484  0.0580  -2.5106   0.0000   0.0000   0.0000   0.0883
  -6.400  -0.4214   0.03693   0.03003  -0.0674  0.9466  0.0561  -2.5287   0.0000   0.0000   0.0000   0.0801
  -6.300  -0.4198   0.03602   0.02898  -0.0661  0.9410  0.0552  -2.5355   0.0000   0.0000   0.0000   0.0827
  -6.200  -0.4123   0.03483   0.02760  -0.0658  0.9367  0.0541  -2.5407   0.0000   0.0000   0.0000   0.0806
  -6.100  -0.4014   0.03358   0.02613  -0.0660  0.9332  0.0530  -2.5420   0.0000   0.0000   0.0000   0.0757
  -6.000  -0.3881   0.03238   0.02473  -0.0665  0.9303  0.0520  -2.5349   0.0000   0.0000   0.0000   0.0686
  -5.900  -0.3731   0.03126   0.02341  -0.0672  0.9278  0.0512  -2.5219   0.0000   0.0000   0.0000   0.0596
  -5.800  -0.3565   0.03021   0.02219  -0.0681  0.9256  0.0506  -2.5017   0.0000   0.0000   0.0000   0.0483
  -5.700  -0.3385   0.02922   0.02106  -0.0692  0.9237  0.0502  -2.4745   0.0000   0.0000   0.0000   0.0345
  -5.600  -0.3195   0.02829   0.02002  -0.0705  0.9220  0.0500  -2.4416   0.0000   0.0000   0.0000   0.0178
  -5.500  -0.3003   0.02743   0.01907  -0.0719  0.9204  0.0500  -2.4053   0.0000   0.0000   0.0000  -0.0011
  -5.400  -0.2813   0.02664   0.01822  -0.0731  0.9188  0.0503  -2.3671   0.0000   0.0000   0.0000  -0.0222
  -5.300  -0.2800   0.02637   0.01792  -0.0714  0.9125  0.0505  -2.3532   0.0000   0.0000   0.0000  -0.0170
  -5.200  -0.2725   0.02593   0.01745  -0.0707  0.9073  0.0509  -2.3298   0.0000   0.0000   0.0000  -0.0217
  -5.100  -0.2609   0.02540   0.01690  -0.0707  0.9032  0.0517  -2.3002   0.0000   0.0000   0.0000  -0.0335
  -5.000  -0.2480   0.02487   0.01634  -0.0709  0.8996  0.0527  -2.2684   0.0000   0.0000   0.0000  -0.0489
  -4.900  -0.2342   0.02435   0.01579  -0.0713  0.8965  0.0542  -2.2364   0.0000   0.0000   0.0000  -0.0678
  -4.800  -0.2200   0.02386   0.01525  -0.0718  0.8937  0.0562  -2.2065   0.0000   0.0000   0.0000  -0.0899
  -4.700  -0.2056   0.02338   0.01471  -0.0722  0.8912  0.0593  -2.1817   0.0000   0.0000   0.0000  -0.1156
  -4.600  -0.1911   0.02292   0.01416  -0.0727  0.8889  0.0640  -2.1673   0.0000   0.0000   0.0000  -0.1452
  -4.500  -0.1794   0.02203   0.01332  -0.0727  0.8867  0.0812  -2.2070   0.0000   0.0000   0.0000  -0.1705
  -4.400  -0.1863   0.02034   0.01270  -0.0705  0.8814  0.2410  -2.3163   0.0000   0.0000   0.0000  -0.1434
  -4.300  -0.1872   0.01986   0.01271  -0.0689  0.8755  0.3328  -2.3190   0.0000   0.0000   0.0000  -0.1322
  -4.200  -0.1810   0.01967   0.01274  -0.0681  0.8709  0.3916  -2.2854   0.0000   0.0000   0.0000  -0.1407
  -4.100  -0.1732   0.01955   0.01290  -0.0674  0.8669  0.4468  -2.2346   0.0000   0.0000   0.0000  -0.1537
  -4.000  -0.1635   0.01956   0.01308  -0.0669  0.8633  0.4892  -2.1727   0.0000   0.0000   0.0000  -0.1740
  -3.900  -0.1530   0.01964   0.01333  -0.0663  0.8602  0.5225  -2.1041   0.0000   0.0000   0.0000  -0.1987
  -3.800  -0.1419   0.01985   0.01364  -0.0656  0.8574  0.5585  -2.0307   0.0000   0.0000   0.0000  -0.2286
  -3.700  -0.1306   0.02022   0.01409  -0.0647  0.8548  0.5888  -1.9539   0.0000   0.0000   0.0000  -0.2622
  -3.600  -0.1183   0.02043   0.01432  -0.0640  0.8524  0.6092  -1.8763   0.0000   0.0000   0.0000  -0.3093
  -3.500  -0.1054   0.02060   0.01452  -0.0635  0.8502  0.6218  -1.7976   0.0000   0.0000   0.0000  -0.3721
  -3.400  -0.0973   0.02077   0.01468  -0.0627  0.8463  0.6325  -1.7376   0.0000   0.0000   0.0000  -0.4144
  -3.300  -0.0939   0.02091   0.01478  -0.0614  0.8402  0.6421  -1.6941   0.0000   0.0000   0.0000  -0.4246
  -3.200  -0.0865   0.02102   0.01481  -0.0607  0.8349  0.6516  -1.6383   0.0000   0.0000   0.0000  -0.4740
  -3.100  -0.0776   0.02096   0.01479  -0.0599  0.8306  0.6607  -1.5759   0.0000   0.0000   0.0000  -0.5453
  -3.000  -0.0677   0.02101   0.01484  -0.0590  0.8267  0.6693  -1.5103   0.0000   0.0000   0.0000  -0.6486
  -2.900  -0.0568   0.02106   0.01488  -0.0584  0.8233  0.6789  -1.4425   0.0000   0.0000   0.0000  -0.8082
  -2.800  -0.0455   0.02110   0.01471  -0.0579  0.8202  0.6905  -1.3607   0.0000   0.0000   0.0000  -1.0589
  -2.700  -0.0335   0.02113   0.01465  -0.0577  0.8175  0.7003  -1.2932   0.0000   0.0000   0.0000  -1.5181
  -2.600  -0.0220   0.02104   0.01454  -0.0573  0.8151  0.7085  -1.2269   0.0000   0.0000   0.0000  -2.4193
  -2.500  -0.0110   0.02105   0.01455  -0.0566  0.8128  0.7161  -1.1612   0.0000   0.0000   0.0000  -5.0417
  -2.400   0.0003   0.02113   0.01462  -0.0559  0.8106  0.7241  -1.0958   0.0000   0.0000   0.0000  172.1895
  -2.300   0.0105   0.02128   0.01474  -0.0552  0.8080  0.7326  -1.0354   0.0000   0.0000   0.0000   5.6415
  -2.200   0.0143   0.02142   0.01486  -0.0543  0.8030  0.7407  -0.9963   0.0000   0.0000   0.0000   4.1479
  -2.100   0.0200   0.02153   0.01494  -0.0536  0.7980  0.7485  -0.9519   0.0000   0.0000   0.0000   2.9910
  -2.000   0.0274   0.02155   0.01494  -0.0530  0.7936  0.7555  -0.9029   0.0000   0.0000   0.0000   2.2300
  -1.900   0.0350   0.02154   0.01494  -0.0520  0.7897  0.7620  -0.8521   0.0000   0.0000   0.0000   1.7691
  -1.800   0.0437   0.02155   0.01496  -0.0511  0.7860  0.7688  -0.7986   0.0000   0.0000   0.0000   1.4441
  -1.700   0.0534   0.02155   0.01493  -0.0504  0.7826  0.7762  -0.7433   0.0000   0.0000   0.0000   1.2122
  -1.600   0.0638   0.02150   0.01485  -0.0498  0.7795  0.7840  -0.6871   0.0000   0.0000   0.0000   1.0453
  -1.500   0.0748   0.02143   0.01473  -0.0495  0.7766  0.7919  -0.6307   0.0000   0.0000   0.0000   0.9229
  -1.400   0.0863   0.02136   0.01459  -0.0493  0.7739  0.7991  -0.5840   0.0000   0.0000   0.0000   0.8309
  -1.300   0.0972   0.02119   0.01441  -0.0486  0.7715  0.8052  -0.5931   0.0000   0.0000   0.0000   0.7570
  -1.200   0.1085   0.02114   0.01433  -0.0478  0.7691  0.8113  -0.6024   0.0000   0.0000   0.0000   0.6970
  -1.100   0.1197   0.02118   0.01434  -0.0472  0.7664  0.8178  -0.6114   0.0000   0.0000   0.0000   0.6495
  -1.000   0.1259   0.02129   0.01444  -0.0464  0.7623  0.8251  -0.6163   0.0000   0.0000   0.0000   0.6230
  -0.900   0.1307   0.02138   0.01454  -0.0456  0.7573  0.8328  -0.6201   0.0000   0.0000   0.0000   0.6027
  -0.800   0.1366   0.02145   0.01459  -0.0450  0.7525  0.8403  -0.6249   0.0000   0.0000   0.0000   0.5824
  -0.700   0.1443   0.02144   0.01458  -0.0443  0.7483  0.8464  -0.6321   0.0000   0.0000   0.0000   0.5599
  -0.600   0.1535   0.02144   0.01457  -0.0437  0.7446  0.8521  -0.6404   0.0000   0.0000   0.0000   0.5369
  -0.500   0.1638   0.02142   0.01454  -0.0433  0.7413  0.8584  -0.6496   0.0000   0.0000   0.0000   0.5158
  -0.400   0.1745   0.02138   0.01448  -0.0429  0.7382  0.8654  -0.6591   0.0000   0.0000   0.0000   0.4971
  -0.300   0.1848   0.02132   0.01439  -0.0425  0.7353  0.8730  -0.6684   0.0000   0.0000   0.0000   0.4808
  -0.200   0.1939   0.02125   0.01428  -0.0420  0.7326  0.8807  -0.6772   0.0000   0.0000   0.0000   0.4669
  -0.100   0.2078   0.02114   0.01414  -0.0420  0.7303  0.8863  -0.6890   0.0000   0.0000   0.0000   0.4522
   0.000   0.2236   0.02105   0.01402  -0.0424  0.7280  0.8918  -0.7020   0.0000   0.0000   0.0000   0.4393
   0.100   0.2394   0.02097   0.01391  -0.0428  0.7257  0.8975  -0.7150   0.0000   0.0000   0.0000   0.4282
   0.200   0.2542   0.02094   0.01383  -0.0432  0.7232  0.9035  -0.7275   0.0000   0.0000   0.0000   0.4189
   0.300   0.2657   0.02108   0.01392  -0.0431  0.7201  0.9104  -0.7376   0.0000   0.0000   0.0000   0.4110
   0.400   0.2730   0.02113   0.01400  -0.0429  0.7159  0.9181  -0.7438   0.0000   0.0000   0.0000   0.4056
   0.500   0.2899   0.02117   0.01405  -0.0441  0.7113  0.9235  -0.7563   0.0000   0.0000   0.0000   0.4007
   0.600   0.3072   0.02119   0.01399  -0.0454  0.7067  0.9296  -0.7694   0.0000   0.0000   0.0000   0.3962
   0.700   0.3226   0.02118   0.01397  -0.0463  0.7023  0.9364  -0.7815   0.0000   0.0000   0.0000   0.3916
   0.800   0.3349   0.02115   0.01391  -0.0466  0.6983  0.9440  -0.7920   0.0000   0.0000   0.0000   0.3870
   0.900   0.3556   0.02105   0.01379  -0.0483  0.6947  0.9482  -0.8078   0.0000   0.0000   0.0000   0.3836
   1.000   0.3781   0.02095   0.01365  -0.0504  0.6915  0.9518  -0.8252   0.0000   0.0000   0.0000   0.3808
   1.100   0.4000   0.02083   0.01353  -0.0523  0.6886  0.9556  -0.8439   0.0000   0.0000   0.0000   0.3782
   1.200   0.4219   0.02070   0.01336  -0.0542  0.6858  0.9599  -0.8627   0.0000   0.0000   0.0000   0.3758
   1.300   0.4420   0.02058   0.01320  -0.0558  0.6831  0.9650  -0.8805   0.0000   0.0000   0.0000   0.3734
   1.400   0.4621   0.02049   0.01305  -0.0573  0.6804  0.9699  -0.8983   0.0000   0.0000   0.0000   0.3712
   1.500   0.4860   0.02042   0.01292  -0.0597  0.6775  0.9732  -0.9187   0.0000   0.0000   0.0000   0.3697
   1.600   0.5072   0.02056   0.01302  -0.0616  0.6738  0.9774  -0.9369   0.0000   0.0000   0.0000   0.3684
   1.700   0.5256   0.02061   0.01308  -0.0636  0.6701  0.9835  -0.9525   0.0000   0.0000   0.0000   0.3677
   1.800   0.5450   0.02062   0.01311  -0.0657  0.6657  0.9887  -0.9688   0.0000   0.0000   0.0000   0.3672
   1.900   0.5646   0.02062   0.01312  -0.0678  0.6608  0.9939  -0.9854   0.0000   0.0000   0.0000   0.3667
   2.000   0.5842   0.02057   0.01307  -0.0699  0.6559  0.9989  -1.0025   0.0000   0.0000   0.0000   0.3660
   2.100   0.5916   0.02057   0.01306  -0.0696  0.6516  1.0000  -1.0112   0.0000   0.0000   0.0000   0.3641
   2.200   0.5956   0.02057   0.01304  -0.0688  0.6478  1.0000  -1.0177   0.0000   0.0000   0.0000   0.3616
   2.300   0.6001   0.02054   0.01299  -0.0679  0.6442  1.0000  -1.0246   0.0000   0.0000   0.0000   0.3592
   2.400   0.6049   0.02049   0.01292  -0.0670  0.6410  1.0000  -1.0320   0.0000   0.0000   0.0000   0.3567
   2.500   0.6101   0.02045   0.01284  -0.0661  0.6380  1.0000  -1.0397   0.0000   0.0000   0.0000   0.3542
   2.600   0.6156   0.02042   0.01278  -0.0652  0.6352  1.0000  -1.0477   0.0000   0.0000   0.0000   0.3517
   2.700   0.6215   0.02043   0.01274  -0.0644  0.6324  1.0000  -1.0565   0.0000   0.0000   0.0000   0.3493
   2.800   0.6276   0.02052   0.01278  -0.0636  0.6295  1.0000  -1.0662   0.0000   0.0000   0.0000   0.3469
   2.900   0.6330   0.02084   0.01307  -0.0629  0.6259  1.0000  -1.0749   0.0000   0.0000   0.0000   0.3447
   3.000   0.6350   0.02110   0.01333  -0.0618  0.6229  1.0000  -1.0804   0.0000   0.0000   0.0000   0.3426
   3.100   0.6376   0.02131   0.01357  -0.0609  0.6195  1.0000  -1.0862   0.0000   0.0000   0.0000   0.3406
   3.200   0.6417   0.02155   0.01381  -0.0601  0.6157  1.0000  -1.0932   0.0000   0.0000   0.0000   0.3388
   3.300   0.6471   0.02177   0.01405  -0.0595  0.6116  1.0000  -1.1014   0.0000   0.0000   0.0000   0.3370
   3.400   0.6540   0.02196   0.01423  -0.0591  0.6075  1.0000  -1.1109   0.0000   0.0000   0.0000   0.3352
   3.500   0.6623   0.02207   0.01434  -0.0588  0.6036  1.0000  -1.1219   0.0000   0.0000   0.0000   0.3335
   3.600   0.6719   0.02212   0.01437  -0.0585  0.5998  1.0000  -1.1342   0.0000   0.0000   0.0000   0.3318
   3.700   0.6824   0.02210   0.01433  -0.0583  0.5963  1.0000  -1.1477   0.0000   0.0000   0.0000   0.3301
   3.800   0.6938   0.02204   0.01423  -0.0582  0.5929  1.0000  -1.1621   0.0000   0.0000   0.0000   0.3284
   3.900   0.7058   0.02194   0.01410  -0.0581  0.5897  1.0000  -1.1772   0.0000   0.0000   0.0000   0.3267
   4.000   0.7181   0.02185   0.01397  -0.0581  0.5866  1.0000  -1.1928   0.0000   0.0000   0.0000   0.3251
   4.100   0.7306   0.02181   0.01401  -0.0580  0.5834  1.0000  -1.2083   0.0000   0.0000   0.0000   0.3236
   4.200   0.7422   0.02193   0.01408  -0.0580  0.5799  1.0000  -1.2230   0.0000   0.0000   0.0000   0.3221
   4.300   0.7513   0.02239   0.01450  -0.0578  0.5756  1.0000  -1.2345   0.0000   0.0000   0.0000   0.3209
   4.400   0.7583   0.02257   0.01473  -0.0574  0.5726  1.0000  -1.2448   0.0000   0.0000   0.0000   0.3196
   4.500   0.7653   0.02281   0.01501  -0.0571  0.5690  1.0000  -1.2561   0.0000   0.0000   0.0000   0.3183
   4.600   0.7723   0.02307   0.01531  -0.0567  0.5650  1.0000  -1.2674   0.0000   0.0000   0.0000   0.3171
   4.700   0.7800   0.02331   0.01556  -0.0564  0.5609  1.0000  -1.2796   0.0000   0.0000   0.0000   0.3159
   4.800   0.7886   0.02349   0.01576  -0.0562  0.5569  1.0000  -1.2927   0.0000   0.0000   0.0000   0.3147
   4.900   0.7981   0.02362   0.01589  -0.0560  0.5532  1.0000  -1.3070   0.0000   0.0000   0.0000   0.3135
   5.000   0.8084   0.02369   0.01596  -0.0559  0.5496  1.0000  -1.3223   0.0000   0.0000   0.0000   0.3123
   5.100   0.8194   0.02372   0.01598  -0.0558  0.5463  1.0000  -1.3384   0.0000   0.0000   0.0000   0.3111
   5.200   0.8311   0.02370   0.01595  -0.0557  0.5431  1.0000  -1.3556   0.0000   0.0000   0.0000   0.3100
   5.300   0.8434   0.02365   0.01586  -0.0557  0.5400  1.0000  -1.3736   0.0000   0.0000   0.0000   0.3089
   5.400   0.8561   0.02359   0.01576  -0.0557  0.5369  1.0000  -1.3921   0.0000   0.0000   0.0000   0.3078
   5.500   0.8687   0.02360   0.01573  -0.0557  0.5335  1.0000  -1.4105   0.0000   0.0000   0.0000   0.3068
   5.600   0.8802   0.02390   0.01598  -0.0557  0.5293  1.0000  -1.4295   0.0000   0.0000   0.0000   0.3058
   5.700   0.8877   0.02434   0.01644  -0.0554  0.5254  1.0000  -1.4438   0.0000   0.0000   0.0000   0.3048
   5.800   0.8945   0.02453   0.01669  -0.0550  0.5220  1.0000  -1.4576   0.0000   0.0000   0.0000   0.3038
   5.900   0.9011   0.02477   0.01699  -0.0545  0.5180  1.0000  -1.4711   0.0000   0.0000   0.0000   0.3027
   6.000   0.9082   0.02501   0.01728  -0.0541  0.5138  1.0000  -1.4852   0.0000   0.0000   0.0000   0.3017
   6.100   0.9161   0.02522   0.01752  -0.0538  0.5096  1.0000  -1.5005   0.0000   0.0000   0.0000   0.3007
   6.200   0.9250   0.02540   0.01772  -0.0536  0.5058  1.0000  -1.5169   0.0000   0.0000   0.0000   0.2997
   6.300   0.9347   0.02551   0.01785  -0.0534  0.5021  1.0000  -1.5346   0.0000   0.0000   0.0000   0.2988
   6.400   0.9454   0.02557   0.01791  -0.0532  0.4986  1.0000  -1.5535   0.0000   0.0000   0.0000   0.2979
   6.500   0.9568   0.02558   0.01791  -0.0532  0.4953  1.0000  -1.5735   0.0000   0.0000   0.0000   0.2970
   6.600   0.9688   0.02557   0.01788  -0.0532  0.4922  1.0000  -1.5960   0.0000   0.0000   0.0000   0.2962
   6.700   0.9814   0.02554   0.01783  -0.0532  0.4890  1.0000  -1.6212   0.0000   0.0000   0.0000   0.2954
   6.800   0.9940   0.02556   0.01782  -0.0532  0.4857  1.0000  -1.6496   0.0000   0.0000   0.0000   0.2946
   6.900   1.0062   0.02581   0.01803  -0.0533  0.4817  1.0000  -1.6792   0.0000   0.0000   0.0000   0.2939
   7.000   1.0140   0.02645   0.01868  -0.0531  0.4772  1.0000  -1.7059   0.0000   0.0000   0.0000   0.2932
   7.100   1.0200   0.02666   0.01896  -0.0525  0.4742  1.0000  -1.7305   0.0000   0.0000   0.0000   0.2922
   7.200   1.0257   0.02692   0.01930  -0.0520  0.4704  1.0000  -1.7543   0.0000   0.0000   0.0000   0.2913
   7.300   1.0317   0.02720   0.01963  -0.0514  0.4662  1.0000  -1.7789   0.0000   0.0000   0.0000   0.2903
   7.400   1.0387   0.02742   0.01991  -0.0510  0.4620  1.0000  -1.8056   0.0000   0.0000   0.0000   0.2894
   7.500   1.0470   0.02759   0.02011  -0.0507  0.4579  1.0000  -1.8347   0.0000   0.0000   0.0000   0.2886
   7.600   1.0563   0.02772   0.02026  -0.0504  0.4541  1.0000  -1.8658   0.0000   0.0000   0.0000   0.2878
   7.700   1.0666   0.02779   0.02035  -0.0502  0.4505  1.0000  -1.8991   0.0000   0.0000   0.0000   0.2870
   7.800   1.0780   0.02781   0.02071  -0.0501  0.4470  1.0000  -1.9538   0.0000   0.0000   0.0000   0.2863
   7.900   1.0904   0.02776   0.02065  -0.0501  0.4436  1.0000  -2.0155   0.0000   0.0000   0.0000   0.2856
   8.000   1.1035   0.02768   0.02056  -0.0502  0.4401  1.0000  -2.0804   0.0000   0.0000   0.0000   0.2850
   8.100   1.1166   0.02773   0.02057  -0.0503  0.4362  1.0000  -2.1461   0.0000   0.0000   0.0000   0.2844
   8.200   1.1281   0.02841   0.02122  -0.0504  0.4306  1.0000  -2.2059   0.0000   0.0000   0.0000   0.2839
   8.300   1.1333   0.02871   0.02160  -0.0498  0.4277  1.0000  -2.2480   0.0000   0.0000   0.0000   0.2831
   8.400   1.1377   0.02898   0.02197  -0.0491  0.4244  1.0000  -2.2944   0.0000   0.0000   0.0000   0.2821
   8.500   1.1421   0.02931   0.02238  -0.0484  0.4205  1.0000  -2.3522   0.0000   0.0000   0.0000   0.2812
   8.600   1.1474   0.02961   0.02276  -0.0477  0.4164  1.0000  -2.4146   0.0000   0.0000   0.0000   0.2803
   8.700   1.1540   0.02986   0.02307  -0.0472  0.4123  1.0000  -2.4829   0.0000   0.0000   0.0000   0.2795
   8.800   1.1618   0.03006   0.02331  -0.0468  0.4083  1.0000  -2.5577   0.0000   0.0000   0.0000   0.2787
   8.900   1.1715   0.03013   0.02341  -0.0466  0.4044  1.0000  -2.6415   0.0000   0.0000   0.0000   0.2780
   9.000   1.1830   0.03005   0.02334  -0.0465  0.4004  1.0000  -2.7357   0.0000   0.0000   0.0000   0.2774
   9.100   1.1962   0.02987   0.02314  -0.0465  0.3964  1.0000  -2.8390   0.0000   0.0000   0.0000   0.2768
   9.200   1.2101   0.02969   0.02292  -0.0465  0.3921  1.0000  -2.9470   0.0000   0.0000   0.0000   0.2762
   9.300   1.2256   0.02977   0.02292  -0.0469  0.3865  1.0000  -3.0634   0.0000   0.0000   0.0000   0.2759
   9.400   1.2326   0.03038   0.02356  -0.0466  0.3816  1.0000  -3.1387   0.0000   0.0000   0.0000   0.2753
   9.500   1.2352   0.03061   0.02390  -0.0456  0.3783  1.0000  -3.1959   0.0000   0.0000   0.0000   0.2742
   9.600   1.2382   0.03088   0.02427  -0.0447  0.3743  1.0000  -3.2551   0.0000   0.0000   0.0000   0.2733
   9.700   1.2424   0.03112   0.02459  -0.0439  0.3699  1.0000  -3.3206   0.0000   0.0000   0.0000   0.2723
   9.800   1.2486   0.03123   0.02475  -0.0432  0.3651  1.0000  -3.3969   0.0000   0.0000   0.0000   0.2715
   9.900   1.2574   0.03116   0.02470  -0.0428  0.3600  1.0000  -3.4869   0.0000   0.0000   0.0000   0.2707
  10.000   1.2685   0.03092   0.02445  -0.0425  0.3548  1.0000  -3.5908   0.0000   0.0000   0.0000   0.2700
  10.100   1.2807   0.03064   0.02414  -0.0423  0.3497  1.0000  -3.7015   0.0000   0.0000   0.0000   0.2694
  10.200   1.2953   0.03047   0.02387  -0.0425  0.3439  1.0000  -3.8246   0.0000   0.0000   0.0000   0.2690
  10.300   1.3081   0.03096   0.02429  -0.0428  0.3368  1.0000  -3.9354   0.0000   0.0000   0.0000   0.2687
  10.400   1.3090   0.03120   0.02465  -0.0416  0.3336  1.0000  -3.9890   0.0000   0.0000   0.0000   0.2676
  10.500   1.3102   0.03147   0.02503  -0.0404  0.3297  1.0000  -4.0446   0.0000   0.0000   0.0000   0.2665
  10.600   1.3125   0.03170   0.02533  -0.0394  0.3250  1.0000  -4.1067   0.0000   0.0000   0.0000   0.2655
  10.700   1.3167   0.03182   0.02550  -0.0385  0.3198  1.0000  -4.1793   0.0000   0.0000   0.0000   0.2646
  10.800   1.3230   0.03181   0.02552  -0.0378  0.3144  1.0000  -4.2639   0.0000   0.0000   0.0000   0.2638
  10.900   1.3304   0.03171   0.02541  -0.0372  0.3090  1.0000  -4.3560   0.0000   0.0000   0.0000   0.2630
  11.000   1.3402   0.03155   0.02516  -0.0368  0.3029  1.0000  -4.4623   0.0000   0.0000   0.0000   0.2623
  11.100   1.3566   0.03178   0.02536  -0.0374  0.2935  1.0000  -4.5953   0.0000   0.0000   0.0000   0.2622
  11.200   1.3544   0.03209   0.02579  -0.0359  0.2906  1.0000  -4.6355   0.0000   0.0000   0.0000   0.2609
  11.300   1.3515   0.03242   0.02623  -0.0342  0.2870  1.0000  -4.6724   0.0000   0.0000   0.0000   0.2596
  11.400   1.3494   0.03278   0.02667  -0.0327  0.2827  1.0000  -4.7139   0.0000   0.0000   0.0000   0.2584
  11.500   1.3488   0.03309   0.02704  -0.0315  0.2778  1.0000  -4.7633   0.0000   0.0000   0.0000   0.2572
  11.600   1.3496   0.03335   0.02733  -0.0304  0.2726  1.0000  -4.8207   0.0000   0.0000   0.0000   0.2562
  11.700   1.3514   0.03356   0.02755  -0.0294  0.2674  1.0000  -4.8846   0.0000   0.0000   0.0000   0.2553
  11.800   1.3566   0.03367   0.02759  -0.0287  0.2615  1.0000  -4.9672   0.0000   0.0000   0.0000   0.2545
  11.900   1.3687   0.03393   0.02764  -0.0286  0.2516  1.0000  -5.0852   0.0000   0.0000   0.0000   0.2541
  12.000   1.3637   0.03452   0.02836  -0.0272  0.2488  1.0000  -5.1090   0.0000   0.0000   0.0000   0.2529
  12.100   1.3591   0.03516   0.02911  -0.0260  0.2449  1.0000  -5.1350   0.0000   0.0000   0.0000   0.2519
  12.200   1.3553   0.03580   0.02983  -0.0249  0.2400  1.0000  -5.1655   0.0000   0.0000   0.0000   0.2509
  12.300   1.3522   0.03641   0.03049  -0.0239  0.2346  1.0000  -5.2025   0.0000   0.0000   0.0000   0.2501
  12.400   1.3499   0.03696   0.03105  -0.0230  0.2287  1.0000  -5.2463   0.0000   0.0000   0.0000   0.2492
  12.500   1.3486   0.03746   0.03146  -0.0222  0.2221  1.0000  -5.2979   0.0000   0.0000   0.0000   0.2484
  12.600   1.3507   0.03794   0.03172  -0.0215  0.2122  1.0000  -5.3686   0.0000   0.0000   0.0000   0.2476
  12.700   1.3444   0.03893   0.03284  -0.0207  0.2084  1.0000  -5.3844   0.0000   0.0000   0.0000   0.2469
  12.800   1.3386   0.03997   0.03398  -0.0200  0.2034  1.0000  -5.4022   0.0000   0.0000   0.0000   0.2463
  12.900   1.3333   0.04101   0.03508  -0.0195  0.1975  1.0000  -5.4242   0.0000   0.0000   0.0000   0.2457
  13.000   1.3285   0.04203   0.03610  -0.0190  0.1912  1.0000  -5.4503   0.0000   0.0000   0.0000   0.2451
  13.100   1.3235   0.04310   0.03708  -0.0185  0.1848  1.0000  -5.4763   0.0000   0.0000   0.0000   0.2446
  13.200   1.3199   0.04412   0.03790  -0.0179  0.1762  1.0000  -5.5106   0.0000   0.0000   0.0000   0.2440
  13.300   1.3142   0.04549   0.03937  -0.0178  0.1716  1.0000  -5.5252   0.0000   0.0000   0.0000   0.2437
  13.400   1.3083   0.04694   0.04090  -0.0177  0.1660  1.0000  -5.5382   0.0000   0.0000   0.0000   0.2434
  13.500   1.3025   0.04838   0.04238  -0.0176  0.1600  1.0000  -5.5527   0.0000   0.0000   0.0000   0.2432
  13.600   1.2966   0.04983   0.04378  -0.0175  0.1540  1.0000  -5.5678   0.0000   0.0000   0.0000   0.2430
  13.700   1.2899   0.05138   0.04524  -0.0175  0.1486  1.0000  -5.5773   0.0000   0.0000   0.0000   0.2428
  13.800   1.2838   0.05287   0.04658  -0.0172  0.1420  1.0000  -5.5883   0.0000   0.0000   0.0000   0.2424
  13.900   1.2785   0.05452   0.04835  -0.0175  0.1376  1.0000  -5.5999   0.0000   0.0000   0.0000   0.2425
  14.000   1.2732   0.05616   0.05005  -0.0177  0.1325  1.0000  -5.6112   0.0000   0.0000   0.0000   0.2424
  14.100   1.2671   0.05787   0.05179  -0.0179  0.1276  1.0000  -5.6182   0.0000   0.0000   0.0000   0.2425
  14.200   1.2605   0.05967   0.05356  -0.0182  0.1231  1.0000  -5.6222   0.0000   0.0000   0.0000   0.2425
  14.300   1.2538   0.06150   0.05532  -0.0184  0.1187  1.0000  -5.6255   0.0000   0.0000   0.0000   0.2426
  14.400   1.2475   0.06323   0.05693  -0.0185  0.1132  1.0000  -5.6300   0.0000   0.0000   0.0000   0.2425
  14.500   1.2432   0.06498   0.05871  -0.0188  0.1087  1.0000  -5.6421   0.0000   0.0000   0.0000   0.2426
  14.600   1.2380   0.06693   0.06075  -0.0194  0.1049  1.0000  -5.6475   0.0000   0.0000   0.0000   0.2429
  14.700   1.2328   0.06891   0.06278  -0.0199  0.1009  1.0000  -5.6529   0.0000   0.0000   0.0000   0.2432
  14.800   1.2273   0.07090   0.06478  -0.0205  0.0970  1.0000  -5.6574   0.0000   0.0000   0.0000   0.2435
  14.900   1.2215   0.07291   0.06675  -0.0211  0.0933  1.0000  -5.6598   0.0000   0.0000   0.0000   0.2438
  15.000   1.2153   0.07498   0.06876  -0.0216  0.0897  1.0000  -5.6578   0.0000   0.0000   0.0000   0.2442
  15.100   1.2112   0.07656   0.07018  -0.0215  0.0838  1.0000  -5.6621   0.0000   0.0000   0.0000   0.2439
  15.200   1.2069   0.07860   0.07234  -0.0222  0.0815  1.0000  -5.6637   0.0000   0.0000   0.0000   0.2444
  15.300   1.2028   0.08059   0.07441  -0.0229  0.0784  1.0000  -5.6648   0.0000   0.0000   0.0000   0.2448
  15.400   1.1985   0.08259   0.07645  -0.0235  0.0752  1.0000  -5.6651   0.0000   0.0000   0.0000   0.2451
  15.500   1.1941   0.08460   0.07849  -0.0242  0.0721  1.0000  -5.6645   0.0000   0.0000   0.0000   0.2456
  15.600   1.1893   0.08662   0.08051  -0.0249  0.0693  1.0000  -5.6627   0.0000   0.0000   0.0000   0.2461
  15.700   1.1840   0.08868   0.08252  -0.0256  0.0666  1.0000  -5.6561   0.0000   0.0000   0.0000   0.2465
  15.800   1.1834   0.08948   0.08313  -0.0247  0.0598  1.0000  -5.6539   0.0000   0.0000   0.0000   0.2455
  15.900   1.1793   0.09156   0.08532  -0.0255  0.0583  1.0000  -5.6464   0.0000   0.0000   0.0000   0.2461
  16.000   1.1757   0.09357   0.08741  -0.0263  0.0565  1.0000  -5.6389   0.0000   0.0000   0.0000   0.2467
  16.100   1.1724   0.09549   0.08940  -0.0270  0.0545  1.0000  -5.6326   0.0000   0.0000   0.0000   0.2472
  16.200   1.1695   0.09733   0.09128  -0.0277  0.0524  1.0000  -5.6287   0.0000   0.0000   0.0000   0.2476
  16.300   1.1668   0.09910   0.09309  -0.0284  0.0505  1.0000  -5.6278   0.0000   0.0000   0.0000   0.2480
  16.400   1.1641   0.10084   0.09485  -0.0291  0.0488  1.0000  -5.6295   0.0000   0.0000   0.0000   0.2485
  16.500   1.1616   0.10255   0.09658  -0.0299  0.0472  1.0000  -5.6327   0.0000   0.0000   0.0000   0.2490
  16.600   1.1591   0.10424   0.09827  -0.0305  0.0456  1.0000  -5.6360   0.0000   0.0000   0.0000   0.2494
  16.700   1.1586   0.10539   0.09937  -0.0307  0.0435  1.0000  -5.6456   0.0000   0.0000   0.0000   0.2493
  16.800   1.1602   0.10574   0.09970  -0.0290  0.0400  1.0000  -5.6106   0.0000   0.0000   0.0000   0.2477
  16.900   1.1578   0.10748   0.10152  -0.0299  0.0397  1.0000  -5.6077   0.0000   0.0000   0.0000   0.2483
  17.000   1.1550   0.10928   0.10341  -0.0308  0.0393  1.0000  -5.6004   0.0000   0.0000   0.0000   0.2489
  17.100   1.1516   0.11123   0.10544  -0.0318  0.0389  1.0000  -5.5873   0.0000   0.0000   0.0000   0.2497
  17.200   1.1481   0.11324   0.10754  -0.0329  0.0385  1.0000  -5.5713   0.0000   0.0000   0.0000   0.2505
  17.300   1.1445   0.11530   0.10969  -0.0339  0.0381  1.0000  -5.5531   0.0000   0.0000   0.0000   0.2514
  17.400   1.1406   0.11745   0.11192  -0.0351  0.0377  1.0000  -5.5315   0.0000   0.0000   0.0000   0.2523
  17.500   1.1364   0.11970   0.11426  -0.0363  0.0374  1.0000  -5.5064   0.0000   0.0000   0.0000   0.2533
  17.600   1.1317   0.12209   0.11673  -0.0376  0.0372  1.0000  -5.4766   0.0000   0.0000   0.0000   0.2544
  17.700   1.1260   0.12475   0.11948  -0.0391  0.0370  1.0000  -5.4388   0.0000   0.0000   0.0000   0.2557
  17.800   1.1198   0.12762   0.12243  -0.0407  0.0369  1.0000  -5.3948   0.0000   0.0000   0.0000   0.2572
  17.900   1.1134   0.13058   0.12548  -0.0424  0.0368  1.0000  -5.3472   0.0000   0.0000   0.0000   0.2588
  18.000   1.1065   0.13371   0.12869  -0.0442  0.0367  1.0000  -5.2938   0.0000   0.0000   0.0000   0.2605
  18.100   1.0987   0.13712   0.13218  -0.0462  0.0367  1.0000  -5.2307   0.0000   0.0000   0.0000   0.2625
  18.200   1.0891   0.14111   0.13625  -0.0485  0.0369  1.0000  -5.1504   0.0000   0.0000   0.0000   0.2649
  18.300   1.0791   0.14530   0.14052  -0.0510  0.0371  1.0000  -5.0620   0.0000   0.0000   0.0000   0.2675
  18.400   1.0684   0.14981   0.14510  -0.0536  0.0373  1.0000  -4.9616   0.0000   0.0000   0.0000   0.2703
  18.500   1.0554   0.15511   0.15047  -0.0566  0.0377  1.0000  -4.8345   0.0000   0.0000   0.0000   0.2738
  18.600   1.0413   0.16095   0.15637  -0.0598  0.0382  1.0000  -4.6864   0.0000   0.0000   0.0000   0.2776
  18.700   1.0261   0.16739   0.16285  -0.0631  0.0387  1.0000  -4.5141   0.0000   0.0000   0.0000   0.2818
  18.800   1.0095   0.17463   0.17011  -0.0667  0.0393  1.0000  -4.3108   0.0000   0.0000   0.0000   0.2865
  18.900   0.9941   0.18192   0.17740  -0.0700  0.0397  1.0000  -4.1031   0.0000   0.0000   0.0000   0.2910
  19.000   0.9807   0.18897   0.18445  -0.0729  0.0400  1.0000  -3.9038   0.0000   0.0000   0.0000   0.2952
  19.300   0.9597   0.20499   0.20049  -0.0791  0.0403  1.0000  -3.5088   0.0000   0.0000   0.0000   0.3035
  19.400   0.9555   0.20959   0.20508  -0.0807  0.0404  1.0000  -3.4060   0.0000   0.0000   0.0000   0.3056
  19.500   0.9523   0.21384   0.20933  -0.0821  0.0404  1.0000  -3.3167   0.0000   0.0000   0.0000   0.3074
  19.600   0.9500   0.21777   0.21325  -0.0834  0.0405  1.0000  -3.2402   0.0000   0.0000   0.0000   0.3089
  19.700   0.9484   0.22144   0.21692  -0.0847  0.0407  1.0000  -3.1736   0.0000   0.0000   0.0000   0.3103
  19.800   0.9474   0.22495   0.22043  -0.0858  0.0409  1.0000  -3.1126   0.0000   0.0000   0.0000   0.3116
  19.900   0.9465   0.22858   0.22406  -0.0871  0.0413  1.0000  -3.0449   0.0000   0.0000   0.0000   0.3130
  20.000   0.9191   0.24609   0.24146  -0.0937  0.0493  1.0000  -2.4338   0.0000   0.0000   0.0000   0.3240
  20.100   0.9170   0.24999   0.24535  -0.0948  0.0512  1.0000  -2.3624   0.0000   0.0000   0.0000   0.3255
  20.200   0.9163   0.25336   0.24872  -0.0957  0.0529  1.0000  -2.3133   0.0000   0.0000   0.0000   0.3265
  20.300   0.9169   0.25633   0.25170  -0.0963  0.0547  1.0000  -2.2837   0.0000   0.0000   0.0000   0.3270
  20.400   0.9195   0.25895   0.25433  -0.0963  0.0567  1.0000  -2.2808   0.0000   0.0000   0.0000   0.3265
  20.500   0.9236   0.27361   0.26906  -0.0957  0.0834  1.0000  -2.0911   0.0000   0.0000   0.0000   0.3259
  20.600   0.9236   0.27590   0.27136  -0.0966  0.0832  1.0000  -2.0705   0.0000   0.0000   0.0000   0.3268
  20.700   0.9222   0.27794   0.27340  -0.0978  0.0830  1.0000  -2.0430   0.0000   0.0000   0.0000   0.3281
  20.800   0.9190   0.27953   0.27498  -0.0992  0.0825  1.0000  -2.0052   0.0000   0.0000   0.0000   0.3299
  20.900   0.9091   0.27999   0.27542  -0.1020  0.0805  1.0000  -1.9224   0.0000   0.0000   0.0000   0.3341
  21.000   0.9057   0.28195   0.27737  -0.1037  0.0784  1.0000  -1.8788   0.0000   0.0000   0.0000   0.3363
  21.100   0.9047   0.28421   0.27964  -0.1047  0.0770  1.0000  -1.8561   0.0000   0.0000   0.0000   0.3374
  21.200   0.9043   0.28646   0.28190  -0.1055  0.0758  1.0000  -1.8387   0.0000   0.0000   0.0000   0.3382
  21.300   0.9040   0.28869   0.28414  -0.1062  0.0748  1.0000  -1.8243   0.0000   0.0000   0.0000   0.3389
  21.400   0.9038   0.29089   0.28634  -0.1069  0.0738  1.0000  -1.8118   0.0000   0.0000   0.0000   0.3396
  21.500   0.9036   0.29304   0.28850  -0.1075  0.0729  1.0000  -1.8007   0.0000   0.0000   0.0000   0.3401
  21.600   0.9033   0.29515   0.29063  -0.1080  0.0720  1.0000  -1.7909   0.0000   0.0000   0.0000   0.3407
  21.700   0.9030   0.29721   0.29270  -0.1085  0.0712  1.0000  -1.7820   0.0000   0.0000   0.0000   0.3411
  21.800   0.9027   0.29922   0.29473  -0.1090  0.0704  1.0000  -1.7740   0.0000   0.0000   0.0000   0.3416
  21.900   0.9023   0.30117   0.29669  -0.1094  0.0697  1.0000  -1.7668   0.0000   0.0000   0.0000   0.3420
  22.000   0.9017   0.30306   0.29860  -0.1098  0.0690  1.0000  -1.7603   0.0000   0.0000   0.0000   0.3424
  22.100   0.9010   0.30487   0.30043  -0.1102  0.0683  1.0000  -1.7545   0.0000   0.0000   0.0000   0.3427
  22.200   0.9001   0.30660   0.30217  -0.1104  0.0677  1.0000  -1.7494   0.0000   0.0000   0.0000   0.3430
  22.300   0.8990   0.30823   0.30382  -0.1106  0.0670  1.0000  -1.7449   0.0000   0.0000   0.0000   0.3433
  22.400   0.8976   0.30973   0.30534  -0.1108  0.0664  1.0000  -1.7408   0.0000   0.0000   0.0000   0.3436
  22.500   0.8958   0.31108   0.30671  -0.1108  0.0658  1.0000  -1.7370   0.0000   0.0000   0.0000   0.3438
  22.600   0.8774   0.30899   0.30470  -0.1091  0.0654  1.0000  -1.6877   0.0000   0.0000   0.0000   0.3448
  22.700   0.8629   0.30687   0.30264  -0.1077  0.0650  1.0000  -1.6498   0.0000   0.0000   0.0000   0.3456
  22.800   0.8564   0.30633   0.30214  -0.1071  0.0645  1.0000  -1.6363   0.0000   0.0000   0.0000   0.3459
  22.900   0.8523   0.30621   0.30206  -0.1066  0.0640  1.0000  -1.6311   0.0000   0.0000   0.0000   0.3460
  23.000   0.8497   0.30638   0.30226  -0.1062  0.0635  1.0000  -1.6321   0.0000   0.0000   0.0000   0.3458
  23.100   0.8485   0.30686   0.30276  -0.1058  0.0630  1.0000  -1.6395   0.0000   0.0000   0.0000   0.3455
  23.200   0.8490   0.30781   0.30375  -0.1054  0.0624  1.0000  -1.6550   0.0000   0.0000   0.0000   0.3448
  23.300   0.8526   0.30984   0.30581  -0.1049  0.0618  1.0000  -1.6834   0.0000   0.0000   0.0000   0.3436
  23.400   0.8583   0.31990   0.31584  -0.1044  0.0603  1.0000  -1.6883   0.0000   0.0000   0.0000   0.3421
  23.500   0.8536   0.31995   0.31591  -0.1045  0.0603  1.0000  -1.6630   0.0000   0.0000   0.0000   0.3430
  23.600   0.8493   0.32005   0.31604  -0.1047  0.0603  1.0000  -1.6390   0.0000   0.0000   0.0000   0.3438
  23.700   0.8454   0.32019   0.31620  -0.1049  0.0602  1.0000  -1.6160   0.0000   0.0000   0.0000   0.3447
  23.800   0.8418   0.32035   0.31638  -0.1052  0.0602  1.0000  -1.5938   0.0000   0.0000   0.0000   0.3455
  23.900   0.8383   0.32050   0.31654  -0.1054  0.0601  1.0000  -1.5723   0.0000   0.0000   0.0000   0.3463
  24.000   0.8350   0.32061   0.31667  -0.1057  0.0601  1.0000  -1.5510   0.0000   0.0000   0.0000   0.3472
  24.100   0.8318   0.32071   0.31679  -0.1061  0.0600  1.0000  -1.5302   0.0000   0.0000   0.0000   0.3480
  24.200   0.8288   0.32079   0.31689  -0.1064  0.0600  1.0000  -1.5098   0.0000   0.0000   0.0000   0.3489
  24.300   0.8247   0.32052   0.31663  -0.1068  0.0599  1.0000  -1.4845   0.0000   0.0000   0.0000   0.3500
  24.400   0.8207   0.32018   0.31631  -0.1072  0.0598  1.0000  -1.4586   0.0000   0.0000   0.0000   0.3511
  24.500   0.8162   0.31966   0.31581  -0.1076  0.0597  1.0000  -1.4308   0.0000   0.0000   0.0000   0.3523
  24.600   0.8118   0.31910   0.31526  -0.1081  0.0596  1.0000  -1.4025   0.0000   0.0000   0.0000   0.3536
  24.700   0.8075   0.31854   0.31472  -0.1087  0.0594  1.0000  -1.3740   0.0000   0.0000   0.0000   0.3550
  24.800   0.8035   0.31801   0.31420  -0.1093  0.0592  1.0000  -1.3452   0.0000   0.0000   0.0000   0.3564
  24.900   0.7996   0.31753   0.31373  -0.1100  0.0590  1.0000  -1.3156   0.0000   0.0000   0.0000   0.3579
  25.000   0.7961   0.31719   0.31340  -0.1108  0.0586  1.0000  -1.2850   0.0000   0.0000   0.0000   0.3595
  25.100   0.7933   0.31713   0.31335  -0.1116  0.0580  1.0000  -1.2543   0.0000   0.0000   0.0000   0.3610
  25.200   0.7912   0.31747   0.31369  -0.1125  0.0572  1.0000  -1.2269   0.0000   0.0000   0.0000   0.3624
  25.300   0.7899   0.31806   0.31430  -0.1133  0.0562  1.0000  -1.2054   0.0000   0.0000   0.0000   0.3635
  25.400   0.7889   0.31873   0.31499  -0.1139  0.0553  1.0000  -1.1888   0.0000   0.0000   0.0000   0.3644
  25.500   0.7881   0.31942   0.31568  -0.1144  0.0544  1.0000  -1.1753   0.0000   0.0000   0.0000   0.3651
  25.600   0.7874   0.32009   0.31637  -0.1149  0.0536  1.0000  -1.1638   0.0000   0.0000   0.0000   0.3657
  25.700   0.7868   0.32075   0.31705  -0.1153  0.0528  1.0000  -1.1537   0.0000   0.0000   0.0000   0.3663
  25.800   0.7862   0.32140   0.31771  -0.1157  0.0520  1.0000  -1.1446   0.0000   0.0000   0.0000   0.3668
  25.900   0.7857   0.32205   0.31837  -0.1161  0.0513  1.0000  -1.1364   0.0000   0.0000   0.0000   0.3673
  26.000   0.7853   0.32268   0.31902  -0.1165  0.0506  1.0000  -1.1291   0.0000   0.0000   0.0000   0.3678
  26.100   0.7849   0.32330   0.31965  -0.1169  0.0499  1.0000  -1.1224   0.0000   0.0000   0.0000   0.3682
  26.200   0.7845   0.32392   0.32028  -0.1173  0.0492  1.0000  -1.1165   0.0000   0.0000   0.0000   0.3687
  26.300   0.7843   0.32452   0.32090  -0.1177  0.0486  1.0000  -1.1113   0.0000   0.0000   0.0000   0.3691
  26.400   0.7840   0.32512   0.32151  -0.1180  0.0480  1.0000  -1.1067   0.0000   0.0000   0.0000   0.3694
  26.500   0.7839   0.32570   0.32211  -0.1184  0.0474  1.0000  -1.1030   0.0000   0.0000   0.0000   0.3698
  26.600   0.7837   0.32627   0.32269  -0.1187  0.0468  1.0000  -1.1000   0.0000   0.0000   0.0000   0.3701
  26.700   0.7837   0.32684   0.32327  -0.1191  0.0463  1.0000  -1.0978   0.0000   0.0000   0.0000   0.3704
  26.800   0.7837   0.32739   0.32384  -0.1194  0.0457  1.0000  -1.0964   0.0000   0.0000   0.0000   0.3707
  26.900   0.7837   0.32793   0.32439  -0.1197  0.0452  1.0000  -1.0961   0.0000   0.0000   0.0000   0.3709
  27.000   0.7838   0.32846   0.32494  -0.1200  0.0447  1.0000  -1.0968   0.0000   0.0000   0.0000   0.3711
  27.100   0.7840   0.32899   0.32548  -0.1203  0.0442  1.0000  -1.0986   0.0000   0.0000   0.0000   0.3713
  27.200   0.7842   0.32951   0.32601  -0.1205  0.0438  1.0000  -1.1018   0.0000   0.0000   0.0000   0.3714
  27.300   0.7846   0.33003   0.32655  -0.1208  0.0433  1.0000  -1.1064   0.0000   0.0000   0.0000   0.3714
  27.400   0.7851   0.33058   0.32712  -0.1210  0.0429  1.0000  -1.1127   0.0000   0.0000   0.0000   0.3714
  27.500   0.7857   0.33118   0.32773  -0.1211  0.0425  1.0000  -1.1209   0.0000   0.0000   0.0000   0.3713
  27.600   0.7866   0.33188   0.32845  -0.1212  0.0421  1.0000  -1.1316   0.0000   0.0000   0.0000   0.3710
  27.700   0.7879   0.33280   0.32939  -0.1212  0.0417  1.0000  -1.1455   0.0000   0.0000   0.0000   0.3706
  27.800   0.7899   0.33424   0.33084  -0.1211  0.0413  1.0000  -1.1644   0.0000   0.0000   0.0000   0.3699
  27.900   0.7942   0.33747   0.33410  -0.1208  0.0408  1.0000  -1.1939   0.0000   0.0000   0.0000   0.3684
  28.000   0.8001   0.34650   0.34309  -0.1207  0.0401  1.0000  -1.1937   0.0000   0.0000   0.0000   0.3671
  28.100   0.7991   0.34684   0.34344  -0.1212  0.0401  1.0000  -1.1808   0.0000   0.0000   0.0000   0.3678
  28.200   0.7982   0.34714   0.34375  -0.1217  0.0400  1.0000  -1.1679   0.0000   0.0000   0.0000   0.3684
  28.300   0.7970   0.34730   0.34400  -0.1221  0.0400  1.0000  -1.1536   0.0000   0.0000   0.0000   0.3691
  28.400   0.7958   0.34741   0.34412  -0.1226  0.0400  1.0000  -1.1393   0.0000   0.0000   0.0000   0.3699
  28.500   0.7940   0.34726   0.34398  -0.1232  0.0399  1.0000  -1.1221   0.0000   0.0000   0.0000   0.3707
  28.600   0.7920   0.34699   0.34372  -0.1237  0.0399  1.0000  -1.1034   0.0000   0.0000   0.0000   0.3717
  28.700   0.7901   0.34672   0.34346  -0.1243  0.0398  1.0000  -1.0849   0.0000   0.0000   0.0000   0.3727
  28.800   0.7882   0.34645   0.34320  -0.1249  0.0397  1.0000  -1.0664   0.0000   0.0000   0.0000   0.3737
  28.900   0.7864   0.34619   0.34295  -0.1255  0.0397  1.0000  -1.0479   0.0000   0.0000   0.0000   0.3747
  29.000   0.7846   0.34597   0.34273  -0.1261  0.0396  1.0000  -1.0295   0.0000   0.0000   0.0000   0.3757
  29.100   0.7830   0.34579   0.34257  -0.1268  0.0395  1.0000  -1.0109   0.0000   0.0000   0.0000   0.3767
  29.200   0.7816   0.34568   0.34247  -0.1275  0.0393  1.0000  -0.9923   0.0000   0.0000   0.0000   0.3778
  29.300   0.7803   0.34568   0.34247  -0.1282  0.0391  1.0000  -0.9734   0.0000   0.0000   0.0000   0.3788
  29.400   0.7793   0.34583   0.34263  -0.1290  0.0389  1.0000  -0.9544   0.0000   0.0000   0.0000   0.3799
  29.500   0.7786   0.34618   0.34299  -0.1298  0.0386  1.0000  -0.9356   0.0000   0.0000   0.0000   0.3809
  29.600   0.7782   0.34675   0.34356  -0.1306  0.0382  1.0000  -0.9179   0.0000   0.0000   0.0000   0.3818
  29.700   0.7781   0.34748   0.34430  -0.1313  0.0377  1.0000  -0.9026   0.0000   0.0000   0.0000   0.3826
  29.800   0.7781   0.34829   0.34512  -0.1320  0.0372  1.0000  -0.8898   0.0000   0.0000   0.0000   0.3833
  29.900   0.7782   0.34911   0.34595  -0.1326  0.0367  1.0000  -0.8789   0.0000   0.0000   0.0000   0.3839
  30.000   0.7783   0.34992   0.34677  -0.1332  0.0361  1.0000  -0.8699   0.0000   0.0000   0.0000   0.3844


