xflr5 v6.61

 Calculated polar for: S2027

 1 1 Reynolds number fixed          Mach number fixed         

 xtrf =   1.000 (top)        1.000 (bottom)
 Mach =   0.000     Re =     0.160 e 6     Ncrit =   9.000

  alpha     CL        CD       CDp       Cm    Top Xtr Bot Xtr   Cpmin    Chinge    XCp    
 ------- -------- --------- --------- -------- ------- ------- -------- --------- ---------
 -10.000  -0.3464   0.09967   0.09589  -0.0363  1.0000  0.0815  -1.4532   0.0000   0.0000   0.0000   0.1297
  -9.900  -0.3455   0.09826   0.09449  -0.0370  1.0000  0.0826  -1.4580   0.0000   0.0000   0.0000   0.1273
  -9.800  -0.3449   0.09681   0.09306  -0.0379  1.0000  0.0838  -1.4654   0.0000   0.0000   0.0000   0.1248
  -9.700  -0.3448   0.09532   0.09159  -0.0388  1.0000  0.0851  -1.4758   0.0000   0.0000   0.0000   0.1222
  -9.600  -0.3452   0.09379   0.09008  -0.0399  1.0000  0.0864  -1.4896   0.0000   0.0000   0.0000   0.1194
  -9.500  -0.3462   0.09221   0.08852  -0.0412  1.0000  0.0879  -1.5080   0.0000   0.0000   0.0000   0.1163
  -9.400  -0.3483   0.09059   0.08694  -0.0428  1.0000  0.0895  -1.5335   0.0000   0.0000   0.0000   0.1127
  -9.300  -0.3525   0.08898   0.08536  -0.0450  1.0000  0.0915  -1.5725   0.0000   0.0000   0.0000   0.1080
  -9.200  -0.3557   0.08845   0.08487  -0.0485  1.0000  0.0943  -1.6136   0.0000   0.0000   0.0000   0.0998
  -9.100  -0.3618   0.08699   0.08344  -0.0514  1.0000  0.0950  -1.6573   0.0000   0.0000   0.0000   0.0944
  -9.000  -0.3701   0.08521   0.08170  -0.0535  1.0000  0.0953  -1.7006   0.0000   0.0000   0.0000   0.0921
  -8.900  -0.3805   0.08408   0.08060  -0.0541  1.0000  0.0954  -1.7335   0.0000   0.0000   0.0000   0.0951
  -8.800  -0.3941   0.08377   0.08043  -0.0528  1.0000  0.0954  -1.7551   0.0000   0.0000   0.0000   0.1039
  -8.700  -0.4101   0.08386   0.08058  -0.0504  1.0000  0.0953  -1.7768   0.0000   0.0000   0.0000   0.1155
  -8.600  -0.4210   0.08302   0.07975  -0.0509  0.9978  0.0954  -1.8053   0.0000   0.0000   0.0000   0.1180
  -8.500  -0.4220   0.08070   0.07736  -0.0556  0.9913  0.0956  -1.8387   0.0000   0.0000   0.0000   0.1072
  -8.400  -0.4185   0.07823   0.07479  -0.0600  0.9868  0.0957  -1.8617   0.0000   0.0000   0.0000   0.0957
  -8.300  -0.4509   0.06790   0.06443  -0.0659  0.9803  0.0987  -2.0414   0.0000   0.0000   0.0000   0.0933
  -8.200  -0.4454   0.06488   0.06143  -0.0675  0.9778  0.1005  -2.0282   0.0000   0.0000   0.0000   0.0880
  -8.100  -0.4295   0.06352   0.06014  -0.0677  0.9769  0.1021  -1.9678   0.0000   0.0000   0.0000   0.0817
  -8.000  -0.4154   0.06230   0.05895  -0.0685  0.9754  0.1037  -1.9179   0.0000   0.0000   0.0000   0.0744
  -7.900  -0.4033   0.06088   0.05742  -0.0699  0.9736  0.1053  -1.8841   0.0000   0.0000   0.0000   0.0659
  -7.800  -0.3922   0.05932   0.05585  -0.0718  0.9715  0.1071  -1.8560   0.0000   0.0000   0.0000   0.0560
  -7.700  -0.3824   0.05757   0.05406  -0.0742  0.9693  0.1092  -1.8375   0.0000   0.0000   0.0000   0.0450
  -7.200  -0.3852   0.03996   0.03501  -0.0822  0.9400  0.0616  -2.3465   0.0000   0.0000   0.0000   0.0254
  -7.100  -0.3850   0.03738   0.03220  -0.0818  0.9343  0.0573  -2.4033   0.0000   0.0000   0.0000   0.0263
  -7.000  -0.3841   0.03352   0.02757  -0.0805  0.9290  0.0472  -2.6164   0.0000   0.0000   0.0000   0.0288
  -6.900  -0.3691   0.03373   0.02756  -0.0807  0.9261  0.0454  -2.5711   0.0000   0.0000   0.0000   0.0197
  -6.800  -0.3541   0.03398   0.02780  -0.0810  0.9234  0.0445  -2.5028   0.0000   0.0000   0.0000   0.0094
  -6.700  -0.3439   0.03222   0.02593  -0.0811  0.9209  0.0426  -2.5053   0.0000   0.0000   0.0000   0.0020
  -6.600  -0.3367   0.03039   0.02392  -0.0810  0.9180  0.0418  -2.5202   0.0000   0.0000   0.0000  -0.0028
  -6.500  -0.3330   0.02933   0.02274  -0.0800  0.9127  0.0412  -2.5211   0.0000   0.0000   0.0000  -0.0025
  -6.400  -0.3269   0.02830   0.02158  -0.0793  0.9079  0.0406  -2.5160   0.0000   0.0000   0.0000  -0.0049
  -6.300  -0.3191   0.02730   0.02046  -0.0788  0.9036  0.0401  -2.5061   0.0000   0.0000   0.0000  -0.0093
  -6.200  -0.3103   0.02635   0.01939  -0.0784  0.8998  0.0396  -2.4924   0.0000   0.0000   0.0000  -0.0152
  -6.100  -0.3008   0.02546   0.01839  -0.0781  0.8962  0.0391  -2.4757   0.0000   0.0000   0.0000  -0.0221
  -6.000  -0.2909   0.02463   0.01745  -0.0777  0.8930  0.0386  -2.4566   0.0000   0.0000   0.0000  -0.0298
  -5.900  -0.2809   0.02388   0.01658  -0.0773  0.8899  0.0382  -2.4354   0.0000   0.0000   0.0000  -0.0380
  -5.800  -0.2711   0.02321   0.01581  -0.0768  0.8868  0.0379  -2.4128   0.0000   0.0000   0.0000  -0.0464
  -5.700  -0.2626   0.02263   0.01516  -0.0762  0.8830  0.0377  -2.3906   0.0000   0.0000   0.0000  -0.0534
  -5.600  -0.2547   0.02208   0.01456  -0.0755  0.8783  0.0375  -2.3679   0.0000   0.0000   0.0000  -0.0600
  -5.500  -0.2463   0.02155   0.01398  -0.0749  0.8738  0.0374  -2.3434   0.0000   0.0000   0.0000  -0.0677
  -5.400  -0.2376   0.02104   0.01342  -0.0743  0.8695  0.0373  -2.3173   0.0000   0.0000   0.0000  -0.0765
  -5.300  -0.2288   0.02055   0.01288  -0.0737  0.8655  0.0373  -2.2897   0.0000   0.0000   0.0000  -0.0862
  -5.200  -0.2199   0.02010   0.01237  -0.0731  0.8619  0.0374  -2.2613   0.0000   0.0000   0.0000  -0.0968
  -5.100  -0.2111   0.01966   0.01189  -0.0726  0.8587  0.0376  -2.2323   0.0000   0.0000   0.0000  -0.1082
  -5.000  -0.2023   0.01926   0.01143  -0.0719  0.8556  0.0379  -2.2031   0.0000   0.0000   0.0000  -0.1204
  -4.900  -0.1936   0.01891   0.01102  -0.0713  0.8526  0.0382  -2.1739   0.0000   0.0000   0.0000  -0.1334
  -4.800  -0.1850   0.01862   0.01066  -0.0707  0.8494  0.0388  -2.1451   0.0000   0.0000   0.0000  -0.1475
  -4.700  -0.1766   0.01833   0.01032  -0.0703  0.8460  0.0395  -2.1176   0.0000   0.0000   0.0000  -0.1635
  -4.600  -0.1681   0.01804   0.00998  -0.0698  0.8421  0.0404  -2.0912   0.0000   0.0000   0.0000  -0.1812
  -4.500  -0.1594   0.01778   0.00964  -0.0694  0.8381  0.0417  -2.0661   0.0000   0.0000   0.0000  -0.2016
  -4.400  -0.1503   0.01753   0.00931  -0.0689  0.8341  0.0433  -2.0423   0.0000   0.0000   0.0000  -0.2254
  -4.300  -0.1433   0.01680   0.00859  -0.0680  0.8302  0.0596  -2.0941   0.0000   0.0000   0.0000  -0.2421
  -4.200  -0.1438   0.01509   0.00799  -0.0670  0.8262  0.2536  -2.1646   0.0000   0.0000   0.0000  -0.2326
  -4.100  -0.1371   0.01459   0.00788  -0.0663  0.8228  0.3340  -2.1317   0.0000   0.0000   0.0000  -0.2509
  -4.000  -0.1292   0.01431   0.00783  -0.0657  0.8195  0.3911  -2.0797   0.0000   0.0000   0.0000  -0.2766
  -3.900  -0.1208   0.01411   0.00784  -0.0651  0.8164  0.4351  -2.0209   0.0000   0.0000   0.0000  -0.3070
  -3.800  -0.1116   0.01402   0.00784  -0.0645  0.8133  0.4616  -1.9577   0.0000   0.0000   0.0000  -0.3469
  -3.700  -0.1018   0.01403   0.00787  -0.0640  0.8099  0.4854  -1.8919   0.0000   0.0000   0.0000  -0.3987
  -3.600  -0.0926   0.01402   0.00795  -0.0635  0.8064  0.5082  -1.8274   0.0000   0.0000   0.0000  -0.4572
  -3.500  -0.0839   0.01405   0.00808  -0.0629  0.8027  0.5385  -1.7631   0.0000   0.0000   0.0000  -0.5224
  -3.400  -0.0753   0.01409   0.00824  -0.0622  0.7986  0.5632  -1.6988   0.0000   0.0000   0.0000  -0.6001
  -3.300  -0.0663   0.01420   0.00842  -0.0614  0.7946  0.5850  -1.6335   0.0000   0.0000   0.0000  -0.7025
  -3.200  -0.0564   0.01433   0.00848  -0.0610  0.7907  0.5988  -1.5669   0.0000   0.0000   0.0000  -0.8620
  -3.100  -0.0464   0.01426   0.00845  -0.0605  0.7873  0.6091  -1.5017   0.0000   0.0000   0.0000  -1.0886
  -3.000  -0.0363   0.01423   0.00831  -0.0600  0.7840  0.6180  -1.4255   0.0000   0.0000   0.0000  -1.4469
  -2.900  -0.0262   0.01426   0.00834  -0.0595  0.7808  0.6278  -1.3607   0.0000   0.0000   0.0000  -2.0791
  -2.800  -0.0157   0.01428   0.00832  -0.0591  0.7778  0.6363  -1.2960   0.0000   0.0000   0.0000  -3.6020
  -2.700  -0.0051   0.01430   0.00828  -0.0587  0.7749  0.6443  -1.2317   0.0000   0.0000   0.0000  -11.5008
  -2.600   0.0056   0.01436   0.00825  -0.0584  0.7720  0.6508  -1.1680   0.0000   0.0000   0.0000  10.9496
  -2.500   0.0159   0.01432   0.00821  -0.0581  0.7689  0.6588  -1.1060   0.0000   0.0000   0.0000   3.9809
  -2.400   0.0258   0.01441   0.00831  -0.0576  0.7653  0.6663  -1.0456   0.0000   0.0000   0.0000   2.5259
  -2.300   0.0356   0.01442   0.00835  -0.0572  0.7626  0.6734  -0.9865   0.0000   0.0000   0.0000   1.8861
  -2.200   0.0456   0.01444   0.00838  -0.0568  0.7594  0.6804  -0.9279   0.0000   0.0000   0.0000   1.5208
  -2.100   0.0556   0.01447   0.00839  -0.0565  0.7557  0.6877  -0.8699   0.0000   0.0000   0.0000   1.2847
  -2.000   0.0658   0.01449   0.00839  -0.0563  0.7519  0.6948  -0.8123   0.0000   0.0000   0.0000   1.1191
  -1.900   0.0763   0.01451   0.00836  -0.0560  0.7480  0.7009  -0.7549   0.0000   0.0000   0.0000   0.9962
  -1.800   0.0866   0.01444   0.00827  -0.0557  0.7442  0.7070  -0.6986   0.0000   0.0000   0.0000   0.9031
  -1.700   0.0966   0.01434   0.00818  -0.0553  0.7406  0.7136  -0.6436   0.0000   0.0000   0.0000   0.8299
  -1.600   0.1067   0.01429   0.00813  -0.0548  0.7372  0.7196  -0.6054   0.0000   0.0000   0.0000   0.7698
  -1.500   0.1169   0.01427   0.00809  -0.0543  0.7340  0.7257  -0.6138   0.0000   0.0000   0.0000   0.7199
  -1.400   0.1272   0.01425   0.00804  -0.0539  0.7308  0.7320  -0.6222   0.0000   0.0000   0.0000   0.6779
  -1.300   0.1378   0.01426   0.00800  -0.0535  0.7277  0.7383  -0.6308   0.0000   0.0000   0.0000   0.6423
  -1.200   0.1484   0.01431   0.00800  -0.0533  0.7245  0.7444  -0.6392   0.0000   0.0000   0.0000   0.6121
  -1.100   0.1591   0.01447   0.00809  -0.0532  0.7205  0.7497  -0.6475   0.0000   0.0000   0.0000   0.5867
  -1.000   0.1694   0.01444   0.00807  -0.0531  0.7180  0.7549  -0.6554   0.0000   0.0000   0.0000   0.5652
  -0.900   0.1790   0.01437   0.00803  -0.0527  0.7152  0.7609  -0.6631   0.0000   0.0000   0.0000   0.5458
  -0.800   0.1886   0.01435   0.00804  -0.0523  0.7121  0.7665  -0.6708   0.0000   0.0000   0.0000   0.5282
  -0.700   0.1982   0.01436   0.00806  -0.0519  0.7087  0.7722  -0.6792   0.0000   0.0000   0.0000   0.5123
  -0.600   0.2081   0.01436   0.00807  -0.0515  0.7053  0.7781  -0.6883   0.0000   0.0000   0.0000   0.4978
  -0.500   0.2183   0.01436   0.00806  -0.0512  0.7018  0.7840  -0.6976   0.0000   0.0000   0.0000   0.4847
  -0.400   0.2287   0.01435   0.00802  -0.0510  0.6983  0.7897  -0.7072   0.0000   0.0000   0.0000   0.4728
  -0.300   0.2394   0.01433   0.00797  -0.0509  0.6949  0.7949  -0.7169   0.0000   0.0000   0.0000   0.4620
  -0.200   0.2503   0.01430   0.00790  -0.0508  0.6915  0.7995  -0.7268   0.0000   0.0000   0.0000   0.4520
  -0.100   0.2602   0.01419   0.00779  -0.0503  0.6883  0.8053  -0.7364   0.0000   0.0000   0.0000   0.4422
   0.100   0.2800   0.01411   0.00768  -0.0492  0.6817  0.8165  -0.7555   0.0000   0.0000   0.0000   0.4244
   0.200   0.2901   0.01415   0.00768  -0.0488  0.6780  0.8225  -0.7651   0.0000   0.0000   0.0000   0.4166
   0.300   0.3001   0.01433   0.00781  -0.0485  0.6734  0.8285  -0.7743   0.0000   0.0000   0.0000   0.4099
   0.400   0.3100   0.01430   0.00780  -0.0483  0.6710  0.8346  -0.7834   0.0000   0.0000   0.0000   0.4038
   0.500   0.3200   0.01429   0.00773  -0.0482  0.6683  0.8403  -0.7927   0.0000   0.0000   0.0000   0.3984
   0.600   0.3299   0.01426   0.00772  -0.0480  0.6652  0.8454  -0.8018   0.0000   0.0000   0.0000   0.3930
   0.700   0.3392   0.01423   0.00772  -0.0475  0.6621  0.8510  -0.8107   0.0000   0.0000   0.0000   0.3875
   0.800   0.3486   0.01423   0.00772  -0.0470  0.6588  0.8569  -0.8196   0.0000   0.0000   0.0000   0.3822
   0.900   0.3580   0.01422   0.00772  -0.0465  0.6554  0.8633  -0.8287   0.0000   0.0000   0.0000   0.3772
   1.000   0.3677   0.01422   0.00771  -0.0461  0.6521  0.8702  -0.8379   0.0000   0.0000   0.0000   0.3726
   1.100   0.3775   0.01420   0.00772  -0.0458  0.6488  0.8773  -0.8473   0.0000   0.0000   0.0000   0.3683
   1.200   0.3876   0.01418   0.00767  -0.0455  0.6457  0.8836  -0.8572   0.0000   0.0000   0.0000   0.3643
   1.300   0.3981   0.01412   0.00761  -0.0452  0.6425  0.8895  -0.8686   0.0000   0.0000   0.0000   0.3602
   1.400   0.4089   0.01409   0.00756  -0.0449  0.6394  0.8956  -0.8802   0.0000   0.0000   0.0000   0.3564
   1.500   0.4198   0.01407   0.00750  -0.0447  0.6361  0.9022  -0.8919   0.0000   0.0000   0.0000   0.3529
   1.600   0.4306   0.01408   0.00747  -0.0445  0.6325  0.9093  -0.9036   0.0000   0.0000   0.0000   0.3497
   1.700   0.4409   0.01418   0.00752  -0.0443  0.6283  0.9168  -0.9147   0.0000   0.0000   0.0000   0.3467
   1.800   0.4543   0.01430   0.00763  -0.0447  0.6242  0.9225  -0.9277   0.0000   0.0000   0.0000   0.3445
   1.900   0.4676   0.01426   0.00761  -0.0451  0.6215  0.9293  -0.9408   0.0000   0.0000   0.0000   0.3424
   2.000   0.4803   0.01424   0.00761  -0.0454  0.6184  0.9372  -0.9535   0.0000   0.0000   0.0000   0.3404
   2.100   0.4921   0.01424   0.00762  -0.0456  0.6150  0.9457  -0.9656   0.0000   0.0000   0.0000   0.3384
   2.200   0.5102   0.01423   0.00762  -0.0470  0.6113  0.9504  -0.9819   0.0000   0.0000   0.0000   0.3378
   2.300   0.5275   0.01424   0.00762  -0.0483  0.6076  0.9557  -0.9978   0.0000   0.0000   0.0000   0.3372
   2.400   0.5441   0.01424   0.00761  -0.0494  0.6040  0.9618  -1.0132   0.0000   0.0000   0.0000   0.3364
   2.500   0.5594   0.01423   0.00759  -0.0503  0.6005  0.9687  -1.0279   0.0000   0.0000   0.0000   0.3354
   2.600   0.5789   0.01422   0.00755  -0.0521  0.5968  0.9724  -1.0456   0.0000   0.0000   0.0000   0.3353
   2.700   0.5981   0.01420   0.00750  -0.0537  0.5933  0.9767  -1.0631   0.0000   0.0000   0.0000   0.3351
   2.800   0.6171   0.01420   0.00746  -0.0554  0.5897  0.9814  -1.0806   0.0000   0.0000   0.0000   0.3349
   2.900   0.6357   0.01422   0.00744  -0.0569  0.5859  0.9864  -1.0993   0.0000   0.0000   0.0000   0.3347
   3.000   0.6559   0.01432   0.00747  -0.0589  0.5812  0.9902  -1.1198   0.0000   0.0000   0.0000   0.3347
   3.100   0.6750   0.01454   0.00766  -0.0607  0.5758  0.9951  -1.1390   0.0000   0.0000   0.0000   0.3349
   3.200   0.6925   0.01451   0.00765  -0.0623  0.5731  1.0000  -1.1575   0.0000   0.0000   0.0000   0.3348
   3.300   0.6960   0.01452   0.00768  -0.0613  0.5704  1.0000  -1.1652   0.0000   0.0000   0.0000   0.3328
   3.400   0.7001   0.01454   0.00771  -0.0604  0.5674  1.0000  -1.1734   0.0000   0.0000   0.0000   0.3308
   3.500   0.7054   0.01457   0.00775  -0.0596  0.5640  1.0000  -1.1826   0.0000   0.0000   0.0000   0.3290
   3.600   0.7118   0.01461   0.00778  -0.0589  0.5605  1.0000  -1.1927   0.0000   0.0000   0.0000   0.3272
   3.700   0.7194   0.01465   0.00780  -0.0584  0.5569  1.0000  -1.2039   0.0000   0.0000   0.0000   0.3255
   3.800   0.7279   0.01469   0.00782  -0.0581  0.5534  1.0000  -1.2158   0.0000   0.0000   0.0000   0.3240
   3.900   0.7371   0.01474   0.00795  -0.0578  0.5500  1.0000  -1.2283   0.0000   0.0000   0.0000   0.3225
   4.000   0.7467   0.01478   0.00797  -0.0576  0.5467  1.0000  -1.2412   0.0000   0.0000   0.0000   0.3211
   4.100   0.7566   0.01483   0.00799  -0.0575  0.5434  1.0000  -1.2544   0.0000   0.0000   0.0000   0.3198
   4.200   0.7669   0.01489   0.00801  -0.0573  0.5401  1.0000  -1.2680   0.0000   0.0000   0.0000   0.3185
   4.300   0.7773   0.01499   0.00805  -0.0573  0.5365  1.0000  -1.2816   0.0000   0.0000   0.0000   0.3173
   4.400   0.7878   0.01517   0.00818  -0.0572  0.5323  1.0000  -1.2956   0.0000   0.0000   0.0000   0.3162
   4.500   0.7979   0.01553   0.00850  -0.0572  0.5270  1.0000  -1.3103   0.0000   0.0000   0.0000   0.3152
   4.600   0.8075   0.01558   0.00857  -0.0571  0.5251  1.0000  -1.3251   0.0000   0.0000   0.0000   0.3140
   4.700   0.8170   0.01564   0.00866  -0.0569  0.5226  1.0000  -1.3399   0.0000   0.0000   0.0000   0.3129
   4.800   0.8267   0.01570   0.00874  -0.0568  0.5195  1.0000  -1.3548   0.0000   0.0000   0.0000   0.3118
   4.900   0.8364   0.01576   0.00882  -0.0566  0.5161  1.0000  -1.3699   0.0000   0.0000   0.0000   0.3107
   5.000   0.8463   0.01581   0.00889  -0.0565  0.5124  1.0000  -1.3853   0.0000   0.0000   0.0000   0.3096
   5.100   0.8564   0.01586   0.00893  -0.0563  0.5085  1.0000  -1.4010   0.0000   0.0000   0.0000   0.3086
   5.200   0.8666   0.01590   0.00897  -0.0562  0.5046  1.0000  -1.4169   0.0000   0.0000   0.0000   0.3075
   5.300   0.8769   0.01593   0.00899  -0.0561  0.5008  1.0000  -1.4330   0.0000   0.0000   0.0000   0.3065
   5.400   0.8873   0.01597   0.00901  -0.0559  0.4972  1.0000  -1.4492   0.0000   0.0000   0.0000   0.3055
   5.500   0.8979   0.01603   0.00903  -0.0559  0.4936  1.0000  -1.4661   0.0000   0.0000   0.0000   0.3046
   5.600   0.9086   0.01612   0.00909  -0.0558  0.4899  1.0000  -1.4851   0.0000   0.0000   0.0000   0.3036
   5.700   0.9193   0.01628   0.00919  -0.0558  0.4859  1.0000  -1.5041   0.0000   0.0000   0.0000   0.3028
   5.800   0.9299   0.01659   0.00945  -0.0558  0.4809  1.0000  -1.5226   0.0000   0.0000   0.0000   0.3020
   5.900   0.9398   0.01684   0.00972  -0.0557  0.4772  1.0000  -1.5402   0.0000   0.0000   0.0000   0.3012
   6.000   0.9492   0.01691   0.00984  -0.0556  0.4750  1.0000  -1.5579   0.0000   0.0000   0.0000   0.3003
   6.100   0.9587   0.01700   0.00996  -0.0554  0.4723  1.0000  -1.5756   0.0000   0.0000   0.0000   0.2994
   6.200   0.9682   0.01708   0.01009  -0.0552  0.4692  1.0000  -1.5934   0.0000   0.0000   0.0000   0.2986
   6.300   0.9779   0.01717   0.01020  -0.0550  0.4656  1.0000  -1.6115   0.0000   0.0000   0.0000   0.2977
   6.400   0.9877   0.01724   0.01029  -0.0549  0.4618  1.0000  -1.6299   0.0000   0.0000   0.0000   0.2968
   6.500   0.9976   0.01730   0.01036  -0.0547  0.4579  1.0000  -1.6497   0.0000   0.0000   0.0000   0.2960
   6.600   1.0076   0.01735   0.01041  -0.0545  0.4540  1.0000  -1.6719   0.0000   0.0000   0.0000   0.2952
   6.700   1.0177   0.01739   0.01044  -0.0544  0.4501  1.0000  -1.6985   0.0000   0.0000   0.0000   0.2944
   6.800   1.0280   0.01745   0.01048  -0.0542  0.4463  1.0000  -1.7292   0.0000   0.0000   0.0000   0.2936
   6.900   1.0384   0.01755   0.01054  -0.0541  0.4424  1.0000  -1.7624   0.0000   0.0000   0.0000   0.2928
   7.000   1.0489   0.01772   0.01066  -0.0541  0.4382  1.0000  -1.7955   0.0000   0.0000   0.0000   0.2921
   7.100   1.0595   0.01806   0.01096  -0.0541  0.4330  1.0000  -1.8285   0.0000   0.0000   0.0000   0.2915
   7.200   1.0691   0.01837   0.01129  -0.0540  0.4292  1.0000  -1.8597   0.0000   0.0000   0.0000   0.2908
   7.300   1.0781   0.01845   0.01143  -0.0538  0.4269  1.0000  -1.8907   0.0000   0.0000   0.0000   0.2900
   7.400   1.0870   0.01854   0.01157  -0.0535  0.4241  1.0000  -1.9218   0.0000   0.0000   0.0000   0.2893
   7.500   1.0960   0.01863   0.01198  -0.0532  0.4206  1.0000  -1.9593   0.0000   0.0000   0.0000   0.2885
   7.600   1.1051   0.01872   0.01211  -0.0530  0.4168  1.0000  -2.0117   0.0000   0.0000   0.0000   0.2877
   7.700   1.1144   0.01880   0.01222  -0.0527  0.4128  1.0000  -2.0653   0.0000   0.0000   0.0000   0.2869
   7.800   1.1238   0.01887   0.01232  -0.0525  0.4087  1.0000  -2.1199   0.0000   0.0000   0.0000   0.2862
   7.900   1.1332   0.01894   0.01240  -0.0523  0.4048  1.0000  -2.1753   0.0000   0.0000   0.0000   0.2855
   8.000   1.1429   0.01903   0.01249  -0.0520  0.4010  1.0000  -2.2370   0.0000   0.0000   0.0000   0.2848
   8.100   1.1528   0.01915   0.01259  -0.0519  0.3972  1.0000  -2.3190   0.0000   0.0000   0.0000   0.2841
   8.200   1.1627   0.01932   0.01273  -0.0517  0.3932  1.0000  -2.4019   0.0000   0.0000   0.0000   0.2834
   8.300   1.1730   0.01961   0.01297  -0.0517  0.3881  1.0000  -2.4866   0.0000   0.0000   0.0000   0.2829
   8.400   1.1829   0.02007   0.01342  -0.0517  0.3826  1.0000  -2.5695   0.0000   0.0000   0.0000   0.2824
   8.500   1.1908   0.02013   0.01356  -0.0513  0.3803  1.0000  -2.6472   0.0000   0.0000   0.0000   0.2816
   8.600   1.1987   0.02020   0.01370  -0.0509  0.3771  1.0000  -2.7255   0.0000   0.0000   0.0000   0.2808
   8.700   1.2067   0.02027   0.01383  -0.0504  0.3733  1.0000  -2.8050   0.0000   0.0000   0.0000   0.2800
   8.800   1.2148   0.02034   0.01394  -0.0500  0.3689  1.0000  -2.8864   0.0000   0.0000   0.0000   0.2793
   8.900   1.2231   0.02040   0.01403  -0.0496  0.3643  1.0000  -2.9695   0.0000   0.0000   0.0000   0.2785
   9.000   1.2314   0.02047   0.01412  -0.0493  0.3598  1.0000  -3.0536   0.0000   0.0000   0.0000   0.2778
   9.100   1.2399   0.02054   0.01417  -0.0489  0.3552  1.0000  -3.1398   0.0000   0.0000   0.0000   0.2771
   9.200   1.2485   0.02064   0.01423  -0.0485  0.3502  1.0000  -3.2278   0.0000   0.0000   0.0000   0.2763
   9.300   1.2575   0.02084   0.01436  -0.0483  0.3446  1.0000  -3.3173   0.0000   0.0000   0.0000   0.2757
   9.400   1.2676   0.02130   0.01475  -0.0483  0.3373  1.0000  -3.4105   0.0000   0.0000   0.0000   0.2753
   9.500   1.2739   0.02135   0.01490  -0.0477  0.3347  1.0000  -3.4894   0.0000   0.0000   0.0000   0.2744
   9.600   1.2803   0.02144   0.01507  -0.0470  0.3312  1.0000  -3.5687   0.0000   0.0000   0.0000   0.2736
   9.700   1.2867   0.02154   0.01523  -0.0464  0.3269  1.0000  -3.6494   0.0000   0.0000   0.0000   0.2728
   9.800   1.2933   0.02165   0.01539  -0.0458  0.3223  1.0000  -3.7315   0.0000   0.0000   0.0000   0.2720
   9.900   1.2999   0.02177   0.01554  -0.0452  0.3176  1.0000  -3.8142   0.0000   0.0000   0.0000   0.2712
  10.000   1.3065   0.02189   0.01566  -0.0446  0.3125  1.0000  -3.8980   0.0000   0.0000   0.0000   0.2704
  10.100   1.3128   0.02205   0.01578  -0.0440  0.3074  1.0000  -3.9814   0.0000   0.0000   0.0000   0.2696
  10.200   1.3191   0.02227   0.01594  -0.0434  0.3017  1.0000  -4.0648   0.0000   0.0000   0.0000   0.2688
  10.300   1.3275   0.02268   0.01626  -0.0432  0.2941  1.0000  -4.1574   0.0000   0.0000   0.0000   0.2682
  10.400   1.3323   0.02284   0.01650  -0.0424  0.2912  1.0000  -4.2336   0.0000   0.0000   0.0000   0.2674
  10.500   1.3367   0.02300   0.01675  -0.0415  0.2877  1.0000  -4.3083   0.0000   0.0000   0.0000   0.2665
  10.600   1.3408   0.02317   0.01700  -0.0407  0.2833  1.0000  -4.3823   0.0000   0.0000   0.0000   0.2656
  10.700   1.3439   0.02334   0.01721  -0.0396  0.2784  1.0000  -4.4523   0.0000   0.0000   0.0000   0.2646
  10.800   1.3466   0.02354   0.01742  -0.0385  0.2729  1.0000  -4.5208   0.0000   0.0000   0.0000   0.2635
  10.900   1.3473   0.02376   0.01770  -0.0372  0.2660  1.0000  -4.5784   0.0000   0.0000   0.0000   0.2624
  11.000   1.3477   0.02410   0.01796  -0.0360  0.2594  1.0000  -4.6359   0.0000   0.0000   0.0000   0.2612
  11.100   1.3495   0.02454   0.01830  -0.0350  0.2515  1.0000  -4.6995   0.0000   0.0000   0.0000   0.2603
  11.200   1.3511   0.02481   0.01867  -0.0340  0.2471  1.0000  -4.7618   0.0000   0.0000   0.0000   0.2594
  11.300   1.3529   0.02513   0.01906  -0.0331  0.2409  1.0000  -4.8260   0.0000   0.0000   0.0000   0.2585
  11.400   1.3539   0.02553   0.01946  -0.0322  0.2339  1.0000  -4.8856   0.0000   0.0000   0.0000   0.2576
  11.500   1.3537   0.02601   0.01991  -0.0312  0.2268  1.0000  -4.9396   0.0000   0.0000   0.0000   0.2567
  11.600   1.3521   0.02661   0.02043  -0.0301  0.2200  1.0000  -4.9859   0.0000   0.0000   0.0000   0.2557
  11.700   1.3497   0.02731   0.02106  -0.0291  0.2129  1.0000  -5.0271   0.0000   0.0000   0.0000   0.2548
  11.800   1.3524   0.02776   0.02158  -0.0285  0.2069  1.0000  -5.0987   0.0000   0.0000   0.0000   0.2542
  11.900   1.3537   0.02831   0.02216  -0.0279  0.1995  1.0000  -5.1630   0.0000   0.0000   0.0000   0.2535
  12.000   1.3530   0.02899   0.02283  -0.0272  0.1921  1.0000  -5.2159   0.0000   0.0000   0.0000   0.2528
  12.100   1.3507   0.02981   0.02359  -0.0264  0.1854  1.0000  -5.2596   0.0000   0.0000   0.0000   0.2520
  12.200   1.3476   0.03071   0.02444  -0.0256  0.1789  1.0000  -5.2981   0.0000   0.0000   0.0000   0.2513
  12.300   1.3477   0.03146   0.02520  -0.0251  0.1729  1.0000  -5.3544   0.0000   0.0000   0.0000   0.2507
  12.400   1.3488   0.03217   0.02594  -0.0246  0.1662  1.0000  -5.4159   0.0000   0.0000   0.0000   0.2501
  12.500   1.3478   0.03301   0.02678  -0.0241  0.1592  1.0000  -5.4661   0.0000   0.0000   0.0000   0.2496
  12.600   1.3453   0.03399   0.02773  -0.0236  0.1528  1.0000  -5.5063   0.0000   0.0000   0.0000   0.2490
  12.700   1.3411   0.03513   0.02882  -0.0230  0.1470  1.0000  -5.5360   0.0000   0.0000   0.0000   0.2484
  12.800   1.3374   0.03627   0.02995  -0.0226  0.1413  1.0000  -5.5680   0.0000   0.0000   0.0000   0.2479
  12.900   1.3380   0.03712   0.03084  -0.0223  0.1354  1.0000  -5.6250   0.0000   0.0000   0.0000   0.2475
  13.000   1.3364   0.03816   0.03188  -0.0219  0.1289  1.0000  -5.6693   0.0000   0.0000   0.0000   0.2470
  13.100   1.3328   0.03940   0.03310  -0.0216  0.1231  1.0000  -5.7007   0.0000   0.0000   0.0000   0.2466
  13.200   1.3276   0.04083   0.03450  -0.0214  0.1179  1.0000  -5.7215   0.0000   0.0000   0.0000   0.2463
  13.300   1.3222   0.04230   0.03594  -0.0212  0.1127  1.0000  -5.7398   0.0000   0.0000   0.0000   0.2460
  13.400   1.3213   0.04338   0.03705  -0.0210  0.1074  1.0000  -5.7855   0.0000   0.0000   0.0000   0.2457
  13.500   1.3192   0.04459   0.03828  -0.0208  0.1020  1.0000  -5.8233   0.0000   0.0000   0.0000   0.2454
  13.600   1.3149   0.04606   0.03974  -0.0208  0.0972  1.0000  -5.8470   0.0000   0.0000   0.0000   0.2452
  13.700   1.3097   0.04763   0.04129  -0.0208  0.0928  1.0000  -5.8643   0.0000   0.0000   0.0000   0.2450
  13.800   1.3039   0.04929   0.04293  -0.0208  0.0884  1.0000  -5.8767   0.0000   0.0000   0.0000   0.2448
  13.900   1.2979   0.05101   0.04463  -0.0208  0.0840  1.0000  -5.8854   0.0000   0.0000   0.0000   0.2447
  14.000   1.2962   0.05231   0.04599  -0.0209  0.0804  1.0000  -5.9217   0.0000   0.0000   0.0000   0.2446
  14.100   1.2927   0.05383   0.04753  -0.0210  0.0765  1.0000  -5.9458   0.0000   0.0000   0.0000   0.2445
  14.200   1.2881   0.05546   0.04917  -0.0212  0.0727  1.0000  -5.9624   0.0000   0.0000   0.0000   0.2445
  14.300   1.2824   0.05720   0.05089  -0.0214  0.0693  1.0000  -5.9713   0.0000   0.0000   0.0000   0.2445
  14.400   1.2757   0.05911   0.05278  -0.0217  0.0661  1.0000  -5.9713   0.0000   0.0000   0.0000   0.2446
  14.500   1.2677   0.06126   0.05494  -0.0221  0.0631  1.0000  -5.9604   0.0000   0.0000   0.0000   0.2448
  14.600   1.2611   0.06327   0.05695  -0.0224  0.0598  1.0000  -5.9547   0.0000   0.0000   0.0000   0.2449
  14.700   1.2597   0.06470   0.05845  -0.0226  0.0565  1.0000  -5.9840   0.0000   0.0000   0.0000   0.2449
  14.800   1.2558   0.06648   0.06027  -0.0230  0.0531  1.0000  -5.9947   0.0000   0.0000   0.0000   0.2451
  14.900   1.2500   0.06853   0.06232  -0.0235  0.0501  1.0000  -5.9929   0.0000   0.0000   0.0000   0.2453
  15.000   1.2428   0.07086   0.06465  -0.0242  0.0479  1.0000  -5.9806   0.0000   0.0000   0.0000   0.2458
  15.100   1.2350   0.07328   0.06705  -0.0249  0.0455  1.0000  -5.9622   0.0000   0.0000   0.0000   0.2462
  15.200   1.2260   0.07585   0.06961  -0.0255  0.0427  1.0000  -5.9267   0.0000   0.0000   0.0000   0.2467
  15.300   1.2171   0.07833   0.07209  -0.0260  0.0398  1.0000  -5.8808   0.0000   0.0000   0.0000   0.2470
  15.400   1.2157   0.07994   0.07378  -0.0265  0.0380  1.0000  -5.8981   0.0000   0.0000   0.0000   0.2472
  15.500   1.2124   0.08187   0.07576  -0.0271  0.0361  1.0000  -5.8996   0.0000   0.0000   0.0000   0.2476
  15.600   1.2084   0.08389   0.07783  -0.0278  0.0344  1.0000  -5.8969   0.0000   0.0000   0.0000   0.2480
  15.700   1.2047   0.08586   0.07984  -0.0284  0.0329  1.0000  -5.8965   0.0000   0.0000   0.0000   0.2484
  15.800   1.2010   0.08781   0.08181  -0.0291  0.0315  1.0000  -5.8973   0.0000   0.0000   0.0000   0.2488
  15.900   1.1971   0.08976   0.08378  -0.0298  0.0303  1.0000  -5.8968   0.0000   0.0000   0.0000   0.2493
  16.000   1.1932   0.09173   0.08576  -0.0305  0.0292  1.0000  -5.8941   0.0000   0.0000   0.0000   0.2497
  16.100   1.1887   0.09377   0.08781  -0.0312  0.0281  1.0000  -5.8838   0.0000   0.0000   0.0000   0.2502
  16.200   1.1839   0.09581   0.08987  -0.0318  0.0270  1.0000  -5.8656   0.0000   0.0000   0.0000   0.2506
  16.300   1.1799   0.09747   0.09155  -0.0320  0.0255  1.0000  -5.8387   0.0000   0.0000   0.0000   0.2507
  16.400   1.1776   0.09835   0.09245  -0.0310  0.0238  1.0000  -5.7873   0.0000   0.0000   0.0000   0.2496
  16.500   1.1779   0.09969   0.09385  -0.0314  0.0236  1.0000  -5.8133   0.0000   0.0000   0.0000   0.2498
  16.600   1.1777   0.10109   0.09531  -0.0319  0.0234  1.0000  -5.8349   0.0000   0.0000   0.0000   0.2500
  16.700   1.1775   0.10249   0.09677  -0.0324  0.0231  1.0000  -5.8544   0.0000   0.0000   0.0000   0.2502
  16.800   1.1772   0.10388   0.09822  -0.0329  0.0229  1.0000  -5.8724   0.0000   0.0000   0.0000   0.2504
  16.900   1.1770   0.10524   0.09965  -0.0333  0.0227  1.0000  -5.8897   0.0000   0.0000   0.0000   0.2506
  17.000   1.1768   0.10659   0.10106  -0.0338  0.0225  1.0000  -5.9061   0.0000   0.0000   0.0000   0.2508
  17.100   1.1766   0.10793   0.10247  -0.0342  0.0223  1.0000  -5.9212   0.0000   0.0000   0.0000   0.2510
  17.200   1.1761   0.10928   0.10388  -0.0347  0.0221  1.0000  -5.9336   0.0000   0.0000   0.0000   0.2512
  17.300   1.1753   0.11063   0.10530  -0.0352  0.0219  1.0000  -5.9429   0.0000   0.0000   0.0000   0.2514
  17.400   1.1742   0.11203   0.10677  -0.0358  0.0218  1.0000  -5.9496   0.0000   0.0000   0.0000   0.2517
  17.500   1.1727   0.11353   0.10835  -0.0365  0.0216  1.0000  -5.9524   0.0000   0.0000   0.0000   0.2521
  17.600   1.1710   0.11512   0.11001  -0.0372  0.0215  1.0000  -5.9524   0.0000   0.0000   0.0000   0.2526
  17.700   1.1689   0.11680   0.11176  -0.0380  0.0214  1.0000  -5.9491   0.0000   0.0000   0.0000   0.2531
  17.800   1.1663   0.11860   0.11364  -0.0389  0.0214  1.0000  -5.9418   0.0000   0.0000   0.0000   0.2538
  17.900   1.1628   0.12066   0.11578  -0.0400  0.0213  1.0000  -5.9264   0.0000   0.0000   0.0000   0.2546
  18.000   1.1590   0.12283   0.11802  -0.0411  0.0213  1.0000  -5.9075   0.0000   0.0000   0.0000   0.2556
  18.100   1.1552   0.12503   0.12030  -0.0423  0.0212  1.0000  -5.8874   0.0000   0.0000   0.0000   0.2565
  18.200   1.1512   0.12731   0.12266  -0.0436  0.0212  1.0000  -5.8646   0.0000   0.0000   0.0000   0.2575
  18.300   1.1467   0.12974   0.12517  -0.0449  0.0212  1.0000  -5.8371   0.0000   0.0000   0.0000   0.2587
  18.400   1.1420   0.13232   0.12783  -0.0464  0.0212  1.0000  -5.8051   0.0000   0.0000   0.0000   0.2599
  18.500   1.1366   0.13509   0.13068  -0.0479  0.0212  1.0000  -5.7667   0.0000   0.0000   0.0000   0.2613
  18.600   1.1298   0.13826   0.13394  -0.0498  0.0212  1.0000  -5.7154   0.0000   0.0000   0.0000   0.2631
  18.700   1.1231   0.14147   0.13723  -0.0517  0.0213  1.0000  -5.6623   0.0000   0.0000   0.0000   0.2649
  18.800   1.1164   0.14475   0.14059  -0.0536  0.0213  1.0000  -5.6065   0.0000   0.0000   0.0000   0.2667
  18.900   1.1093   0.14823   0.14414  -0.0556  0.0214  1.0000  -5.5444   0.0000   0.0000   0.0000   0.2687
  19.000   1.1011   0.15212   0.14811  -0.0578  0.0215  1.0000  -5.4684   0.0000   0.0000   0.0000   0.2710
  19.100   1.0915   0.15645   0.15252  -0.0603  0.0216  1.0000  -5.3770   0.0000   0.0000   0.0000   0.2737
  19.200   1.0822   0.16085   0.15699  -0.0628  0.0217  1.0000  -5.2817   0.0000   0.0000   0.0000   0.2764
  19.300   1.0720   0.16565   0.16186  -0.0654  0.0218  1.0000  -5.1717   0.0000   0.0000   0.0000   0.2793
  19.400   1.0588   0.17154   0.16782  -0.0686  0.0220  1.0000  -5.0224   0.0000   0.0000   0.0000   0.2832
  19.500   1.0453   0.17775   0.17409  -0.0718  0.0222  1.0000  -4.8570   0.0000   0.0000   0.0000   0.2872
  19.600   1.0275   0.18572   0.18212  -0.0757  0.0225  1.0000  -4.6222   0.0000   0.0000   0.0000   0.2924
  19.700   1.0085   0.19460   0.19102  -0.0797  0.0228  1.0000  -4.3430   0.0000   0.0000   0.0000   0.2980
  19.800   0.9877   0.20486   0.20129  -0.0838  0.0232  1.0000  -3.9995   0.0000   0.0000   0.0000   0.3042
  19.900   0.9714   0.21399   0.21040  -0.0869  0.0236  1.0000  -3.6940   0.0000   0.0000   0.0000   0.3093
  20.100   0.9636   0.22288   0.21934  -0.0898  0.0240  1.0000  -3.4881   0.0000   0.0000   0.0000   0.3130
  20.200   0.9634   0.22592   0.22238  -0.0908  0.0242  1.0000  -3.4480   0.0000   0.0000   0.0000   0.3140
  20.300   0.9635   0.22891   0.22537  -0.0918  0.0244  1.0000  -3.4092   0.0000   0.0000   0.0000   0.3149
  20.400   0.9635   0.23202   0.22849  -0.0928  0.0247  1.0000  -3.3642   0.0000   0.0000   0.0000   0.3159
  20.500   0.9623   0.23605   0.23252  -0.0941  0.0253  1.0000  -3.2772   0.0000   0.0000   0.0000   0.3173
  20.600   0.9310   0.25752   0.25390  -0.0998  0.0329  1.0000  -2.4447   0.0000   0.0000   0.0000   0.3282
  20.700   0.9300   0.26099   0.25737  -0.1007  0.0345  1.0000  -2.3900   0.0000   0.0000   0.0000   0.3292
  20.800   0.9302   0.26385   0.26023  -0.1012  0.0361  1.0000  -2.3634   0.0000   0.0000   0.0000   0.3296
  20.900   0.9197   0.27324   0.26963  -0.1040  0.0476  1.0000  -2.0566   0.0000   0.0000   0.0000   0.3344
  21.000   0.9193   0.27599   0.27239  -0.1049  0.0477  1.0000  -2.0321   0.0000   0.0000   0.0000   0.3353
  21.100   0.9193   0.27853   0.27494  -0.1056  0.0476  1.0000  -2.0149   0.0000   0.0000   0.0000   0.3360
  21.200   0.9195   0.28096   0.27737  -0.1063  0.0474  1.0000  -2.0020   0.0000   0.0000   0.0000   0.3366
  21.300   0.9197   0.28329   0.27971  -0.1070  0.0471  1.0000  -1.9921   0.0000   0.0000   0.0000   0.3372
  21.400   0.9200   0.28555   0.28198  -0.1076  0.0468  1.0000  -1.9846   0.0000   0.0000   0.0000   0.3377
  21.500   0.9204   0.28775   0.28419  -0.1082  0.0464  1.0000  -1.9791   0.0000   0.0000   0.0000   0.3381
  21.600   0.9207   0.28989   0.28634  -0.1088  0.0461  1.0000  -1.9753   0.0000   0.0000   0.0000   0.3385
  21.700   0.9211   0.29197   0.28843  -0.1093  0.0457  1.0000  -1.9730   0.0000   0.0000   0.0000   0.3389
  21.800   0.9214   0.29401   0.29047  -0.1098  0.0453  1.0000  -1.9722   0.0000   0.0000   0.0000   0.3393
  21.900   0.9218   0.29599   0.29246  -0.1102  0.0449  1.0000  -1.9727   0.0000   0.0000   0.0000   0.3395
  22.000   0.9221   0.29791   0.29440  -0.1106  0.0446  1.0000  -1.9745   0.0000   0.0000   0.0000   0.3398
  22.100   0.9224   0.29979   0.29629  -0.1110  0.0442  1.0000  -1.9775   0.0000   0.0000   0.0000   0.3400
  22.200   0.9226   0.30160   0.29812  -0.1113  0.0439  1.0000  -1.9819   0.0000   0.0000   0.0000   0.3402
  22.300   0.9228   0.30336   0.29989  -0.1115  0.0436  1.0000  -1.9877   0.0000   0.0000   0.0000   0.3403
  22.400   0.9229   0.30506   0.30161  -0.1117  0.0432  1.0000  -1.9947   0.0000   0.0000   0.0000   0.3403
  22.500   0.9230   0.30671   0.30328  -0.1119  0.0429  1.0000  -2.0031   0.0000   0.0000   0.0000   0.3403
  22.600   0.9230   0.30831   0.30490  -0.1119  0.0426  1.0000  -2.0129   0.0000   0.0000   0.0000   0.3402
  22.700   0.9230   0.30987   0.30647  -0.1119  0.0423  1.0000  -2.0242   0.0000   0.0000   0.0000   0.3400
  22.800   0.9227   0.31141   0.30804  -0.1118  0.0420  1.0000  -2.0351   0.0000   0.0000   0.0000   0.3398
  22.900   0.9202   0.31277   0.30942  -0.1115  0.0417  1.0000  -2.0376   0.0000   0.0000   0.0000   0.3398
  23.000   0.8835   0.30657   0.30333  -0.1082  0.0416  1.0000  -1.9220   0.0000   0.0000   0.0000   0.3421
  23.100   0.8750   0.30644   0.30324  -0.1075  0.0412  1.0000  -1.8978   0.0000   0.0000   0.0000   0.3425
  23.200   0.8512   0.30900   0.30580  -0.1065  0.0401  1.0000  -1.7412   0.0000   0.0000   0.0000   0.3455
  23.300   0.8471   0.30938   0.30620  -0.1067  0.0401  1.0000  -1.7158   0.0000   0.0000   0.0000   0.3464
  23.400   0.8433   0.30982   0.30665  -0.1069  0.0401  1.0000  -1.6918   0.0000   0.0000   0.0000   0.3472
  23.500   0.8399   0.31029   0.30714  -0.1071  0.0401  1.0000  -1.6689   0.0000   0.0000   0.0000   0.3480
  23.600   0.8368   0.31079   0.30766  -0.1074  0.0400  1.0000  -1.6468   0.0000   0.0000   0.0000   0.3488
  23.700   0.8340   0.31131   0.30820  -0.1077  0.0400  1.0000  -1.6256   0.0000   0.0000   0.0000   0.3496
  23.800   0.8313   0.31184   0.30874  -0.1080  0.0400  1.0000  -1.6050   0.0000   0.0000   0.0000   0.3503
  23.900   0.8288   0.31238   0.30930  -0.1083  0.0400  1.0000  -1.5850   0.0000   0.0000   0.0000   0.3511
  24.000   0.8264   0.31292   0.30985  -0.1087  0.0399  1.0000  -1.5654   0.0000   0.0000   0.0000   0.3519
  24.100   0.8242   0.31344   0.31039  -0.1090  0.0399  1.0000  -1.5463   0.0000   0.0000   0.0000   0.3526
  24.200   0.8221   0.31397   0.31092  -0.1094  0.0399  1.0000  -1.5275   0.0000   0.0000   0.0000   0.3534
  24.300   0.8201   0.31448   0.31145  -0.1098  0.0398  1.0000  -1.5092   0.0000   0.0000   0.0000   0.3541
  24.400   0.8182   0.31500   0.31198  -0.1102  0.0398  1.0000  -1.4912   0.0000   0.0000   0.0000   0.3549
  24.500   0.8164   0.31550   0.31249  -0.1106  0.0398  1.0000  -1.4735   0.0000   0.0000   0.0000   0.3556
  24.600   0.8146   0.31596   0.31296  -0.1110  0.0397  1.0000  -1.4558   0.0000   0.0000   0.0000   0.3564
  24.700   0.8129   0.31641   0.31342  -0.1115  0.0396  1.0000  -1.4384   0.0000   0.0000   0.0000   0.3572
  24.800   0.8113   0.31684   0.31387  -0.1119  0.0396  1.0000  -1.4211   0.0000   0.0000   0.0000   0.3579
  24.900   0.8093   0.31717   0.31421  -0.1124  0.0395  1.0000  -1.4014   0.0000   0.0000   0.0000   0.3588
  25.000   0.8068   0.31739   0.31444  -0.1130  0.0394  1.0000  -1.3775   0.0000   0.0000   0.0000   0.3599
  25.100   0.8043   0.31760   0.31466  -0.1137  0.0392  1.0000  -1.3523   0.0000   0.0000   0.0000   0.3611
  25.200   0.8020   0.31783   0.31490  -0.1144  0.0390  1.0000  -1.3261   0.0000   0.0000   0.0000   0.3624
  25.300   0.7998   0.31814   0.31522  -0.1152  0.0387  1.0000  -1.2981   0.0000   0.0000   0.0000   0.3637
  25.400   0.7981   0.31865   0.31573  -0.1162  0.0382  1.0000  -1.2678   0.0000   0.0000   0.0000   0.3651
  25.500   0.7969   0.31944   0.31652  -0.1171  0.0375  1.0000  -1.2379   0.0000   0.0000   0.0000   0.3665
  25.600   0.7961   0.32034   0.31743  -0.1179  0.0366  1.0000  -1.2141   0.0000   0.0000   0.0000   0.3675
  25.700   0.7954   0.32118   0.31829  -0.1185  0.0358  1.0000  -1.1964   0.0000   0.0000   0.0000   0.3683
  25.800   0.7948   0.32197   0.31908  -0.1190  0.0349  1.0000  -1.1827   0.0000   0.0000   0.0000   0.3690
  25.900   0.7943   0.32271   0.31983  -0.1195  0.0341  1.0000  -1.1716   0.0000   0.0000   0.0000   0.3696
  26.000   0.7938   0.32340   0.32054  -0.1199  0.0334  1.0000  -1.1627   0.0000   0.0000   0.0000   0.3701
  26.100   0.7934   0.32407   0.32122  -0.1204  0.0326  1.0000  -1.1556   0.0000   0.0000   0.0000   0.3706
  26.200   0.7930   0.32471   0.32186  -0.1208  0.0318  1.0000  -1.1503   0.0000   0.0000   0.0000   0.3711
  26.300   0.7928   0.32531   0.32248  -0.1212  0.0311  1.0000  -1.1468   0.0000   0.0000   0.0000   0.3715
  26.400   0.7926   0.32589   0.32307  -0.1216  0.0304  1.0000  -1.1450   0.0000   0.0000   0.0000   0.3719
  26.500   0.7925   0.32643   0.32362  -0.1220  0.0297  1.0000  -1.1451   0.0000   0.0000   0.0000   0.3723
  26.600   0.7924   0.32695   0.32415  -0.1223  0.0291  1.0000  -1.1470   0.0000   0.0000   0.0000   0.3726
  26.700   0.7924   0.32743   0.32464  -0.1227  0.0285  1.0000  -1.1506   0.0000   0.0000   0.0000   0.3728
  26.800   0.7925   0.32789   0.32511  -0.1230  0.0279  1.0000  -1.1560   0.0000   0.0000   0.0000   0.3731
  26.900   0.7927   0.32831   0.32555  -0.1233  0.0275  1.0000  -1.1628   0.0000   0.0000   0.0000   0.3732
  27.000   0.7929   0.32872   0.32597  -0.1236  0.0270  1.0000  -1.1708   0.0000   0.0000   0.0000   0.3734
  27.100   0.7931   0.32912   0.32638  -0.1239  0.0266  1.0000  -1.1794   0.0000   0.0000   0.0000   0.3735
  27.200   0.7934   0.32953   0.32680  -0.1241  0.0263  1.0000  -1.1881   0.0000   0.0000   0.0000   0.3736
  27.300   0.7936   0.32997   0.32725  -0.1244  0.0260  1.0000  -1.1961   0.0000   0.0000   0.0000   0.3737
  27.400   0.7940   0.33040   0.32769  -0.1246  0.0258  1.0000  -1.2051   0.0000   0.0000   0.0000   0.3737
  27.500   0.7944   0.33084   0.32815  -0.1248  0.0255  1.0000  -1.2157   0.0000   0.0000   0.0000   0.3737
  27.600   0.7949   0.33132   0.32864  -0.1250  0.0253  1.0000  -1.2281   0.0000   0.0000   0.0000   0.3735
  27.700   0.7956   0.33188   0.32921  -0.1250  0.0250  1.0000  -1.2424   0.0000   0.0000   0.0000   0.3733
  27.800   0.7966   0.33262   0.32997  -0.1250  0.0248  1.0000  -1.2587   0.0000   0.0000   0.0000   0.3729
  27.900   0.7981   0.33395   0.33131  -0.1249  0.0245  1.0000  -1.2774   0.0000   0.0000   0.0000   0.3722
  28.000   0.7946   0.33847   0.33580  -0.1247  0.0238  1.0000  -1.2051   0.0000   0.0000   0.0000   0.3729
  28.100   0.7942   0.33918   0.33651  -0.1252  0.0238  1.0000  -1.1939   0.0000   0.0000   0.0000   0.3734
  28.200   0.7938   0.33988   0.33723  -0.1257  0.0238  1.0000  -1.1829   0.0000   0.0000   0.0000   0.3740
  28.300   0.7934   0.34057   0.33799  -0.1261  0.0238  1.0000  -1.1705   0.0000   0.0000   0.0000   0.3745
  28.400   0.7930   0.34128   0.33870  -0.1266  0.0237  1.0000  -1.1596   0.0000   0.0000   0.0000   0.3750
  28.500   0.7927   0.34197   0.33941  -0.1271  0.0237  1.0000  -1.1490   0.0000   0.0000   0.0000   0.3755
  28.600   0.7923   0.34266   0.34011  -0.1275  0.0237  1.0000  -1.1386   0.0000   0.0000   0.0000   0.3760
  28.700   0.7920   0.34335   0.34080  -0.1280  0.0237  1.0000  -1.1284   0.0000   0.0000   0.0000   0.3765
  28.800   0.7917   0.34403   0.34149  -0.1285  0.0237  1.0000  -1.1184   0.0000   0.0000   0.0000   0.3771
  28.900   0.7914   0.34469   0.34216  -0.1290  0.0237  1.0000  -1.1083   0.0000   0.0000   0.0000   0.3776
  29.000   0.7911   0.34535   0.34282  -0.1294  0.0237  1.0000  -1.0983   0.0000   0.0000   0.0000   0.3781
  29.100   0.7908   0.34600   0.34348  -0.1299  0.0236  1.0000  -1.0886   0.0000   0.0000   0.0000   0.3786
  29.200   0.7905   0.34665   0.34414  -0.1304  0.0236  1.0000  -1.0790   0.0000   0.0000   0.0000   0.3791
  29.300   0.7902   0.34729   0.34479  -0.1309  0.0236  1.0000  -1.0695   0.0000   0.0000   0.0000   0.3796
  29.400   0.7899   0.34793   0.34544  -0.1314  0.0236  1.0000  -1.0602   0.0000   0.0000   0.0000   0.3801
  29.500   0.7896   0.34857   0.34609  -0.1319  0.0236  1.0000  -1.0510   0.0000   0.0000   0.0000   0.3806
  29.600   0.7893   0.34918   0.34671  -0.1324  0.0235  1.0000  -1.0415   0.0000   0.0000   0.0000   0.3811
  29.700   0.7889   0.34979   0.34732  -0.1329  0.0235  1.0000  -1.0321   0.0000   0.0000   0.0000   0.3817
  29.800   0.7886   0.35039   0.34793  -0.1334  0.0235  1.0000  -1.0228   0.0000   0.0000   0.0000   0.3822
  29.900   0.7881   0.35094   0.34849  -0.1339  0.0235  1.0000  -1.0116   0.0000   0.0000   0.0000   0.3828
  30.000   0.7876   0.35150   0.34905  -0.1344  0.0234  1.0000  -1.0006   0.0000   0.0000   0.0000   0.3834


