xflr5 v6.61

 Calculated polar for: S2027

 1 1 Reynolds number fixed          Mach number fixed         

 xtrf =   1.000 (top)        1.000 (bottom)
 Mach =   0.000     Re =     0.130 e 6     Ncrit =   9.000

  alpha     CL        CD       CDp       Cm    Top Xtr Bot Xtr   Cpmin    Chinge    XCp    
 ------- -------- --------- --------- -------- ------- ------- -------- --------- ---------
 -10.000  -0.3766   0.09954   0.09554  -0.0424  1.0000  0.0995  -1.5955   0.0000   0.0000   0.0000   0.1228
  -9.900  -0.3688   0.09830   0.09430  -0.0416  1.0000  0.1005  -1.5583   0.0000   0.0000   0.0000   0.1228
  -9.800  -0.3627   0.09712   0.09303  -0.0410  1.0000  0.1015  -1.5328   0.0000   0.0000   0.0000   0.1222
  -9.700  -0.3574   0.09603   0.09194  -0.0407  1.0000  0.1025  -1.5086   0.0000   0.0000   0.0000   0.1215
  -9.600  -0.3529   0.09493   0.09086  -0.0406  1.0000  0.1035  -1.4892   0.0000   0.0000   0.0000   0.1205
  -9.500  -0.3485   0.09385   0.08979  -0.0405  1.0000  0.1046  -1.4714   0.0000   0.0000   0.0000   0.1193
  -9.400  -0.3450   0.09273   0.08869  -0.0405  1.0000  0.1057  -1.4583   0.0000   0.0000   0.0000   0.1180
  -9.300  -0.3423   0.09158   0.08756  -0.0407  1.0000  0.1070  -1.4492   0.0000   0.0000   0.0000   0.1166
  -9.200  -0.3403   0.09040   0.08639  -0.0410  1.0000  0.1083  -1.4439   0.0000   0.0000   0.0000   0.1151
  -9.100  -0.3390   0.08918   0.08520  -0.0414  1.0000  0.1096  -1.4421   0.0000   0.0000   0.0000   0.1135
  -9.000  -0.3386   0.08792   0.08397  -0.0419  1.0000  0.1110  -1.4437   0.0000   0.0000   0.0000   0.1121
  -8.900  -0.3389   0.08664   0.08272  -0.0425  1.0000  0.1125  -1.4487   0.0000   0.0000   0.0000   0.1107
  -8.800  -0.3402   0.08534   0.08145  -0.0431  1.0000  0.1139  -1.4572   0.0000   0.0000   0.0000   0.1095
  -8.700  -0.3427   0.08405   0.08020  -0.0438  1.0000  0.1155  -1.4694   0.0000   0.0000   0.0000   0.1088
  -8.600  -0.3471   0.08285   0.07904  -0.0443  1.0000  0.1169  -1.4858   0.0000   0.0000   0.0000   0.1093
  -8.500  -0.3548   0.08192   0.07817  -0.0442  1.0000  0.1181  -1.5057   0.0000   0.0000   0.0000   0.1127
  -8.400  -0.3662   0.08143   0.07774  -0.0432  1.0000  0.1190  -1.5274   0.0000   0.0000   0.0000   0.1199
  -8.300  -0.3803   0.08132   0.07769  -0.0413  1.0000  0.1193  -1.5488   0.0000   0.0000   0.0000   0.1296
  -8.200  -0.3953   0.08131   0.07774  -0.0393  1.0000  0.1195  -1.5700   0.0000   0.0000   0.0000   0.1394
  -8.100  -0.4103   0.08124   0.07772  -0.0374  1.0000  0.1197  -1.5920   0.0000   0.0000   0.0000   0.1481
  -8.000  -0.4236   0.07908   0.07539  -0.0543  0.9863  0.1276  -1.7258   0.0000   0.0000   0.0000   0.1117
  -7.900  -0.4224   0.07787   0.07407  -0.0577  0.9798  0.1281  -1.7445   0.0000   0.0000   0.0000   0.1036
  -7.800  -0.4475   0.06846   0.06477  -0.0625  0.9751  0.1318  -1.8634   0.0000   0.0000   0.0000   0.1008
  -7.700  -0.4361   0.06581   0.06207  -0.0633  0.9739  0.1341  -1.8336   0.0000   0.0000   0.0000   0.0953
  -7.600  -0.4202   0.06433   0.06064  -0.0637  0.9729  0.1358  -1.7861   0.0000   0.0000   0.0000   0.0886
  -7.500  -0.4065   0.06279   0.05910  -0.0649  0.9714  0.1375  -1.7517   0.0000   0.0000   0.0000   0.0805
  -7.200  -0.4219   0.04436   0.03924  -0.0750  0.9522  0.0631  -2.3931   0.0000   0.0000   0.0000   0.0618
  -7.100  -0.4148   0.04132   0.03599  -0.0764  0.9498  0.0598  -2.4303   0.0000   0.0000   0.0000   0.0552
  -7.000  -0.4060   0.03853   0.03290  -0.0776  0.9476  0.0561  -2.4775   0.0000   0.0000   0.0000   0.0479
  -6.900  -0.4029   0.03636   0.03040  -0.0772  0.9429  0.0528  -2.5399   0.0000   0.0000   0.0000   0.0477
  -6.800  -0.4000   0.03449   0.02818  -0.0761  0.9372  0.0497  -2.6087   0.0000   0.0000   0.0000   0.0490
  -6.700  -0.3896   0.03339   0.02677  -0.0759  0.9333  0.0473  -2.6283   0.0000   0.0000   0.0000   0.0441
  -6.600  -0.3757   0.03290   0.02602  -0.0763  0.9302  0.0460  -2.6020   0.0000   0.0000   0.0000   0.0357
  -6.500  -0.3607   0.03253   0.02556  -0.0769  0.9276  0.0452  -2.5543   0.0000   0.0000   0.0000   0.0253
  -6.400  -0.3453   0.03217   0.02513  -0.0776  0.9252  0.0446  -2.5017   0.0000   0.0000   0.0000   0.0135
  -6.300  -0.3298   0.03180   0.02470  -0.0784  0.9230  0.0440  -2.4483   0.0000   0.0000   0.0000   0.0005
  -6.200  -0.3163   0.03049   0.02323  -0.0790  0.9210  0.0434  -2.4301   0.0000   0.0000   0.0000  -0.0119
  -6.100  -0.3036   0.02891   0.02148  -0.0795  0.9191  0.0430  -2.4254   0.0000   0.0000   0.0000  -0.0245
  -6.000  -0.2978   0.02806   0.02054  -0.0787  0.9144  0.0428  -2.4161   0.0000   0.0000   0.0000  -0.0268
  -5.900  -0.2919   0.02730   0.01969  -0.0778  0.9091  0.0426  -2.4037   0.0000   0.0000   0.0000  -0.0292
  -5.800  -0.2827   0.02647   0.01878  -0.0775  0.9047  0.0424  -2.3853   0.0000   0.0000   0.0000  -0.0368
  -5.700  -0.2718   0.02566   0.01787  -0.0773  0.9009  0.0422  -2.3626   0.0000   0.0000   0.0000  -0.0475
  -5.600  -0.2601   0.02487   0.01701  -0.0773  0.8975  0.0422  -2.3368   0.0000   0.0000   0.0000  -0.0606
  -5.500  -0.2479   0.02414   0.01621  -0.0773  0.8945  0.0421  -2.3086   0.0000   0.0000   0.0000  -0.0756
  -5.400  -0.2354   0.02346   0.01547  -0.0773  0.8916  0.0422  -2.2787   0.0000   0.0000   0.0000  -0.0926
  -5.300  -0.2232   0.02285   0.01480  -0.0773  0.8890  0.0424  -2.2478   0.0000   0.0000   0.0000  -0.1109
  -5.200  -0.2115   0.02233   0.01423  -0.0772  0.8863  0.0426  -2.2168   0.0000   0.0000   0.0000  -0.1298
  -5.100  -0.2048   0.02198   0.01384  -0.0764  0.8819  0.0428  -2.1930   0.0000   0.0000   0.0000  -0.1379
  -5.000  -0.1986   0.02165   0.01349  -0.0755  0.8768  0.0431  -2.1695   0.0000   0.0000   0.0000  -0.1453
  -4.900  -0.1910   0.02132   0.01312  -0.0748  0.8722  0.0435  -2.1433   0.0000   0.0000   0.0000  -0.1573
  -4.800  -0.1833   0.02087   0.01265  -0.0741  0.8680  0.0442  -2.1252   0.0000   0.0000   0.0000  -0.1703
  -4.700  -0.1763   0.02025   0.01193  -0.0734  0.8641  0.0460  -2.1247   0.0000   0.0000   0.0000  -0.1821
  -4.600  -0.1682   0.01970   0.01128  -0.0727  0.8607  0.0495  -2.1239   0.0000   0.0000   0.0000  -0.1988
  -4.500  -0.1590   0.01921   0.01077  -0.0722  0.8576  0.0560  -2.1205   0.0000   0.0000   0.0000  -0.2210
  -4.400  -0.1554   0.01780   0.00993  -0.0711  0.8545  0.1468  -2.2108   0.0000   0.0000   0.0000  -0.2244
  -4.300  -0.1528   0.01669   0.00968  -0.0703  0.8516  0.3087  -2.2263   0.0000   0.0000   0.0000  -0.2265
  -4.200  -0.1449   0.01644   0.00972  -0.0696  0.8487  0.3726  -2.1844   0.0000   0.0000   0.0000  -0.2474
  -4.100  -0.1393   0.01629   0.00983  -0.0688  0.8445  0.4226  -2.1385   0.0000   0.0000   0.0000  -0.2611
  -4.000  -0.1324   0.01624   0.00994  -0.0681  0.8399  0.4579  -2.0853   0.0000   0.0000   0.0000  -0.2816
  -3.900  -0.1241   0.01624   0.01000  -0.0675  0.8355  0.4837  -2.0261   0.0000   0.0000   0.0000  -0.3117
  -3.800  -0.1153   0.01623   0.01004  -0.0669  0.8313  0.5058  -1.9635   0.0000   0.0000   0.0000  -0.3491
  -3.700  -0.1067   0.01629   0.01021  -0.0660  0.8274  0.5374  -1.8992   0.0000   0.0000   0.0000  -0.3881
  -3.600  -0.0980   0.01637   0.01040  -0.0650  0.8239  0.5644  -1.8329   0.0000   0.0000   0.0000  -0.4344
  -3.500  -0.0886   0.01653   0.01061  -0.0640  0.8206  0.5883  -1.7644   0.0000   0.0000   0.0000  -0.4952
  -3.400  -0.0783   0.01661   0.01065  -0.0634  0.8175  0.6043  -1.6955   0.0000   0.0000   0.0000  -0.5831
  -3.300  -0.0680   0.01659   0.01067  -0.0626  0.8147  0.6149  -1.6268   0.0000   0.0000   0.0000  -0.6973
  -3.200  -0.0575   0.01664   0.01071  -0.0619  0.8119  0.6242  -1.5587   0.0000   0.0000   0.0000  -0.8576
  -3.100  -0.0473   0.01678   0.01080  -0.0613  0.8088  0.6339  -1.4926   0.0000   0.0000   0.0000  -1.0823
  -3.000  -0.0384   0.01685   0.01084  -0.0609  0.8050  0.6430  -1.4325   0.0000   0.0000   0.0000  -1.3807
  -2.900  -0.0293   0.01694   0.01073  -0.0606  0.8008  0.6516  -1.3609   0.0000   0.0000   0.0000  -1.8698
  -2.800  -0.0204   0.01688   0.01070  -0.0600  0.7968  0.6598  -1.3018   0.0000   0.0000   0.0000  -2.7613
  -2.700  -0.0114   0.01690   0.01076  -0.0593  0.7929  0.6675  -1.2419   0.0000   0.0000   0.0000  -5.0878
  -2.600  -0.0020   0.01695   0.01081  -0.0587  0.7892  0.6754  -1.1815   0.0000   0.0000   0.0000  -30.5137
  -2.500   0.0079   0.01698   0.01082  -0.0582  0.7858  0.6835  -1.1207   0.0000   0.0000   0.0000   7.7638
  -2.400   0.0182   0.01699   0.01079  -0.0578  0.7825  0.6916  -1.0598   0.0000   0.0000   0.0000   3.4963
  -2.300   0.0288   0.01701   0.01074  -0.0574  0.7795  0.6992  -0.9989   0.0000   0.0000   0.0000   2.2895
  -2.200   0.0393   0.01696   0.01065  -0.0571  0.7767  0.7062  -0.9389   0.0000   0.0000   0.0000   1.7322
  -2.100   0.0492   0.01687   0.01057  -0.0564  0.7740  0.7133  -0.8804   0.0000   0.0000   0.0000   1.4176
  -2.000   0.0593   0.01686   0.01055  -0.0557  0.7714  0.7199  -0.8223   0.0000   0.0000   0.0000   1.2071
  -1.900   0.0694   0.01691   0.01057  -0.0551  0.7685  0.7265  -0.7651   0.0000   0.0000   0.0000   1.0581
  -1.800   0.0791   0.01704   0.01066  -0.0546  0.7651  0.7334  -0.7103   0.0000   0.0000   0.0000   0.9516
  -1.700   0.0880   0.01705   0.01068  -0.0542  0.7616  0.7405  -0.6590   0.0000   0.0000   0.0000   0.8754
  -1.600   0.0972   0.01708   0.01068  -0.0539  0.7575  0.7472  -0.6081   0.0000   0.0000   0.0000   0.8128
  -1.500   0.1067   0.01711   0.01067  -0.0537  0.7533  0.7530  -0.6024   0.0000   0.0000   0.0000   0.7596
  -1.400   0.1156   0.01699   0.01058  -0.0530  0.7492  0.7594  -0.6097   0.0000   0.0000   0.0000   0.7144
  -1.300   0.1247   0.01695   0.01054  -0.0523  0.7453  0.7652  -0.6173   0.0000   0.0000   0.0000   0.6743
  -1.200   0.1343   0.01691   0.01050  -0.0517  0.7418  0.7711  -0.6252   0.0000   0.0000   0.0000   0.6391
  -1.100   0.1441   0.01688   0.01045  -0.0512  0.7384  0.7775  -0.6333   0.0000   0.0000   0.0000   0.6083
  -1.000   0.1543   0.01685   0.01038  -0.0507  0.7354  0.7841  -0.6415   0.0000   0.0000   0.0000   0.5814
  -0.900   0.1647   0.01681   0.01031  -0.0504  0.7326  0.7907  -0.6499   0.0000   0.0000   0.0000   0.5580
  -0.800   0.1754   0.01679   0.01023  -0.0502  0.7298  0.7969  -0.6584   0.0000   0.0000   0.0000   0.5376
  -0.700   0.1857   0.01672   0.01013  -0.0498  0.7271  0.8025  -0.6677   0.0000   0.0000   0.0000   0.5191
  -0.600   0.1954   0.01670   0.01010  -0.0491  0.7243  0.8079  -0.6770   0.0000   0.0000   0.0000   0.5022
  -0.500   0.2051   0.01682   0.01020  -0.0486  0.7209  0.8132  -0.6860   0.0000   0.0000   0.0000   0.4874
  -0.400   0.2139   0.01687   0.01025  -0.0481  0.7180  0.8189  -0.6941   0.0000   0.0000   0.0000   0.4751
  -0.300   0.2226   0.01689   0.01029  -0.0477  0.7148  0.8252  -0.7021   0.0000   0.0000   0.0000   0.4641
  -0.200   0.2313   0.01692   0.01032  -0.0473  0.7112  0.8318  -0.7102   0.0000   0.0000   0.0000   0.4540
  -0.100   0.2404   0.01693   0.01033  -0.0470  0.7074  0.8385  -0.7186   0.0000   0.0000   0.0000   0.4447
   0.000   0.2496   0.01691   0.01030  -0.0466  0.7036  0.8445  -0.7272   0.0000   0.0000   0.0000   0.4358
   0.100   0.2588   0.01684   0.01024  -0.0460  0.6999  0.8502  -0.7360   0.0000   0.0000   0.0000   0.4264
   0.200   0.2683   0.01678   0.01018  -0.0454  0.6963  0.8559  -0.7452   0.0000   0.0000   0.0000   0.4177
   0.300   0.2784   0.01672   0.01010  -0.0449  0.6928  0.8620  -0.7548   0.0000   0.0000   0.0000   0.4096
   0.400   0.2889   0.01664   0.00999  -0.0445  0.6896  0.8683  -0.7646   0.0000   0.0000   0.0000   0.4023
   0.500   0.2993   0.01656   0.00988  -0.0442  0.6864  0.8749  -0.7745   0.0000   0.0000   0.0000   0.3956
   0.600   0.3093   0.01650   0.00970  -0.0438  0.6835  0.8817  -0.7841   0.0000   0.0000   0.0000   0.3895
   0.700   0.3210   0.01643   0.00961  -0.0436  0.6805  0.8871  -0.7948   0.0000   0.0000   0.0000   0.3834
   0.800   0.3327   0.01646   0.00960  -0.0433  0.6773  0.8930  -0.8054   0.0000   0.0000   0.0000   0.3778
   0.900   0.3441   0.01666   0.00976  -0.0433  0.6734  0.8994  -0.8154   0.0000   0.0000   0.0000   0.3731
   1.000   0.3540   0.01666   0.00979  -0.0431  0.6709  0.9070  -0.8243   0.0000   0.0000   0.0000   0.3690
   1.100   0.3624   0.01668   0.00982  -0.0427  0.6679  0.9150  -0.8321   0.0000   0.0000   0.0000   0.3650
   1.200   0.3758   0.01668   0.00988  -0.0432  0.6645  0.9205  -0.8438   0.0000   0.0000   0.0000   0.3620
   1.300   0.3901   0.01670   0.00990  -0.0439  0.6608  0.9259  -0.8571   0.0000   0.0000   0.0000   0.3594
   1.400   0.4046   0.01671   0.00990  -0.0446  0.6572  0.9319  -0.8706   0.0000   0.0000   0.0000   0.3569
   1.500   0.4185   0.01670   0.00989  -0.0451  0.6535  0.9389  -0.8838   0.0000   0.0000   0.0000   0.3545
   1.600   0.4319   0.01667   0.00984  -0.0456  0.6499  0.9462  -0.8969   0.0000   0.0000   0.0000   0.3520
   1.700   0.4517   0.01661   0.00974  -0.0471  0.6461  0.9504  -0.9144   0.0000   0.0000   0.0000   0.3508
   1.800   0.4713   0.01653   0.00963  -0.0487  0.6425  0.9551  -0.9320   0.0000   0.0000   0.0000   0.3496
   1.900   0.4900   0.01644   0.00950  -0.0500  0.6390  0.9604  -0.9492   0.0000   0.0000   0.0000   0.3483
   2.000   0.5072   0.01638   0.00938  -0.0511  0.6355  0.9662  -0.9654   0.0000   0.0000   0.0000   0.3469
   2.100   0.5261   0.01636   0.00930  -0.0526  0.6318  0.9705  -0.9827   0.0000   0.0000   0.0000   0.3460
   2.200   0.5468   0.01648   0.00935  -0.0545  0.6273  0.9734  -1.0009   0.0000   0.0000   0.0000   0.3456
   2.300   0.5662   0.01660   0.00947  -0.0564  0.6235  0.9774  -1.0178   0.0000   0.0000   0.0000   0.3455
   2.400   0.5846   0.01660   0.00949  -0.0582  0.6204  0.9828  -1.0340   0.0000   0.0000   0.0000   0.3453
   2.500   0.6033   0.01661   0.00952  -0.0600  0.6168  0.9877  -1.0505   0.0000   0.0000   0.0000   0.3451
   2.600   0.6234   0.01661   0.00954  -0.0621  0.6128  0.9925  -1.0681   0.0000   0.0000   0.0000   0.3451
   2.700   0.6433   0.01661   0.00954  -0.0641  0.6087  0.9978  -1.0862   0.0000   0.0000   0.0000   0.3451
   2.800   0.6543   0.01662   0.00955  -0.0645  0.6050  1.0000  -1.0994   0.0000   0.0000   0.0000   0.3439
   2.900   0.6584   0.01664   0.00956  -0.0636  0.6016  1.0000  -1.1074   0.0000   0.0000   0.0000   0.3419
   3.000   0.6627   0.01666   0.00957  -0.0627  0.5984  1.0000  -1.1157   0.0000   0.0000   0.0000   0.3398
   3.100   0.6675   0.01667   0.00955  -0.0618  0.5952  1.0000  -1.1245   0.0000   0.0000   0.0000   0.3377
   3.200   0.6732   0.01668   0.00952  -0.0610  0.5921  1.0000  -1.1342   0.0000   0.0000   0.0000   0.3356
   3.300   0.6800   0.01668   0.00949  -0.0603  0.5889  1.0000  -1.1447   0.0000   0.0000   0.0000   0.3336
   3.400   0.6876   0.01672   0.00947  -0.0598  0.5856  1.0000  -1.1560   0.0000   0.0000   0.0000   0.3317
   3.500   0.6963   0.01681   0.00951  -0.0594  0.5820  1.0000  -1.1681   0.0000   0.0000   0.0000   0.3299
   3.600   0.7051   0.01713   0.00976  -0.0591  0.5771  1.0000  -1.1797   0.0000   0.0000   0.0000   0.3284
   3.700   0.7125   0.01725   0.00989  -0.0587  0.5742  1.0000  -1.1903   0.0000   0.0000   0.0000   0.3268
   3.800   0.7203   0.01731   0.00996  -0.0583  0.5712  1.0000  -1.2013   0.0000   0.0000   0.0000   0.3253
   3.900   0.7287   0.01738   0.01005  -0.0580  0.5678  1.0000  -1.2127   0.0000   0.0000   0.0000   0.3238
   4.000   0.7375   0.01746   0.01027  -0.0577  0.5640  1.0000  -1.2244   0.0000   0.0000   0.0000   0.3224
   4.100   0.7467   0.01755   0.01036  -0.0575  0.5603  1.0000  -1.2366   0.0000   0.0000   0.0000   0.3210
   4.200   0.7563   0.01763   0.01043  -0.0574  0.5566  1.0000  -1.2492   0.0000   0.0000   0.0000   0.3197
   4.300   0.7663   0.01769   0.01049  -0.0572  0.5530  1.0000  -1.2622   0.0000   0.0000   0.0000   0.3184
   4.400   0.7765   0.01774   0.01052  -0.0571  0.5495  1.0000  -1.2763   0.0000   0.0000   0.0000   0.3172
   4.500   0.7871   0.01778   0.01054  -0.0570  0.5462  1.0000  -1.2921   0.0000   0.0000   0.0000   0.3160
   4.600   0.7978   0.01782   0.01055  -0.0569  0.5429  1.0000  -1.3081   0.0000   0.0000   0.0000   0.3148
   4.700   0.8085   0.01786   0.01056  -0.0568  0.5397  1.0000  -1.3242   0.0000   0.0000   0.0000   0.3136
   4.800   0.8196   0.01795   0.01060  -0.0568  0.5363  1.0000  -1.3406   0.0000   0.0000   0.0000   0.3125
   4.900   0.8307   0.01812   0.01072  -0.0568  0.5325  1.0000  -1.3569   0.0000   0.0000   0.0000   0.3115
   5.000   0.8409   0.01861   0.01116  -0.0568  0.5272  1.0000  -1.3718   0.0000   0.0000   0.0000   0.3106
   5.100   0.8499   0.01867   0.01126  -0.0566  0.5248  1.0000  -1.3859   0.0000   0.0000   0.0000   0.3095
   5.200   0.8587   0.01875   0.01138  -0.0563  0.5219  1.0000  -1.4000   0.0000   0.0000   0.0000   0.3084
   5.300   0.8678   0.01883   0.01150  -0.0561  0.5184  1.0000  -1.4143   0.0000   0.0000   0.0000   0.3073
   5.400   0.8771   0.01891   0.01160  -0.0559  0.5145  1.0000  -1.4290   0.0000   0.0000   0.0000   0.3063
   5.500   0.8867   0.01898   0.01169  -0.0557  0.5104  1.0000  -1.4442   0.0000   0.0000   0.0000   0.3052
   5.600   0.8967   0.01904   0.01175  -0.0555  0.5064  1.0000  -1.4623   0.0000   0.0000   0.0000   0.3042
   5.700   0.9069   0.01909   0.01180  -0.0554  0.5026  1.0000  -1.4808   0.0000   0.0000   0.0000   0.3033
   5.800   0.9175   0.01913   0.01183  -0.0552  0.4990  1.0000  -1.4997   0.0000   0.0000   0.0000   0.3023
   5.900   0.9281   0.01919   0.01187  -0.0551  0.4956  1.0000  -1.5188   0.0000   0.0000   0.0000   0.3014
   6.000   0.9388   0.01924   0.01191  -0.0551  0.4922  1.0000  -1.5380   0.0000   0.0000   0.0000   0.3005
   6.100   0.9498   0.01933   0.01196  -0.0550  0.4888  1.0000  -1.5576   0.0000   0.0000   0.0000   0.2997
   6.200   0.9610   0.01950   0.01208  -0.0550  0.4850  1.0000  -1.5773   0.0000   0.0000   0.0000   0.2989
   6.300   0.9718   0.01992   0.01246  -0.0551  0.4801  1.0000  -1.5958   0.0000   0.0000   0.0000   0.2982
   6.400   0.9806   0.02022   0.01279  -0.0549  0.4768  1.0000  -1.6123   0.0000   0.0000   0.0000   0.2974
   6.500   0.9891   0.02032   0.01295  -0.0546  0.4742  1.0000  -1.6297   0.0000   0.0000   0.0000   0.2965
   6.600   0.9977   0.02043   0.01311  -0.0543  0.4709  1.0000  -1.6495   0.0000   0.0000   0.0000   0.2956
   6.700   1.0065   0.02054   0.01327  -0.0540  0.4672  1.0000  -1.6720   0.0000   0.0000   0.0000   0.2947
   6.800   1.0156   0.02063   0.01339  -0.0538  0.4632  1.0000  -1.6971   0.0000   0.0000   0.0000   0.2939
   6.900   1.0252   0.02071   0.01348  -0.0536  0.4591  1.0000  -1.7284   0.0000   0.0000   0.0000   0.2930
   7.000   1.0351   0.02076   0.01354  -0.0534  0.4551  1.0000  -1.7606   0.0000   0.0000   0.0000   0.2922
   7.100   1.0453   0.02080   0.01358  -0.0532  0.4512  1.0000  -1.7936   0.0000   0.0000   0.0000   0.2914
   7.200   1.0557   0.02085   0.01362  -0.0531  0.4476  1.0000  -1.8270   0.0000   0.0000   0.0000   0.2907
   7.300   1.0661   0.02092   0.01368  -0.0529  0.4441  1.0000  -1.8606   0.0000   0.0000   0.0000   0.2899
   7.400   1.0771   0.02103   0.01376  -0.0529  0.4405  1.0000  -1.8952   0.0000   0.0000   0.0000   0.2892
   7.500   1.0882   0.02125   0.01422  -0.0529  0.4363  1.0000  -1.9297   0.0000   0.0000   0.0000   0.2886
   7.600   1.0987   0.02189   0.01483  -0.0530  0.4303  1.0000  -1.9822   0.0000   0.0000   0.0000   0.2881
   7.700   1.1066   0.02199   0.01501  -0.0526  0.4279  1.0000  -2.0310   0.0000   0.0000   0.0000   0.2873
   7.800   1.1144   0.02210   0.01520  -0.0522  0.4250  1.0000  -2.0801   0.0000   0.0000   0.0000   0.2865
   7.900   1.1223   0.02222   0.01539  -0.0518  0.4215  1.0000  -2.1301   0.0000   0.0000   0.0000   0.2856
   8.000   1.1306   0.02234   0.01556  -0.0514  0.4176  1.0000  -2.1816   0.0000   0.0000   0.0000   0.2848
   8.100   1.1392   0.02244   0.01571  -0.0511  0.4135  1.0000  -2.2349   0.0000   0.0000   0.0000   0.2841
   8.200   1.1483   0.02254   0.01583  -0.0508  0.4094  1.0000  -2.3093   0.0000   0.0000   0.0000   0.2833
   8.300   1.1578   0.02262   0.01594  -0.0506  0.4055  1.0000  -2.3900   0.0000   0.0000   0.0000   0.2826
   8.400   1.1675   0.02271   0.01604  -0.0504  0.4019  1.0000  -2.4727   0.0000   0.0000   0.0000   0.2819
   8.500   1.1773   0.02279   0.01612  -0.0502  0.3982  1.0000  -2.5572   0.0000   0.0000   0.0000   0.2813
   8.600   1.1879   0.02288   0.01618  -0.0501  0.3942  1.0000  -2.6461   0.0000   0.0000   0.0000   0.2806
   8.700   1.1991   0.02307   0.01632  -0.0501  0.3894  1.0000  -2.7383   0.0000   0.0000   0.0000   0.2801
   8.800   1.2096   0.02370   0.01690  -0.0502  0.3829  1.0000  -2.8261   0.0000   0.0000   0.0000   0.2797
   8.900   1.2161   0.02376   0.01705  -0.0496  0.3803  1.0000  -2.9000   0.0000   0.0000   0.0000   0.2788
   9.000   1.2227   0.02384   0.01721  -0.0490  0.3768  1.0000  -2.9746   0.0000   0.0000   0.0000   0.2780
   9.100   1.2295   0.02393   0.01737  -0.0484  0.3726  1.0000  -3.0515   0.0000   0.0000   0.0000   0.2771
   9.200   1.2370   0.02401   0.01751  -0.0479  0.3681  1.0000  -3.1316   0.0000   0.0000   0.0000   0.2763
   9.300   1.2449   0.02408   0.01760  -0.0475  0.3634  1.0000  -3.2153   0.0000   0.0000   0.0000   0.2756
   9.400   1.2533   0.02410   0.01764  -0.0471  0.3587  1.0000  -3.3023   0.0000   0.0000   0.0000   0.2748
   9.500   1.2618   0.02410   0.01763  -0.0467  0.3540  1.0000  -3.3913   0.0000   0.0000   0.0000   0.2741
   9.600   1.2713   0.02413   0.01762  -0.0464  0.3490  1.0000  -3.4856   0.0000   0.0000   0.0000   0.2734
   9.700   1.2818   0.02431   0.01772  -0.0463  0.3433  1.0000  -3.5848   0.0000   0.0000   0.0000   0.2729
   9.800   1.2917   0.02478   0.01815  -0.0462  0.3367  1.0000  -3.6790   0.0000   0.0000   0.0000   0.2724
   9.900   1.2964   0.02488   0.01834  -0.0454  0.3337  1.0000  -3.7517   0.0000   0.0000   0.0000   0.2715
  10.000   1.3013   0.02500   0.01855  -0.0446  0.3298  1.0000  -3.8256   0.0000   0.0000   0.0000   0.2706
  10.100   1.3066   0.02513   0.01875  -0.0439  0.3253  1.0000  -3.9020   0.0000   0.0000   0.0000   0.2697
  10.200   1.3123   0.02525   0.01891  -0.0432  0.3204  1.0000  -3.9812   0.0000   0.0000   0.0000   0.2689
  10.300   1.3181   0.02534   0.01904  -0.0425  0.3155  1.0000  -4.0624   0.0000   0.0000   0.0000   0.2681
  10.400   1.3243   0.02543   0.01912  -0.0418  0.3104  1.0000  -4.1460   0.0000   0.0000   0.0000   0.2672
  10.500   1.3310   0.02553   0.01916  -0.0412  0.3049  1.0000  -4.2334   0.0000   0.0000   0.0000   0.2664
  10.600   1.3389   0.02576   0.01930  -0.0408  0.2983  1.0000  -4.3268   0.0000   0.0000   0.0000   0.2658
  10.700   1.3460   0.02612   0.01965  -0.0404  0.2923  1.0000  -4.4142   0.0000   0.0000   0.0000   0.2652
  10.800   1.3482   0.02632   0.01995  -0.0393  0.2890  1.0000  -4.4778   0.0000   0.0000   0.0000   0.2641
  10.900   1.3505   0.02654   0.02040  -0.0382  0.2851  1.0000  -4.5397   0.0000   0.0000   0.0000   0.2631
  11.000   1.3523   0.02676   0.02068  -0.0370  0.2807  1.0000  -4.6015   0.0000   0.0000   0.0000   0.2620
  11.100   1.3540   0.02698   0.02095  -0.0359  0.2759  1.0000  -4.6640   0.0000   0.0000   0.0000   0.2610
  11.200   1.3556   0.02720   0.02117  -0.0348  0.2706  1.0000  -4.7274   0.0000   0.0000   0.0000   0.2599
  11.300   1.3573   0.02744   0.02137  -0.0337  0.2649  1.0000  -4.7916   0.0000   0.0000   0.0000   0.2589
  11.400   1.3588   0.02776   0.02159  -0.0326  0.2584  1.0000  -4.8556   0.0000   0.0000   0.0000   0.2579
  11.500   1.3617   0.02819   0.02193  -0.0318  0.2509  1.0000  -4.9250   0.0000   0.0000   0.0000   0.2571
  11.600   1.3604   0.02857   0.02244  -0.0306  0.2470  1.0000  -4.9716   0.0000   0.0000   0.0000   0.2561
  11.700   1.3595   0.02901   0.02295  -0.0296  0.2417  1.0000  -5.0207   0.0000   0.0000   0.0000   0.2551
  11.800   1.3588   0.02946   0.02345  -0.0286  0.2354  1.0000  -5.0713   0.0000   0.0000   0.0000   0.2542
  11.900   1.3575   0.02997   0.02395  -0.0276  0.2287  1.0000  -5.1200   0.0000   0.0000   0.0000   0.2533
  12.000   1.3554   0.03058   0.02448  -0.0267  0.2221  1.0000  -5.1669   0.0000   0.0000   0.0000   0.2524
  12.100   1.3530   0.03128   0.02508  -0.0257  0.2149  1.0000  -5.2113   0.0000   0.0000   0.0000   0.2516
  12.200   1.3521   0.03196   0.02580  -0.0250  0.2088  1.0000  -5.2618   0.0000   0.0000   0.0000   0.2509
  12.300   1.3510   0.03266   0.02658  -0.0244  0.2019  1.0000  -5.3117   0.0000   0.0000   0.0000   0.2502
  12.400   1.3490   0.03346   0.02738  -0.0238  0.1944  1.0000  -5.3563   0.0000   0.0000   0.0000   0.2496
  12.500   1.3452   0.03440   0.02828  -0.0231  0.1874  1.0000  -5.3905   0.0000   0.0000   0.0000   0.2489
  12.600   1.3402   0.03546   0.02925  -0.0224  0.1809  1.0000  -5.4176   0.0000   0.0000   0.0000   0.2482
  12.700   1.3367   0.03648   0.03024  -0.0218  0.1742  1.0000  -5.4515   0.0000   0.0000   0.0000   0.2477
  12.800   1.3356   0.03741   0.03124  -0.0215  0.1672  1.0000  -5.4985   0.0000   0.0000   0.0000   0.2472
  12.900   1.3325   0.03851   0.03234  -0.0212  0.1601  1.0000  -5.5342   0.0000   0.0000   0.0000   0.2468
  13.000   1.3283   0.03972   0.03352  -0.0208  0.1536  1.0000  -5.5627   0.0000   0.0000   0.0000   0.2463
  13.100   1.3230   0.04106   0.03480  -0.0205  0.1478  1.0000  -5.5839   0.0000   0.0000   0.0000   0.2459
  13.200   1.3170   0.04251   0.03621  -0.0201  0.1424  1.0000  -5.5989   0.0000   0.0000   0.0000   0.2455
  13.300   1.3164   0.04357   0.03733  -0.0200  0.1367  1.0000  -5.6455   0.0000   0.0000   0.0000   0.2452
  13.400   1.3139   0.04478   0.03857  -0.0199  0.1306  1.0000  -5.6812   0.0000   0.0000   0.0000   0.2449
  13.500   1.3099   0.04616   0.03993  -0.0197  0.1250  1.0000  -5.7067   0.0000   0.0000   0.0000   0.2447
  13.600   1.3040   0.04774   0.04149  -0.0197  0.1202  1.0000  -5.7203   0.0000   0.0000   0.0000   0.2445
  13.700   1.2974   0.04944   0.04315  -0.0197  0.1157  1.0000  -5.7278   0.0000   0.0000   0.0000   0.2443
  13.800   1.2917   0.05106   0.04474  -0.0197  0.1109  1.0000  -5.7393   0.0000   0.0000   0.0000   0.2441
  13.900   1.2901   0.05233   0.04608  -0.0197  0.1061  1.0000  -5.7760   0.0000   0.0000   0.0000   0.2440
  14.000   1.2861   0.05388   0.04765  -0.0198  0.1015  1.0000  -5.7970   0.0000   0.0000   0.0000   0.2439
  14.100   1.2807   0.05559   0.04937  -0.0200  0.0973  1.0000  -5.8087   0.0000   0.0000   0.0000   0.2439
  14.200   1.2745   0.05736   0.05112  -0.0202  0.0935  1.0000  -5.8152   0.0000   0.0000   0.0000   0.2439
  14.300   1.2677   0.05923   0.05296  -0.0205  0.0898  1.0000  -5.8163   0.0000   0.0000   0.0000   0.2440
  14.400   1.2603   0.06122   0.05492  -0.0208  0.0861  1.0000  -5.8111   0.0000   0.0000   0.0000   0.2441
  14.500   1.2559   0.06294   0.05666  -0.0210  0.0825  1.0000  -5.8232   0.0000   0.0000   0.0000   0.2441
  14.600   1.2532   0.06455   0.05834  -0.0213  0.0788  1.0000  -5.8453   0.0000   0.0000   0.0000   0.2442
  14.700   1.2490   0.06635   0.06017  -0.0217  0.0751  1.0000  -5.8575   0.0000   0.0000   0.0000   0.2443
  14.800   1.2436   0.06831   0.06214  -0.0222  0.0718  1.0000  -5.8615   0.0000   0.0000   0.0000   0.2446
  14.900   1.2373   0.07044   0.06425  -0.0227  0.0689  1.0000  -5.8588   0.0000   0.0000   0.0000   0.2449
  15.000   1.2299   0.07278   0.06657  -0.0234  0.0664  1.0000  -5.8466   0.0000   0.0000   0.0000   0.2454
  15.100   1.2221   0.07511   0.06887  -0.0240  0.0632  1.0000  -5.8274   0.0000   0.0000   0.0000   0.2457
  15.200   1.2171   0.07701   0.07075  -0.0243  0.0593  1.0000  -5.8191   0.0000   0.0000   0.0000   0.2458
  15.300   1.2145   0.07881   0.07263  -0.0248  0.0565  1.0000  -5.8297   0.0000   0.0000   0.0000   0.2461
  15.400   1.2105   0.08076   0.07463  -0.0254  0.0536  1.0000  -5.8302   0.0000   0.0000   0.0000   0.2464
  15.500   1.2058   0.08283   0.07674  -0.0261  0.0509  1.0000  -5.8263   0.0000   0.0000   0.0000   0.2469
  15.600   1.2001   0.08510   0.07903  -0.0269  0.0489  1.0000  -5.8161   0.0000   0.0000   0.0000   0.2474
  15.700   1.1942   0.08737   0.08129  -0.0277  0.0469  1.0000  -5.8036   0.0000   0.0000   0.0000   0.2480
  15.800   1.1882   0.08959   0.08348  -0.0284  0.0447  1.0000  -5.7862   0.0000   0.0000   0.0000   0.2486
  15.900   1.1828   0.09106   0.08484  -0.0279  0.0400  1.0000  -5.7364   0.0000   0.0000   0.0000   0.2480
  16.000   1.1813   0.09276   0.08661  -0.0286  0.0390  1.0000  -5.7487   0.0000   0.0000   0.0000   0.2484
  16.100   1.1798   0.09440   0.08834  -0.0291  0.0378  1.0000  -5.7571   0.0000   0.0000   0.0000   0.2487
  16.200   1.1783   0.09604   0.09003  -0.0297  0.0365  1.0000  -5.7628   0.0000   0.0000   0.0000   0.2490
  16.300   1.1768   0.09764   0.09168  -0.0302  0.0351  1.0000  -5.7682   0.0000   0.0000   0.0000   0.2493
  16.400   1.1754   0.09921   0.09330  -0.0308  0.0339  1.0000  -5.7749   0.0000   0.0000   0.0000   0.2495
  16.500   1.1737   0.10082   0.09496  -0.0313  0.0328  1.0000  -5.7807   0.0000   0.0000   0.0000   0.2499
  16.600   1.1719   0.10247   0.09664  -0.0320  0.0319  1.0000  -5.7862   0.0000   0.0000   0.0000   0.2503
  16.700   1.1701   0.10411   0.09832  -0.0326  0.0311  1.0000  -5.7922   0.0000   0.0000   0.0000   0.2506
  16.800   1.1686   0.10569   0.09994  -0.0333  0.0303  1.0000  -5.8004   0.0000   0.0000   0.0000   0.2510
  16.900   1.1673   0.10722   0.10150  -0.0339  0.0296  1.0000  -5.8102   0.0000   0.0000   0.0000   0.2514
  17.000   1.1662   0.10869   0.10300  -0.0344  0.0289  1.0000  -5.8208   0.0000   0.0000   0.0000   0.2517
  17.100   1.1652   0.11008   0.10443  -0.0350  0.0283  1.0000  -5.8312   0.0000   0.0000   0.0000   0.2519
  17.200   1.1647   0.11130   0.10568  -0.0354  0.0277  1.0000  -5.8426   0.0000   0.0000   0.0000   0.2521
  17.300   1.1646   0.11238   0.10679  -0.0356  0.0271  1.0000  -5.8540   0.0000   0.0000   0.0000   0.2521
  17.400   1.1637   0.11365   0.10810  -0.0360  0.0266  1.0000  -5.8560   0.0000   0.0000   0.0000   0.2522
  17.500   1.1627   0.11495   0.10946  -0.0364  0.0261  1.0000  -5.8541   0.0000   0.0000   0.0000   0.2524
  17.600   1.1611   0.11644   0.11101  -0.0369  0.0258  1.0000  -5.8459   0.0000   0.0000   0.0000   0.2527
  17.700   1.1589   0.11808   0.11273  -0.0375  0.0255  1.0000  -5.8329   0.0000   0.0000   0.0000   0.2531
  17.800   1.1563   0.11989   0.11462  -0.0382  0.0253  1.0000  -5.8155   0.0000   0.0000   0.0000   0.2536
  17.900   1.1530   0.12189   0.11670  -0.0391  0.0251  1.0000  -5.7938   0.0000   0.0000   0.0000   0.2543
  18.000   1.1488   0.12416   0.11906  -0.0403  0.0250  1.0000  -5.7666   0.0000   0.0000   0.0000   0.2552
  18.100   1.1441   0.12661   0.12159  -0.0416  0.0250  1.0000  -5.7359   0.0000   0.0000   0.0000   0.2563
  18.200   1.1393   0.12911   0.12417  -0.0430  0.0249  1.0000  -5.7038   0.0000   0.0000   0.0000   0.2575
  18.300   1.1345   0.13169   0.12683  -0.0444  0.0249  1.0000  -5.6700   0.0000   0.0000   0.0000   0.2587
  18.400   1.1295   0.13437   0.12959  -0.0459  0.0248  1.0000  -5.6340   0.0000   0.0000   0.0000   0.2601
  18.500   1.1242   0.13720   0.13250  -0.0475  0.0248  1.0000  -5.5951   0.0000   0.0000   0.0000   0.2615
  18.600   1.1183   0.14025   0.13563  -0.0493  0.0249  1.0000  -5.5512   0.0000   0.0000   0.0000   0.2632
  18.700   1.1122   0.14345   0.13890  -0.0512  0.0249  1.0000  -5.5036   0.0000   0.0000   0.0000   0.2650
  18.800   1.1062   0.14667   0.14219  -0.0530  0.0250  1.0000  -5.4548   0.0000   0.0000   0.0000   0.2668
  18.900   1.1001   0.14997   0.14556  -0.0549  0.0250  1.0000  -5.4030   0.0000   0.0000   0.0000   0.2686
  19.000   1.0939   0.15345   0.14911  -0.0569  0.0251  1.0000  -5.3466   0.0000   0.0000   0.0000   0.2706
  19.100   1.0866   0.15731   0.15305  -0.0592  0.0252  1.0000  -5.2795   0.0000   0.0000   0.0000   0.2730
  19.200   1.0792   0.16130   0.15710  -0.0615  0.0253  1.0000  -5.2066   0.0000   0.0000   0.0000   0.2754
  19.300   1.0715   0.16547   0.16134  -0.0638  0.0255  1.0000  -5.1258   0.0000   0.0000   0.0000   0.2779
  19.400   1.0623   0.17029   0.16622  -0.0664  0.0257  1.0000  -5.0226   0.0000   0.0000   0.0000   0.2809
  19.500   1.0492   0.17654   0.17254  -0.0698  0.0261  1.0000  -4.8649   0.0000   0.0000   0.0000   0.2849
  19.600   0.9492   0.21938   0.21539  -0.0867  0.0319  1.0000  -3.1710   0.0000   0.0000   0.0000   0.3126
  19.700   0.9444   0.22439   0.22039  -0.0884  0.0324  1.0000  -3.0472   0.0000   0.0000   0.0000   0.3149
  19.800   0.9409   0.22885   0.22483  -0.0898  0.0328  1.0000  -2.9469   0.0000   0.0000   0.0000   0.3169
  19.900   0.9383   0.23295   0.22893  -0.0912  0.0333  1.0000  -2.8623   0.0000   0.0000   0.0000   0.3186
  20.000   0.9363   0.23678   0.23275  -0.0924  0.0338  1.0000  -2.7895   0.0000   0.0000   0.0000   0.3200
  20.100   0.9347   0.24039   0.23636  -0.0935  0.0343  1.0000  -2.7263   0.0000   0.0000   0.0000   0.3213
  20.200   0.9336   0.24381   0.23978  -0.0945  0.0348  1.0000  -2.6715   0.0000   0.0000   0.0000   0.3225
  20.300   0.9328   0.24708   0.24304  -0.0954  0.0354  1.0000  -2.6242   0.0000   0.0000   0.0000   0.3235
  20.400   0.9322   0.25019   0.24616  -0.0963  0.0361  1.0000  -2.5837   0.0000   0.0000   0.0000   0.3244
  20.500   0.9319   0.25320   0.24917  -0.0970  0.0368  1.0000  -2.5495   0.0000   0.0000   0.0000   0.3251
  20.600   0.9317   0.25612   0.25209  -0.0977  0.0376  1.0000  -2.5215   0.0000   0.0000   0.0000   0.3257
  20.700   0.9313   0.25919   0.25517  -0.0980  0.0388  1.0000  -2.4984   0.0000   0.0000   0.0000   0.3259
  20.900   0.9271   0.27824   0.27427  -0.0986  0.0602  1.0000  -2.1449   0.0000   0.0000   0.0000   0.3277
  21.000   0.9273   0.28093   0.27697  -0.0993  0.0601  1.0000  -2.1277   0.0000   0.0000   0.0000   0.3283
  21.100   0.9274   0.28359   0.27964  -0.1001  0.0601  1.0000  -2.1106   0.0000   0.0000   0.0000   0.3290
  21.200   0.9275   0.28621   0.28226  -0.1008  0.0601  1.0000  -2.0936   0.0000   0.0000   0.0000   0.3297
  21.300   0.9275   0.28877   0.28483  -0.1016  0.0601  1.0000  -2.0766   0.0000   0.0000   0.0000   0.3304
  21.400   0.9273   0.29128   0.28735  -0.1023  0.0600  1.0000  -2.0596   0.0000   0.0000   0.0000   0.3311
  21.500   0.9270   0.29373   0.28981  -0.1031  0.0600  1.0000  -2.0425   0.0000   0.0000   0.0000   0.3318
  21.600   0.9266   0.29612   0.29220  -0.1038  0.0599  1.0000  -2.0252   0.0000   0.0000   0.0000   0.3326
  21.700   0.9261   0.29843   0.29452  -0.1045  0.0599  1.0000  -2.0077   0.0000   0.0000   0.0000   0.3333
  21.800   0.9253   0.30066   0.29676  -0.1053  0.0598  1.0000  -1.9898   0.0000   0.0000   0.0000   0.3341
  21.900   0.9243   0.30278   0.29889  -0.1060  0.0597  1.0000  -1.9712   0.0000   0.0000   0.0000   0.3349
  22.000   0.9231   0.30478   0.30090  -0.1067  0.0596  1.0000  -1.9519   0.0000   0.0000   0.0000   0.3357
  22.100   0.9216   0.30663   0.30276  -0.1075  0.0594  1.0000  -1.9313   0.0000   0.0000   0.0000   0.3366
  22.200   0.9184   0.30825   0.30438  -0.1083  0.0592  1.0000  -1.9010   0.0000   0.0000   0.0000   0.3379
  22.300   0.9130   0.30952   0.30566  -0.1094  0.0588  1.0000  -1.8582   0.0000   0.0000   0.0000   0.3398
  22.400   0.9056   0.31050   0.30665  -0.1108  0.0579  1.0000  -1.7994   0.0000   0.0000   0.0000   0.3423
  22.500   0.8992   0.31180   0.30796  -0.1120  0.0565  1.0000  -1.7445   0.0000   0.0000   0.0000   0.3445
  22.600   0.8747   0.30894   0.30517  -0.1103  0.0559  1.0000  -1.6619   0.0000   0.0000   0.0000   0.3467
  22.700   0.8593   0.30711   0.30339  -0.1095  0.0551  1.0000  -1.6048   0.0000   0.0000   0.0000   0.3483
  22.800   0.8510   0.30674   0.30305  -0.1094  0.0542  1.0000  -1.5689   0.0000   0.0000   0.0000   0.3495
  22.900   0.8449   0.30671   0.30305  -0.1094  0.0533  1.0000  -1.5410   0.0000   0.0000   0.0000   0.3506
  23.000   0.8399   0.30684   0.30320  -0.1095  0.0525  1.0000  -1.5179   0.0000   0.0000   0.0000   0.3515
  23.100   0.8356   0.30705   0.30344  -0.1096  0.0518  1.0000  -1.4979   0.0000   0.0000   0.0000   0.3523
  23.200   0.8319   0.30732   0.30373  -0.1097  0.0510  1.0000  -1.4805   0.0000   0.0000   0.0000   0.3530
  23.300   0.8286   0.30763   0.30406  -0.1099  0.0504  1.0000  -1.4652   0.0000   0.0000   0.0000   0.3537
  23.400   0.8258   0.30798   0.30443  -0.1100  0.0497  1.0000  -1.4516   0.0000   0.0000   0.0000   0.3543
  23.500   0.8232   0.30834   0.30481  -0.1102  0.0491  1.0000  -1.4396   0.0000   0.0000   0.0000   0.3549
  23.600   0.8209   0.30873   0.30521  -0.1104  0.0485  1.0000  -1.4290   0.0000   0.0000   0.0000   0.3555
  23.700   0.8189   0.30912   0.30562  -0.1106  0.0479  1.0000  -1.4197   0.0000   0.0000   0.0000   0.3560
  23.800   0.8170   0.30952   0.30604  -0.1108  0.0473  1.0000  -1.4117   0.0000   0.0000   0.0000   0.3565
  23.900   0.8154   0.30992   0.30646  -0.1110  0.0468  1.0000  -1.4051   0.0000   0.0000   0.0000   0.3570
  24.000   0.8140   0.31032   0.30688  -0.1112  0.0462  1.0000  -1.3997   0.0000   0.0000   0.0000   0.3574
  24.100   0.8127   0.31072   0.30730  -0.1114  0.0457  1.0000  -1.3957   0.0000   0.0000   0.0000   0.3577
  24.200   0.8116   0.31112   0.30772  -0.1116  0.0453  1.0000  -1.3930   0.0000   0.0000   0.0000   0.3581
  24.300   0.8107   0.31152   0.30813  -0.1118  0.0448  1.0000  -1.3919   0.0000   0.0000   0.0000   0.3583
  24.400   0.8099   0.31191   0.30854  -0.1119  0.0443  1.0000  -1.3923   0.0000   0.0000   0.0000   0.3586
  24.500   0.8094   0.31230   0.30894  -0.1121  0.0439  1.0000  -1.3945   0.0000   0.0000   0.0000   0.3587
  24.600   0.8090   0.31269   0.30935  -0.1122  0.0435  1.0000  -1.3985   0.0000   0.0000   0.0000   0.3588
  24.700   0.8088   0.31310   0.30978  -0.1123  0.0431  1.0000  -1.4047   0.0000   0.0000   0.0000   0.3588
  24.800   0.8089   0.31354   0.31024  -0.1123  0.0427  1.0000  -1.4133   0.0000   0.0000   0.0000   0.3587
  24.900   0.8094   0.31405   0.31077  -0.1123  0.0423  1.0000  -1.4249   0.0000   0.0000   0.0000   0.3585
  25.000   0.8103   0.31471   0.31145  -0.1122  0.0419  1.0000  -1.4400   0.0000   0.0000   0.0000   0.3581
  25.100   0.8119   0.31569   0.31245  -0.1120  0.0416  1.0000  -1.4597   0.0000   0.0000   0.0000   0.3574
  25.200   0.8152   0.31764   0.31442  -0.1116  0.0411  1.0000  -1.4877   0.0000   0.0000   0.0000   0.3562
  25.300   0.8122   0.32382   0.32056  -0.1114  0.0401  1.0000  -1.4335   0.0000   0.0000   0.0000   0.3566
  25.400   0.8109   0.32441   0.32116  -0.1119  0.0401  1.0000  -1.4178   0.0000   0.0000   0.0000   0.3573
  25.500   0.8096   0.32498   0.32175  -0.1123  0.0401  1.0000  -1.4022   0.0000   0.0000   0.0000   0.3580
  25.600   0.8083   0.32554   0.32233  -0.1127  0.0400  1.0000  -1.3868   0.0000   0.0000   0.0000   0.3586
  25.700   0.8071   0.32610   0.32289  -0.1132  0.0400  1.0000  -1.3716   0.0000   0.0000   0.0000   0.3593
  25.800   0.8060   0.32664   0.32344  -0.1136  0.0400  1.0000  -1.3566   0.0000   0.0000   0.0000   0.3600
  25.900   0.8048   0.32715   0.32397  -0.1141  0.0400  1.0000  -1.3416   0.0000   0.0000   0.0000   0.3607
  26.000   0.8037   0.32763   0.32446  -0.1145  0.0399  1.0000  -1.3267   0.0000   0.0000   0.0000   0.3613
  26.100   0.8025   0.32810   0.32494  -0.1150  0.0399  1.0000  -1.3119   0.0000   0.0000   0.0000   0.3620
  26.200   0.8014   0.32855   0.32540  -0.1154  0.0398  1.0000  -1.2973   0.0000   0.0000   0.0000   0.3627
  26.300   0.8003   0.32897   0.32583  -0.1159  0.0398  1.0000  -1.2827   0.0000   0.0000   0.0000   0.3634
  26.400   0.7992   0.32933   0.32620  -0.1164  0.0397  1.0000  -1.2677   0.0000   0.0000   0.0000   0.3641
  26.500   0.7974   0.32951   0.32640  -0.1169  0.0397  1.0000  -1.2490   0.0000   0.0000   0.0000   0.3650
  26.600   0.7955   0.32961   0.32650  -0.1175  0.0396  1.0000  -1.2288   0.0000   0.0000   0.0000   0.3660
  26.700   0.7936   0.32970   0.32660  -0.1181  0.0395  1.0000  -1.2085   0.0000   0.0000   0.0000   0.3670
  26.800   0.7918   0.32977   0.32668  -0.1187  0.0394  1.0000  -1.1878   0.0000   0.0000   0.0000   0.3681
  26.900   0.7900   0.32985   0.32676  -0.1194  0.0393  1.0000  -1.1665   0.0000   0.0000   0.0000   0.3691
  27.000   0.7883   0.32995   0.32687  -0.1202  0.0391  1.0000  -1.1441   0.0000   0.0000   0.0000   0.3703
  27.100   0.7867   0.33013   0.32706  -0.1210  0.0388  1.0000  -1.1202   0.0000   0.0000   0.0000   0.3715
  27.200   0.7856   0.33052   0.32745  -0.1219  0.0384  1.0000  -1.0943   0.0000   0.0000   0.0000   0.3728
  27.300   0.7849   0.33122   0.32816  -0.1229  0.0377  1.0000  -1.0684   0.0000   0.0000   0.0000   0.3741
  27.400   0.7847   0.33211   0.32906  -0.1237  0.0368  1.0000  -1.0475   0.0000   0.0000   0.0000   0.3751
  27.500   0.7846   0.33299   0.32994  -0.1244  0.0359  1.0000  -1.0328   0.0000   0.0000   0.0000   0.3758
  27.600   0.7845   0.33379   0.33076  -0.1249  0.0349  1.0000  -1.0221   0.0000   0.0000   0.0000   0.3764
  27.700   0.7844   0.33455   0.33153  -0.1254  0.0341  1.0000  -1.0140   0.0000   0.0000   0.0000   0.3769
  27.800   0.7843   0.33527   0.33226  -0.1259  0.0333  1.0000  -1.0077   0.0000   0.0000   0.0000   0.3773
  27.900   0.7842   0.33596   0.33296  -0.1264  0.0325  1.0000  -1.0026   0.0000   0.0000   0.0000   0.3778
  28.000   0.7842   0.33663   0.33364  -0.1268  0.0318  1.0000  -0.9984   0.0000   0.0000   0.0000   0.3782
  28.100   0.7842   0.33728   0.33430  -0.1272  0.0312  1.0000  -0.9950   0.0000   0.0000   0.0000   0.3786
  28.200   0.7842   0.33792   0.33496  -0.1276  0.0306  1.0000  -0.9921   0.0000   0.0000   0.0000   0.3789
  28.300   0.7842   0.33856   0.33560  -0.1281  0.0302  1.0000  -0.9895   0.0000   0.0000   0.0000   0.3793
  28.400   0.7842   0.33919   0.33625  -0.1285  0.0297  1.0000  -0.9869   0.0000   0.0000   0.0000   0.3796
  28.500   0.7842   0.33982   0.33689  -0.1289  0.0294  1.0000  -0.9845   0.0000   0.0000   0.0000   0.3800
  28.600   0.7843   0.34045   0.33752  -0.1293  0.0290  1.0000  -0.9826   0.0000   0.0000   0.0000   0.3803
  28.700   0.7843   0.34106   0.33814  -0.1297  0.0286  1.0000  -0.9813   0.0000   0.0000   0.0000   0.3806
  28.800   0.7845   0.34164   0.33880  -0.1301  0.0282  1.0000  -0.9815   0.0000   0.0000   0.0000   0.3809
  28.900   0.7846   0.34222   0.33940  -0.1305  0.0279  1.0000  -0.9817   0.0000   0.0000   0.0000   0.3812
  29.000   0.7847   0.34279   0.33998  -0.1309  0.0276  1.0000  -0.9826   0.0000   0.0000   0.0000   0.3814
  29.100   0.7848   0.34335   0.34055  -0.1312  0.0272  1.0000  -0.9843   0.0000   0.0000   0.0000   0.3817
  29.200   0.7850   0.34390   0.34110  -0.1316  0.0270  1.0000  -0.9867   0.0000   0.0000   0.0000   0.3819
  29.300   0.7852   0.34443   0.34165  -0.1320  0.0267  1.0000  -0.9901   0.0000   0.0000   0.0000   0.3821
  29.400   0.7854   0.34495   0.34218  -0.1323  0.0264  1.0000  -0.9944   0.0000   0.0000   0.0000   0.3823
  29.500   0.7857   0.34545   0.34270  -0.1326  0.0261  1.0000  -0.9997   0.0000   0.0000   0.0000   0.3824
  29.600   0.7859   0.34596   0.34321  -0.1329  0.0259  1.0000  -1.0062   0.0000   0.0000   0.0000   0.3825
  29.700   0.7863   0.34646   0.34373  -0.1332  0.0256  1.0000  -1.0140   0.0000   0.0000   0.0000   0.3826
  29.800   0.7867   0.34698   0.34426  -0.1334  0.0254  1.0000  -1.0232   0.0000   0.0000   0.0000   0.3825
  29.900   0.7872   0.34755   0.34484  -0.1336  0.0252  1.0000  -1.0341   0.0000   0.0000   0.0000   0.3824
  30.000   0.7879   0.34822   0.34553  -0.1337  0.0249  1.0000  -1.0469   0.0000   0.0000   0.0000   0.3822


