xflr5 v6.61

 Calculated polar for: S2027

 1 1 Reynolds number fixed          Mach number fixed         

 xtrf =   1.000 (top)        1.000 (bottom)
 Mach =   0.000     Re =     1.000 e 6     Ncrit =   9.000

  alpha     CL        CD       CDp       Cm    Top Xtr Bot Xtr   Cpmin    Chinge    XCp    
 ------- -------- --------- --------- -------- ------- ------- -------- --------- ---------
 -10.000  -0.5439   0.04602   0.04378  -0.0728  0.9026  0.0142  -4.1456   0.0000   0.0000   0.0000   0.1030
  -9.900  -0.5512   0.04489   0.04256  -0.0726  0.8929  0.0142  -4.1627   0.0000   0.0000   0.0000   0.1054
  -9.800  -0.5576   0.04389   0.04149  -0.0722  0.8843  0.0143  -4.1714   0.0000   0.0000   0.0000   0.1080
  -9.700  -0.5631   0.04300   0.04055  -0.0715  0.8792  0.0143  -4.1721   0.0000   0.0000   0.0000   0.1107
  -9.600  -0.5677   0.04224   0.03974  -0.0706  0.8735  0.0144  -4.1651   0.0000   0.0000   0.0000   0.1137
  -9.500  -0.5693   0.04147   0.03891  -0.0700  0.8680  0.0145  -4.1434   0.0000   0.0000   0.0000   0.1152
  -9.400  -0.5694   0.04071   0.03808  -0.0695  0.8625  0.0147  -4.1141   0.0000   0.0000   0.0000   0.1163
  -9.300  -0.5686   0.04000   0.03730  -0.0691  0.8567  0.0148  -4.0783   0.0000   0.0000   0.0000   0.1170
  -9.200  -0.5664   0.03936   0.03660  -0.0687  0.8506  0.0150  -4.0333   0.0000   0.0000   0.0000   0.1174
  -9.100  -0.5634   0.03869   0.03589  -0.0684  0.8474  0.0152  -3.9854   0.0000   0.0000   0.0000   0.1173
  -9.000  -0.5601   0.03802   0.03518  -0.0681  0.8450  0.0154  -3.9361   0.0000   0.0000   0.0000   0.1172
  -8.900  -0.5564   0.03736   0.03448  -0.0679  0.8421  0.0156  -3.8857   0.0000   0.0000   0.0000   0.1169
  -8.800  -0.5523   0.03671   0.03378  -0.0676  0.8388  0.0159  -3.8345   0.0000   0.0000   0.0000   0.1166
  -8.700  -0.5479   0.03607   0.03309  -0.0673  0.8351  0.0162  -3.7824   0.0000   0.0000   0.0000   0.1162
  -8.600  -0.5432   0.03545   0.03241  -0.0671  0.8310  0.0165  -3.7298   0.0000   0.0000   0.0000   0.1158
  -8.500  -0.5381   0.03483   0.03173  -0.0668  0.8267  0.0168  -3.6768   0.0000   0.0000   0.0000   0.1153
  -8.400  -0.5328   0.03423   0.03106  -0.0665  0.8220  0.0172  -3.6234   0.0000   0.0000   0.0000   0.1147
  -8.300  -0.5272   0.03364   0.03041  -0.0662  0.8167  0.0176  -3.5696   0.0000   0.0000   0.0000   0.1140
  -8.200  -0.5212   0.03307   0.02976  -0.0659  0.8108  0.0180  -3.5150   0.0000   0.0000   0.0000   0.1131
  -8.100  -0.5145   0.03250   0.02914  -0.0657  0.8076  0.0185  -3.4589   0.0000   0.0000   0.0000   0.1119
  -8.000  -0.5074   0.03194   0.02854  -0.0655  0.8058  0.0190  -3.4013   0.0000   0.0000   0.0000   0.1105
  -7.900  -0.4999   0.03143   0.02799  -0.0653  0.8036  0.0196  -3.3421   0.0000   0.0000   0.0000   0.1090
  -7.800  -0.4919   0.03099   0.02751  -0.0652  0.8009  0.0203  -3.2807   0.0000   0.0000   0.0000   0.1072
  -7.700  -0.4832   0.03066   0.02714  -0.0650  0.7981  0.0210  -3.2148   0.0000   0.0000   0.0000   0.1052
  -7.600  -0.4736   0.03050   0.02695  -0.0649  0.7950  0.0218  -3.1407   0.0000   0.0000   0.0000   0.1028
  -7.500  -0.4625   0.03069   0.02714  -0.0648  0.7918  0.0226  -3.0494   0.0000   0.0000   0.0000   0.0997
  -7.400  -0.4444   0.03253   0.02906  -0.0649  0.7883  0.0238  -2.8758   0.0000   0.0000   0.0000   0.0936
  -7.300  -0.4274   0.03431   0.03088  -0.0649  0.7845  0.0244  -2.7199   0.0000   0.0000   0.0000   0.0878
  -7.200  -0.4196   0.03394   0.03044  -0.0646  0.7803  0.0245  -2.6714   0.0000   0.0000   0.0000   0.0856
  -7.100  -0.4126   0.03335   0.02977  -0.0644  0.7757  0.0246  -2.6339   0.0000   0.0000   0.0000   0.0837
  -7.000  -0.4058   0.03267   0.02900  -0.0641  0.7706  0.0246  -2.6003   0.0000   0.0000   0.0000   0.0818
  -6.900  -0.3989   0.03195   0.02818  -0.0638  0.7655  0.0247  -2.5684   0.0000   0.0000   0.0000   0.0797
  -6.400  -0.3839   0.02061   0.01603  -0.0619  0.7570  0.0292  -2.6957   0.0000   0.0000   0.0000   0.0785
  -6.300  -0.3743   0.02027   0.01568  -0.0619  0.7541  0.0301  -2.6236   0.0000   0.0000   0.0000   0.0745
  -6.200  -0.3648   0.01999   0.01537  -0.0619  0.7507  0.0311  -2.5527   0.0000   0.0000   0.0000   0.0703
  -6.100  -0.3550   0.01972   0.01508  -0.0618  0.7470  0.0321  -2.4821   0.0000   0.0000   0.0000   0.0657
  -6.000  -0.3451   0.01947   0.01480  -0.0618  0.7429  0.0332  -2.4134   0.0000   0.0000   0.0000   0.0608
  -5.900  -0.3352   0.01922   0.01452  -0.0617  0.7385  0.0345  -2.3474   0.0000   0.0000   0.0000   0.0557
  -5.800  -0.3251   0.01900   0.01426  -0.0616  0.7336  0.0360  -2.2836   0.0000   0.0000   0.0000   0.0502
  -5.700  -0.3149   0.01873   0.01394  -0.0615  0.7282  0.0372  -2.2267   0.0000   0.0000   0.0000   0.0444
  -5.600  -0.3046   0.01841   0.01357  -0.0613  0.7229  0.0383  -2.1750   0.0000   0.0000   0.0000   0.0381
  -5.500  -0.2939   0.01813   0.01325  -0.0612  0.7198  0.0394  -2.1223   0.0000   0.0000   0.0000   0.0311
  -5.400  -0.2830   0.01791   0.01302  -0.0612  0.7187  0.0405  -2.0676   0.0000   0.0000   0.0000   0.0232
  -5.300  -0.2717   0.01783   0.01292  -0.0611  0.7173  0.0416  -2.0093   0.0000   0.0000   0.0000   0.0143
  -5.200  -0.2599   0.01805   0.01315  -0.0611  0.7155  0.0426  -1.9412   0.0000   0.0000   0.0000   0.0040
  -5.100  -0.2461   0.01936   0.01451  -0.0612  0.7132  0.0435  -1.8385   0.0000   0.0000   0.0000  -0.0097
  -5.000  -0.2351   0.01922   0.01433  -0.0610  0.7108  0.0437  -1.7898   0.0000   0.0000   0.0000  -0.0210
  -4.900  -0.2247   0.01875   0.01381  -0.0609  0.7080  0.0437  -1.7523   0.0000   0.0000   0.0000  -0.0326
  -4.700  -0.2120   0.01166   0.00605  -0.0578  0.7034  0.0217  -2.1270   0.0000   0.0000   0.0000  -0.0348
  -4.600  -0.2029   0.01103   0.00532  -0.0573  0.7002  0.0201  -2.1330   0.0000   0.0000   0.0000  -0.0445
  -4.500  -0.1931   0.01060   0.00478  -0.0569  0.6965  0.0189  -2.1224   0.0000   0.0000   0.0000  -0.0569
  -4.400  -0.1830   0.01028   0.00436  -0.0566  0.6924  0.0179  -2.1024   0.0000   0.0000   0.0000  -0.0718
  -4.300  -0.1725   0.01005   0.00403  -0.0563  0.6876  0.0171  -2.0731   0.0000   0.0000   0.0000  -0.0895
  -4.200  -0.1618   0.00987   0.00377  -0.0562  0.6818  0.0165  -2.0322   0.0000   0.0000   0.0000  -0.1105
  -4.100  -0.1510   0.00974   0.00356  -0.0561  0.6758  0.0161  -1.9829   0.0000   0.0000   0.0000  -0.1352
  -4.000  -0.1399   0.00961   0.00338  -0.0560  0.6727  0.0158  -1.9290   0.0000   0.0000   0.0000  -0.1649
  -3.900  -0.1287   0.00948   0.00322  -0.0560  0.6715  0.0155  -1.8730   0.0000   0.0000   0.0000  -0.2004
  -3.800  -0.1174   0.00936   0.00307  -0.0560  0.6698  0.0152  -1.8163   0.0000   0.0000   0.0000  -0.2429
  -3.700  -0.1061   0.00925   0.00293  -0.0559  0.6679  0.0150  -1.7597   0.0000   0.0000   0.0000  -0.2947
  -3.600  -0.0947   0.00915   0.00280  -0.0559  0.6656  0.0149  -1.7037   0.0000   0.0000   0.0000  -0.3590
  -3.500  -0.0834   0.00907   0.00267  -0.0559  0.6631  0.0148  -1.6488   0.0000   0.0000   0.0000  -0.4408
  -3.300  -0.0644   0.00804   0.00204  -0.0555  0.6575  0.1216  -1.6725   0.0000   0.0000   0.0000  -0.6361
  -3.200  -0.0541   0.00779   0.00195  -0.0555  0.6542  0.1596  -1.6061   0.0000   0.0000   0.0000  -0.8033
  -3.100  -0.0438   0.00757   0.00186  -0.0555  0.6507  0.1979  -1.5392   0.0000   0.0000   0.0000  -1.0500
  -3.000  -0.0320   0.00763   0.00178  -0.0555  0.6468  0.1872  -1.4627   0.0000   0.0000   0.0000  -1.5292
  -2.900  -0.0215   0.00746   0.00172  -0.0556  0.6426  0.2218  -1.3963   0.0000   0.0000   0.0000  -2.3923
  -2.800  -0.0109   0.00731   0.00166  -0.0556  0.6377  0.2524  -1.3299   0.0000   0.0000   0.0000  -4.9434
  -2.700  -0.0005   0.00713   0.00161  -0.0556  0.6323  0.2885  -1.2647   0.0000   0.0000   0.0000  -108.2305
  -2.600   0.0101   0.00698   0.00157  -0.0556  0.6269  0.3216  -1.1996   0.0000   0.0000   0.0000   5.8729
  -2.500   0.0212   0.00689   0.00154  -0.0556  0.6246  0.3443  -1.1334   0.0000   0.0000   0.0000   2.9219
  -2.400   0.0321   0.00672   0.00150  -0.0557  0.6235  0.3777  -1.0690   0.0000   0.0000   0.0000   2.0171
  -2.300   0.0434   0.00664   0.00148  -0.0558  0.6220  0.3967  -1.0038   0.0000   0.0000   0.0000   1.5554
  -2.200   0.0543   0.00650   0.00146  -0.0558  0.6200  0.4269  -0.9409   0.0000   0.0000   0.0000   1.2927
  -2.100   0.0653   0.00638   0.00145  -0.0558  0.6176  0.4605  -0.8787   0.0000   0.0000   0.0000   1.1173
  -2.000   0.0761   0.00628   0.00145  -0.0558  0.6149  0.4906  -0.8174   0.0000   0.0000   0.0000   0.9923
  -1.900   0.0876   0.00625   0.00143  -0.0558  0.6119  0.5030  -0.7557   0.0000   0.0000   0.0000   0.8953
  -1.800   0.0986   0.00618   0.00144  -0.0558  0.6088  0.5232  -0.6961   0.0000   0.0000   0.0000   0.8224
  -1.700   0.1099   0.00616   0.00144  -0.0559  0.6055  0.5363  -0.6367   0.0000   0.0000   0.0000   0.7633
  -1.600   0.1214   0.00617   0.00143  -0.0559  0.6019  0.5420  -0.6252   0.0000   0.0000   0.0000   0.7146
  -1.500   0.1328   0.00619   0.00142  -0.0560  0.5981  0.5450  -0.6342   0.0000   0.0000   0.0000   0.6743
  -1.400   0.1443   0.00622   0.00141  -0.0560  0.5937  0.5470  -0.6433   0.0000   0.0000   0.0000   0.6405
  -1.300   0.1556   0.00622   0.00140  -0.0561  0.5888  0.5561  -0.6522   0.0000   0.0000   0.0000   0.6120
  -1.200   0.1668   0.00621   0.00141  -0.0561  0.5835  0.5667  -0.6610   0.0000   0.0000   0.0000   0.5874
  -1.100   0.1780   0.00621   0.00142  -0.0561  0.5784  0.5750  -0.6699   0.0000   0.0000   0.0000   0.5659
  -1.000   0.1895   0.00620   0.00142  -0.0562  0.5759  0.5815  -0.6790   0.0000   0.0000   0.0000   0.5467
  -0.900   0.2012   0.00619   0.00142  -0.0562  0.5749  0.5869  -0.6882   0.0000   0.0000   0.0000   0.5296
  -0.800   0.2129   0.00619   0.00142  -0.0563  0.5737  0.5916  -0.6975   0.0000   0.0000   0.0000   0.5143
  -0.700   0.2246   0.00619   0.00142  -0.0564  0.5720  0.5953  -0.7068   0.0000   0.0000   0.0000   0.5007
  -0.600   0.2363   0.00620   0.00142  -0.0565  0.5699  0.5977  -0.7170   0.0000   0.0000   0.0000   0.4884
  -0.500   0.2480   0.00621   0.00142  -0.0566  0.5674  0.5994  -0.7275   0.0000   0.0000   0.0000   0.4772
  -0.400   0.2595   0.00621   0.00141  -0.0567  0.5645  0.6042  -0.7380   0.0000   0.0000   0.0000   0.4671
  -0.300   0.2709   0.00620   0.00141  -0.0567  0.5614  0.6123  -0.7483   0.0000   0.0000   0.0000   0.4579
  -0.200   0.2823   0.00620   0.00142  -0.0568  0.5583  0.6195  -0.7587   0.0000   0.0000   0.0000   0.4495
  -0.100   0.2936   0.00620   0.00143  -0.0568  0.5550  0.6252  -0.7691   0.0000   0.0000   0.0000   0.4416
   0.000   0.3049   0.00621   0.00144  -0.0569  0.5515  0.6298  -0.7794   0.0000   0.0000   0.0000   0.4344
   0.100   0.3162   0.00624   0.00144  -0.0569  0.5475  0.6341  -0.7898   0.0000   0.0000   0.0000   0.4277
   0.200   0.3275   0.00626   0.00145  -0.0569  0.5430  0.6383  -0.8002   0.0000   0.0000   0.0000   0.4214
   0.300   0.3388   0.00629   0.00144  -0.0570  0.5379  0.6423  -0.8106   0.0000   0.0000   0.0000   0.4156
   0.400   0.3502   0.00633   0.00146  -0.0570  0.5328  0.6455  -0.8210   0.0000   0.0000   0.0000   0.4102
   0.500   0.3616   0.00637   0.00147  -0.0571  0.5281  0.6480  -0.8314   0.0000   0.0000   0.0000   0.4051
   0.600   0.3733   0.00638   0.00148  -0.0572  0.5267  0.6498  -0.8421   0.0000   0.0000   0.0000   0.4003
   0.700   0.3851   0.00639   0.00149  -0.0573  0.5259  0.6513  -0.8529   0.0000   0.0000   0.0000   0.3958
   0.800   0.3968   0.00640   0.00149  -0.0574  0.5249  0.6529  -0.8637   0.0000   0.0000   0.0000   0.3915
   0.900   0.4083   0.00638   0.00151  -0.0575  0.5236  0.6598  -0.8744   0.0000   0.0000   0.0000   0.3875
   1.000   0.4198   0.00637   0.00152  -0.0576  0.5218  0.6668  -0.8851   0.0000   0.0000   0.0000   0.3838
   1.100   0.4312   0.00636   0.00153  -0.0576  0.5196  0.6729  -0.8958   0.0000   0.0000   0.0000   0.3802
   1.200   0.4426   0.00636   0.00155  -0.0577  0.5170  0.6779  -0.9073   0.0000   0.0000   0.0000   0.3767
   1.300   0.4540   0.00637   0.00156  -0.0577  0.5138  0.6822  -0.9194   0.0000   0.0000   0.0000   0.3735
   1.400   0.4653   0.00639   0.00157  -0.0578  0.5104  0.6859  -0.9316   0.0000   0.0000   0.0000   0.3704
   1.500   0.4766   0.00642   0.00159  -0.0578  0.5067  0.6894  -0.9437   0.0000   0.0000   0.0000   0.3674
   1.600   0.4879   0.00645   0.00160  -0.0579  0.5030  0.6929  -0.9558   0.0000   0.0000   0.0000   0.3646
   1.700   0.4991   0.00649   0.00162  -0.0579  0.4990  0.6962  -0.9679   0.0000   0.0000   0.0000   0.3619
   1.800   0.5103   0.00654   0.00164  -0.0580  0.4945  0.6991  -0.9800   0.0000   0.0000   0.0000   0.3593
   1.900   0.5216   0.00659   0.00166  -0.0580  0.4894  0.7013  -0.9921   0.0000   0.0000   0.0000   0.3569
   2.000   0.5329   0.00664   0.00168  -0.0581  0.4842  0.7030  -1.0042   0.0000   0.0000   0.0000   0.3545
   2.100   0.5440   0.00667   0.00171  -0.0581  0.4794  0.7080  -1.0163   0.0000   0.0000   0.0000   0.3523
   2.200   0.5554   0.00667   0.00173  -0.0582  0.4779  0.7148  -1.0286   0.0000   0.0000   0.0000   0.3501
   2.300   0.5669   0.00666   0.00176  -0.0582  0.4771  0.7209  -1.0410   0.0000   0.0000   0.0000   0.3480
   2.400   0.5783   0.00665   0.00178  -0.0583  0.4761  0.7262  -1.0534   0.0000   0.0000   0.0000   0.3460
   2.500   0.5897   0.00665   0.00180  -0.0584  0.4749  0.7313  -1.0659   0.0000   0.0000   0.0000   0.3441
   2.600   0.6011   0.00666   0.00183  -0.0584  0.4734  0.7363  -1.0783   0.0000   0.0000   0.0000   0.3422
   2.700   0.6125   0.00667   0.00185  -0.0585  0.4714  0.7411  -1.0908   0.0000   0.0000   0.0000   0.3404
   2.800   0.6238   0.00669   0.00187  -0.0585  0.4689  0.7455  -1.1033   0.0000   0.0000   0.0000   0.3387
   2.900   0.6352   0.00672   0.00190  -0.0586  0.4659  0.7491  -1.1158   0.0000   0.0000   0.0000   0.3370
   3.000   0.6465   0.00675   0.00192  -0.0587  0.4623  0.7518  -1.1294   0.0000   0.0000   0.0000   0.3354
   3.100   0.6575   0.00679   0.00195  -0.0587  0.4582  0.7576  -1.1434   0.0000   0.0000   0.0000   0.3338
   3.200   0.6683   0.00682   0.00198  -0.0586  0.4537  0.7656  -1.1573   0.0000   0.0000   0.0000   0.3322
   3.300   0.6790   0.00686   0.00202  -0.0586  0.4487  0.7724  -1.1712   0.0000   0.0000   0.0000   0.3306
   3.400   0.6897   0.00691   0.00206  -0.0586  0.4433  0.7787  -1.1850   0.0000   0.0000   0.0000   0.3291
   3.500   0.7005   0.00695   0.00210  -0.0585  0.4378  0.7850  -1.1989   0.0000   0.0000   0.0000   0.3277
   3.600   0.7114   0.00700   0.00215  -0.0585  0.4326  0.7910  -1.2129   0.0000   0.0000   0.0000   0.3263
   3.700   0.7225   0.00703   0.00219  -0.0585  0.4298  0.7962  -1.2272   0.0000   0.0000   0.0000   0.3250
   3.900   0.7449   0.00703   0.00230  -0.0586  0.4280  0.8119  -1.2560   0.0000   0.0000   0.0000   0.3224
   4.000   0.7558   0.00703   0.00233  -0.0585  0.4267  0.8206  -1.2703   0.0000   0.0000   0.0000   0.3211
   4.100   0.7668   0.00704   0.00237  -0.0585  0.4251  0.8284  -1.2847   0.0000   0.0000   0.0000   0.3199
   4.200   0.7778   0.00706   0.00240  -0.0585  0.4230  0.8354  -1.2991   0.0000   0.0000   0.0000   0.3187
   4.300   0.7889   0.00709   0.00244  -0.0585  0.4205  0.8413  -1.3136   0.0000   0.0000   0.0000   0.3176
   4.400   0.7995   0.00711   0.00248  -0.0584  0.4173  0.8504  -1.3277   0.0000   0.0000   0.0000   0.3164
   4.500   0.8097   0.00713   0.00253  -0.0583  0.4137  0.8604  -1.3425   0.0000   0.0000   0.0000   0.3151
   4.600   0.8199   0.00718   0.00257  -0.0581  0.4093  0.8699  -1.3584   0.0000   0.0000   0.0000   0.3139
   4.700   0.8301   0.00724   0.00262  -0.0580  0.4044  0.8786  -1.3744   0.0000   0.0000   0.0000   0.3128
   4.800   0.8397   0.00730   0.00267  -0.0577  0.3987  0.8891  -1.3899   0.0000   0.0000   0.0000   0.3115
   4.900   0.8490   0.00735   0.00273  -0.0573  0.3924  0.9023  -1.4051   0.0000   0.0000   0.0000   0.3102
   5.000   0.8587   0.00740   0.00279  -0.0570  0.3867  0.9149  -1.4206   0.0000   0.0000   0.0000   0.3091
   5.100   0.8678   0.00743   0.00284  -0.0566  0.3830  0.9302  -1.4358   0.0000   0.0000   0.0000   0.3077
   5.300   0.8910   0.00743   0.00291  -0.0568  0.3812  0.9608  -1.4707   0.0000   0.0000   0.0000   0.3060
   5.400   0.9059   0.00745   0.00295  -0.0576  0.3796  0.9738  -1.4910   0.0000   0.0000   0.0000   0.3058
   5.600   0.9371   0.00753   0.00303  -0.0597  0.3740  1.0000  -1.5381   0.0000   0.0000   0.0000   0.3057
   5.700   0.9478   0.00760   0.00308  -0.0597  0.3703  1.0000  -1.5575   0.0000   0.0000   0.0000   0.3049
   5.800   0.9584   0.00767   0.00313  -0.0597  0.3661  1.0000  -1.5769   0.0000   0.0000   0.0000   0.3040
   5.900   0.9688   0.00776   0.00319  -0.0597  0.3617  1.0000  -1.5961   0.0000   0.0000   0.0000   0.3032
   6.000   0.9791   0.00786   0.00325  -0.0596  0.3573  1.0000  -1.6153   0.0000   0.0000   0.0000   0.3024
   6.100   0.9894   0.00796   0.00332  -0.0596  0.3521  1.0000  -1.6345   0.0000   0.0000   0.0000   0.3016
   6.200   0.9997   0.00805   0.00339  -0.0595  0.3463  1.0000  -1.6537   0.0000   0.0000   0.0000   0.3008
   6.300   1.0100   0.00815   0.00347  -0.0595  0.3407  1.0000  -1.6729   0.0000   0.0000   0.0000   0.3000
   6.400   1.0206   0.00822   0.00354  -0.0594  0.3373  1.0000  -1.6926   0.0000   0.0000   0.0000   0.2993
   6.500   1.0317   0.00826   0.00359  -0.0595  0.3365  1.0000  -1.7168   0.0000   0.0000   0.0000   0.2986
   6.600   1.0427   0.00830   0.00364  -0.0596  0.3354  1.0000  -1.7448   0.0000   0.0000   0.0000   0.2979
   6.700   1.0537   0.00835   0.00370  -0.0596  0.3337  1.0000  -1.7772   0.0000   0.0000   0.0000   0.2972
   6.800   1.0644   0.00841   0.00376  -0.0596  0.3307  1.0000  -1.8112   0.0000   0.0000   0.0000   0.2965
   6.900   1.0747   0.00850   0.00382  -0.0596  0.3256  1.0000  -1.8448   0.0000   0.0000   0.0000   0.2958
   7.000   1.0844   0.00863   0.00391  -0.0594  0.3182  1.0000  -1.8774   0.0000   0.0000   0.0000   0.2951
   7.100   1.0936   0.00881   0.00401  -0.0592  0.3091  1.0000  -1.9155   0.0000   0.0000   0.0000   0.2943
   7.200   1.1024   0.00901   0.00424  -0.0590  0.2931  1.0000  -1.9525   0.0000   0.0000   0.0000   0.2935
   7.300   1.1129   0.00908   0.00430  -0.0590  0.2895  1.0000  -1.9955   0.0000   0.0000   0.0000   0.2929
   7.400   1.1229   0.00919   0.00439  -0.0589  0.2838  1.0000  -2.0378   0.0000   0.0000   0.0000   0.2922
   7.500   1.1322   0.00935   0.00450  -0.0587  0.2757  1.0000  -2.0942   0.0000   0.0000   0.0000   0.2915
   7.600   1.1408   0.00956   0.00464  -0.0584  0.2658  1.0000  -2.1703   0.0000   0.0000   0.0000   0.2907
   7.700   1.1498   0.00975   0.00477  -0.0582  0.2544  1.0000  -2.2488   0.0000   0.0000   0.0000   0.2900
   7.800   1.1599   0.00984   0.00486  -0.0581  0.2505  1.0000  -2.3332   0.0000   0.0000   0.0000   0.2893
   7.900   1.1702   0.00992   0.00494  -0.0581  0.2480  1.0000  -2.4193   0.0000   0.0000   0.0000   0.2887
   8.000   1.1802   0.01002   0.00504  -0.0580  0.2446  1.0000  -2.5055   0.0000   0.0000   0.0000   0.2881
   8.100   1.1899   0.01014   0.00514  -0.0579  0.2398  1.0000  -2.5911   0.0000   0.0000   0.0000   0.2875
   8.200   1.1990   0.01030   0.00527  -0.0576  0.2336  1.0000  -2.6754   0.0000   0.0000   0.0000   0.2868
   8.300   1.2075   0.01050   0.00542  -0.0574  0.2264  1.0000  -2.7583   0.0000   0.0000   0.0000   0.2861
   8.400   1.2161   0.01070   0.00556  -0.0571  0.2176  1.0000  -2.8424   0.0000   0.0000   0.0000   0.2854
   8.500   1.2256   0.01082   0.00568  -0.0569  0.2118  1.0000  -2.9310   0.0000   0.0000   0.0000   0.2847
   8.600   1.2354   0.01093   0.00578  -0.0568  0.2091  1.0000  -3.0222   0.0000   0.0000   0.0000   0.2841
   8.700   1.2447   0.01106   0.00590  -0.0566  0.2048  1.0000  -3.1123   0.0000   0.0000   0.0000   0.2835
   8.800   1.2532   0.01124   0.00606  -0.0563  0.1982  1.0000  -3.1997   0.0000   0.0000   0.0000   0.2828
   8.900   1.2607   0.01149   0.00624  -0.0559  0.1898  1.0000  -3.2833   0.0000   0.0000   0.0000   0.2821
   9.000   1.2681   0.01175   0.00643  -0.0555  0.1795  1.0000  -3.3670   0.0000   0.0000   0.0000   0.2813
   9.100   1.2769   0.01190   0.00657  -0.0552  0.1740  1.0000  -3.4584   0.0000   0.0000   0.0000   0.2807
   9.200   1.2855   0.01206   0.00672  -0.0550  0.1694  1.0000  -3.5498   0.0000   0.0000   0.0000   0.2800
   9.300   1.2928   0.01230   0.00691  -0.0545  0.1618  1.0000  -3.6357   0.0000   0.0000   0.0000   0.2793
   9.400   1.2987   0.01262   0.00716  -0.0539  0.1521  1.0000  -3.7152   0.0000   0.0000   0.0000   0.2784
   9.500   1.3054   0.01289   0.00737  -0.0533  0.1417  1.0000  -3.7995   0.0000   0.0000   0.0000   0.2777
   9.600   1.3132   0.01308   0.00755  -0.0529  0.1371  1.0000  -3.8898   0.0000   0.0000   0.0000   0.2770
   9.700   1.3194   0.01335   0.00777  -0.0523  0.1295  1.0000  -3.9732   0.0000   0.0000   0.0000   0.2762
   9.800   1.3237   0.01372   0.00807  -0.0515  0.1201  1.0000  -4.0478   0.0000   0.0000   0.0000   0.2753
   9.900   1.3293   0.01401   0.00831  -0.0508  0.1107  1.0000  -4.1290   0.0000   0.0000   0.0000   0.2744
  10.000   1.3354   0.01424   0.00852  -0.0501  0.1058  1.0000  -4.2136   0.0000   0.0000   0.0000   0.2736
  10.100   1.3388   0.01455   0.00878  -0.0490  0.0987  1.0000  -4.2854   0.0000   0.0000   0.0000   0.2726
  10.200   1.3395   0.01498   0.00914  -0.0476  0.0898  1.0000  -4.3438   0.0000   0.0000   0.0000   0.2713
  10.300   1.3429   0.01528   0.00941  -0.0465  0.0822  1.0000  -4.4203   0.0000   0.0000   0.0000   0.2703
  10.400   1.3463   0.01560   0.00970  -0.0455  0.0771  1.0000  -4.4977   0.0000   0.0000   0.0000   0.2693
  10.500   1.3485   0.01598   0.01003  -0.0444  0.0716  1.0000  -4.5687   0.0000   0.0000   0.0000   0.2683
  10.600   1.3502   0.01640   0.01041  -0.0433  0.0654  1.0000  -4.6371   0.0000   0.0000   0.0000   0.2672
  10.700   1.3536   0.01675   0.01079  -0.0424  0.0590  1.0000  -4.7079   0.0000   0.0000   0.0000   0.2663
  10.800   1.3572   0.01710   0.01112  -0.0415  0.0556  1.0000  -4.7857   0.0000   0.0000   0.0000   0.2654
  10.900   1.3597   0.01751   0.01150  -0.0406  0.0514  1.0000  -4.8585   0.0000   0.0000   0.0000   0.2645
  11.000   1.3614   0.01797   0.01193  -0.0396  0.0469  1.0000  -4.9273   0.0000   0.0000   0.0000   0.2636
  11.100   1.3636   0.01842   0.01235  -0.0387  0.0417  1.0000  -4.9990   0.0000   0.0000   0.0000   0.2627
  11.200   1.3678   0.01877   0.01271  -0.0381  0.0388  1.0000  -5.0829   0.0000   0.0000   0.0000   0.2620
  11.300   1.3715   0.01916   0.01310  -0.0374  0.0364  1.0000  -5.1645   0.0000   0.0000   0.0000   0.2613
  11.400   1.3739   0.01964   0.01356  -0.0366  0.0335  1.0000  -5.2386   0.0000   0.0000   0.0000   0.2605
  11.500   1.3747   0.02022   0.01411  -0.0357  0.0303  1.0000  -5.3028   0.0000   0.0000   0.0000   0.2596
  11.600   1.3761   0.02077   0.01463  -0.0349  0.0262  1.0000  -5.3703   0.0000   0.0000   0.0000   0.2588
  11.700   1.3796   0.02121   0.01506  -0.0343  0.0230  1.0000  -5.4505   0.0000   0.0000   0.0000   0.2581
  11.800   1.3814   0.02176   0.01561  -0.0336  0.0202  1.0000  -5.5200   0.0000   0.0000   0.0000   0.2574
  11.900   1.3794   0.02258   0.01641  -0.0326  0.0167  1.0000  -5.5665   0.0000   0.0000   0.0000   0.2566
  12.000   1.3777   0.02341   0.01720  -0.0317  0.0118  1.0000  -5.6122   0.0000   0.0000   0.0000   0.2558
  12.100   1.3784   0.02411   0.01787  -0.0310  0.0097  1.0000  -5.6645   0.0000   0.0000   0.0000   0.2551
  12.200   1.3696   0.02555   0.01930  -0.0297  0.0060  1.0000  -5.5877   0.0000   0.0000   0.0000   0.2540
  12.300   1.3712   0.02624   0.02005  -0.0292  0.0057  1.0000  -5.6299   0.0000   0.0000   0.0000   0.2534
  12.400   1.3736   0.02688   0.02074  -0.0287  0.0055  1.0000  -5.6851   0.0000   0.0000   0.0000   0.2528
  12.500   1.3762   0.02750   0.02141  -0.0282  0.0054  1.0000  -5.7452   0.0000   0.0000   0.0000   0.2523
  12.600   1.3787   0.02813   0.02209  -0.0278  0.0053  1.0000  -5.8070   0.0000   0.0000   0.0000   0.2517
  12.700   1.3803   0.02886   0.02286  -0.0274  0.0053  1.0000  -5.8646   0.0000   0.0000   0.0000   0.2512
  12.800   1.3811   0.02966   0.02371  -0.0270  0.0052  1.0000  -5.9190   0.0000   0.0000   0.0000   0.2507
  12.900   1.3825   0.03041   0.02450  -0.0266  0.0052  1.0000  -5.9769   0.0000   0.0000   0.0000   0.2502
  13.000   1.3840   0.03114   0.02528  -0.0262  0.0052  1.0000  -6.0359   0.0000   0.0000   0.0000   0.2497
  13.100   1.3854   0.03188   0.02606  -0.0259  0.0052  1.0000  -6.0955   0.0000   0.0000   0.0000   0.2492
  13.200   1.3868   0.03265   0.02688  -0.0255  0.0052  1.0000  -6.1543   0.0000   0.0000   0.0000   0.2487
  13.300   1.3863   0.03363   0.02791  -0.0252  0.0051  1.0000  -6.2027   0.0000   0.0000   0.0000   0.2483
  13.400   1.3861   0.03462   0.02894  -0.0250  0.0051  1.0000  -6.2525   0.0000   0.0000   0.0000   0.2479
  13.500   1.3866   0.03554   0.02991  -0.0247  0.0051  1.0000  -6.3068   0.0000   0.0000   0.0000   0.2475
  13.600   1.3872   0.03646   0.03087  -0.0245  0.0051  1.0000  -6.3621   0.0000   0.0000   0.0000   0.2471
  13.700   1.3877   0.03740   0.03186  -0.0242  0.0051  1.0000  -6.4165   0.0000   0.0000   0.0000   0.2468
  13.800   1.3876   0.03843   0.03293  -0.0240  0.0051  1.0000  -6.4671   0.0000   0.0000   0.0000   0.2464
  13.900   1.3853   0.03974   0.03430  -0.0240  0.0050  1.0000  -6.5037   0.0000   0.0000   0.0000   0.2462
  14.000   1.3843   0.04091   0.03551  -0.0239  0.0050  1.0000  -6.5486   0.0000   0.0000   0.0000   0.2459
  14.100   1.3839   0.04203   0.03668  -0.0238  0.0050  1.0000  -6.5968   0.0000   0.0000   0.0000   0.2456
  14.200   1.3834   0.04315   0.03785  -0.0237  0.0050  1.0000  -6.6450   0.0000   0.0000   0.0000   0.2453
  14.300   1.3828   0.04431   0.03905  -0.0236  0.0049  1.0000  -6.6915   0.0000   0.0000   0.0000   0.2451
  14.400   1.3805   0.04570   0.04050  -0.0237  0.0049  1.0000  -6.7274   0.0000   0.0000   0.0000   0.2449
  14.500   1.3773   0.04725   0.04209  -0.0238  0.0049  1.0000  -6.7564   0.0000   0.0000   0.0000   0.2448
  14.600   1.3757   0.04858   0.04348  -0.0239  0.0049  1.0000  -6.7961   0.0000   0.0000   0.0000   0.2447
  14.700   1.3744   0.04987   0.04481  -0.0239  0.0049  1.0000  -6.8378   0.0000   0.0000   0.0000   0.2445
  14.800   1.3731   0.05117   0.04615  -0.0240  0.0049  1.0000  -6.8788   0.0000   0.0000   0.0000   0.2443
  14.900   1.3715   0.05251   0.04755  -0.0241  0.0048  1.0000  -6.9185   0.0000   0.0000   0.0000   0.2442
  15.000   1.3674   0.05426   0.04935  -0.0244  0.0048  1.0000  -6.9400   0.0000   0.0000   0.0000   0.2443
  15.100   1.3639   0.05593   0.05107  -0.0247  0.0048  1.0000  -6.9650   0.0000   0.0000   0.0000   0.2443
  15.200   1.3619   0.05739   0.05257  -0.0249  0.0048  1.0000  -7.0006   0.0000   0.0000   0.0000   0.2443
  15.300   1.3600   0.05876   0.05399  -0.0251  0.0048  1.0000  -7.0370   0.0000   0.0000   0.0000   0.2442
  15.400   1.3579   0.06015   0.05542  -0.0253  0.0048  1.0000  -7.0719   0.0000   0.0000   0.0000   0.2441
  15.500   1.3555   0.06160   0.05691  -0.0255  0.0048  1.0000  -7.1049   0.0000   0.0000   0.0000   0.2441
  15.600   1.3512   0.06343   0.05880  -0.0259  0.0048  1.0000  -7.1232   0.0000   0.0000   0.0000   0.2443
  15.700   1.3465   0.06541   0.06084  -0.0265  0.0048  1.0000  -7.1368   0.0000   0.0000   0.0000   0.2445
  15.800   1.3439   0.06705   0.06252  -0.0269  0.0048  1.0000  -7.1663   0.0000   0.0000   0.0000   0.2446
  15.900   1.3418   0.06862   0.06413  -0.0272  0.0048  1.0000  -7.1992   0.0000   0.0000   0.0000   0.2447
  16.000   1.3398   0.07019   0.06574  -0.0276  0.0048  1.0000  -7.2329   0.0000   0.0000   0.0000   0.2448
  16.100   1.3379   0.07180   0.06739  -0.0280  0.0048  1.0000  -7.2663   0.0000   0.0000   0.0000   0.2449
  16.200   1.3356   0.07348   0.06912  -0.0284  0.0048  1.0000  -7.2968   0.0000   0.0000   0.0000   0.2450
  16.300   1.3301   0.07576   0.07145  -0.0292  0.0048  1.0000  -7.3017   0.0000   0.0000   0.0000   0.2454
  16.400   1.3258   0.07784   0.07358  -0.0299  0.0048  1.0000  -7.3152   0.0000   0.0000   0.0000   0.2458
  16.500   1.3234   0.07960   0.07538  -0.0304  0.0048  1.0000  -7.3433   0.0000   0.0000   0.0000   0.2460
  16.600   1.3216   0.08128   0.07711  -0.0309  0.0048  1.0000  -7.3749   0.0000   0.0000   0.0000   0.2462
  16.700   1.3198   0.08295   0.07882  -0.0314  0.0048  1.0000  -7.4069   0.0000   0.0000   0.0000   0.2464
  16.800   1.3179   0.08463   0.08054  -0.0320  0.0048  1.0000  -7.4377   0.0000   0.0000   0.0000   0.2466
  16.900   1.3157   0.08637   0.08232  -0.0325  0.0048  1.0000  -7.4661   0.0000   0.0000   0.0000   0.2469
  17.000   1.3130   0.08820   0.08420  -0.0332  0.0048  1.0000  -7.4897   0.0000   0.0000   0.0000   0.2472
  17.100   1.3064   0.09082   0.08687  -0.0343  0.0049  1.0000  -7.4808   0.0000   0.0000   0.0000   0.2479
  17.200   1.3034   0.09277   0.08887  -0.0350  0.0049  1.0000  -7.5000   0.0000   0.0000   0.0000   0.2483
  17.300   1.3014   0.09452   0.09066  -0.0357  0.0049  1.0000  -7.5271   0.0000   0.0000   0.0000   0.2487
  17.400   1.2996   0.09621   0.09238  -0.0363  0.0049  1.0000  -7.5565   0.0000   0.0000   0.0000   0.2489
  17.500   1.2980   0.09787   0.09408  -0.0369  0.0048  1.0000  -7.5862   0.0000   0.0000   0.0000   0.2492
  17.600   1.2963   0.09953   0.09578  -0.0376  0.0048  1.0000  -7.6151   0.0000   0.0000   0.0000   0.2495
  17.700   1.2944   0.10122   0.09751  -0.0382  0.0048  1.0000  -7.6423   0.0000   0.0000   0.0000   0.2499
  17.800   1.2925   0.10294   0.09928  -0.0389  0.0048  1.0000  -7.6679   0.0000   0.0000   0.0000   0.2502
  17.900   1.2897   0.10486   0.10124  -0.0398  0.0048  1.0000  -7.6850   0.0000   0.0000   0.0000   0.2507
  18.000   1.2835   0.10745   0.10388  -0.0411  0.0048  1.0000  -7.6721   0.0000   0.0000   0.0000   0.2517
  18.100   1.2809   0.10931   0.10579  -0.0419  0.0048  1.0000  -7.6897   0.0000   0.0000   0.0000   0.2522
  18.200   1.2791   0.11101   0.10752  -0.0427  0.0048  1.0000  -7.7142   0.0000   0.0000   0.0000   0.2526
  18.300   1.2774   0.11267   0.10927  -0.0435  0.0048  1.0000  -7.7414   0.0000   0.0000   0.0000   0.2530
  18.400   1.2758   0.11429   0.11093  -0.0442  0.0048  1.0000  -7.7679   0.0000   0.0000   0.0000   0.2534
  18.500   1.2742   0.11591   0.11259  -0.0450  0.0048  1.0000  -7.7935   0.0000   0.0000   0.0000   0.2538
  18.600   1.2728   0.11752   0.11424  -0.0458  0.0048  1.0000  -7.8189   0.0000   0.0000   0.0000   0.2542
  18.700   1.2712   0.11916   0.11592  -0.0466  0.0047  1.0000  -7.8425   0.0000   0.0000   0.0000   0.2547
  18.800   1.2694   0.12081   0.11762  -0.0474  0.0047  1.0000  -7.8626   0.0000   0.0000   0.0000   0.2552
  18.900   1.2667   0.12251   0.11936  -0.0484  0.0047  1.0000  -7.8740   0.0000   0.0000   0.0000   0.2558
  19.000   1.2604   0.12488   0.12178  -0.0500  0.0047  1.0000  -7.8500   0.0000   0.0000   0.0000   0.2570
  19.100   1.2577   0.12657   0.12351  -0.0510  0.0047  1.0000  -7.8594   0.0000   0.0000   0.0000   0.2577
  19.200   1.2558   0.12813   0.12511  -0.0519  0.0047  1.0000  -7.8760   0.0000   0.0000   0.0000   0.2583
  19.300   1.2542   0.12967   0.12669  -0.0528  0.0047  1.0000  -7.8944   0.0000   0.0000   0.0000   0.2588
  19.400   1.2527   0.13123   0.12829  -0.0538  0.0047  1.0000  -7.9128   0.0000   0.0000   0.0000   0.2594
  19.500   1.2513   0.13282   0.12992  -0.0547  0.0047  1.0000  -7.9315   0.0000   0.0000   0.0000   0.2599
  19.600   1.2497   0.13447   0.13162  -0.0556  0.0047  1.0000  -7.9481   0.0000   0.0000   0.0000   0.2605
  19.700   1.2480   0.13620   0.13339  -0.0567  0.0046  1.0000  -7.9614   0.0000   0.0000   0.0000   0.2612
  19.800   1.2459   0.13804   0.13526  -0.0577  0.0046  1.0000  -7.9707   0.0000   0.0000   0.0000   0.2619
  19.900   1.2433   0.14000   0.13728  -0.0589  0.0046  1.0000  -7.9744   0.0000   0.0000   0.0000   0.2627
  20.000   1.2367   0.14299   0.14031  -0.0607  0.0046  1.0000  -7.9343   0.0000   0.0000   0.0000   0.2643
  20.100   1.2332   0.14524   0.14261  -0.0621  0.0046  1.0000  -7.9267   0.0000   0.0000   0.0000   0.2653
  20.200   1.2308   0.14728   0.14469  -0.0633  0.0046  1.0000  -7.9283   0.0000   0.0000   0.0000   0.2661
  20.300   1.2286   0.14929   0.14674  -0.0644  0.0046  1.0000  -7.9317   0.0000   0.0000   0.0000   0.2669
  20.400   1.2266   0.15132   0.14881  -0.0656  0.0046  1.0000  -7.9353   0.0000   0.0000   0.0000   0.2678
  20.500   1.2244   0.15342   0.15095  -0.0668  0.0046  1.0000  -7.9360   0.0000   0.0000   0.0000   0.2686
  20.600   1.2219   0.15561   0.15319  -0.0681  0.0046  1.0000  -7.9327   0.0000   0.0000   0.0000   0.2695
  20.700   1.2191   0.15794   0.15557  -0.0694  0.0045  1.0000  -7.9237   0.0000   0.0000   0.0000   0.2705
  20.800   1.2156   0.16047   0.15814  -0.0709  0.0045  1.0000  -7.9070   0.0000   0.0000   0.0000   0.2717
  20.900   1.2081   0.16413   0.16185  -0.0730  0.0046  1.0000  -7.8440   0.0000   0.0000   0.0000   0.2737
  21.000   1.2041   0.16687   0.16463  -0.0746  0.0045  1.0000  -7.8189   0.0000   0.0000   0.0000   0.2750
  21.100   1.2010   0.16943   0.16724  -0.0760  0.0045  1.0000  -7.8018   0.0000   0.0000   0.0000   0.2762
  21.200   1.1981   0.17198   0.16983  -0.0774  0.0045  1.0000  -7.7855   0.0000   0.0000   0.0000   0.2773
  21.300   1.1950   0.17462   0.17251  -0.0788  0.0045  1.0000  -7.7657   0.0000   0.0000   0.0000   0.2785
  21.400   1.1916   0.17741   0.17534  -0.0804  0.0045  1.0000  -7.7401   0.0000   0.0000   0.0000   0.2797
  21.500   1.1875   0.18040   0.17838  -0.0820  0.0045  1.0000  -7.7061   0.0000   0.0000   0.0000   0.2811
  21.600   1.1801   0.18452   0.18254  -0.0842  0.0045  1.0000  -7.6280   0.0000   0.0000   0.0000   0.2834
  21.700   1.1746   0.18807   0.18614  -0.0861  0.0045  1.0000  -7.5721   0.0000   0.0000   0.0000   0.2852
  21.800   1.1707   0.19123   0.18934  -0.0877  0.0045  1.0000  -7.5328   0.0000   0.0000   0.0000   0.2866
  21.900   1.1669   0.19438   0.19253  -0.0894  0.0045  1.0000  -7.4936   0.0000   0.0000   0.0000   0.2881
  22.000   1.1628   0.19768   0.19587  -0.0910  0.0045  1.0000  -7.4488   0.0000   0.0000   0.0000   0.2896
  22.100   1.1581   0.20123   0.19947  -0.0928  0.0045  1.0000  -7.3934   0.0000   0.0000   0.0000   0.2913
  22.200   1.1498   0.20611   0.20439  -0.0952  0.0045  1.0000  -7.2854   0.0000   0.0000   0.0000   0.2940
  22.300   1.1435   0.21037   0.20869  -0.0972  0.0046  1.0000  -7.2014   0.0000   0.0000   0.0000   0.2961
  22.400   1.1388   0.21417   0.21253  -0.0990  0.0046  1.0000  -7.1364   0.0000   0.0000   0.0000   0.2979
  22.500   1.1339   0.21807   0.21647  -0.1007  0.0046  1.0000  -7.0666   0.0000   0.0000   0.0000   0.2997
  22.600   1.1283   0.22234   0.22078  -0.1026  0.0046  1.0000  -6.9813   0.0000   0.0000   0.0000   0.3018
  22.700   1.1177   0.22861   0.22710  -0.1053  0.0046  1.0000  -6.8112   0.0000   0.0000   0.0000   0.3051
  22.800   1.1108   0.23353   0.23206  -0.1074  0.0047  1.0000  -6.6955   0.0000   0.0000   0.0000   0.3075
  22.900   1.1045   0.23832   0.23688  -0.1093  0.0047  1.0000  -6.5842   0.0000   0.0000   0.0000   0.3098
  23.000   1.0964   0.24393   0.24253  -0.1114  0.0047  1.0000  -6.4342   0.0000   0.0000   0.0000   0.3125
  23.100   1.0801   0.25320   0.25185  -0.1146  0.0049  1.0000  -6.1084   0.0000   0.0000   0.0000   0.3174
  23.300   0.9026   0.30892   0.30765  -0.1225  0.0075  1.0000  -2.3142   0.0000   0.0000   0.0000   0.3540
  23.400   0.8860   0.30840   0.30716  -0.1220  0.0081  1.0000  -2.1535   0.0000   0.0000   0.0000   0.3565
  23.500   0.8757   0.30857   0.30734  -0.1220  0.0088  1.0000  -2.0404   0.0000   0.0000   0.0000   0.3583
  23.600   0.8486   0.30886   0.30765  -0.1211  0.0111  1.0000  -1.7155   0.0000   0.0000   0.0000   0.3626
  23.700   0.8453   0.30942   0.30821  -0.1214  0.0111  1.0000  -1.6857   0.0000   0.0000   0.0000   0.3635
  23.800   0.8424   0.31000   0.30880  -0.1217  0.0111  1.0000  -1.6582   0.0000   0.0000   0.0000   0.3643
  23.900   0.8398   0.31061   0.30941  -0.1220  0.0111  1.0000  -1.6326   0.0000   0.0000   0.0000   0.3651
  24.000   0.8375   0.31123   0.31004  -0.1224  0.0111  1.0000  -1.6088   0.0000   0.0000   0.0000   0.3659
  24.100   0.8353   0.31186   0.31068  -0.1227  0.0111  1.0000  -1.5865   0.0000   0.0000   0.0000   0.3667
  24.200   0.8334   0.31250   0.31132  -0.1231  0.0111  1.0000  -1.5656   0.0000   0.0000   0.0000   0.3674
  24.300   0.8316   0.31315   0.31198  -0.1234  0.0111  1.0000  -1.5459   0.0000   0.0000   0.0000   0.3681
  24.400   0.8300   0.31381   0.31265  -0.1238  0.0111  1.0000  -1.5274   0.0000   0.0000   0.0000   0.3687
  24.500   0.8285   0.31448   0.31332  -0.1242  0.0110  1.0000  -1.5100   0.0000   0.0000   0.0000   0.3694
  24.600   0.8271   0.31515   0.31399  -0.1245  0.0110  1.0000  -1.4938   0.0000   0.0000   0.0000   0.3700
  24.700   0.8259   0.31583   0.31467  -0.1249  0.0110  1.0000  -1.4789   0.0000   0.0000   0.0000   0.3707
  24.800   0.8248   0.31650   0.31536  -0.1253  0.0110  1.0000  -1.4653   0.0000   0.0000   0.0000   0.3712
  24.900   0.8239   0.31718   0.31604  -0.1257  0.0109  1.0000  -1.4532   0.0000   0.0000   0.0000   0.3718
  25.000   0.8232   0.31786   0.31672  -0.1261  0.0109  1.0000  -1.4431   0.0000   0.0000   0.0000   0.3724
  25.100   0.8227   0.31854   0.31741  -0.1266  0.0108  1.0000  -1.4352   0.0000   0.0000   0.0000   0.3729
  25.200   0.8225   0.31924   0.31811  -0.1270  0.0106  1.0000  -1.4314   0.0000   0.0000   0.0000   0.3733
  25.300   0.8233   0.32006   0.31894  -0.1276  0.0103  1.0000  -1.4343   0.0000   0.0000   0.0000   0.3738
  25.400   0.8248   0.32114   0.32002  -0.1283  0.0093  1.0000  -1.4360   0.0000   0.0000   0.0000   0.3742
  25.500   0.8244   0.32195   0.32083  -0.1288  0.0087  1.0000  -1.4274   0.0000   0.0000   0.0000   0.3747
  25.600   0.8237   0.32269   0.32157  -0.1292  0.0083  1.0000  -1.4203   0.0000   0.0000   0.0000   0.3753
  25.700   0.8231   0.32338   0.32227  -0.1297  0.0079  1.0000  -1.4149   0.0000   0.0000   0.0000   0.3758
  25.800   0.8225   0.32405   0.32295  -0.1301  0.0076  1.0000  -1.4109   0.0000   0.0000   0.0000   0.3763
  25.900   0.8219   0.32471   0.32361  -0.1305  0.0073  1.0000  -1.4081   0.0000   0.0000   0.0000   0.3768
  26.000   0.8214   0.32536   0.32426  -0.1309  0.0071  1.0000  -1.4065   0.0000   0.0000   0.0000   0.3773
  26.100   0.8209   0.32600   0.32491  -0.1314  0.0068  1.0000  -1.4059   0.0000   0.0000   0.0000   0.3778
  26.200   0.8204   0.32663   0.32554  -0.1318  0.0066  1.0000  -1.4063   0.0000   0.0000   0.0000   0.3783
  26.300   0.8201   0.32725   0.32616  -0.1322  0.0064  1.0000  -1.4076   0.0000   0.0000   0.0000   0.3787
  26.400   0.8197   0.32786   0.32678  -0.1326  0.0063  1.0000  -1.4100   0.0000   0.0000   0.0000   0.3792
  26.500   0.8194   0.32847   0.32739  -0.1331  0.0061  1.0000  -1.4132   0.0000   0.0000   0.0000   0.3796
  26.600   0.8191   0.32906   0.32799  -0.1335  0.0060  1.0000  -1.4174   0.0000   0.0000   0.0000   0.3800
  26.700   0.8189   0.32965   0.32858  -0.1339  0.0058  1.0000  -1.4225   0.0000   0.0000   0.0000   0.3804
  26.800   0.8187   0.33023   0.32916  -0.1344  0.0057  1.0000  -1.4286   0.0000   0.0000   0.0000   0.3808
  26.900   0.8185   0.33080   0.32974  -0.1348  0.0056  1.0000  -1.4356   0.0000   0.0000   0.0000   0.3812
  27.000   0.8184   0.33136   0.33030  -0.1352  0.0054  1.0000  -1.4436   0.0000   0.0000   0.0000   0.3815
  27.100   0.8183   0.33191   0.33086  -0.1356  0.0053  1.0000  -1.4525   0.0000   0.0000   0.0000   0.3819
  27.200   0.8182   0.33245   0.33140  -0.1361  0.0052  1.0000  -1.4624   0.0000   0.0000   0.0000   0.3823
  27.300   0.8182   0.33298   0.33193  -0.1365  0.0051  1.0000  -1.4741   0.0000   0.0000   0.0000   0.3826
  27.400   0.8182   0.33347   0.33243  -0.1369  0.0050  1.0000  -1.4889   0.0000   0.0000   0.0000   0.3829
  27.500   0.8184   0.33394   0.33290  -0.1373  0.0049  1.0000  -1.5064   0.0000   0.0000   0.0000   0.3832
  27.600   0.8185   0.33438   0.33335  -0.1378  0.0048  1.0000  -1.5266   0.0000   0.0000   0.0000   0.3834
  27.700   0.8196   0.33438   0.33338  -0.1382  0.0046  1.0000  -1.5934   0.0000   0.0000   0.0000   0.3834


