xflr5 v6.61

 Calculated polar for: S2091-101-83

 1 1 Reynolds number fixed          Mach number fixed         

 xtrf =   1.000 (top)        1.000 (bottom)
 Mach =   0.000     Re =     0.200 e 6     Ncrit =   9.000

  alpha     CL        CD       CDp       Cm    Top Xtr Bot Xtr   Cpmin    Chinge    XCp    
 ------- -------- --------- --------- -------- ------- ------- -------- --------- ---------
 -10.000  -0.3337   0.12091   0.11719  -0.0230  1.0000  0.0323  -1.4321   0.0000   0.0000   0.0000   0.1728
  -9.900  -0.3310   0.11951   0.11581  -0.0237  1.0000  0.0324  -1.4376   0.0000   0.0000   0.0000   0.1702
  -9.800  -0.3284   0.11811   0.11442  -0.0244  1.0000  0.0324  -1.4433   0.0000   0.0000   0.0000   0.1676
  -9.700  -0.3258   0.11671   0.11303  -0.0251  1.0000  0.0324  -1.4491   0.0000   0.0000   0.0000   0.1649
  -9.600  -0.3232   0.11530   0.11163  -0.0258  1.0000  0.0324  -1.4551   0.0000   0.0000   0.0000   0.1622
  -9.500  -0.3207   0.11389   0.11024  -0.0265  1.0000  0.0324  -1.4613   0.0000   0.0000   0.0000   0.1594
  -9.400  -0.3182   0.11249   0.10884  -0.0272  1.0000  0.0324  -1.4677   0.0000   0.0000   0.0000   0.1566
  -9.300  -0.3158   0.11108   0.10745  -0.0279  1.0000  0.0324  -1.4742   0.0000   0.0000   0.0000   0.1538
  -9.200  -0.3134   0.10967   0.10606  -0.0286  1.0000  0.0325  -1.4810   0.0000   0.0000   0.0000   0.1509
  -9.100  -0.3110   0.10827   0.10466  -0.0293  1.0000  0.0325  -1.4880   0.0000   0.0000   0.0000   0.1480
  -9.000  -0.3086   0.10686   0.10327  -0.0300  1.0000  0.0325  -1.4952   0.0000   0.0000   0.0000   0.1451
  -8.900  -0.3063   0.10544   0.10187  -0.0307  1.0000  0.0325  -1.5026   0.0000   0.0000   0.0000   0.1420
  -8.800  -0.3040   0.10402   0.10046  -0.0314  1.0000  0.0325  -1.5102   0.0000   0.0000   0.0000   0.1389
  -8.700  -0.3016   0.10259   0.09905  -0.0321  1.0000  0.0325  -1.5181   0.0000   0.0000   0.0000   0.1357
  -8.600  -0.2994   0.10116   0.09764  -0.0329  1.0000  0.0325  -1.5262   0.0000   0.0000   0.0000   0.1324
  -8.500  -0.2972   0.09974   0.09624  -0.0336  1.0000  0.0325  -1.5347   0.0000   0.0000   0.0000   0.1292
  -8.400  -0.3079   0.09448   0.09105  -0.0352  1.0000  0.0333  -1.6796   0.0000   0.0000   0.0000   0.1281
  -8.300  -0.3097   0.09208   0.08867  -0.0359  1.0000  0.0338  -1.7113   0.0000   0.0000   0.0000   0.1268
  -8.200  -0.3096   0.09031   0.08693  -0.0364  1.0000  0.0341  -1.7215   0.0000   0.0000   0.0000   0.1252
  -8.100  -0.3089   0.08879   0.08543  -0.0368  1.0000  0.0344  -1.7252   0.0000   0.0000   0.0000   0.1235
  -8.000  -0.3082   0.08741   0.08407  -0.0372  1.0000  0.0346  -1.7263   0.0000   0.0000   0.0000   0.1220
  -7.900  -0.3071   0.08618   0.08287  -0.0374  1.0000  0.0349  -1.7197   0.0000   0.0000   0.0000   0.1211
  -7.800  -0.3065   0.08509   0.08180  -0.0374  1.0000  0.0351  -1.7124   0.0000   0.0000   0.0000   0.1209
  -7.700  -0.3077   0.08419   0.08094  -0.0371  1.0000  0.0353  -1.7101   0.0000   0.0000   0.0000   0.1225
  -7.600  -0.3137   0.08375   0.08055  -0.0360  1.0000  0.0353  -1.7181   0.0000   0.0000   0.0000   0.1286
  -7.500  -0.3271   0.08403   0.08089  -0.0335  1.0000  0.0353  -1.7418   0.0000   0.0000   0.0000   0.1413
  -7.400  -0.3366   0.08395   0.08084  -0.0320  0.9992  0.0353  -1.7583   0.0000   0.0000   0.0000   0.1490
  -7.300  -0.3276   0.08210   0.07900  -0.0342  0.9961  0.0356  -1.7382   0.0000   0.0000   0.0000   0.1395
  -7.200  -0.3187   0.08025   0.07714  -0.0367  0.9927  0.0359  -1.7219   0.0000   0.0000   0.0000   0.1289
  -7.100  -0.3084   0.07824   0.07513  -0.0396  0.9897  0.0363  -1.7077   0.0000   0.0000   0.0000   0.1155
  -7.000  -0.2967   0.07604   0.07293  -0.0431  0.9873  0.0366  -1.6968   0.0000   0.0000   0.0000   0.0985
  -6.900  -0.2870   0.07395   0.07084  -0.0463  0.9836  0.0369  -1.6940   0.0000   0.0000   0.0000   0.0822
  -6.800  -0.2765   0.07167   0.06855  -0.0501  0.9801  0.0371  -1.6981   0.0000   0.0000   0.0000   0.0623
  -6.700  -0.2646   0.06905   0.06592  -0.0547  0.9770  0.0372  -1.7134   0.0000   0.0000   0.0000   0.0367
  -6.600  -0.2515   0.06593   0.06277  -0.0603  0.9742  0.0371  -1.7497   0.0000   0.0000   0.0000   0.0033
  -6.400  -0.2234   0.05955   0.05626  -0.0702  0.9668  0.0301  -1.9042   0.0000   0.0000   0.0000  -0.0719
  -6.300  -0.2168   0.05618   0.05285  -0.0741  0.9618  0.0285  -1.9599   0.0000   0.0000   0.0000  -0.1000
  -6.200  -0.2070   0.05266   0.04925  -0.0787  0.9575  0.0272  -2.0251   0.0000   0.0000   0.0000  -0.1383
  -6.100  -0.1962   0.04875   0.04523  -0.0835  0.9538  0.0259  -2.1134   0.0000   0.0000   0.0000  -0.1843
  -6.000  -0.1851   0.04432   0.04063  -0.0883  0.9505  0.0246  -2.2413   0.0000   0.0000   0.0000  -0.2365
  -5.900  -0.1803   0.04056   0.03668  -0.0906  0.9443  0.0236  -2.3753   0.0000   0.0000   0.0000  -0.2625
  -5.800  -0.1752   0.03612   0.03194  -0.0929  0.9383  0.0226  -2.5580   0.0000   0.0000   0.0000  -0.2909
  -5.700  -0.1685   0.03185   0.02727  -0.0947  0.9335  0.0220  -2.7406   0.0000   0.0000   0.0000  -0.3232
  -5.600  -0.1596   0.02919   0.02430  -0.0956  0.9298  0.0219  -2.8213   0.0000   0.0000   0.0000  -0.3612
  -5.500  -0.1495   0.02745   0.02232  -0.0961  0.9268  0.0223  -2.8411   0.0000   0.0000   0.0000  -0.4057
  -5.400  -0.1391   0.02617   0.02084  -0.0964  0.9239  0.0229  -2.8341   0.0000   0.0000   0.0000  -0.4565
  -5.300  -0.1305   0.02525   0.01979  -0.0962  0.9201  0.0237  -2.8122   0.0000   0.0000   0.0000  -0.5016
  -5.200  -0.1221   0.02449   0.01890  -0.0959  0.9156  0.0248  -2.7832   0.0000   0.0000   0.0000  -0.5503
  -5.100  -0.1129   0.02382   0.01811  -0.0956  0.9112  0.0260  -2.7439   0.0000   0.0000   0.0000  -0.6135
  -5.000  -0.1030   0.02327   0.01746  -0.0954  0.9072  0.0275  -2.6934   0.0000   0.0000   0.0000  -0.6938
  -4.900  -0.0927   0.02285   0.01694  -0.0952  0.9034  0.0289  -2.6312   0.0000   0.0000   0.0000  -0.7953
  -4.800  -0.0823   0.02255   0.01656  -0.0949  0.9000  0.0301  -2.5586   0.0000   0.0000   0.0000  -0.9240
  -4.700  -0.0718   0.02238   0.01633  -0.0945  0.8967  0.0311  -2.4773   0.0000   0.0000   0.0000  -1.0894
  -4.600  -0.0614   0.02235   0.01624  -0.0942  0.8936  0.0318  -2.3894   0.0000   0.0000   0.0000  -1.3101
  -4.500  -0.0510   0.02242   0.01625  -0.0939  0.8904  0.0323  -2.2972   0.0000   0.0000   0.0000  -1.6234
  -4.400  -0.0417   0.02150   0.01521  -0.0938  0.8869  0.0329  -2.2528   0.0000   0.0000   0.0000  -2.0368
  -4.300  -0.0328   0.02006   0.01354  -0.0936  0.8833  0.0336  -2.2329   0.0000   0.0000   0.0000  -2.6543
  -4.200  -0.0223   0.01984   0.01315  -0.0933  0.8796  0.0322  -2.1973   0.0000   0.0000   0.0000  -4.0036
  -4.100  -0.0123   0.01922   0.01243  -0.0931  0.8760  0.0329  -2.1683   0.0000   0.0000   0.0000  -7.4134
  -4.000  -0.0030   0.01783   0.01084  -0.0928  0.8727  0.0342  -2.1872   0.0000   0.0000   0.0000  -31.1473
  -3.900   0.0067   0.01699   0.00989  -0.0925  0.8694  0.0356  -2.1774   0.0000   0.0000   0.0000  14.1902
  -3.800   0.0166   0.01662   0.00951  -0.0922  0.8662  0.0381  -2.1275   0.0000   0.0000   0.0000   5.8741
  -3.700   0.0267   0.01670   0.00964  -0.0919  0.8630  0.0409  -2.0449   0.0000   0.0000   0.0000   3.7412
  -3.600   0.0368   0.01686   0.00983  -0.0916  0.8597  0.0441  -1.9651   0.0000   0.0000   0.0000   2.7743
  -3.500   0.0470   0.01700   0.00995  -0.0913  0.8561  0.0475  -1.8988   0.0000   0.0000   0.0000   2.2194
  -3.400   0.0576   0.01698   0.00994  -0.0911  0.8528  0.0504  -1.8442   0.0000   0.0000   0.0000   1.8528
  -3.300   0.0683   0.01696   0.00990  -0.0909  0.8490  0.0525  -1.7991   0.0000   0.0000   0.0000   1.5979
  -3.200   0.0783   0.01585   0.00866  -0.0906  0.8453  0.0571  -1.8366   0.0000   0.0000   0.0000   1.4202
  -3.100   0.0886   0.01539   0.00828  -0.0903  0.8415  0.0741  -1.8675   0.0000   0.0000   0.0000   1.2819
  -3.000   0.0995   0.01551   0.00836  -0.0901  0.8378  0.0795  -1.8255   0.0000   0.0000   0.0000   1.1657
  -2.900   0.1095   0.01474   0.00752  -0.0898  0.8346  0.0863  -1.8106   0.0000   0.0000   0.0000   1.0790
  -2.800   0.1196   0.01447   0.00731  -0.0896  0.8314  0.0941  -1.7601   0.0000   0.0000   0.0000   1.0063
  -2.700   0.1301   0.01441   0.00726  -0.0893  0.8283  0.1009  -1.7037   0.0000   0.0000   0.0000   0.9431
  -2.600   0.1407   0.01429   0.00709  -0.0890  0.8253  0.1062  -1.6550   0.0000   0.0000   0.0000   0.8885
  -2.500   0.1513   0.01418   0.00692  -0.0887  0.8222  0.1097  -1.6062   0.0000   0.0000   0.0000   0.8412
  -2.400   0.1620   0.01415   0.00683  -0.0884  0.8189  0.1119  -1.5540   0.0000   0.0000   0.0000   0.8002
  -2.300   0.1722   0.01371   0.00637  -0.0881  0.8156  0.1183  -1.5154   0.0000   0.0000   0.0000   0.7659
  -2.200   0.1828   0.01340   0.00611  -0.0880  0.8124  0.1258  -1.4680   0.0000   0.0000   0.0000   0.7352
  -2.100   0.1934   0.01322   0.00597  -0.0879  0.8087  0.1327  -1.4160   0.0000   0.0000   0.0000   0.7076
  -2.000   0.2041   0.01308   0.00582  -0.0877  0.8047  0.1403  -1.3639   0.0000   0.0000   0.0000   0.6825
  -1.900   0.2148   0.01297   0.00568  -0.0875  0.8007  0.1473  -1.3116   0.0000   0.0000   0.0000   0.6597
  -1.800   0.2252   0.01264   0.00545  -0.0872  0.7968  0.1669  -1.2657   0.0000   0.0000   0.0000   0.6396
  -1.700   0.2357   0.01245   0.00532  -0.0870  0.7931  0.1870  -1.2141   0.0000   0.0000   0.0000   0.6210
  -1.600   0.2460   0.01215   0.00520  -0.0868  0.7897  0.2288  -1.1644   0.0000   0.0000   0.0000   0.6046
  -1.500   0.2560   0.01183   0.00512  -0.0866  0.7864  0.2936  -1.1138   0.0000   0.0000   0.0000   0.5898
  -1.400   0.2657   0.01151   0.00509  -0.0864  0.7833  0.3743  -1.0629   0.0000   0.0000   0.0000   0.5763
  -1.300   0.2752   0.01127   0.00509  -0.0860  0.7800  0.4512  -1.0120   0.0000   0.0000   0.0000   0.5636
  -1.200   0.2843   0.01109   0.00514  -0.0855  0.7760  0.5228  -0.9618   0.0000   0.0000   0.0000   0.5516
  -1.100   0.2935   0.01090   0.00517  -0.0850  0.7729  0.5870  -0.9118   0.0000   0.0000   0.0000   0.5403
  -1.000   0.3023   0.01070   0.00517  -0.0844  0.7697  0.6488  -0.8625   0.0000   0.0000   0.0000   0.5296
  -0.900   0.3104   0.01049   0.00517  -0.0835  0.7660  0.7116  -0.8138   0.0000   0.0000   0.0000   0.5193
  -0.800   0.3167   0.01023   0.00511  -0.0819  0.7621  0.7936  -0.7502   0.0000   0.0000   0.0000   0.5089
  -0.700   0.3266   0.01002   0.00505  -0.0810  0.7581  0.8770  -0.7016   0.0000   0.0000   0.0000   0.4981
  -0.600   0.3535   0.00980   0.00484  -0.0839  0.7541  1.0000  -0.6479   0.0000   0.0000   0.0000   0.4871
  -0.500   0.3642   0.00980   0.00476  -0.0837  0.7501  1.0000  -0.6585   0.0000   0.0000   0.0000   0.4794
  -0.400   0.3750   0.00980   0.00469  -0.0835  0.7463  1.0000  -0.6691   0.0000   0.0000   0.0000   0.4721
  -0.300   0.3858   0.00981   0.00462  -0.0833  0.7427  1.0000  -0.6798   0.0000   0.0000   0.0000   0.4653
  -0.200   0.3966   0.00984   0.00457  -0.0831  0.7391  1.0000  -0.6904   0.0000   0.0000   0.0000   0.4588
  -0.100   0.4075   0.00989   0.00454  -0.0829  0.7352  1.0000  -0.7011   0.0000   0.0000   0.0000   0.4526
   0.000   0.4183   0.01001   0.00458  -0.0828  0.7305  1.0000  -0.7117   0.0000   0.0000   0.0000   0.4469
   0.100   0.4293   0.01001   0.00455  -0.0827  0.7276  1.0000  -0.7224   0.0000   0.0000   0.0000   0.4416
   0.200   0.4402   0.01002   0.00453  -0.0827  0.7239  1.0000  -0.7331   0.0000   0.0000   0.0000   0.4366
   0.300   0.4511   0.01002   0.00450  -0.0826  0.7197  1.0000  -0.7439   0.0000   0.0000   0.0000   0.4317
   0.400   0.4619   0.01003   0.00447  -0.0824  0.7153  1.0000  -0.7547   0.0000   0.0000   0.0000   0.4270
   0.500   0.4728   0.01003   0.00443  -0.0823  0.7108  1.0000  -0.7656   0.0000   0.0000   0.0000   0.4225
   0.600   0.4836   0.01004   0.00439  -0.0821  0.7064  1.0000  -0.7768   0.0000   0.0000   0.0000   0.4181
   0.700   0.4945   0.01004   0.00434  -0.0819  0.7022  1.0000  -0.7893   0.0000   0.0000   0.0000   0.4139
   0.800   0.5054   0.01006   0.00430  -0.0818  0.6982  1.0000  -0.8019   0.0000   0.0000   0.0000   0.4099
   0.900   0.5163   0.01010   0.00427  -0.0816  0.6942  1.0000  -0.8145   0.0000   0.0000   0.0000   0.4061
   1.000   0.5272   0.01016   0.00426  -0.0814  0.6898  1.0000  -0.8271   0.0000   0.0000   0.0000   0.4024
   1.100   0.5381   0.01029   0.00432  -0.0813  0.6844  1.0000  -0.8397   0.0000   0.0000   0.0000   0.3990
   1.200   0.5490   0.01029   0.00432  -0.0813  0.6813  1.0000  -0.8523   0.0000   0.0000   0.0000   0.3957
   1.300   0.5599   0.01030   0.00433  -0.0812  0.6775  1.0000  -0.8649   0.0000   0.0000   0.0000   0.3926
   1.400   0.5708   0.01032   0.00432  -0.0811  0.6730  1.0000  -0.8776   0.0000   0.0000   0.0000   0.3896
   1.500   0.5817   0.01033   0.00432  -0.0810  0.6682  1.0000  -0.8903   0.0000   0.0000   0.0000   0.3866
   1.600   0.5925   0.01034   0.00430  -0.0808  0.6633  1.0000  -0.9031   0.0000   0.0000   0.0000   0.3837
   1.700   0.6034   0.01035   0.00428  -0.0807  0.6586  1.0000  -0.9160   0.0000   0.0000   0.0000   0.3809
   1.800   0.6143   0.01037   0.00425  -0.0805  0.6539  1.0000  -0.9289   0.0000   0.0000   0.0000   0.3782
   1.900   0.6251   0.01041   0.00423  -0.0803  0.6494  1.0000  -0.9438   0.0000   0.0000   0.0000   0.3756
   2.000   0.6360   0.01047   0.00423  -0.0802  0.6447  1.0000  -0.9587   0.0000   0.0000   0.0000   0.3730
   2.100   0.6469   0.01059   0.00428  -0.0801  0.6393  1.0000  -0.9735   0.0000   0.0000   0.0000   0.3706
   2.200   0.6578   0.01066   0.00434  -0.0800  0.6352  1.0000  -0.9884   0.0000   0.0000   0.0000   0.3684
   2.300   0.6687   0.01068   0.00437  -0.0799  0.6316  1.0000  -1.0033   0.0000   0.0000   0.0000   0.3662
   2.400   0.6795   0.01071   0.00440  -0.0799  0.6272  1.0000  -1.0182   0.0000   0.0000   0.0000   0.3641
   2.500   0.6904   0.01073   0.00442  -0.0798  0.6223  1.0000  -1.0332   0.0000   0.0000   0.0000   0.3620
   2.600   0.7012   0.01076   0.00450  -0.0796  0.6171  1.0000  -1.0483   0.0000   0.0000   0.0000   0.3600
   2.700   0.7120   0.01078   0.00449  -0.0795  0.6117  1.0000  -1.0635   0.0000   0.0000   0.0000   0.3579
   2.800   0.7227   0.01081   0.00447  -0.0793  0.6063  1.0000  -1.0788   0.0000   0.0000   0.0000   0.3559
   2.900   0.7334   0.01086   0.00446  -0.0791  0.6009  1.0000  -1.0940   0.0000   0.0000   0.0000   0.3540
   3.000   0.7441   0.01095   0.00447  -0.0790  0.5951  1.0000  -1.1093   0.0000   0.0000   0.0000   0.3521
   3.100   0.7550   0.01110   0.00455  -0.0789  0.5884  1.0000  -1.1247   0.0000   0.0000   0.0000   0.3504
   3.200   0.7658   0.01113   0.00460  -0.0788  0.5851  1.0000  -1.1424   0.0000   0.0000   0.0000   0.3487
   3.300   0.7765   0.01117   0.00465  -0.0787  0.5810  1.0000  -1.1601   0.0000   0.0000   0.0000   0.3471
   3.400   0.7873   0.01121   0.00470  -0.0787  0.5763  1.0000  -1.1779   0.0000   0.0000   0.0000   0.3455
   3.500   0.7981   0.01125   0.00475  -0.0786  0.5712  1.0000  -1.1958   0.0000   0.0000   0.0000   0.3439
   3.600   0.8087   0.01130   0.00477  -0.0784  0.5656  1.0000  -1.2138   0.0000   0.0000   0.0000   0.3424
   3.700   0.8194   0.01135   0.00479  -0.0783  0.5599  1.0000  -1.2318   0.0000   0.0000   0.0000   0.3408
   3.800   0.8299   0.01141   0.00479  -0.0781  0.5539  1.0000  -1.2499   0.0000   0.0000   0.0000   0.3393
   3.900   0.8404   0.01151   0.00482  -0.0779  0.5474  1.0000  -1.2679   0.0000   0.0000   0.0000   0.3378
   4.000   0.8510   0.01169   0.00491  -0.0778  0.5395  1.0000  -1.2858   0.0000   0.0000   0.0000   0.3364
   4.100   0.8616   0.01171   0.00497  -0.0777  0.5357  1.0000  -1.3053   0.0000   0.0000   0.0000   0.3350
   4.200   0.8722   0.01175   0.00504  -0.0776  0.5309  1.0000  -1.3266   0.0000   0.0000   0.0000   0.3337
   4.300   0.8829   0.01180   0.00510  -0.0775  0.5256  1.0000  -1.3479   0.0000   0.0000   0.0000   0.3324
   4.400   0.8934   0.01187   0.00516  -0.0774  0.5200  1.0000  -1.3693   0.0000   0.0000   0.0000   0.3312
   4.500   0.9039   0.01194   0.00521  -0.0772  0.5142  1.0000  -1.3908   0.0000   0.0000   0.0000   0.3299
   4.600   0.9144   0.01203   0.00526  -0.0771  0.5083  1.0000  -1.4124   0.0000   0.0000   0.0000   0.3286
   4.700   0.9247   0.01214   0.00531  -0.0769  0.5021  1.0000  -1.4338   0.0000   0.0000   0.0000   0.3274
   4.800   0.9349   0.01230   0.00540  -0.0767  0.4948  1.0000  -1.4553   0.0000   0.0000   0.0000   0.3262
   4.900   0.9454   0.01243   0.00551  -0.0766  0.4888  1.0000  -1.4812   0.0000   0.0000   0.0000   0.3250
   5.000   0.9559   0.01248   0.00560  -0.0765  0.4842  1.0000  -1.5073   0.0000   0.0000   0.0000   0.3239
   5.100   0.9663   0.01253   0.00568  -0.0764  0.4786  1.0000  -1.5336   0.0000   0.0000   0.0000   0.3228
   5.200   0.9766   0.01260   0.00575  -0.0762  0.4721  1.0000  -1.5598   0.0000   0.0000   0.0000   0.3217
   5.300   0.9868   0.01269   0.00582  -0.0760  0.4654  1.0000  -1.5862   0.0000   0.0000   0.0000   0.3206
   5.400   0.9969   0.01280   0.00588  -0.0758  0.4586  1.0000  -1.6177   0.0000   0.0000   0.0000   0.3195
   5.500   1.0067   0.01296   0.00596  -0.0756  0.4517  1.0000  -1.6491   0.0000   0.0000   0.0000   0.3184
   5.600   1.0167   0.01319   0.00611  -0.0754  0.4434  1.0000  -1.6806   0.0000   0.0000   0.0000   0.3174
   5.700   1.0271   0.01327   0.00623  -0.0753  0.4391  1.0000  -1.7128   0.0000   0.0000   0.0000   0.3165
   5.800   1.0374   0.01334   0.00635  -0.0752  0.4343  1.0000  -1.7453   0.0000   0.0000   0.0000   0.3155
   5.900   1.0477   0.01342   0.00645  -0.0751  0.4285  1.0000  -1.7779   0.0000   0.0000   0.0000   0.3145
   6.000   1.0577   0.01352   0.00655  -0.0749  0.4219  1.0000  -1.8105   0.0000   0.0000   0.0000   0.3136
   6.100   1.0674   0.01366   0.00688  -0.0747  0.4144  1.0000  -1.8660   0.0000   0.0000   0.0000   0.3126
   6.200   1.0770   0.01382   0.00699  -0.0744  0.4071  1.0000  -1.9114   0.0000   0.0000   0.0000   0.3116
   6.300   1.0863   0.01405   0.00714  -0.0742  0.3988  1.0000  -1.9530   0.0000   0.0000   0.0000   0.3106
   6.400   1.0963   0.01422   0.00730  -0.0740  0.3925  1.0000  -1.9954   0.0000   0.0000   0.0000   0.3097
   6.500   1.1065   0.01429   0.00744  -0.0739  0.3882  1.0000  -2.0384   0.0000   0.0000   0.0000   0.3089
   6.600   1.1165   0.01439   0.00757  -0.0737  0.3828  1.0000  -2.0813   0.0000   0.0000   0.0000   0.3080
   6.700   1.1263   0.01450   0.00769  -0.0735  0.3765  1.0000  -2.1241   0.0000   0.0000   0.0000   0.3071
   6.800   1.1359   0.01465   0.00781  -0.0733  0.3697  1.0000  -2.1665   0.0000   0.0000   0.0000   0.3063
   6.900   1.1450   0.01483   0.00794  -0.0730  0.3626  1.0000  -2.2084   0.0000   0.0000   0.0000   0.3054
   7.000   1.1538   0.01507   0.00810  -0.0727  0.3545  1.0000  -2.2495   0.0000   0.0000   0.0000   0.3045
   7.100   1.1632   0.01532   0.00831  -0.0725  0.3469  1.0000  -2.2917   0.0000   0.0000   0.0000   0.3037
   7.200   1.1731   0.01540   0.00846  -0.0723  0.3427  1.0000  -2.3356   0.0000   0.0000   0.0000   0.3029
   7.300   1.1828   0.01551   0.00861  -0.0722  0.3376  1.0000  -2.3796   0.0000   0.0000   0.0000   0.3021
   7.400   1.1924   0.01565   0.00877  -0.0720  0.3316  1.0000  -2.4232   0.0000   0.0000   0.0000   0.3013
   7.500   1.2015   0.01581   0.00891  -0.0717  0.3251  1.0000  -2.4664   0.0000   0.0000   0.0000   0.3005
   7.600   1.2101   0.01602   0.00907  -0.0714  0.3182  1.0000  -2.5087   0.0000   0.0000   0.0000   0.2996
   7.700   1.2183   0.01630   0.00927  -0.0710  0.3103  1.0000  -2.5498   0.0000   0.0000   0.0000   0.2988
   7.800   1.2270   0.01660   0.00953  -0.0707  0.3023  1.0000  -2.5919   0.0000   0.0000   0.0000   0.2980
   7.900   1.2366   0.01669   0.00968  -0.0705  0.2983  1.0000  -2.6388   0.0000   0.0000   0.0000   0.2973
   8.000   1.2460   0.01681   0.00986  -0.0703  0.2932  1.0000  -2.6963   0.0000   0.0000   0.0000   0.2965
   8.100   1.2551   0.01697   0.01003  -0.0701  0.2874  1.0000  -2.7532   0.0000   0.0000   0.0000   0.2958
   8.200   1.2637   0.01716   0.01021  -0.0698  0.2812  1.0000  -2.8285   0.0000   0.0000   0.0000   0.2950
   8.300   1.2717   0.01740   0.01041  -0.0694  0.2746  1.0000  -2.9040   0.0000   0.0000   0.0000   0.2942
   8.400   1.2789   0.01773   0.01066  -0.0689  0.2668  1.0000  -2.9768   0.0000   0.0000   0.0000   0.2934
   8.500   1.2870   0.01805   0.01094  -0.0686  0.2593  1.0000  -3.0531   0.0000   0.0000   0.0000   0.2926
   8.600   1.2962   0.01814   0.01111  -0.0683  0.2550  1.0000  -3.1359   0.0000   0.0000   0.0000   0.2919
   8.700   1.3050   0.01828   0.01130  -0.0681  0.2493  1.0000  -3.2180   0.0000   0.0000   0.0000   0.2912
   8.800   1.3132   0.01848   0.01150  -0.0677  0.2428  1.0000  -3.2981   0.0000   0.0000   0.0000   0.2905
   8.900   1.3207   0.01873   0.01171  -0.0673  0.2362  1.0000  -3.3759   0.0000   0.0000   0.0000   0.2897
   9.000   1.3272   0.01905   0.01198  -0.0668  0.2293  1.0000  -3.4499   0.0000   0.0000   0.0000   0.2889
   9.100   1.3332   0.01950   0.01235  -0.0662  0.2209  1.0000  -3.5209   0.0000   0.0000   0.0000   0.2881
   9.200   1.3419   0.01964   0.01256  -0.0659  0.2168  1.0000  -3.6055   0.0000   0.0000   0.0000   0.2874
   9.300   1.3504   0.01980   0.01277  -0.0656  0.2117  1.0000  -3.6902   0.0000   0.0000   0.0000   0.2867
   9.400   1.3581   0.02001   0.01300  -0.0652  0.2054  1.0000  -3.7718   0.0000   0.0000   0.0000   0.2860
   9.500   1.3646   0.02030   0.01325  -0.0647  0.1986  1.0000  -3.8493   0.0000   0.0000   0.0000   0.2852
   9.600   1.3682   0.02078   0.01382  -0.0638  0.1888  1.0000  -3.8883   0.0000   0.0000   0.0000   0.2843
   9.700   1.3733   0.02121   0.01421  -0.0631  0.1812  1.0000  -3.9532   0.0000   0.0000   0.0000   0.2835
   9.800   1.3814   0.02137   0.01445  -0.0628  0.1762  1.0000  -4.0361   0.0000   0.0000   0.0000   0.2828
   9.900   1.3881   0.02163   0.01473  -0.0623  0.1698  1.0000  -4.1141   0.0000   0.0000   0.0000   0.2821
  10.000   1.3932   0.02198   0.01505  -0.0616  0.1630  1.0000  -4.1859   0.0000   0.0000   0.0000   0.2813
  10.100   1.3967   0.02244   0.01544  -0.0608  0.1560  1.0000  -4.2501   0.0000   0.0000   0.0000   0.2804
  10.200   1.3983   0.02301   0.01595  -0.0597  0.1482  1.0000  -4.3040   0.0000   0.0000   0.0000   0.2794
  10.300   1.4047   0.02324   0.01625  -0.0591  0.1440  1.0000  -4.3831   0.0000   0.0000   0.0000   0.2787
  10.400   1.4100   0.02354   0.01659  -0.0584  0.1388  1.0000  -4.4569   0.0000   0.0000   0.0000   0.2779
  10.500   1.4133   0.02395   0.01699  -0.0576  0.1330  1.0000  -4.5216   0.0000   0.0000   0.0000   0.2770
  10.600   1.4147   0.02447   0.01746  -0.0565  0.1273  1.0000  -4.5769   0.0000   0.0000   0.0000   0.2760
  10.700   1.4143   0.02512   0.01805  -0.0553  0.1212  1.0000  -4.6225   0.0000   0.0000   0.0000   0.2751
  10.800   1.4147   0.02579   0.01869  -0.0542  0.1153  1.0000  -4.6694   0.0000   0.0000   0.0000   0.2741
  10.900   1.4200   0.02614   0.01911  -0.0537  0.1116  1.0000  -4.7440   0.0000   0.0000   0.0000   0.2734
  11.000   1.4235   0.02660   0.01961  -0.0530  0.1071  1.0000  -4.8094   0.0000   0.0000   0.0000   0.2727
  11.100   1.4252   0.02719   0.02018  -0.0521  0.1026  1.0000  -4.8653   0.0000   0.0000   0.0000   0.2719
  11.200   1.4252   0.02790   0.02085  -0.0512  0.0984  1.0000  -4.9127   0.0000   0.0000   0.0000   0.2711
  11.300   1.4233   0.02876   0.02167  -0.0502  0.0940  1.0000  -4.9486   0.0000   0.0000   0.0000   0.2702
  11.400   1.4193   0.02991   0.02279  -0.0490  0.0888  1.0000  -4.9667   0.0000   0.0000   0.0000   0.2693
  11.500   1.4230   0.03043   0.02336  -0.0485  0.0866  1.0000  -5.0321   0.0000   0.0000   0.0000   0.2687
  11.600   1.4267   0.03096   0.02395  -0.0479  0.0844  1.0000  -5.0978   0.0000   0.0000   0.0000   0.2680
  11.700   1.4293   0.03158   0.02463  -0.0474  0.0819  1.0000  -5.1574   0.0000   0.0000   0.0000   0.2674
  11.800   1.4312   0.03226   0.02535  -0.0468  0.0794  1.0000  -5.2135   0.0000   0.0000   0.0000   0.2668
  11.900   1.4324   0.03301   0.02613  -0.0462  0.0770  1.0000  -5.2658   0.0000   0.0000   0.0000   0.2662
  12.000   1.4329   0.03384   0.02696  -0.0456  0.0748  1.0000  -5.3141   0.0000   0.0000   0.0000   0.2656
  12.100   1.4322   0.03476   0.02788  -0.0450  0.0727  1.0000  -5.3560   0.0000   0.0000   0.0000   0.2650
  12.200   1.4306   0.03577   0.02889  -0.0444  0.0707  1.0000  -5.3910   0.0000   0.0000   0.0000   0.2644
  12.300   1.4285   0.03690   0.03002  -0.0437  0.0684  1.0000  -5.4200   0.0000   0.0000   0.0000   0.2638
  12.400   1.4260   0.03814   0.03129  -0.0429  0.0660  1.0000  -5.4421   0.0000   0.0000   0.0000   0.2631
  12.500   1.4240   0.03948   0.03266  -0.0420  0.0637  1.0000  -5.4617   0.0000   0.0000   0.0000   0.2623
  12.600   1.4268   0.04017   0.03342  -0.0417  0.0632  1.0000  -5.5230   0.0000   0.0000   0.0000   0.2619
  12.700   1.4290   0.04093   0.03425  -0.0414  0.0625  1.0000  -5.5804   0.0000   0.0000   0.0000   0.2614
  12.800   1.4310   0.04173   0.03511  -0.0411  0.0618  1.0000  -5.6360   0.0000   0.0000   0.0000   0.2610
  12.900   1.4328   0.04255   0.03599  -0.0408  0.0608  1.0000  -5.6913   0.0000   0.0000   0.0000   0.2605
  13.000   1.4345   0.04339   0.03689  -0.0405  0.0597  1.0000  -5.7459   0.0000   0.0000   0.0000   0.2601
  13.100   1.4359   0.04425   0.03781  -0.0403  0.0585  1.0000  -5.7998   0.0000   0.0000   0.0000   0.2598
  13.200   1.4370   0.04515   0.03876  -0.0401  0.0572  1.0000  -5.8523   0.0000   0.0000   0.0000   0.2594
  13.300   1.4373   0.04613   0.03978  -0.0400  0.0559  1.0000  -5.9013   0.0000   0.0000   0.0000   0.2591
  13.400   1.4375   0.04713   0.04082  -0.0399  0.0546  1.0000  -5.9502   0.0000   0.0000   0.0000   0.2588
  13.500   1.4375   0.04814   0.04187  -0.0398  0.0533  1.0000  -5.9997   0.0000   0.0000   0.0000   0.2586
  13.600   1.4373   0.04920   0.04295  -0.0398  0.0520  1.0000  -6.0481   0.0000   0.0000   0.0000   0.2584
  13.700   1.4363   0.05035   0.04411  -0.0398  0.0507  1.0000  -6.0915   0.0000   0.0000   0.0000   0.2582
  13.800   1.4341   0.05166   0.04544  -0.0398  0.0494  1.0000  -6.1250   0.0000   0.0000   0.0000   0.2581
  13.900   1.4312   0.05306   0.04685  -0.0398  0.0482  1.0000  -6.1517   0.0000   0.0000   0.0000   0.2579
  14.000   1.4277   0.05450   0.04831  -0.0396  0.0467  1.0000  -6.1704   0.0000   0.0000   0.0000   0.2576
  14.100   1.4237   0.05604   0.04988  -0.0392  0.0451  1.0000  -6.1782   0.0000   0.0000   0.0000   0.2572
  14.200   1.4184   0.05792   0.05186  -0.0384  0.0433  1.0000  -6.1625   0.0000   0.0000   0.0000   0.2566
  14.300   1.4188   0.05897   0.05294  -0.0386  0.0428  1.0000  -6.2151   0.0000   0.0000   0.0000   0.2566
  14.400   1.4198   0.05996   0.05397  -0.0390  0.0423  1.0000  -6.2762   0.0000   0.0000   0.0000   0.2566
  14.500   1.4196   0.06115   0.05523  -0.0394  0.0418  1.0000  -6.3271   0.0000   0.0000   0.0000   0.2567
  14.600   1.4194   0.06238   0.05651  -0.0398  0.0411  1.0000  -6.3775   0.0000   0.0000   0.0000   0.2567
  14.700   1.4195   0.06361   0.05779  -0.0402  0.0403  1.0000  -6.4291   0.0000   0.0000   0.0000   0.2568
  14.800   1.4196   0.06486   0.05909  -0.0406  0.0394  1.0000  -6.4801   0.0000   0.0000   0.0000   0.2569
  14.900   1.4195   0.06616   0.06044  -0.0411  0.0385  1.0000  -6.5298   0.0000   0.0000   0.0000   0.2570
  15.000   1.4183   0.06763   0.06196  -0.0416  0.0377  1.0000  -6.5712   0.0000   0.0000   0.0000   0.2572
  15.100   1.4172   0.06913   0.06350  -0.0421  0.0368  1.0000  -6.6131   0.0000   0.0000   0.0000   0.2573
  15.200   1.4164   0.07059   0.06500  -0.0427  0.0359  1.0000  -6.6575   0.0000   0.0000   0.0000   0.2575
  15.300   1.4156   0.07206   0.06651  -0.0432  0.0351  1.0000  -6.7023   0.0000   0.0000   0.0000   0.2577
  15.400   1.4147   0.07357   0.06805  -0.0438  0.0343  1.0000  -6.7462   0.0000   0.0000   0.0000   0.2579
  15.500   1.4132   0.07519   0.06971  -0.0445  0.0335  1.0000  -6.7841   0.0000   0.0000   0.0000   0.2582
  15.600   1.4105   0.07701   0.07157  -0.0452  0.0329  1.0000  -6.8117   0.0000   0.0000   0.0000   0.2586
  15.800   1.4052   0.08077   0.07544  -0.0472  0.0308  1.0000  -6.9051   0.0000   0.0000   0.0000   0.2596
  15.900   1.4022   0.08261   0.07732  -0.0478  0.0302  1.0000  -6.9260   0.0000   0.0000   0.0000   0.2599
  16.000   1.3989   0.08452   0.07927  -0.0484  0.0296  1.0000  -6.9410   0.0000   0.0000   0.0000   0.2603
  16.100   1.3948   0.08658   0.08138  -0.0492  0.0291  1.0000  -6.9471   0.0000   0.0000   0.0000   0.2607
  16.200   1.3908   0.08861   0.08346  -0.0498  0.0286  1.0000  -6.9513   0.0000   0.0000   0.0000   0.2611
  16.300   1.3867   0.09061   0.08552  -0.0505  0.0280  1.0000  -6.9524   0.0000   0.0000   0.0000   0.2614
  16.400   1.3825   0.09258   0.08755  -0.0510  0.0275  1.0000  -6.9498   0.0000   0.0000   0.0000   0.2617
  16.500   1.3780   0.09457   0.08962  -0.0516  0.0269  1.0000  -6.9409   0.0000   0.0000   0.0000   0.2620
  16.600   1.3727   0.09672   0.09185  -0.0522  0.0265  1.0000  -6.9212   0.0000   0.0000   0.0000   0.2624
  16.700   1.3708   0.09847   0.09365  -0.0530  0.0262  1.0000  -6.9436   0.0000   0.0000   0.0000   0.2628
  16.800   1.3694   0.10020   0.09543  -0.0539  0.0261  1.0000  -6.9731   0.0000   0.0000   0.0000   0.2633
  16.900   1.3667   0.10217   0.09747  -0.0549  0.0260  1.0000  -6.9890   0.0000   0.0000   0.0000   0.2640
  17.000   1.3643   0.10410   0.09946  -0.0560  0.0258  1.0000  -7.0060   0.0000   0.0000   0.0000   0.2646
  17.100   1.3621   0.10599   0.10142  -0.0570  0.0256  1.0000  -7.0249   0.0000   0.0000   0.0000   0.2652
  17.200   1.3600   0.10787   0.10337  -0.0580  0.0254  1.0000  -7.0429   0.0000   0.0000   0.0000   0.2658
  17.300   1.3577   0.10977   0.10533  -0.0591  0.0251  1.0000  -7.0580   0.0000   0.0000   0.0000   0.2665
  17.400   1.3550   0.11167   0.10730  -0.0602  0.0249  1.0000  -7.0681   0.0000   0.0000   0.0000   0.2671
  17.500   1.3508   0.11383   0.10953  -0.0615  0.0246  1.0000  -7.0624   0.0000   0.0000   0.0000   0.2681
  17.600   1.3469   0.11598   0.11175  -0.0629  0.0244  1.0000  -7.0576   0.0000   0.0000   0.0000   0.2690
  17.700   1.3435   0.11805   0.11388  -0.0641  0.0241  1.0000  -7.0558   0.0000   0.0000   0.0000   0.2698
  17.800   1.3401   0.12012   0.11602  -0.0654  0.0237  1.0000  -7.0530   0.0000   0.0000   0.0000   0.2707
  17.900   1.3365   0.12226   0.11823  -0.0667  0.0233  1.0000  -7.0466   0.0000   0.0000   0.0000   0.2716
  18.000   1.3325   0.12455   0.12058  -0.0682  0.0229  1.0000  -7.0343   0.0000   0.0000   0.0000   0.2726
  18.100   1.3269   0.12728   0.12338  -0.0699  0.0227  1.0000  -7.0024   0.0000   0.0000   0.0000   0.2740
  18.200   1.3218   0.12992   0.12608  -0.0715  0.0223  1.0000  -6.9744   0.0000   0.0000   0.0000   0.2752
  18.300   1.3171   0.13248   0.12871  -0.0731  0.0219  1.0000  -6.9491   0.0000   0.0000   0.0000   0.2764
  18.400   1.3125   0.13509   0.13138  -0.0747  0.0214  1.0000  -6.9222   0.0000   0.0000   0.0000   0.2777
  18.500   1.3077   0.13781   0.13416  -0.0764  0.0210  1.0000  -6.8914   0.0000   0.0000   0.0000   0.2790
  18.600   1.3006   0.14115   0.13756  -0.0784  0.0207  1.0000  -6.8333   0.0000   0.0000   0.0000   0.2807
  18.700   1.2941   0.14440   0.14087  -0.0804  0.0205  1.0000  -6.7786   0.0000   0.0000   0.0000   0.2824
  18.800   1.2885   0.14747   0.14400  -0.0823  0.0201  1.0000  -6.7327   0.0000   0.0000   0.0000   0.2839
  18.900   1.2832   0.15055   0.14712  -0.0841  0.0196  1.0000  -6.6882   0.0000   0.0000   0.0000   0.2855
  19.000   1.2769   0.15396   0.15058  -0.0861  0.0193  1.0000  -6.6286   0.0000   0.0000   0.0000   0.2872
  19.100   1.2632   0.15941   0.15614  -0.0893  0.0197  1.0000  -6.4728   0.0000   0.0000   0.0000   0.2904
  19.200   1.2509   0.16469   0.16151  -0.0922  0.0198  1.0000  -6.3251   0.0000   0.0000   0.0000   0.2935
  19.300   1.0407   0.25311   0.24993  -0.1256  0.0367  1.0000  -2.3111   0.0000   0.0000   0.0000   0.3463
  19.400   1.0393   0.25662   0.25343  -0.1265  0.0374  1.0000  -2.2510   0.0000   0.0000   0.0000   0.3473
  19.500   1.0382   0.25989   0.25671  -0.1274  0.0379  1.0000  -2.2018   0.0000   0.0000   0.0000   0.3482
  19.600   1.0373   0.26302   0.25984  -0.1283  0.0383  1.0000  -2.1595   0.0000   0.0000   0.0000   0.3490
  19.700   1.0365   0.26607   0.26290  -0.1291  0.0384  1.0000  -2.1209   0.0000   0.0000   0.0000   0.3499
  19.800   1.0356   0.26907   0.26590  -0.1301  0.0384  1.0000  -2.0840   0.0000   0.0000   0.0000   0.3507
  19.900   1.0346   0.27201   0.26884  -0.1310  0.0379  1.0000  -2.0488   0.0000   0.0000   0.0000   0.3517
  20.000   1.0338   0.27477   0.27160  -0.1320  0.0369  1.0000  -2.0206   0.0000   0.0000   0.0000   0.3526
  20.100   1.0559   0.26284   0.25970  -0.1297  0.0239  1.0000  -2.6501   0.0000   0.0000   0.0000   0.3465
  20.200   1.0544   0.26633   0.26320  -0.1308  0.0233  1.0000  -2.5923   0.0000   0.0000   0.0000   0.3477
  20.300   1.0527   0.26975   0.26661  -0.1319  0.0227  1.0000  -2.5381   0.0000   0.0000   0.0000   0.3488
  20.400   1.0511   0.27305   0.26992  -0.1328  0.0222  1.0000  -2.4883   0.0000   0.0000   0.0000   0.3498
  20.500   1.0495   0.27627   0.27314  -0.1337  0.0218  1.0000  -2.4416   0.0000   0.0000   0.0000   0.3508
  20.600   1.0477   0.27949   0.27636  -0.1346  0.0217  1.0000  -2.3928   0.0000   0.0000   0.0000   0.3517
  20.700   1.0456   0.28272   0.27960  -0.1354  0.0216  1.0000  -2.3465   0.0000   0.0000   0.0000   0.3526
  20.800   1.0435   0.28588   0.28276  -0.1361  0.0216  1.0000  -2.3122   0.0000   0.0000   0.0000   0.3536
  20.900   1.0412   0.28895   0.28584  -0.1369  0.0216  1.0000  -2.2793   0.0000   0.0000   0.0000   0.3545
  21.000   1.0388   0.29194   0.28883  -0.1375  0.0216  1.0000  -2.2477   0.0000   0.0000   0.0000   0.3553
  21.100   1.0362   0.29483   0.29173  -0.1382  0.0215  1.0000  -2.2169   0.0000   0.0000   0.0000   0.3562
  21.200   1.0333   0.29762   0.29453  -0.1387  0.0215  1.0000  -2.1866   0.0000   0.0000   0.0000   0.3570
  21.300   1.0301   0.30030   0.29722  -0.1392  0.0214  1.0000  -2.1561   0.0000   0.0000   0.0000   0.3579
  21.400   1.0264   0.30284   0.29977  -0.1397  0.0213  1.0000  -2.1249   0.0000   0.0000   0.0000   0.3587
  21.500   1.0221   0.30520   0.30214  -0.1400  0.0211  1.0000  -2.0923   0.0000   0.0000   0.0000   0.3595
  21.600   1.0167   0.30730   0.30425  -0.1402  0.0210  1.0000  -2.0573   0.0000   0.0000   0.0000   0.3604
  21.700   0.9723   0.30130   0.29835  -0.1357  0.0220  1.0000  -1.9029   0.0000   0.0000   0.0000   0.3626
  21.800   0.9602   0.30077   0.29785  -0.1350  0.0221  1.0000  -1.8489   0.0000   0.0000   0.0000   0.3637
  21.900   0.9513   0.30080   0.29790  -0.1346  0.0220  1.0000  -1.8039   0.0000   0.0000   0.0000   0.3647
  22.000   0.9441   0.30108   0.29820  -0.1345  0.0218  1.0000  -1.7629   0.0000   0.0000   0.0000   0.3656
  22.100   0.9378   0.30149   0.29863  -0.1344  0.0216  1.0000  -1.7237   0.0000   0.0000   0.0000   0.3665
  22.200   0.9322   0.30199   0.29914  -0.1344  0.0213  1.0000  -1.6861   0.0000   0.0000   0.0000   0.3673
  22.300   0.9272   0.30254   0.29970  -0.1344  0.0211  1.0000  -1.6492   0.0000   0.0000   0.0000   0.3681
  22.400   0.9226   0.30313   0.30031  -0.1345  0.0209  1.0000  -1.6118   0.0000   0.0000   0.0000   0.3689
  22.500   0.9181   0.30377   0.30097  -0.1346  0.0208  1.0000  -1.5720   0.0000   0.0000   0.0000   0.3696
  22.600   0.9138   0.30445   0.30165  -0.1347  0.0211  1.0000  -1.5284   0.0000   0.0000   0.0000   0.3704
  22.700   0.9095   0.30510   0.30232  -0.1347  0.0219  1.0000  -1.4836   0.0000   0.0000   0.0000   0.3710
  23.200   0.8938   0.30762   0.30491  -0.1329  0.0257  1.0000  -1.3949   0.0000   0.0000   0.0000   0.3712
  23.300   0.8918   0.30834   0.30564  -0.1333  0.0257  1.0000  -1.3726   0.0000   0.0000   0.0000   0.3718
  23.400   0.8899   0.30906   0.30637  -0.1336  0.0256  1.0000  -1.3514   0.0000   0.0000   0.0000   0.3724
  23.500   0.8876   0.30978   0.30709  -0.1341  0.0254  1.0000  -1.3255   0.0000   0.0000   0.0000   0.3733
  23.600   0.8853   0.31055   0.30787  -0.1348  0.0252  1.0000  -1.2951   0.0000   0.0000   0.0000   0.3744
  23.700   0.8839   0.31214   0.30946  -0.1365  0.0234  1.0000  -1.2351   0.0000   0.0000   0.0000   0.3765
  23.800   0.8826   0.31318   0.31051  -0.1370  0.0222  1.0000  -1.2121   0.0000   0.0000   0.0000   0.3773
  23.900   0.8813   0.31400   0.31134  -0.1374  0.0215  1.0000  -1.1976   0.0000   0.0000   0.0000   0.3778
  24.000   0.8800   0.31476   0.31211  -0.1377  0.0210  1.0000  -1.1875   0.0000   0.0000   0.0000   0.3783
  24.100   0.8788   0.31550   0.31285  -0.1381  0.0205  1.0000  -1.1790   0.0000   0.0000   0.0000   0.3788
  24.200   0.8776   0.31622   0.31359  -0.1384  0.0200  1.0000  -1.1715   0.0000   0.0000   0.0000   0.3792
  24.300   0.8765   0.31693   0.31431  -0.1387  0.0196  1.0000  -1.1649   0.0000   0.0000   0.0000   0.3796
  24.400   0.8755   0.31764   0.31502  -0.1390  0.0193  1.0000  -1.1591   0.0000   0.0000   0.0000   0.3800
  24.500   0.8745   0.31833   0.31572  -0.1393  0.0189  1.0000  -1.1541   0.0000   0.0000   0.0000   0.3804
  24.600   0.8736   0.31902   0.31642  -0.1396  0.0186  1.0000  -1.1499   0.0000   0.0000   0.0000   0.3807
  24.700   0.8728   0.31970   0.31711  -0.1399  0.0183  1.0000  -1.1463   0.0000   0.0000   0.0000   0.3811
  24.800   0.8720   0.32037   0.31779  -0.1402  0.0180  1.0000  -1.1435   0.0000   0.0000   0.0000   0.3814
  24.900   0.8712   0.32103   0.31846  -0.1405  0.0177  1.0000  -1.1413   0.0000   0.0000   0.0000   0.3817
  25.000   0.8705   0.32169   0.31913  -0.1408  0.0175  1.0000  -1.1399   0.0000   0.0000   0.0000   0.3820
  25.100   0.8699   0.32234   0.31978  -0.1411  0.0172  1.0000  -1.1392   0.0000   0.0000   0.0000   0.3823
  25.200   0.8693   0.32298   0.32043  -0.1414  0.0170  1.0000  -1.1392   0.0000   0.0000   0.0000   0.3826
  25.300   0.8687   0.32361   0.32107  -0.1417  0.0168  1.0000  -1.1400   0.0000   0.0000   0.0000   0.3829
  25.400   0.8682   0.32423   0.32170  -0.1420  0.0166  1.0000  -1.1415   0.0000   0.0000   0.0000   0.3831
  25.500   0.8677   0.32484   0.32232  -0.1422  0.0163  1.0000  -1.1437   0.0000   0.0000   0.0000   0.3834
  25.600   0.8672   0.32544   0.32293  -0.1425  0.0161  1.0000  -1.1468   0.0000   0.0000   0.0000   0.3836
  25.700   0.8668   0.32603   0.32352  -0.1428  0.0160  1.0000  -1.1507   0.0000   0.0000   0.0000   0.3838
  25.800   0.8664   0.32660   0.32411  -0.1431  0.0158  1.0000  -1.1555   0.0000   0.0000   0.0000   0.3840
  25.900   0.8660   0.32716   0.32468  -0.1433  0.0156  1.0000  -1.1612   0.0000   0.0000   0.0000   0.3842
  26.000   0.8657   0.32771   0.32523  -0.1436  0.0154  1.0000  -1.1677   0.0000   0.0000   0.0000   0.3843
  26.100   0.8654   0.32825   0.32578  -0.1438  0.0153  1.0000  -1.1753   0.0000   0.0000   0.0000   0.3844
  26.200   0.8652   0.32877   0.32631  -0.1440  0.0151  1.0000  -1.1840   0.0000   0.0000   0.0000   0.3845
  26.300   0.8650   0.32928   0.32683  -0.1442  0.0150  1.0000  -1.1937   0.0000   0.0000   0.0000   0.3846
  26.400   0.8648   0.32979   0.32735  -0.1444  0.0148  1.0000  -1.2044   0.0000   0.0000   0.0000   0.3846
  26.500   0.8646   0.33030   0.32787  -0.1445  0.0147  1.0000  -1.2160   0.0000   0.0000   0.0000   0.3846
  26.600   0.8645   0.33084   0.32842  -0.1446  0.0145  1.0000  -1.2285   0.0000   0.0000   0.0000   0.3845
  26.700   0.8644   0.33144   0.32903  -0.1446  0.0144  1.0000  -1.2414   0.0000   0.0000   0.0000   0.3843
  26.800   0.8641   0.33226   0.32986  -0.1446  0.0142  1.0000  -1.2500   0.0000   0.0000   0.0000   0.3841
  27.000   0.8579   0.33607   0.33365  -0.1446  0.0136  1.0000  -1.1468   0.0000   0.0000   0.0000   0.3854
  27.100   0.8575   0.33690   0.33448  -0.1450  0.0136  1.0000  -1.1387   0.0000   0.0000   0.0000   0.3857
  27.300   0.8566   0.33856   0.33621  -0.1457  0.0136  1.0000  -1.1232   0.0000   0.0000   0.0000   0.3864
  27.400   0.8562   0.33938   0.33704  -0.1461  0.0136  1.0000  -1.1156   0.0000   0.0000   0.0000   0.3867
  27.500   0.8558   0.34020   0.33787  -0.1465  0.0136  1.0000  -1.1082   0.0000   0.0000   0.0000   0.3871
  27.600   0.8553   0.34101   0.33869  -0.1469  0.0136  1.0000  -1.1006   0.0000   0.0000   0.0000   0.3874
  27.700   0.8549   0.34182   0.33950  -0.1473  0.0136  1.0000  -1.0932   0.0000   0.0000   0.0000   0.3878
  27.800   0.8546   0.34262   0.34031  -0.1476  0.0136  1.0000  -1.0858   0.0000   0.0000   0.0000   0.3881
  27.900   0.8542   0.34342   0.34112  -0.1480  0.0136  1.0000  -1.0786   0.0000   0.0000   0.0000   0.3885
  28.000   0.8538   0.34422   0.34193  -0.1484  0.0136  1.0000  -1.0715   0.0000   0.0000   0.0000   0.3888
  28.100   0.8535   0.34502   0.34273  -0.1488  0.0136  1.0000  -1.0644   0.0000   0.0000   0.0000   0.3891
  28.200   0.8531   0.34581   0.34353  -0.1492  0.0136  1.0000  -1.0575   0.0000   0.0000   0.0000   0.3895
  28.300   0.8528   0.34659   0.34432  -0.1496  0.0135  1.0000  -1.0506   0.0000   0.0000   0.0000   0.3898
  28.400   0.8524   0.34738   0.34511  -0.1500  0.0135  1.0000  -1.0439   0.0000   0.0000   0.0000   0.3901
  28.500   0.8521   0.34816   0.34590  -0.1504  0.0135  1.0000  -1.0372   0.0000   0.0000   0.0000   0.3905
  28.600   0.8518   0.34894   0.34669  -0.1508  0.0135  1.0000  -1.0306   0.0000   0.0000   0.0000   0.3908
  28.700   0.8515   0.34972   0.34747  -0.1512  0.0135  1.0000  -1.0241   0.0000   0.0000   0.0000   0.3911
  28.800   0.8512   0.35049   0.34826  -0.1516  0.0135  1.0000  -1.0177   0.0000   0.0000   0.0000   0.3915
  28.900   0.8508   0.35126   0.34903  -0.1520  0.0135  1.0000  -1.0111   0.0000   0.0000   0.0000   0.3918
  29.000   0.8505   0.35202   0.34980  -0.1524  0.0135  1.0000  -1.0044   0.0000   0.0000   0.0000   0.3922
  29.100   0.8502   0.35278   0.35056  -0.1528  0.0135  1.0000  -0.9978   0.0000   0.0000   0.0000   0.3925
  29.200   0.8499   0.35353   0.35132  -0.1532  0.0134  1.0000  -0.9913   0.0000   0.0000   0.0000   0.3929
  29.300   0.8496   0.35428   0.35208  -0.1537  0.0134  1.0000  -0.9848   0.0000   0.0000   0.0000   0.3932
  29.400   0.8493   0.35503   0.35284  -0.1541  0.0134  1.0000  -0.9785   0.0000   0.0000   0.0000   0.3936
  29.500   0.8490   0.35578   0.35360  -0.1545  0.0134  1.0000  -0.9722   0.0000   0.0000   0.0000   0.3939
  29.600   0.8487   0.35653   0.35435  -0.1550  0.0134  1.0000  -0.9654   0.0000   0.0000   0.0000   0.3943
  29.700   0.8483   0.35726   0.35509  -0.1554  0.0134  1.0000  -0.9576   0.0000   0.0000   0.0000   0.3947
  29.800   0.8479   0.35800   0.35583  -0.1559  0.0133  1.0000  -0.9500   0.0000   0.0000   0.0000   0.3951
  29.900   0.8476   0.35874   0.35658  -0.1563  0.0133  1.0000  -0.9423   0.0000   0.0000   0.0000   0.3955
  30.000   0.8473   0.35948   0.35733  -0.1568  0.0133  1.0000  -0.9348   0.0000   0.0000   0.0000   0.3958


