xflr5 v6.61

 Calculated polar for: S2091-101-83

 1 1 Reynolds number fixed          Mach number fixed         

 xtrf =   1.000 (top)        1.000 (bottom)
 Mach =   0.000     Re =     0.100 e 6     Ncrit =   9.000

  alpha     CL        CD       CDp       Cm    Top Xtr Bot Xtr   Cpmin    Chinge    XCp    
 ------- -------- --------- --------- -------- ------- ------- -------- --------- ---------
 -10.000  -0.3380   0.11974   0.11459  -0.0216  1.0000  0.0583  -1.2838   0.0000   0.0000   0.0000   0.1781
  -9.900  -0.3336   0.11826   0.11312  -0.0217  1.0000  0.0588  -1.2671   0.0000   0.0000   0.0000   0.1770
  -9.800  -0.3296   0.11686   0.11173  -0.0219  1.0000  0.0594  -1.2534   0.0000   0.0000   0.0000   0.1756
  -9.700  -0.3260   0.11550   0.11039  -0.0222  1.0000  0.0600  -1.2422   0.0000   0.0000   0.0000   0.1741
  -9.600  -0.3226   0.11419   0.10909  -0.0225  1.0000  0.0606  -1.2331   0.0000   0.0000   0.0000   0.1724
  -9.500  -0.3193   0.11291   0.10782  -0.0228  1.0000  0.0612  -1.2257   0.0000   0.0000   0.0000   0.1706
  -9.400  -0.3163   0.11164   0.10657  -0.0232  1.0000  0.0619  -1.2198   0.0000   0.0000   0.0000   0.1687
  -9.300  -0.3134   0.11039   0.10534  -0.0236  1.0000  0.0625  -1.2152   0.0000   0.0000   0.0000   0.1668
  -9.200  -0.3106   0.10915   0.10411  -0.0241  1.0000  0.0631  -1.2117   0.0000   0.0000   0.0000   0.1647
  -9.100  -0.3079   0.10792   0.10290  -0.0245  1.0000  0.0638  -1.2093   0.0000   0.0000   0.0000   0.1626
  -9.000  -0.3054   0.10670   0.10170  -0.0250  1.0000  0.0645  -1.2078   0.0000   0.0000   0.0000   0.1603
  -8.900  -0.3030   0.10550   0.10051  -0.0255  1.0000  0.0652  -1.2073   0.0000   0.0000   0.0000   0.1581
  -8.800  -0.3007   0.10430   0.09933  -0.0260  1.0000  0.0659  -1.2076   0.0000   0.0000   0.0000   0.1557
  -8.700  -0.2985   0.10310   0.09816  -0.0266  1.0000  0.0666  -1.2088   0.0000   0.0000   0.0000   0.1533
  -8.600  -0.2965   0.10193   0.09701  -0.0271  1.0000  0.0674  -1.2108   0.0000   0.0000   0.0000   0.1509
  -8.500  -0.2946   0.10076   0.09586  -0.0277  1.0000  0.0681  -1.2137   0.0000   0.0000   0.0000   0.1484
  -8.400  -0.2928   0.09960   0.09473  -0.0283  1.0000  0.0689  -1.2175   0.0000   0.0000   0.0000   0.1459
  -8.300  -0.2911   0.09846   0.09361  -0.0289  1.0000  0.0697  -1.2223   0.0000   0.0000   0.0000   0.1433
  -8.200  -0.2896   0.09733   0.09251  -0.0296  1.0000  0.0706  -1.2282   0.0000   0.0000   0.0000   0.1406
  -8.100  -0.2884   0.09623   0.09144  -0.0303  1.0000  0.0715  -1.2355   0.0000   0.0000   0.0000   0.1378
  -8.000  -0.2875   0.09518   0.09042  -0.0310  1.0000  0.0724  -1.2445   0.0000   0.0000   0.0000   0.1351
  -7.900  -0.2870   0.09420   0.08947  -0.0318  1.0000  0.0734  -1.2555   0.0000   0.0000   0.0000   0.1323
  -7.800  -0.2872   0.09332   0.08863  -0.0326  1.0000  0.0744  -1.2695   0.0000   0.0000   0.0000   0.1298
  -7.700  -0.2884   0.09261   0.08796  -0.0334  1.0000  0.0754  -1.2868   0.0000   0.0000   0.0000   0.1275
  -7.600  -0.2912   0.09215   0.08755  -0.0341  1.0000  0.0764  -1.3080   0.0000   0.0000   0.0000   0.1264
  -7.500  -0.2961   0.09197   0.08744  -0.0343  1.0000  0.0771  -1.3296   0.0000   0.0000   0.0000   0.1279
  -7.400  -0.3035   0.09196   0.08749  -0.0337  1.0000  0.0776  -1.3486   0.0000   0.0000   0.0000   0.1332
  -7.300  -0.3124   0.09199   0.08758  -0.0324  1.0000  0.0778  -1.3649   0.0000   0.0000   0.0000   0.1407
  -7.200  -0.3219   0.09201   0.08765  -0.0309  1.0000  0.0779  -1.3798   0.0000   0.0000   0.0000   0.1488
  -7.100  -0.3310   0.09199   0.08769  -0.0296  1.0000  0.0780  -1.3953   0.0000   0.0000   0.0000   0.1555
  -7.000  -0.3396   0.09194   0.08768  -0.0287  1.0000  0.0782  -1.4119   0.0000   0.0000   0.0000   0.1608
  -6.900  -0.3478   0.09186   0.08763  -0.0280  1.0000  0.0784  -1.4294   0.0000   0.0000   0.0000   0.1650
  -6.800  -0.3552   0.09172   0.08754  -0.0276  1.0000  0.0786  -1.4476   0.0000   0.0000   0.0000   0.1680
  -6.700  -0.3609   0.09156   0.08741  -0.0274  1.0000  0.0789  -1.4631   0.0000   0.0000   0.0000   0.1699
  -6.600  -0.3658   0.09128   0.08715  -0.0274  1.0000  0.0792  -1.4783   0.0000   0.0000   0.0000   0.1711
  -6.500  -0.3699   0.09086   0.08675  -0.0275  1.0000  0.0794  -1.4930   0.0000   0.0000   0.0000   0.1717
  -6.400  -0.3733   0.09032   0.08623  -0.0277  1.0000  0.0796  -1.5074   0.0000   0.0000   0.0000   0.1719
  -6.300  -0.3761   0.08967   0.08558  -0.0280  1.0000  0.0797  -1.5213   0.0000   0.0000   0.0000   0.1719
  -6.200  -0.3678   0.08805   0.08393  -0.0314  0.9979  0.0800  -1.5361   0.0000   0.0000   0.0000   0.1611
  -6.100  -0.3542   0.08580   0.08163  -0.0358  0.9947  0.0802  -1.5501   0.0000   0.0000   0.0000   0.1452
  -6.000  -0.3414   0.08351   0.07928  -0.0397  0.9914  0.0803  -1.5627   0.0000   0.0000   0.0000   0.1300
  -5.900  -0.3283   0.08113   0.07683  -0.0434  0.9886  0.0804  -1.5744   0.0000   0.0000   0.0000   0.1139
  -5.800  -0.3162   0.07879   0.07444  -0.0466  0.9860  0.0805  -1.5853   0.0000   0.0000   0.0000   0.0985
  -5.700  -0.3213   0.07202   0.06772  -0.0498  0.9830  0.0823  -1.6657   0.0000   0.0000   0.0000   0.0910
  -5.600  -0.3155   0.06888   0.06458  -0.0515  0.9801  0.0834  -1.6685   0.0000   0.0000   0.0000   0.0826
  -5.500  -0.3060   0.06669   0.06240  -0.0527  0.9776  0.0843  -1.6496   0.0000   0.0000   0.0000   0.0735
  -5.400  -0.2948   0.06465   0.06036  -0.0543  0.9753  0.0851  -1.6302   0.0000   0.0000   0.0000   0.0617
  -5.300  -0.2821   0.06260   0.05829  -0.0563  0.9732  0.0860  -1.6147   0.0000   0.0000   0.0000   0.0460
  -5.200  -0.2592   0.05467   0.04995  -0.0632  0.9713  0.0511  -1.9495   0.0000   0.0000   0.0000   0.0007
  -5.100  -0.2534   0.05225   0.04746  -0.0646  0.9671  0.0501  -1.9804   0.0000   0.0000   0.0000  -0.0106
  -5.000  -0.2435   0.04961   0.04470  -0.0669  0.9633  0.0493  -2.0182   0.0000   0.0000   0.0000  -0.0304
  -4.900  -0.2306   0.04683   0.04176  -0.0695  0.9600  0.0489  -2.0619   0.0000   0.0000   0.0000  -0.0575
  -4.800  -0.2155   0.04410   0.03882  -0.0723  0.9572  0.0490  -2.1048   0.0000   0.0000   0.0000  -0.0919
  -4.700  -0.1985   0.04162   0.03609  -0.0750  0.9547  0.0497  -2.1376   0.0000   0.0000   0.0000  -0.1346
  -4.600  -0.1798   0.03967   0.03389  -0.0774  0.9526  0.0511  -2.1462   0.0000   0.0000   0.0000  -0.1885
  -4.500  -0.1590   0.03869   0.03266  -0.0797  0.9506  0.0528  -2.1114   0.0000   0.0000   0.0000  -0.2599
  -4.300  -0.1407   0.03471   0.02821  -0.0815  0.9424  0.0559  -2.1203   0.0000   0.0000   0.0000  -0.3391
  -4.200  -0.1311   0.03441   0.02816  -0.0823  0.9384  0.0618  -1.9790   0.0000   0.0000   0.0000  -0.3878
  -4.100  -0.1167   0.03492   0.02878  -0.0831  0.9349  0.0673  -1.8311   0.0000   0.0000   0.0000  -0.4729
  -4.000  -0.0995   0.03240   0.02570  -0.0849  0.9325  0.0638  -1.8461   0.0000   0.0000   0.0000  -0.6159
  -3.900  -0.0816   0.03361   0.02703  -0.0860  0.9297  0.0748  -1.7157   0.0000   0.0000   0.0000  -0.8178
  -3.600  -0.0240   0.03108   0.02391  -0.0907  0.9245  0.0795  -1.6631   0.0000   0.0000   0.0000  -3.5751
  -3.500  -0.0048   0.02959   0.02218  -0.0924  0.9233  0.0796  -1.6694   0.0000   0.0000   0.0000  -19.1654
  -3.400  -0.0036   0.02912   0.02162  -0.0908  0.9173  0.0798  -1.6731   0.0000   0.0000   0.0000  -25.5216
  -3.300   0.0061   0.02850   0.02085  -0.0905  0.9128  0.0803  -1.6725   0.0000   0.0000   0.0000  15.2641
  -3.200   0.0197   0.02661   0.01870  -0.0912  0.9098  0.0819  -1.7095   0.0000   0.0000   0.0000   4.9441
  -3.100   0.0345   0.02464   0.01656  -0.0921  0.9074  0.0870  -1.7478   0.0000   0.0000   0.0000   2.9476
  -3.000   0.0504   0.02405   0.01601  -0.0929  0.9044  0.0971  -1.7467   0.0000   0.0000   0.0000   2.1149
  -2.900   0.0677   0.02384   0.01569  -0.0936  0.9014  0.1100  -1.7517   0.0000   0.0000   0.0000   1.6482
  -2.800   0.0838   0.02285   0.01473  -0.0948  0.8990  0.1250  -1.7199   0.0000   0.0000   0.0000   1.3928
  -2.700   0.1013   0.02267   0.01457  -0.0958  0.8965  0.1373  -1.6663   0.0000   0.0000   0.0000   1.2051
  -2.600   0.1195   0.02224   0.01403  -0.0967  0.8943  0.1446  -1.6286   0.0000   0.0000   0.0000   1.0666
  -2.500   0.1373   0.02176   0.01345  -0.0976  0.8923  0.1508  -1.5857   0.0000   0.0000   0.0000   0.9668
  -2.400   0.1446   0.02116   0.01287  -0.0970  0.8879  0.1580  -1.5613   0.0000   0.0000   0.0000   0.9262
  -2.300   0.1508   0.02096   0.01271  -0.0962  0.8824  0.1640  -1.5278   0.0000   0.0000   0.0000   0.8930
  -2.200   0.1609   0.02078   0.01254  -0.0960  0.8780  0.1715  -1.4842   0.0000   0.0000   0.0000   0.8510
  -2.100   0.1729   0.02060   0.01234  -0.0960  0.8742  0.1805  -1.4370   0.0000   0.0000   0.0000   0.8093
  -2.000   0.1859   0.02045   0.01216  -0.0962  0.8707  0.1915  -1.3854   0.0000   0.0000   0.0000   0.7710
  -1.900   0.1986   0.01995   0.01184  -0.0964  0.8677  0.2123  -1.3359   0.0000   0.0000   0.0000   0.7386
  -1.800   0.2129   0.01975   0.01161  -0.0967  0.8648  0.2328  -1.2823   0.0000   0.0000   0.0000   0.7070
  -1.700   0.2265   0.01918   0.01130  -0.0969  0.8623  0.2732  -1.2351   0.0000   0.0000   0.0000   0.6804
  -1.600   0.2395   0.01851   0.01109  -0.0971  0.8598  0.3620  -1.1879   0.0000   0.0000   0.0000   0.6574
  -1.500   0.2501   0.01789   0.01109  -0.0965  0.8575  0.5134  -1.1391   0.0000   0.0000   0.0000   0.6378
  -1.400   0.2560   0.01758   0.01120  -0.0951  0.8536  0.6285  -1.0985   0.0000   0.0000   0.0000   0.6231
  -1.300   0.2581   0.01740   0.01131  -0.0930  0.8478  0.7160  -1.0671   0.0000   0.0000   0.0000   0.6119
  -1.100   0.2980   0.01675   0.01095  -0.0948  0.8401  1.0000  -0.9131   0.0000   0.0000   0.0000   0.5691
  -1.000   0.3092   0.01678   0.01087  -0.0947  0.8355  1.0000  -0.8592   0.0000   0.0000   0.0000   0.5571
  -0.900   0.3213   0.01679   0.01077  -0.0947  0.8315  1.0000  -0.8012   0.0000   0.0000   0.0000   0.5453
  -0.800   0.3338   0.01678   0.01059  -0.0947  0.8281  1.0000  -0.7195   0.0000   0.0000   0.0000   0.5341
  -0.700   0.3463   0.01678   0.01049  -0.0947  0.8250  1.0000  -0.6670   0.0000   0.0000   0.0000   0.5236
  -0.600   0.3590   0.01679   0.01041  -0.0946  0.8222  1.0000  -0.6345   0.0000   0.0000   0.0000   0.5137
  -0.500   0.3716   0.01682   0.01034  -0.0946  0.8194  1.0000  -0.6463   0.0000   0.0000   0.0000   0.5044
  -0.400   0.3829   0.01694   0.01037  -0.0944  0.8161  1.0000  -0.6570   0.0000   0.0000   0.0000   0.4963
  -0.300   0.3898   0.01709   0.01048  -0.0940  0.8102  1.0000  -0.6641   0.0000   0.0000   0.0000   0.4907
  -0.200   0.3983   0.01719   0.01054  -0.0936  0.8045  1.0000  -0.6726   0.0000   0.0000   0.0000   0.4845
  -0.100   0.4080   0.01725   0.01053  -0.0932  0.7992  1.0000  -0.6822   0.0000   0.0000   0.0000   0.4780
   0.000   0.4187   0.01725   0.01047  -0.0930  0.7945  1.0000  -0.6927   0.0000   0.0000   0.0000   0.4713
   0.100   0.4299   0.01723   0.01038  -0.0927  0.7903  1.0000  -0.7037   0.0000   0.0000   0.0000   0.4647
   0.200   0.4415   0.01718   0.01027  -0.0924  0.7866  1.0000  -0.7151   0.0000   0.0000   0.0000   0.4583
   0.300   0.4534   0.01713   0.01015  -0.0921  0.7833  1.0000  -0.7268   0.0000   0.0000   0.0000   0.4521
   0.400   0.4653   0.01711   0.01006  -0.0918  0.7802  1.0000  -0.7385   0.0000   0.0000   0.0000   0.4462
   0.500   0.4770   0.01715   0.01003  -0.0915  0.7772  1.0000  -0.7500   0.0000   0.0000   0.0000   0.4406
   0.600   0.4872   0.01731   0.01014  -0.0913  0.7735  1.0000  -0.7612   0.0000   0.0000   0.0000   0.4360
   0.700   0.4956   0.01747   0.01028  -0.0911  0.7680  1.0000  -0.7708   0.0000   0.0000   0.0000   0.4323
   0.800   0.5044   0.01759   0.01039  -0.0908  0.7623  1.0000  -0.7812   0.0000   0.0000   0.0000   0.4285
   0.900   0.5141   0.01766   0.01042  -0.0905  0.7570  1.0000  -0.7925   0.0000   0.0000   0.0000   0.4244
   1.000   0.5245   0.01767   0.01039  -0.0902  0.7522  1.0000  -0.8045   0.0000   0.0000   0.0000   0.4202
   1.100   0.5354   0.01763   0.01031  -0.0898  0.7478  1.0000  -0.8172   0.0000   0.0000   0.0000   0.4159
   1.200   0.5468   0.01756   0.01019  -0.0895  0.7438  1.0000  -0.8304   0.0000   0.0000   0.0000   0.4116
   1.300   0.5584   0.01748   0.01006  -0.0891  0.7402  1.0000  -0.8440   0.0000   0.0000   0.0000   0.4075
   1.400   0.5700   0.01742   0.00994  -0.0887  0.7367  1.0000  -0.8576   0.0000   0.0000   0.0000   0.4034
   1.500   0.5814   0.01743   0.00988  -0.0883  0.7333  1.0000  -0.8711   0.0000   0.0000   0.0000   0.3996
   1.600   0.5915   0.01758   0.01000  -0.0880  0.7290  1.0000  -0.8829   0.0000   0.0000   0.0000   0.3964
   1.700   0.6003   0.01774   0.01017  -0.0879  0.7236  1.0000  -0.8931   0.0000   0.0000   0.0000   0.3939
   1.800   0.6096   0.01787   0.01031  -0.0877  0.7179  1.0000  -0.9039   0.0000   0.0000   0.0000   0.3912
   1.900   0.6194   0.01794   0.01037  -0.0874  0.7125  1.0000  -0.9174   0.0000   0.0000   0.0000   0.3884
   2.000   0.6299   0.01795   0.01035  -0.0871  0.7075  1.0000  -0.9318   0.0000   0.0000   0.0000   0.3855
   2.100   0.6408   0.01791   0.01028  -0.0868  0.7029  1.0000  -0.9468   0.0000   0.0000   0.0000   0.3825
   2.200   0.6521   0.01783   0.01017  -0.0864  0.6987  1.0000  -0.9623   0.0000   0.0000   0.0000   0.3795
   2.300   0.6636   0.01774   0.01003  -0.0860  0.6947  1.0000  -0.9782   0.0000   0.0000   0.0000   0.3765
   2.400   0.6751   0.01768   0.00991  -0.0856  0.6908  1.0000  -0.9941   0.0000   0.0000   0.0000   0.3736
   2.500   0.6863   0.01771   0.00988  -0.0852  0.6867  1.0000  -1.0098   0.0000   0.0000   0.0000   0.3709
   2.600   0.6962   0.01787   0.01003  -0.0850  0.6817  1.0000  -1.0235   0.0000   0.0000   0.0000   0.3687
   2.700   0.7052   0.01799   0.01028  -0.0848  0.6760  1.0000  -1.0363   0.0000   0.0000   0.0000   0.3667
   2.800   0.7148   0.01809   0.01038  -0.0845  0.6701  1.0000  -1.0497   0.0000   0.0000   0.0000   0.3647
   2.900   0.7250   0.01815   0.01043  -0.0843  0.6647  1.0000  -1.0640   0.0000   0.0000   0.0000   0.3626
   3.000   0.7356   0.01817   0.01043  -0.0840  0.6596  1.0000  -1.0788   0.0000   0.0000   0.0000   0.3605
   3.100   0.7466   0.01814   0.01038  -0.0837  0.6549  1.0000  -1.0942   0.0000   0.0000   0.0000   0.3583
   3.200   0.7578   0.01809   0.01028  -0.0834  0.6505  1.0000  -1.1126   0.0000   0.0000   0.0000   0.3561
   3.300   0.7692   0.01803   0.01017  -0.0831  0.6462  1.0000  -1.1313   0.0000   0.0000   0.0000   0.3539
   3.400   0.7806   0.01802   0.01010  -0.0827  0.6417  1.0000  -1.1501   0.0000   0.0000   0.0000   0.3518
   3.500   0.7916   0.01819   0.01020  -0.0824  0.6365  1.0000  -1.1683   0.0000   0.0000   0.0000   0.3499
   3.600   0.8006   0.01829   0.01036  -0.0822  0.6310  1.0000  -1.1836   0.0000   0.0000   0.0000   0.3483
   3.700   0.8100   0.01838   0.01048  -0.0819  0.6248  1.0000  -1.1996   0.0000   0.0000   0.0000   0.3467
   3.800   0.8199   0.01843   0.01053  -0.0817  0.6185  1.0000  -1.2166   0.0000   0.0000   0.0000   0.3450
   3.900   0.8304   0.01843   0.01052  -0.0814  0.6126  1.0000  -1.2344   0.0000   0.0000   0.0000   0.3433
   4.000   0.8413   0.01840   0.01046  -0.0810  0.6072  1.0000  -1.2528   0.0000   0.0000   0.0000   0.3416
   4.100   0.8524   0.01836   0.01039  -0.0807  0.6023  1.0000  -1.2716   0.0000   0.0000   0.0000   0.3399
   4.200   0.8636   0.01836   0.01034  -0.0804  0.5976  1.0000  -1.2937   0.0000   0.0000   0.0000   0.3382
   4.300   0.8750   0.01843   0.01034  -0.0802  0.5926  1.0000  -1.3161   0.0000   0.0000   0.0000   0.3366
   4.400   0.8855   0.01866   0.01053  -0.0800  0.5870  1.0000  -1.3369   0.0000   0.0000   0.0000   0.3351
   4.500   0.8945   0.01878   0.01071  -0.0797  0.5814  1.0000  -1.3558   0.0000   0.0000   0.0000   0.3339
   4.600   0.9040   0.01888   0.01085  -0.0795  0.5750  1.0000  -1.3754   0.0000   0.0000   0.0000   0.3325
   4.700   0.9140   0.01892   0.01091  -0.0792  0.5684  1.0000  -1.3961   0.0000   0.0000   0.0000   0.3311
   4.800   0.9244   0.01892   0.01089  -0.0789  0.5621  1.0000  -1.4178   0.0000   0.0000   0.0000   0.3297
   4.900   0.9353   0.01889   0.01082  -0.0785  0.5562  1.0000  -1.4422   0.0000   0.0000   0.0000   0.3283
   5.000   0.9462   0.01886   0.01075  -0.0782  0.5505  1.0000  -1.4694   0.0000   0.0000   0.0000   0.3268
   5.100   0.9575   0.01893   0.01073  -0.0779  0.5446  1.0000  -1.4971   0.0000   0.0000   0.0000   0.3254
   5.200   0.9680   0.01920   0.01094  -0.0777  0.5382  1.0000  -1.5230   0.0000   0.0000   0.0000   0.3242
   5.300   0.9769   0.01933   0.01115  -0.0775  0.5327  1.0000  -1.5463   0.0000   0.0000   0.0000   0.3231
   5.400   0.9863   0.01946   0.01134  -0.0772  0.5265  1.0000  -1.5712   0.0000   0.0000   0.0000   0.3220
   5.500   0.9961   0.01957   0.01147  -0.0770  0.5200  1.0000  -1.6017   0.0000   0.0000   0.0000   0.3209
   5.600   1.0063   0.01963   0.01152  -0.0767  0.5137  1.0000  -1.6333   0.0000   0.0000   0.0000   0.3197
   5.700   1.0168   0.01965   0.01152  -0.0764  0.5075  1.0000  -1.6659   0.0000   0.0000   0.0000   0.3185
   5.800   1.0274   0.01969   0.01150  -0.0761  0.5015  1.0000  -1.6993   0.0000   0.0000   0.0000   0.3173
   5.900   1.0385   0.01985   0.01155  -0.0758  0.4947  1.0000  -1.7335   0.0000   0.0000   0.0000   0.3161
   6.000   1.0482   0.02013   0.01182  -0.0756  0.4881  1.0000  -1.7644   0.0000   0.0000   0.0000   0.3151
   6.100   1.0570   0.02025   0.01202  -0.0753  0.4819  1.0000  -1.7939   0.0000   0.0000   0.0000   0.3141
   6.200   1.0662   0.02036   0.01217  -0.0749  0.4750  1.0000  -1.8306   0.0000   0.0000   0.0000   0.3130
   6.300   1.0759   0.02045   0.01264  -0.0746  0.4676  1.0000  -1.8935   0.0000   0.0000   0.0000   0.3119
   6.400   1.0860   0.02052   0.01270  -0.0743  0.4612  1.0000  -1.9371   0.0000   0.0000   0.0000   0.3109
   6.500   1.0962   0.02061   0.01276  -0.0740  0.4552  1.0000  -1.9805   0.0000   0.0000   0.0000   0.3098
   6.600   1.1068   0.02079   0.01285  -0.0737  0.4488  1.0000  -2.0247   0.0000   0.0000   0.0000   0.3088
   6.700   1.1171   0.02121   0.01319  -0.0736  0.4413  1.0000  -2.0671   0.0000   0.0000   0.0000   0.3080
   6.800   1.1255   0.02134   0.01343  -0.0732  0.4360  1.0000  -2.1053   0.0000   0.0000   0.0000   0.3070
   6.900   1.1342   0.02148   0.01364  -0.0729  0.4294  1.0000  -2.1447   0.0000   0.0000   0.0000   0.3061
   7.000   1.1433   0.02160   0.01379  -0.0725  0.4224  1.0000  -2.1857   0.0000   0.0000   0.0000   0.3051
   7.100   1.1528   0.02169   0.01387  -0.0722  0.4155  1.0000  -2.2282   0.0000   0.0000   0.0000   0.3042
   7.200   1.1625   0.02178   0.01393  -0.0718  0.4089  1.0000  -2.2718   0.0000   0.0000   0.0000   0.3032
   7.300   1.1726   0.02197   0.01402  -0.0716  0.4021  1.0000  -2.3164   0.0000   0.0000   0.0000   0.3023
   7.400   1.1829   0.02249   0.01443  -0.0714  0.3940  1.0000  -2.3598   0.0000   0.0000   0.0000   0.3015
   7.500   1.1909   0.02264   0.01470  -0.0710  0.3892  1.0000  -2.3983   0.0000   0.0000   0.0000   0.3007
   7.600   1.1991   0.02281   0.01496  -0.0706  0.3830  1.0000  -2.4377   0.0000   0.0000   0.0000   0.2998
   7.700   1.2077   0.02297   0.01516  -0.0702  0.3762  1.0000  -2.4786   0.0000   0.0000   0.0000   0.2989
   7.800   1.2166   0.02309   0.01529  -0.0698  0.3693  1.0000  -2.5211   0.0000   0.0000   0.0000   0.2980
   7.900   1.2257   0.02320   0.01537  -0.0694  0.3626  1.0000  -2.5649   0.0000   0.0000   0.0000   0.2971
   8.000   1.2352   0.02344   0.01549  -0.0691  0.3553  1.0000  -2.6098   0.0000   0.0000   0.0000   0.2963
   8.100   1.2449   0.02400   0.01596  -0.0690  0.3471  1.0000  -2.6535   0.0000   0.0000   0.0000   0.2956
   8.200   1.2522   0.02416   0.01624  -0.0685  0.3421  1.0000  -2.7229   0.0000   0.0000   0.0000   0.2947
   8.300   1.2599   0.02435   0.01652  -0.0680  0.3360  1.0000  -2.7943   0.0000   0.0000   0.0000   0.2939
   8.400   1.2680   0.02453   0.01675  -0.0676  0.3293  1.0000  -2.8685   0.0000   0.0000   0.0000   0.2930
   8.500   1.2761   0.02468   0.01690  -0.0671  0.3225  1.0000  -2.9450   0.0000   0.0000   0.0000   0.2922
   8.600   1.2844   0.02484   0.01701  -0.0667  0.3156  1.0000  -3.0240   0.0000   0.0000   0.0000   0.2913
   8.700   1.2934   0.02525   0.01727  -0.0664  0.3074  1.0000  -3.1055   0.0000   0.0000   0.0000   0.2906
   8.800   1.3013   0.02570   0.01773  -0.0660  0.3004  1.0000  -3.1800   0.0000   0.0000   0.0000   0.2898
   8.900   1.3078   0.02588   0.01803  -0.0654  0.2947  1.0000  -3.2506   0.0000   0.0000   0.0000   0.2890
   9.000   1.3147   0.02608   0.01830  -0.0648  0.2881  1.0000  -3.3238   0.0000   0.0000   0.0000   0.2881
   9.100   1.3218   0.02628   0.01852  -0.0643  0.2813  1.0000  -3.3993   0.0000   0.0000   0.0000   0.2873
   9.200   1.3290   0.02649   0.01871  -0.0638  0.2747  1.0000  -3.4764   0.0000   0.0000   0.0000   0.2865
   9.300   1.3366   0.02685   0.01894  -0.0633  0.2671  1.0000  -3.5564   0.0000   0.0000   0.0000   0.2857
   9.400   1.3444   0.02750   0.01952  -0.0630  0.2587  1.0000  -3.6337   0.0000   0.0000   0.0000   0.2850
   9.500   1.3496   0.02768   0.01984  -0.0622  0.2533  1.0000  -3.7015   0.0000   0.0000   0.0000   0.2841
   9.600   1.3550   0.02790   0.02013  -0.0615  0.2464  1.0000  -3.7715   0.0000   0.0000   0.0000   0.2833
   9.700   1.3604   0.02811   0.02036  -0.0608  0.2393  1.0000  -3.8431   0.0000   0.0000   0.0000   0.2824
   9.800   1.3645   0.02840   0.02082  -0.0599  0.2303  1.0000  -3.8801   0.0000   0.0000   0.0000   0.2815
   9.900   1.3718   0.02924   0.02143  -0.0595  0.2198  1.0000  -3.9517   0.0000   0.0000   0.0000   0.2808
  10.000   1.3755   0.02948   0.02184  -0.0587  0.2152  1.0000  -4.0111   0.0000   0.0000   0.0000   0.2799
  10.100   1.3796   0.02982   0.02227  -0.0579  0.2090  1.0000  -4.0729   0.0000   0.0000   0.0000   0.2790
  10.200   1.3836   0.03017   0.02268  -0.0570  0.2024  1.0000  -4.1358   0.0000   0.0000   0.0000   0.2781
  10.300   1.3871   0.03055   0.02304  -0.0562  0.1960  1.0000  -4.1982   0.0000   0.0000   0.0000   0.2772
  10.400   1.3905   0.03110   0.02348  -0.0553  0.1890  1.0000  -4.2602   0.0000   0.0000   0.0000   0.2764
  10.500   1.3959   0.03204   0.02433  -0.0548  0.1805  1.0000  -4.3245   0.0000   0.0000   0.0000   0.2756
  10.600   1.3979   0.03245   0.02487  -0.0537  0.1757  1.0000  -4.3767   0.0000   0.0000   0.0000   0.2747
  10.700   1.4000   0.03290   0.02539  -0.0527  0.1699  1.0000  -4.4300   0.0000   0.0000   0.0000   0.2738
  10.800   1.4012   0.03334   0.02585  -0.0516  0.1642  1.0000  -4.4811   0.0000   0.0000   0.0000   0.2728
  10.900   1.4015   0.03382   0.02631  -0.0505  0.1591  1.0000  -4.5298   0.0000   0.0000   0.0000   0.2718
  11.000   1.4024   0.03455   0.02691  -0.0494  0.1531  1.0000  -4.5790   0.0000   0.0000   0.0000   0.2709
  11.100   1.4066   0.03566   0.02797  -0.0488  0.1458  1.0000  -4.6348   0.0000   0.0000   0.0000   0.2702
  11.200   1.4061   0.03617   0.02858  -0.0477  0.1424  1.0000  -4.6753   0.0000   0.0000   0.0000   0.2692
  11.300   1.4059   0.03673   0.02923  -0.0466  0.1382  1.0000  -4.7175   0.0000   0.0000   0.0000   0.2683
  11.400   1.4059   0.03731   0.02984  -0.0457  0.1339  1.0000  -4.7618   0.0000   0.0000   0.0000   0.2674
  11.500   1.4056   0.03791   0.03045  -0.0448  0.1299  1.0000  -4.8063   0.0000   0.0000   0.0000   0.2666
  11.600   1.4051   0.03857   0.03109  -0.0439  0.1262  1.0000  -4.8507   0.0000   0.0000   0.0000   0.2659
  11.700   1.4050   0.03942   0.03186  -0.0431  0.1220  1.0000  -4.8950   0.0000   0.0000   0.0000   0.2651
  11.800   1.4106   0.04087   0.03321  -0.0427  0.1154  1.0000  -4.9522   0.0000   0.0000   0.0000   0.2645
  11.900   1.4100   0.04158   0.03403  -0.0419  0.1135  1.0000  -4.9901   0.0000   0.0000   0.0000   0.2638
  12.000   1.4101   0.04238   0.03494  -0.0411  0.1113  1.0000  -5.0291   0.0000   0.0000   0.0000   0.2631
  12.100   1.4106   0.04323   0.03588  -0.0405  0.1088  1.0000  -5.0692   0.0000   0.0000   0.0000   0.2625
  12.200   1.4113   0.04409   0.03682  -0.0398  0.1063  1.0000  -5.1104   0.0000   0.0000   0.0000   0.2618
  12.300   1.4120   0.04496   0.03774  -0.0392  0.1039  1.0000  -5.1524   0.0000   0.0000   0.0000   0.2612
  12.400   1.4127   0.04582   0.03865  -0.0386  0.1016  1.0000  -5.1956   0.0000   0.0000   0.0000   0.2606
  12.500   1.4132   0.04671   0.03957  -0.0381  0.0994  1.0000  -5.2387   0.0000   0.0000   0.0000   0.2600
  12.600   1.4138   0.04762   0.04050  -0.0376  0.0974  1.0000  -5.2822   0.0000   0.0000   0.0000   0.2595
  12.700   1.4144   0.04860   0.04149  -0.0371  0.0955  1.0000  -5.3254   0.0000   0.0000   0.0000   0.2590
  12.800   1.4164   0.04970   0.04257  -0.0366  0.0932  1.0000  -5.3728   0.0000   0.0000   0.0000   0.2584
  12.900   1.4222   0.05155   0.04443  -0.0362  0.0897  1.0000  -5.4207   0.0000   0.0000   0.0000   0.2579
  13.000   1.4215   0.05368   0.04666  -0.0357  0.0879  1.0000  -5.4316   0.0000   0.0000   0.0000   0.2574
  13.100   1.4198   0.05475   0.04784  -0.0352  0.0873  1.0000  -5.4575   0.0000   0.0000   0.0000   0.2569
  13.200   1.4176   0.05591   0.04912  -0.0348  0.0866  1.0000  -5.4796   0.0000   0.0000   0.0000   0.2565
  13.300   1.4151   0.05716   0.05047  -0.0345  0.0859  1.0000  -5.4991   0.0000   0.0000   0.0000   0.2561
  13.400   1.4123   0.05847   0.05190  -0.0342  0.0851  1.0000  -5.5159   0.0000   0.0000   0.0000   0.2557
  13.500   1.4091   0.05987   0.05341  -0.0339  0.0843  1.0000  -5.5290   0.0000   0.0000   0.0000   0.2554
  13.600   1.4052   0.06136   0.05500  -0.0337  0.0836  1.0000  -5.5378   0.0000   0.0000   0.0000   0.2552
  13.700   1.4009   0.06290   0.05665  -0.0335  0.0828  1.0000  -5.5436   0.0000   0.0000   0.0000   0.2549
  13.800   1.3961   0.06451   0.05837  -0.0334  0.0821  1.0000  -5.5455   0.0000   0.0000   0.0000   0.2548
  13.900   1.3906   0.06624   0.06020  -0.0334  0.0815  1.0000  -5.5431   0.0000   0.0000   0.0000   0.2547
  14.000   1.3846   0.06807   0.06214  -0.0335  0.0809  1.0000  -5.5366   0.0000   0.0000   0.0000   0.2547
  14.100   1.3781   0.07000   0.06417  -0.0337  0.0803  1.0000  -5.5268   0.0000   0.0000   0.0000   0.2547
  14.200   1.3713   0.07203   0.06630  -0.0340  0.0798  1.0000  -5.5136   0.0000   0.0000   0.0000   0.2549
  14.300   1.3635   0.07422   0.06859  -0.0344  0.0794  1.0000  -5.4940   0.0000   0.0000   0.0000   0.2552
  14.400   1.3553   0.07650   0.07098  -0.0350  0.0790  1.0000  -5.4711   0.0000   0.0000   0.0000   0.2556
  14.500   1.3468   0.07890   0.07347  -0.0357  0.0787  1.0000  -5.4441   0.0000   0.0000   0.0000   0.2561
  14.600   1.3368   0.08152   0.07619  -0.0366  0.0785  1.0000  -5.4080   0.0000   0.0000   0.0000   0.2568
  14.700   1.3263   0.08429   0.07907  -0.0377  0.0784  1.0000  -5.3662   0.0000   0.0000   0.0000   0.2576
  14.800   1.3150   0.08725   0.08212  -0.0390  0.0784  1.0000  -5.3172   0.0000   0.0000   0.0000   0.2587
  14.900   1.3017   0.09057   0.08554  -0.0406  0.0786  1.0000  -5.2541   0.0000   0.0000   0.0000   0.2600
  15.000   1.2866   0.09429   0.08937  -0.0426  0.0789  1.0000  -5.1753   0.0000   0.0000   0.0000   0.2618
  15.100   1.2681   0.09874   0.09392  -0.0452  0.0796  1.0000  -5.0694   0.0000   0.0000   0.0000   0.2642
  15.200   1.2472   0.10387   0.09914  -0.0484  0.0805  1.0000  -4.9395   0.0000   0.0000   0.0000   0.2673
  15.300   1.2216   0.11020   0.10556  -0.0525  0.0818  1.0000  -4.7663   0.0000   0.0000   0.0000   0.2714
  15.400   1.1905   0.11806   0.11348  -0.0578  0.0834  1.0000  -4.5345   0.0000   0.0000   0.0000   0.2770
  15.500   1.1522   0.12814   0.12358  -0.0645  0.0853  1.0000  -4.2158   0.0000   0.0000   0.0000   0.2847
  15.600   1.1158   0.13920   0.13460  -0.0713  0.0867  1.0000  -3.8759   0.0000   0.0000   0.0000   0.2928
  15.700   1.0922   0.14802   0.14339  -0.0761  0.0873  1.0000  -3.6319   0.0000   0.0000   0.0000   0.2989
  15.800   1.0776   0.15488   0.15022  -0.0796  0.0874  1.0000  -3.4655   0.0000   0.0000   0.0000   0.3032
  15.900   1.0676   0.16048   0.15581  -0.0823  0.0874  1.0000  -3.3445   0.0000   0.0000   0.0000   0.3065
  16.000   1.0601   0.16537   0.16069  -0.0846  0.0874  1.0000  -3.2489   0.0000   0.0000   0.0000   0.3093
  16.100   1.0542   0.16983   0.16514  -0.0867  0.0874  1.0000  -3.1684   0.0000   0.0000   0.0000   0.3117
  16.200   1.0493   0.17401   0.16931  -0.0886  0.0873  1.0000  -3.0983   0.0000   0.0000   0.0000   0.3139
  16.300   1.0454   0.17799   0.17328  -0.0903  0.0873  1.0000  -3.0364   0.0000   0.0000   0.0000   0.3158
  16.400   1.0422   0.18183   0.17712  -0.0918  0.0874  1.0000  -2.9820   0.0000   0.0000   0.0000   0.3175
  16.500   1.0399   0.18568   0.18098  -0.0930  0.0877  1.0000  -2.9363   0.0000   0.0000   0.0000   0.3187
  16.600   1.0411   0.18882   0.18417  -0.0935  0.0884  1.0000  -2.9200   0.0000   0.0000   0.0000   0.3191
  16.700   1.0428   0.19096   0.18632  -0.0946  0.0889  1.0000  -2.9074   0.0000   0.0000   0.0000   0.3199
  16.800   0.9888   0.21334   0.20835  -0.1102  0.1282  1.0000  -2.1472   0.0000   0.0000   0.0000   0.3420
  16.900   0.9907   0.21530   0.21033  -0.1108  0.1271  1.0000  -2.1526   0.0000   0.0000   0.0000   0.3422
  17.000   0.9929   0.21725   0.21228  -0.1113  0.1261  1.0000  -2.1606   0.0000   0.0000   0.0000   0.3424
  17.100   0.9952   0.21919   0.21423  -0.1117  0.1252  1.0000  -2.1707   0.0000   0.0000   0.0000   0.3424
  17.200   0.9978   0.22113   0.21620  -0.1121  0.1244  1.0000  -2.1825   0.0000   0.0000   0.0000   0.3424
  17.300   1.0006   0.22309   0.21818  -0.1125  0.1236  1.0000  -2.1961   0.0000   0.0000   0.0000   0.3422
  17.400   1.0037   0.22508   0.22018  -0.1128  0.1228  1.0000  -2.2115   0.0000   0.0000   0.0000   0.3420
  17.500   1.0070   0.22711   0.22222  -0.1131  0.1221  1.0000  -2.2290   0.0000   0.0000   0.0000   0.3417
  17.600   1.0108   0.22919   0.22432  -0.1132  0.1215  1.0000  -2.2492   0.0000   0.0000   0.0000   0.3413
  17.700   1.0151   0.23135   0.22651  -0.1133  0.1208  1.0000  -2.2728   0.0000   0.0000   0.0000   0.3407
  17.800   1.0233   0.23408   0.22949  -0.1126  0.1197  1.0000  -2.2828   0.0000   0.0000   0.0000   0.3390
  17.900   1.0306   0.23695   0.23240  -0.1121  0.1189  1.0000  -2.3188   0.0000   0.0000   0.0000   0.3375
  18.100   1.0342   0.25119   0.24666  -0.1120  0.1160  1.0000  -2.3075   0.0000   0.0000   0.0000   0.3369
  18.200   1.0330   0.25270   0.24817  -0.1133  0.1158  1.0000  -2.2821   0.0000   0.0000   0.0000   0.3381
  18.300   1.0313   0.25366   0.24913  -0.1147  0.1154  1.0000  -2.2526   0.0000   0.0000   0.0000   0.3395
  18.400   1.0269   0.25414   0.24961  -0.1165  0.1148  1.0000  -2.2088   0.0000   0.0000   0.0000   0.3417
  18.500   1.0196   0.25415   0.24959  -0.1188  0.1139  1.0000  -2.1508   0.0000   0.0000   0.0000   0.3446
  18.600   1.0109   0.25416   0.24957  -0.1215  0.1120  1.0000  -2.0823   0.0000   0.0000   0.0000   0.3481
  18.700   1.0057   0.25509   0.25050  -0.1238  0.1075  1.0000  -2.0299   0.0000   0.0000   0.0000   0.3510
  18.800   1.0060   0.25672   0.25215  -0.1247  0.1029  1.0000  -2.0166   0.0000   0.0000   0.0000   0.3517
  18.900   1.0082   0.25836   0.25380  -0.1250  0.0994  1.0000  -2.0147   0.0000   0.0000   0.0000   0.3515
  19.000   1.0130   0.25960   0.25508  -0.1246  0.0957  1.0000  -2.0315   0.0000   0.0000   0.0000   0.3502
  19.100   1.0431   0.26224   0.25783  -0.1183  0.0897  1.0000  -2.2017   0.0000   0.0000   0.0000   0.3401
  19.200   1.0381   0.27248   0.26803  -0.1188  0.0881  1.0000  -2.1218   0.0000   0.0000   0.0000   0.3413
  19.300   1.0376   0.27519   0.27074  -0.1198  0.0880  1.0000  -2.0836   0.0000   0.0000   0.0000   0.3421
  19.400   1.0371   0.27778   0.27333  -0.1207  0.0879  1.0000  -2.0484   0.0000   0.0000   0.0000   0.3429
  19.500   1.0365   0.28025   0.27580  -0.1216  0.0879  1.0000  -2.0156   0.0000   0.0000   0.0000   0.3438
  19.600   1.0359   0.28258   0.27814  -0.1225  0.0877  1.0000  -1.9844   0.0000   0.0000   0.0000   0.3446
  19.700   1.0350   0.28477   0.28033  -0.1235  0.0876  1.0000  -1.9545   0.0000   0.0000   0.0000   0.3455
  19.800   1.0340   0.28678   0.28235  -0.1244  0.0874  1.0000  -1.9252   0.0000   0.0000   0.0000   0.3464
  19.900   1.0314   0.28851   0.28408  -0.1255  0.0872  1.0000  -1.8901   0.0000   0.0000   0.0000   0.3477
  20.000   1.0277   0.28991   0.28548  -0.1268  0.0869  1.0000  -1.8512   0.0000   0.0000   0.0000   0.3492
  20.100   1.0215   0.29082   0.28639  -0.1283  0.0864  1.0000  -1.8030   0.0000   0.0000   0.0000   0.3513
  20.200   1.0141   0.29142   0.28697  -0.1301  0.0854  1.0000  -1.7452   0.0000   0.0000   0.0000   0.3540
  20.300   1.0081   0.29251   0.28805  -0.1321  0.0835  1.0000  -1.6888   0.0000   0.0000   0.0000   0.3566
  20.400   1.0053   0.29440   0.28996  -0.1332  0.0814  1.0000  -1.6548   0.0000   0.0000   0.0000   0.3579
  20.500   1.0036   0.29644   0.29201  -0.1339  0.0798  1.0000  -1.6318   0.0000   0.0000   0.0000   0.3587
  20.600   1.0020   0.29846   0.29404  -0.1344  0.0783  1.0000  -1.6133   0.0000   0.0000   0.0000   0.3594
  20.700   1.0004   0.30041   0.29601  -0.1348  0.0770  1.0000  -1.5975   0.0000   0.0000   0.0000   0.3598
  20.800   0.9987   0.30228   0.29789  -0.1351  0.0758  1.0000  -1.5834   0.0000   0.0000   0.0000   0.3603
  20.900   0.9967   0.30404   0.29967  -0.1354  0.0747  1.0000  -1.5705   0.0000   0.0000   0.0000   0.3606
  21.000   0.9944   0.30567   0.30132  -0.1355  0.0736  1.0000  -1.5584   0.0000   0.0000   0.0000   0.3609
  21.100   0.9915   0.30713   0.30280  -0.1355  0.0727  1.0000  -1.5468   0.0000   0.0000   0.0000   0.3612
  21.200   0.9856   0.30796   0.30366  -0.1351  0.0718  1.0000  -1.5296   0.0000   0.0000   0.0000   0.3615
  21.300   0.9547   0.30326   0.29905  -0.1317  0.0715  1.0000  -1.4548   0.0000   0.0000   0.0000   0.3628
  21.400   0.9452   0.30241   0.29824  -0.1307  0.0708  1.0000  -1.4312   0.0000   0.0000   0.0000   0.3632
  21.500   0.9388   0.30206   0.29793  -0.1301  0.0700  1.0000  -1.4165   0.0000   0.0000   0.0000   0.3634
  21.600   0.9341   0.30196   0.29785  -0.1296  0.0692  1.0000  -1.4138   0.0000   0.0000   0.0000   0.3634
  21.700   0.9306   0.30202   0.29794  -0.1291  0.0685  1.0000  -1.4221   0.0000   0.0000   0.0000   0.3633
  21.800   0.9284   0.30225   0.29820  -0.1286  0.0677  1.0000  -1.4390   0.0000   0.0000   0.0000   0.3630
  21.900   0.9575   0.31615   0.31208  -0.1263  0.0636  1.0000  -1.6318   0.0000   0.0000   0.0000   0.3558
  22.000   0.9480   0.31486   0.31082  -0.1260  0.0635  1.0000  -1.5976   0.0000   0.0000   0.0000   0.3569
  22.100   0.9395   0.31358   0.30957  -0.1260  0.0634  1.0000  -1.5648   0.0000   0.0000   0.0000   0.3581
  22.200   0.9305   0.31206   0.30806  -0.1261  0.0632  1.0000  -1.5274   0.0000   0.0000   0.0000   0.3595
  22.300   0.9206   0.31027   0.30629  -0.1263  0.0630  1.0000  -1.4836   0.0000   0.0000   0.0000   0.3612
  22.400   0.9108   0.30845   0.30449  -0.1267  0.0627  1.0000  -1.4369   0.0000   0.0000   0.0000   0.3631
  22.500   0.9020   0.30681   0.30286  -0.1275  0.0622  1.0000  -1.3880   0.0000   0.0000   0.0000   0.3653
  22.600   0.8945   0.30570   0.30176  -0.1286  0.0612  1.0000  -1.3345   0.0000   0.0000   0.0000   0.3677
  22.700   0.8901   0.30582   0.30189  -0.1301  0.0584  1.0000  -1.2888   0.0000   0.0000   0.0000   0.3700
  22.800   0.8882   0.30633   0.30241  -0.1306  0.0546  1.0000  -1.2791   0.0000   0.0000   0.0000   0.3708
  22.900   0.8869   0.30671   0.30281  -0.1308  0.0521  1.0000  -1.2819   0.0000   0.0000   0.0000   0.3711
  23.000   0.8857   0.30709   0.30320  -0.1309  0.0506  1.0000  -1.2846   0.0000   0.0000   0.0000   0.3712
  23.100   0.8850   0.30740   0.30353  -0.1309  0.0491  1.0000  -1.2923   0.0000   0.0000   0.0000   0.3711
  23.200   0.8847   0.30764   0.30378  -0.1307  0.0477  1.0000  -1.3070   0.0000   0.0000   0.0000   0.3708
  23.300   0.8853   0.30783   0.30400  -0.1303  0.0465  1.0000  -1.3320   0.0000   0.0000   0.0000   0.3701
  23.400   0.8876   0.30824   0.30443  -0.1295  0.0452  1.0000  -1.3770   0.0000   0.0000   0.0000   0.3686
  23.600   0.8935   0.31688   0.31306  -0.1276  0.0431  1.0000  -1.4126   0.0000   0.0000   0.0000   0.3651
  23.700   0.8912   0.31746   0.31366  -0.1279  0.0430  1.0000  -1.3894   0.0000   0.0000   0.0000   0.3658
  23.800   0.8890   0.31802   0.31423  -0.1282  0.0430  1.0000  -1.3670   0.0000   0.0000   0.0000   0.3664
  23.900   0.8868   0.31856   0.31478  -0.1286  0.0429  1.0000  -1.3452   0.0000   0.0000   0.0000   0.3670
  24.000   0.8847   0.31904   0.31527  -0.1289  0.0429  1.0000  -1.3239   0.0000   0.0000   0.0000   0.3676
  24.100   0.8826   0.31949   0.31573  -0.1293  0.0428  1.0000  -1.3032   0.0000   0.0000   0.0000   0.3683
  24.200   0.8806   0.31991   0.31616  -0.1296  0.0428  1.0000  -1.2830   0.0000   0.0000   0.0000   0.3689
  24.300   0.8778   0.32009   0.31636  -0.1300  0.0427  1.0000  -1.2594   0.0000   0.0000   0.0000   0.3698
  24.400   0.8749   0.32017   0.31645  -0.1305  0.0426  1.0000  -1.2347   0.0000   0.0000   0.0000   0.3707
  24.500   0.8719   0.32022   0.31650  -0.1310  0.0426  1.0000  -1.2099   0.0000   0.0000   0.0000   0.3717
  24.600   0.8691   0.32026   0.31655  -0.1315  0.0425  1.0000  -1.1853   0.0000   0.0000   0.0000   0.3727
  24.700   0.8664   0.32030   0.31661  -0.1321  0.0423  1.0000  -1.1606   0.0000   0.0000   0.0000   0.3737
  24.800   0.8638   0.32038   0.31669  -0.1327  0.0422  1.0000  -1.1356   0.0000   0.0000   0.0000   0.3747
  24.900   0.8614   0.32050   0.31683  -0.1334  0.0419  1.0000  -1.1099   0.0000   0.0000   0.0000   0.3759
  25.000   0.8593   0.32074   0.31707  -0.1342  0.0416  1.0000  -1.0830   0.0000   0.0000   0.0000   0.3770
  25.100   0.8576   0.32120   0.31754  -0.1350  0.0411  1.0000  -1.0555   0.0000   0.0000   0.0000   0.3782
  25.200   0.8564   0.32193   0.31827  -0.1359  0.0403  1.0000  -1.0303   0.0000   0.0000   0.0000   0.3793
  25.300   0.8557   0.32278   0.31914  -0.1366  0.0394  1.0000  -1.0112   0.0000   0.0000   0.0000   0.3801
  25.400   0.8550   0.32363   0.32000  -0.1371  0.0385  1.0000  -0.9973   0.0000   0.0000   0.0000   0.3807
  25.500   0.8544   0.32444   0.32082  -0.1375  0.0377  1.0000  -0.9866   0.0000   0.0000   0.0000   0.3812
  25.600   0.8538   0.32523   0.32161  -0.1379  0.0369  1.0000  -0.9779   0.0000   0.0000   0.0000   0.3816
  25.700   0.8533   0.32599   0.32239  -0.1383  0.0362  1.0000  -0.9705   0.0000   0.0000   0.0000   0.3820
  25.800   0.8528   0.32674   0.32315  -0.1386  0.0356  1.0000  -0.9641   0.0000   0.0000   0.0000   0.3823
  25.900   0.8523   0.32747   0.32390  -0.1390  0.0350  1.0000  -0.9586   0.0000   0.0000   0.0000   0.3827
  26.000   0.8519   0.32820   0.32463  -0.1393  0.0344  1.0000  -0.9538   0.0000   0.0000   0.0000   0.3830
  26.100   0.8515   0.32891   0.32536  -0.1397  0.0339  1.0000  -0.9497   0.0000   0.0000   0.0000   0.3833
  26.200   0.8511   0.32962   0.32608  -0.1400  0.0334  1.0000  -0.9462   0.0000   0.0000   0.0000   0.3836
  26.300   0.8508   0.33032   0.32679  -0.1403  0.0329  1.0000  -0.9433   0.0000   0.0000   0.0000   0.3838
  26.400   0.8505   0.33101   0.32749  -0.1407  0.0325  1.0000  -0.9410   0.0000   0.0000   0.0000   0.3841
  26.500   0.8502   0.33169   0.32818  -0.1410  0.0320  1.0000  -0.9394   0.0000   0.0000   0.0000   0.3843
  26.600   0.8499   0.33236   0.32886  -0.1413  0.0316  1.0000  -0.9383   0.0000   0.0000   0.0000   0.3846
  26.700   0.8497   0.33302   0.32954  -0.1416  0.0312  1.0000  -0.9379   0.0000   0.0000   0.0000   0.3848
  26.800   0.8494   0.33368   0.33020  -0.1419  0.0308  1.0000  -0.9382   0.0000   0.0000   0.0000   0.3850
  26.900   0.8492   0.33432   0.33085  -0.1422  0.0304  1.0000  -0.9393   0.0000   0.0000   0.0000   0.3852
  27.000   0.8491   0.33494   0.33149  -0.1424  0.0301  1.0000  -0.9412   0.0000   0.0000   0.0000   0.3853
  27.100   0.8490   0.33556   0.33212  -0.1427  0.0297  1.0000  -0.9439   0.0000   0.0000   0.0000   0.3855
  27.200   0.8488   0.33617   0.33274  -0.1430  0.0294  1.0000  -0.9476   0.0000   0.0000   0.0000   0.3856
  27.300   0.8488   0.33677   0.33335  -0.1432  0.0291  1.0000  -0.9525   0.0000   0.0000   0.0000   0.3856
  27.400   0.8488   0.33736   0.33396  -0.1434  0.0288  1.0000  -0.9586   0.0000   0.0000   0.0000   0.3857
  27.500   0.8488   0.33795   0.33456  -0.1436  0.0285  1.0000  -0.9660   0.0000   0.0000   0.0000   0.3857
  27.600   0.8490   0.33855   0.33526  -0.1436  0.0281  1.0000  -0.9790   0.0000   0.0000   0.0000   0.3855
  27.700   0.8492   0.33923   0.33596  -0.1437  0.0278  1.0000  -0.9918   0.0000   0.0000   0.0000   0.3852
  27.800   0.8497   0.34008   0.33681  -0.1437  0.0275  1.0000  -1.0071   0.0000   0.0000   0.0000   0.3849
  27.900   0.8507   0.34130   0.33805  -0.1435  0.0272  1.0000  -1.0261   0.0000   0.0000   0.0000   0.3843
  28.000   0.8530   0.34392   0.34068  -0.1431  0.0268  1.0000  -1.0528   0.0000   0.0000   0.0000   0.3832
  28.100   0.8559   0.35015   0.34688  -0.1428  0.0263  1.0000  -1.0503   0.0000   0.0000   0.0000   0.3821
  28.200   0.8553   0.35076   0.34750  -0.1432  0.0263  1.0000  -1.0423   0.0000   0.0000   0.0000   0.3826
  28.300   0.8546   0.35136   0.34811  -0.1437  0.0263  1.0000  -1.0344   0.0000   0.0000   0.0000   0.3830
  28.400   0.8540   0.35194   0.34870  -0.1441  0.0263  1.0000  -1.0265   0.0000   0.0000   0.0000   0.3834
  28.500   0.8533   0.35253   0.34930  -0.1445  0.0263  1.0000  -1.0187   0.0000   0.0000   0.0000   0.3838
  28.600   0.8527   0.35307   0.34985  -0.1449  0.0263  1.0000  -1.0107   0.0000   0.0000   0.0000   0.3843
  28.700   0.8519   0.35357   0.35036  -0.1454  0.0262  1.0000  -1.0020   0.0000   0.0000   0.0000   0.3847
  28.800   0.8509   0.35395   0.35075  -0.1458  0.0262  1.0000  -0.9917   0.0000   0.0000   0.0000   0.3853
  28.900   0.8499   0.35434   0.35115  -0.1463  0.0262  1.0000  -0.9814   0.0000   0.0000   0.0000   0.3858
  29.000   0.8490   0.35473   0.35154  -0.1467  0.0262  1.0000  -0.9712   0.0000   0.0000   0.0000   0.3864
  29.100   0.8480   0.35511   0.35194  -0.1472  0.0261  1.0000  -0.9612   0.0000   0.0000   0.0000   0.3869
  29.200   0.8471   0.35550   0.35234  -0.1477  0.0261  1.0000  -0.9512   0.0000   0.0000   0.0000   0.3875
  29.300   0.8463   0.35590   0.35275  -0.1482  0.0261  1.0000  -0.9412   0.0000   0.0000   0.0000   0.3880
  29.400   0.8454   0.35630   0.35316  -0.1486  0.0260  1.0000  -0.9314   0.0000   0.0000   0.0000   0.3885
  29.500   0.8446   0.35670   0.35357  -0.1491  0.0260  1.0000  -0.9216   0.0000   0.0000   0.0000   0.3891
  29.600   0.8438   0.35712   0.35399  -0.1496  0.0260  1.0000  -0.9118   0.0000   0.0000   0.0000   0.3896
  29.700   0.8431   0.35754   0.35443  -0.1502  0.0259  1.0000  -0.9021   0.0000   0.0000   0.0000   0.3902
  29.800   0.8424   0.35798   0.35487  -0.1507  0.0259  1.0000  -0.8923   0.0000   0.0000   0.0000   0.3907
  29.900   0.8417   0.35843   0.35533  -0.1512  0.0258  1.0000  -0.8826   0.0000   0.0000   0.0000   0.3913
  30.000   0.8411   0.35890   0.35582  -0.1517  0.0258  1.0000  -0.8728   0.0000   0.0000   0.0000   0.3918


