xflr5 v6.61

 Calculated polar for: S2091-101-83

 1 1 Reynolds number fixed          Mach number fixed         

 xtrf =   1.000 (top)        1.000 (bottom)
 Mach =   0.000     Re =     0.450 e 6     Ncrit =   9.000

  alpha     CL        CD       CDp       Cm    Top Xtr Bot Xtr   Cpmin    Chinge    XCp    
 ------- -------- --------- --------- -------- ------- ------- -------- --------- ---------
 -10.000  -0.3299   0.11577   0.11324  -0.0205  1.0000  0.0165  -1.5416   0.0000   0.0000   0.0000   0.1793
  -9.900  -0.3273   0.11432   0.11180  -0.0211  1.0000  0.0165  -1.5484   0.0000   0.0000   0.0000   0.1769
  -9.800  -0.3247   0.11286   0.11036  -0.0218  1.0000  0.0165  -1.5555   0.0000   0.0000   0.0000   0.1744
  -9.700  -0.3221   0.11141   0.10891  -0.0224  1.0000  0.0165  -1.5627   0.0000   0.0000   0.0000   0.1719
  -9.600  -0.3196   0.10996   0.10747  -0.0231  1.0000  0.0165  -1.5701   0.0000   0.0000   0.0000   0.1693
  -9.500  -0.3171   0.10851   0.10603  -0.0237  1.0000  0.0165  -1.5778   0.0000   0.0000   0.0000   0.1667
  -9.400  -0.3146   0.10706   0.10459  -0.0244  1.0000  0.0165  -1.5857   0.0000   0.0000   0.0000   0.1641
  -9.300  -0.3122   0.10561   0.10315  -0.0250  1.0000  0.0165  -1.5938   0.0000   0.0000   0.0000   0.1614
  -9.200  -0.3098   0.10416   0.10171  -0.0257  1.0000  0.0165  -1.6022   0.0000   0.0000   0.0000   0.1586
  -9.100  -0.3075   0.10272   0.10028  -0.0264  1.0000  0.0165  -1.6109   0.0000   0.0000   0.0000   0.1559
  -9.000  -0.3052   0.10128   0.09885  -0.0270  1.0000  0.0165  -1.6199   0.0000   0.0000   0.0000   0.1531
  -8.900  -0.3030   0.09985   0.09742  -0.0277  1.0000  0.0165  -1.6292   0.0000   0.0000   0.0000   0.1502
  -8.800  -0.3008   0.09841   0.09600  -0.0284  1.0000  0.0165  -1.6389   0.0000   0.0000   0.0000   0.1474
  -8.700  -0.2986   0.09698   0.09458  -0.0291  1.0000  0.0165  -1.6488   0.0000   0.0000   0.0000   0.1444
  -8.600  -0.2964   0.09553   0.09314  -0.0298  1.0000  0.0165  -1.6590   0.0000   0.0000   0.0000   0.1412
  -8.500  -0.3096   0.09013   0.08779  -0.0320  1.0000  0.0170  -1.9150   0.0000   0.0000   0.0000   0.1385
  -8.400  -0.3104   0.08804   0.08572  -0.0330  1.0000  0.0171  -1.9663   0.0000   0.0000   0.0000   0.1356
  -8.300  -0.3103   0.08625   0.08395  -0.0340  1.0000  0.0172  -2.0003   0.0000   0.0000   0.0000   0.1325
  -6.800  -0.2552   0.06023   0.05781  -0.0595  0.9048  0.0153  -2.2516   0.0000   0.0000   0.0000   0.0092
  -6.700  -0.2562   0.05671   0.05423  -0.0632  0.8979  0.0149  -2.3789   0.0000   0.0000   0.0000  -0.0044
  -6.600  -0.2552   0.05304   0.05048  -0.0672  0.8913  0.0145  -2.5059   0.0000   0.0000   0.0000  -0.0207
  -6.500  -0.2526   0.04876   0.04613  -0.0715  0.8870  0.0141  -2.6563   0.0000   0.0000   0.0000  -0.0406
  -6.400  -0.2500   0.04389   0.04113  -0.0756  0.8823  0.0137  -2.8436   0.0000   0.0000   0.0000  -0.0604
  -6.300  -0.2481   0.03803   0.03504  -0.0794  0.8774  0.0132  -3.1029   0.0000   0.0000   0.0000  -0.0784
  -6.200  -0.2478   0.03108   0.02767  -0.0825  0.8728  0.0126  -3.4634   0.0000   0.0000   0.0000  -0.0916
  -6.100  -0.2448   0.02605   0.02216  -0.0838  0.8687  0.0121  -3.7211   0.0000   0.0000   0.0000  -0.1015
  -6.000  -0.2389   0.02285   0.01856  -0.0842  0.8649  0.0118  -3.8535   0.0000   0.0000   0.0000  -0.1119
  -5.900  -0.2315   0.02056   0.01593  -0.0842  0.8610  0.0116  -3.9190   0.0000   0.0000   0.0000  -0.1237
  -5.800  -0.2229   0.01881   0.01388  -0.0842  0.8567  0.0116  -3.9428   0.0000   0.0000   0.0000  -0.1377
  -5.700  -0.2133   0.01743   0.01226  -0.0841  0.8542  0.0116  -3.9300   0.0000   0.0000   0.0000  -0.1548
  -5.600  -0.2033   0.01632   0.01097  -0.0840  0.8517  0.0118  -3.9005   0.0000   0.0000   0.0000  -0.1740
  -5.500  -0.1931   0.01542   0.00991  -0.0839  0.8489  0.0120  -3.8659   0.0000   0.0000   0.0000  -0.1956
  -5.400  -0.1826   0.01469   0.00905  -0.0837  0.8459  0.0125  -3.8197   0.0000   0.0000   0.0000  -0.2200
  -5.300  -0.1720   0.01414   0.00839  -0.0836  0.8430  0.0131  -3.7592   0.0000   0.0000   0.0000  -0.2477
  -5.200  -0.1612   0.01380   0.00799  -0.0834  0.8400  0.0139  -3.6770   0.0000   0.0000   0.0000  -0.2798
  -5.100  -0.1503   0.01368   0.00785  -0.0833  0.8370  0.0147  -3.5701   0.0000   0.0000   0.0000  -0.3172
  -5.000  -0.1393   0.01372   0.00789  -0.0832  0.8339  0.0153  -3.4457   0.0000   0.0000   0.0000  -0.3608
  -4.900  -0.1283   0.01388   0.00806  -0.0831  0.8308  0.0157  -3.3116   0.0000   0.0000   0.0000  -0.4122
  -4.800  -0.1172   0.01412   0.00833  -0.0830  0.8275  0.0161  -3.1724   0.0000   0.0000   0.0000  -0.4732
  -4.700  -0.1061   0.01444   0.00868  -0.0829  0.8239  0.0163  -3.0305   0.0000   0.0000   0.0000  -0.5470
  -4.600  -0.0949   0.01486   0.00913  -0.0828  0.8196  0.0165  -2.8864   0.0000   0.0000   0.0000  -0.6394
  -4.500  -0.0858   0.01301   0.00700  -0.0827  0.8163  0.0185  -2.9009   0.0000   0.0000   0.0000  -0.7327
  -4.400  -0.0751   0.01251   0.00644  -0.0826  0.8142  0.0197  -2.8219   0.0000   0.0000   0.0000  -0.8717
  -4.300  -0.0641   0.01221   0.00611  -0.0825  0.8117  0.0206  -2.7290   0.0000   0.0000   0.0000  -1.0614
  -4.200  -0.0531   0.01198   0.00586  -0.0825  0.8088  0.0213  -2.6322   0.0000   0.0000   0.0000  -1.3312
  -4.100  -0.0421   0.01177   0.00562  -0.0824  0.8058  0.0219  -2.5508   0.0000   0.0000   0.0000  -1.7427
  -4.000  -0.0311   0.01154   0.00535  -0.0823  0.8027  0.0222  -2.5018   0.0000   0.0000   0.0000  -2.4444
  -3.900  -0.0201   0.01116   0.00476  -0.0821  0.7997  0.0210  -2.5005   0.0000   0.0000   0.0000  -3.9053
  -3.800  -0.0091   0.01096   0.00454  -0.0820  0.7966  0.0220  -2.4453   0.0000   0.0000   0.0000  -8.9437
  -3.700   0.0020   0.01079   0.00434  -0.0819  0.7935  0.0229  -2.3897   0.0000   0.0000   0.0000  42.6470
  -3.600   0.0130   0.01063   0.00415  -0.0818  0.7903  0.0240  -2.3356   0.0000   0.0000   0.0000   6.6490
  -3.500   0.0240   0.01048   0.00397  -0.0816  0.7871  0.0253  -2.2855   0.0000   0.0000   0.0000   3.7054
  -3.400   0.0350   0.01032   0.00376  -0.0815  0.7835  0.0275  -2.2444   0.0000   0.0000   0.0000   2.6122
  -3.300   0.0461   0.01008   0.00348  -0.0814  0.7794  0.0370  -2.2407   0.0000   0.0000   0.0000   2.0407
  -3.200   0.0572   0.00998   0.00342  -0.0813  0.7749  0.0438  -2.1849   0.0000   0.0000   0.0000   1.6914
  -3.100   0.0685   0.00990   0.00336  -0.0813  0.7730  0.0476  -2.1195   0.0000   0.0000   0.0000   1.4524
  -3.000   0.0798   0.00983   0.00329  -0.0813  0.7707  0.0504  -2.0531   0.0000   0.0000   0.0000   1.2809
  -2.900   0.0911   0.00980   0.00325  -0.0813  0.7680  0.0524  -1.9852   0.0000   0.0000   0.0000   1.1521
  -2.800   0.1024   0.00981   0.00327  -0.0813  0.7649  0.0536  -1.9132   0.0000   0.0000   0.0000   1.0518
  -2.700   0.1136   0.00965   0.00310  -0.0812  0.7616  0.0599  -1.8539   0.0000   0.0000   0.0000   0.9724
  -2.600   0.1247   0.00954   0.00305  -0.0812  0.7582  0.0673  -1.7892   0.0000   0.0000   0.0000   0.9074
  -2.500   0.1359   0.00951   0.00306  -0.0812  0.7548  0.0730  -1.7209   0.0000   0.0000   0.0000   0.8530
  -2.400   0.1471   0.00952   0.00307  -0.0812  0.7515  0.0771  -1.6528   0.0000   0.0000   0.0000   0.8066
  -2.300   0.1582   0.00957   0.00310  -0.0811  0.7481  0.0795  -1.5851   0.0000   0.0000   0.0000   0.7667
  -2.200   0.1694   0.00958   0.00311  -0.0811  0.7445  0.0814  -1.5207   0.0000   0.0000   0.0000   0.7321
  -2.100   0.1803   0.00936   0.00283  -0.0809  0.7405  0.0898  -1.4709   0.0000   0.0000   0.0000   0.7019
  -2.000   0.1914   0.00925   0.00274  -0.0809  0.7359  0.0969  -1.4149   0.0000   0.0000   0.0000   0.6752
  -1.900   0.2026   0.00920   0.00269  -0.0808  0.7306  0.1031  -1.3577   0.0000   0.0000   0.0000   0.6514
  -1.800   0.2139   0.00912   0.00261  -0.0808  0.7287  0.1088  -1.2998   0.0000   0.0000   0.0000   0.6298
  -1.700   0.2253   0.00907   0.00256  -0.0808  0.7263  0.1127  -1.2418   0.0000   0.0000   0.0000   0.6103
  -1.600   0.2366   0.00886   0.00246  -0.0808  0.7234  0.1354  -1.1885   0.0000   0.0000   0.0000   0.5931
  -1.500   0.2478   0.00877   0.00240  -0.0808  0.7203  0.1483  -1.1320   0.0000   0.0000   0.0000   0.5773
  -1.400   0.2590   0.00862   0.00236  -0.0808  0.7170  0.1763  -1.0767   0.0000   0.0000   0.0000   0.5631
  -1.300   0.2701   0.00850   0.00232  -0.0809  0.7136  0.2040  -1.0214   0.0000   0.0000   0.0000   0.5500
  -1.200   0.2812   0.00839   0.00228  -0.0809  0.7100  0.2341  -0.9664   0.0000   0.0000   0.0000   0.5380
  -1.100   0.2922   0.00824   0.00226  -0.0809  0.7064  0.2744  -0.9120   0.0000   0.0000   0.0000   0.5271
  -1.000   0.3030   0.00810   0.00223  -0.0808  0.7027  0.3157  -0.8579   0.0000   0.0000   0.0000   0.5169
  -0.900   0.3138   0.00795   0.00222  -0.0808  0.6985  0.3643  -0.8035   0.0000   0.0000   0.0000   0.5075
  -0.800   0.3241   0.00774   0.00219  -0.0807  0.6939  0.4443  -0.7387   0.0000   0.0000   0.0000   0.4988
  -0.700   0.3348   0.00765   0.00220  -0.0806  0.6883  0.4887  -0.6893   0.0000   0.0000   0.0000   0.4905
  -0.600   0.3455   0.00754   0.00221  -0.0805  0.6838  0.5324  -0.6480   0.0000   0.0000   0.0000   0.4826
  -0.500   0.3562   0.00741   0.00221  -0.0804  0.6816  0.5736  -0.6587   0.0000   0.0000   0.0000   0.4751
  -0.400   0.3669   0.00729   0.00220  -0.0803  0.6789  0.6148  -0.6693   0.0000   0.0000   0.0000   0.4680
  -0.300   0.3774   0.00717   0.00221  -0.0801  0.6758  0.6592  -0.6798   0.0000   0.0000   0.0000   0.4613
  -0.200   0.3873   0.00703   0.00222  -0.0797  0.6724  0.7071  -0.6901   0.0000   0.0000   0.0000   0.4548
  -0.100   0.3968   0.00689   0.00222  -0.0792  0.6689  0.7581  -0.7001   0.0000   0.0000   0.0000   0.4485
   0.000   0.4052   0.00674   0.00223  -0.0784  0.6653  0.8140  -0.7095   0.0000   0.0000   0.0000   0.4423
   0.100   0.4127   0.00659   0.00222  -0.0773  0.6614  0.8795  -0.7185   0.0000   0.0000   0.0000   0.4360
   0.200   0.4314   0.00647   0.00215  -0.0786  0.6568  0.9686  -0.7343   0.0000   0.0000   0.0000   0.4307
   0.300   0.4465   0.00649   0.00210  -0.0794  0.6516  1.0000  -0.7477   0.0000   0.0000   0.0000   0.4262
   0.400   0.4575   0.00654   0.00209  -0.0793  0.6459  1.0000  -0.7586   0.0000   0.0000   0.0000   0.4217
   0.500   0.4685   0.00661   0.00209  -0.0792  0.6393  1.0000  -0.7696   0.0000   0.0000   0.0000   0.4173
   0.600   0.4797   0.00663   0.00209  -0.0792  0.6356  1.0000  -0.7807   0.0000   0.0000   0.0000   0.4132
   0.700   0.4911   0.00664   0.00208  -0.0792  0.6331  1.0000  -0.7934   0.0000   0.0000   0.0000   0.4093
   0.800   0.5024   0.00666   0.00208  -0.0792  0.6301  1.0000  -0.8063   0.0000   0.0000   0.0000   0.4056
   0.900   0.5137   0.00668   0.00208  -0.0792  0.6267  1.0000  -0.8192   0.0000   0.0000   0.0000   0.4020
   1.000   0.5250   0.00670   0.00208  -0.0792  0.6229  1.0000  -0.8321   0.0000   0.0000   0.0000   0.3986
   1.100   0.5362   0.00673   0.00208  -0.0792  0.6188  1.0000  -0.8450   0.0000   0.0000   0.0000   0.3953
   1.200   0.5473   0.00676   0.00208  -0.0791  0.6144  1.0000  -0.8579   0.0000   0.0000   0.0000   0.3921
   1.300   0.5584   0.00680   0.00208  -0.0791  0.6098  1.0000  -0.8708   0.0000   0.0000   0.0000   0.3891
   1.400   0.5694   0.00685   0.00208  -0.0790  0.6047  1.0000  -0.8836   0.0000   0.0000   0.0000   0.3861
   1.500   0.5803   0.00692   0.00208  -0.0789  0.5987  1.0000  -0.8965   0.0000   0.0000   0.0000   0.3833
   1.600   0.5912   0.00700   0.00210  -0.0788  0.5916  1.0000  -0.9092   0.0000   0.0000   0.0000   0.3805
   1.700   0.6024   0.00704   0.00212  -0.0788  0.5873  1.0000  -0.9223   0.0000   0.0000   0.0000   0.3780
   1.800   0.6137   0.00705   0.00213  -0.0788  0.5845  1.0000  -0.9357   0.0000   0.0000   0.0000   0.3755
   1.900   0.6250   0.00707   0.00215  -0.0788  0.5809  1.0000  -0.9509   0.0000   0.0000   0.0000   0.3730
   2.000   0.6362   0.00710   0.00216  -0.0788  0.5766  1.0000  -0.9660   0.0000   0.0000   0.0000   0.3707
   2.100   0.6473   0.00714   0.00218  -0.0788  0.5722  1.0000  -0.9812   0.0000   0.0000   0.0000   0.3684
   2.200   0.6584   0.00718   0.00219  -0.0788  0.5674  1.0000  -0.9964   0.0000   0.0000   0.0000   0.3662
   2.300   0.6694   0.00723   0.00221  -0.0787  0.5623  1.0000  -1.0116   0.0000   0.0000   0.0000   0.3641
   2.400   0.6803   0.00730   0.00223  -0.0786  0.5570  1.0000  -1.0267   0.0000   0.0000   0.0000   0.3620
   2.500   0.6911   0.00737   0.00225  -0.0786  0.5509  1.0000  -1.0418   0.0000   0.0000   0.0000   0.3600
   2.600   0.7019   0.00746   0.00233  -0.0785  0.5436  1.0000  -1.0569   0.0000   0.0000   0.0000   0.3581
   2.700   0.7130   0.00752   0.00237  -0.0785  0.5386  1.0000  -1.0722   0.0000   0.0000   0.0000   0.3562
   2.800   0.7242   0.00754   0.00240  -0.0785  0.5357  1.0000  -1.0878   0.0000   0.0000   0.0000   0.3544
   2.900   0.7354   0.00757   0.00242  -0.0785  0.5318  1.0000  -1.1034   0.0000   0.0000   0.0000   0.3526
   3.000   0.7465   0.00761   0.00245  -0.0784  0.5270  1.0000  -1.1190   0.0000   0.0000   0.0000   0.3509
   3.100   0.7575   0.00766   0.00247  -0.0784  0.5214  1.0000  -1.1350   0.0000   0.0000   0.0000   0.3493
   3.200   0.7684   0.00772   0.00250  -0.0783  0.5156  1.0000  -1.1530   0.0000   0.0000   0.0000   0.3476
   3.300   0.7791   0.00780   0.00253  -0.0783  0.5096  1.0000  -1.1709   0.0000   0.0000   0.0000   0.3460
   3.400   0.7898   0.00789   0.00257  -0.0782  0.5031  1.0000  -1.1888   0.0000   0.0000   0.0000   0.3445
   3.500   0.8004   0.00799   0.00262  -0.0781  0.4956  1.0000  -1.2066   0.0000   0.0000   0.0000   0.3429
   3.600   0.8113   0.00807   0.00268  -0.0780  0.4899  1.0000  -1.2247   0.0000   0.0000   0.0000   0.3415
   3.700   0.8225   0.00810   0.00272  -0.0780  0.4874  1.0000  -1.2433   0.0000   0.0000   0.0000   0.3401
   3.800   0.8336   0.00814   0.00277  -0.0780  0.4839  1.0000  -1.2618   0.0000   0.0000   0.0000   0.3387
   3.900   0.8446   0.00819   0.00281  -0.0780  0.4795  1.0000  -1.2803   0.0000   0.0000   0.0000   0.3374
   4.000   0.8555   0.00825   0.00285  -0.0780  0.4741  1.0000  -1.2988   0.0000   0.0000   0.0000   0.3360
   4.100   0.8662   0.00833   0.00290  -0.0779  0.4678  1.0000  -1.3193   0.0000   0.0000   0.0000   0.3347
   4.200   0.8767   0.00843   0.00294  -0.0778  0.4608  1.0000  -1.3407   0.0000   0.0000   0.0000   0.3334
   4.300   0.8871   0.00854   0.00301  -0.0777  0.4526  1.0000  -1.3619   0.0000   0.0000   0.0000   0.3322
   4.400   0.8974   0.00868   0.00308  -0.0776  0.4432  1.0000  -1.3830   0.0000   0.0000   0.0000   0.3309
   4.500   0.9084   0.00872   0.00314  -0.0776  0.4399  1.0000  -1.4052   0.0000   0.0000   0.0000   0.3297
   4.600   0.9194   0.00877   0.00320  -0.0776  0.4364  1.0000  -1.4274   0.0000   0.0000   0.0000   0.3286
   4.700   0.9303   0.00883   0.00326  -0.0775  0.4321  1.0000  -1.4496   0.0000   0.0000   0.0000   0.3275
   4.800   0.9411   0.00890   0.00332  -0.0775  0.4269  1.0000  -1.4733   0.0000   0.0000   0.0000   0.3264
   4.900   0.9517   0.00899   0.00338  -0.0774  0.4211  1.0000  -1.4997   0.0000   0.0000   0.0000   0.3253
   5.000   0.9621   0.00910   0.00344  -0.0773  0.4145  1.0000  -1.5260   0.0000   0.0000   0.0000   0.3242
   5.100   0.9723   0.00923   0.00353  -0.0772  0.4066  1.0000  -1.5520   0.0000   0.0000   0.0000   0.3231
   5.200   0.9823   0.00938   0.00363  -0.0770  0.3969  1.0000  -1.5778   0.0000   0.0000   0.0000   0.3220
   5.300   0.9931   0.00946   0.00370  -0.0770  0.3924  1.0000  -1.6073   0.0000   0.0000   0.0000   0.3210
   5.400   1.0039   0.00951   0.00377  -0.0770  0.3884  1.0000  -1.6403   0.0000   0.0000   0.0000   0.3200
   5.500   1.0146   0.00959   0.00384  -0.0769  0.3832  1.0000  -1.6732   0.0000   0.0000   0.0000   0.3190
   5.600   1.0251   0.00969   0.00392  -0.0768  0.3775  1.0000  -1.7060   0.0000   0.0000   0.0000   0.3181
   5.700   1.0355   0.00980   0.00400  -0.0768  0.3713  1.0000  -1.7386   0.0000   0.0000   0.0000   0.3171
   5.800   1.0455   0.00994   0.00409  -0.0766  0.3641  1.0000  -1.7710   0.0000   0.0000   0.0000   0.3162
   5.900   1.0553   0.01010   0.00421  -0.0765  0.3551  1.0000  -1.8031   0.0000   0.0000   0.0000   0.3152
   6.000   1.0654   0.01024   0.00432  -0.0763  0.3473  1.0000  -1.8419   0.0000   0.0000   0.0000   0.3143
   6.100   1.0762   0.01031   0.00457  -0.0763  0.3435  1.0000  -1.9004   0.0000   0.0000   0.0000   0.3134
   6.200   1.0867   0.01039   0.00466  -0.0762  0.3387  1.0000  -1.9448   0.0000   0.0000   0.0000   0.3125
   6.300   1.0970   0.01050   0.00475  -0.0761  0.3330  1.0000  -1.9883   0.0000   0.0000   0.0000   0.3117
   6.400   1.1071   0.01063   0.00485  -0.0760  0.3269  1.0000  -2.0314   0.0000   0.0000   0.0000   0.3108
   6.500   1.1169   0.01079   0.00496  -0.0759  0.3198  1.0000  -2.0740   0.0000   0.0000   0.0000   0.3099
   6.600   1.1264   0.01097   0.00509  -0.0757  0.3109  1.0000  -2.1160   0.0000   0.0000   0.0000   0.3091
   6.700   1.1361   0.01114   0.00523  -0.0755  0.3027  1.0000  -2.1587   0.0000   0.0000   0.0000   0.3082
   6.800   1.1467   0.01121   0.00532  -0.0755  0.2994  1.0000  -2.2039   0.0000   0.0000   0.0000   0.3074
   6.900   1.1570   0.01131   0.00542  -0.0754  0.2943  1.0000  -2.2487   0.0000   0.0000   0.0000   0.3067
   7.000   1.1670   0.01144   0.00553  -0.0753  0.2879  1.0000  -2.2930   0.0000   0.0000   0.0000   0.3059
   7.100   1.1766   0.01160   0.00565  -0.0751  0.2808  1.0000  -2.3367   0.0000   0.0000   0.0000   0.3051
   7.200   1.1858   0.01181   0.00580  -0.0749  0.2725  1.0000  -2.3797   0.0000   0.0000   0.0000   0.3043
   7.300   1.1949   0.01202   0.00597  -0.0747  0.2627  1.0000  -2.4225   0.0000   0.0000   0.0000   0.3034
   7.400   1.2050   0.01213   0.00609  -0.0746  0.2583  1.0000  -2.4681   0.0000   0.0000   0.0000   0.3027
   7.500   1.2152   0.01224   0.00620  -0.0745  0.2541  1.0000  -2.5142   0.0000   0.0000   0.0000   0.3020
   7.600   1.2250   0.01238   0.00633  -0.0743  0.2482  1.0000  -2.5605   0.0000   0.0000   0.0000   0.3012
   7.700   1.2343   0.01256   0.00647  -0.0741  0.2410  1.0000  -2.6177   0.0000   0.0000   0.0000   0.3005
   7.800   1.2431   0.01279   0.00662  -0.0739  0.2326  1.0000  -2.6738   0.0000   0.0000   0.0000   0.2997
   7.900   1.2517   0.01303   0.00682  -0.0736  0.2229  1.0000  -2.7295   0.0000   0.0000   0.0000   0.2989
   8.000   1.2615   0.01316   0.00696  -0.0735  0.2183  1.0000  -2.7892   0.0000   0.0000   0.0000   0.2982
   8.100   1.2714   0.01328   0.00710  -0.0734  0.2151  1.0000  -2.8500   0.0000   0.0000   0.0000   0.2975
   8.200   1.2811   0.01342   0.00724  -0.0732  0.2107  1.0000  -2.9176   0.0000   0.0000   0.0000   0.2968
   8.300   1.2904   0.01359   0.00740  -0.0730  0.2054  1.0000  -2.9994   0.0000   0.0000   0.0000   0.2961
   8.400   1.2991   0.01381   0.00757  -0.0727  0.1989  1.0000  -3.0797   0.0000   0.0000   0.0000   0.2954
   8.500   1.3073   0.01407   0.00776  -0.0724  0.1906  1.0000  -3.1588   0.0000   0.0000   0.0000   0.2947
   8.600   1.3158   0.01432   0.00798  -0.0721  0.1819  1.0000  -3.2389   0.0000   0.0000   0.0000   0.2939
   8.700   1.3253   0.01445   0.00813  -0.0720  0.1776  1.0000  -3.3252   0.0000   0.0000   0.0000   0.2933
   8.800   1.3340   0.01466   0.00831  -0.0717  0.1706  1.0000  -3.4088   0.0000   0.0000   0.0000   0.2926
   8.900   1.3415   0.01497   0.00853  -0.0713  0.1614  1.0000  -3.4882   0.0000   0.0000   0.0000   0.2919
   9.000   1.3487   0.01531   0.00878  -0.0709  0.1499  1.0000  -3.5659   0.0000   0.0000   0.0000   0.2911
   9.100   1.3572   0.01552   0.00898  -0.0707  0.1436  1.0000  -3.6509   0.0000   0.0000   0.0000   0.2904
   9.200   1.3650   0.01579   0.00921  -0.0703  0.1353  1.0000  -3.7334   0.0000   0.0000   0.0000   0.2897
   9.300   1.3712   0.01619   0.00950  -0.0698  0.1249  1.0000  -3.8095   0.0000   0.0000   0.0000   0.2890
   9.400   1.3844   0.01600   0.00969  -0.0699  0.1398  1.0000  -3.8950   0.0000   0.0000   0.0000   0.2884
   9.500   1.3924   0.01625   0.00993  -0.0695  0.1345  1.0000  -3.9757   0.0000   0.0000   0.0000   0.2877
   9.600   1.3991   0.01659   0.01020  -0.0691  0.1273  1.0000  -4.0537   0.0000   0.0000   0.0000   0.2870
   9.700   1.4056   0.01695   0.01050  -0.0685  0.1181  1.0000  -4.1313   0.0000   0.0000   0.0000   0.2862
   9.800   1.4135   0.01717   0.01073  -0.0682  0.1132  1.0000  -4.2172   0.0000   0.0000   0.0000   0.2855
   9.900   1.4206   0.01746   0.01099  -0.0678  0.1072  1.0000  -4.3005   0.0000   0.0000   0.0000   0.2848
  10.000   1.4263   0.01785   0.01132  -0.0672  0.0998  1.0000  -4.3773   0.0000   0.0000   0.0000   0.2841
  10.100   1.4312   0.01829   0.01167  -0.0665  0.0907  1.0000  -4.4508   0.0000   0.0000   0.0000   0.2833
  10.200   1.4381   0.01857   0.01195  -0.0660  0.0856  1.0000  -4.5346   0.0000   0.0000   0.0000   0.2826
  10.300   1.4442   0.01889   0.01224  -0.0655  0.0803  1.0000  -4.6160   0.0000   0.0000   0.0000   0.2818
  10.400   1.4488   0.01932   0.01261  -0.0647  0.0742  1.0000  -4.6899   0.0000   0.0000   0.0000   0.2810
  10.500   1.4524   0.01978   0.01300  -0.0639  0.0675  1.0000  -4.7591   0.0000   0.0000   0.0000   0.2802
  10.600   1.4572   0.02010   0.01332  -0.0631  0.0628  1.0000  -4.8346   0.0000   0.0000   0.0000   0.2793
  10.700   1.4622   0.02040   0.01362  -0.0624  0.0600  1.0000  -4.9128   0.0000   0.0000   0.0000   0.2785
  10.800   1.4663   0.02075   0.01396  -0.0615  0.0567  1.0000  -4.9863   0.0000   0.0000   0.0000   0.2777
  10.900   1.4695   0.02116   0.01433  -0.0606  0.0532  1.0000  -5.0559   0.0000   0.0000   0.0000   0.2768
  11.000   1.4721   0.02161   0.01475  -0.0597  0.0497  1.0000  -5.1221   0.0000   0.0000   0.0000   0.2759
  11.100   1.4751   0.02206   0.01519  -0.0588  0.0460  1.0000  -5.1894   0.0000   0.0000   0.0000   0.2751
  11.200   1.4785   0.02248   0.01562  -0.0580  0.0430  1.0000  -5.2588   0.0000   0.0000   0.0000   0.2743
  11.300   1.4836   0.02279   0.01596  -0.0574  0.0423  1.0000  -5.3398   0.0000   0.0000   0.0000   0.2736
  11.400   1.4884   0.02313   0.01633  -0.0567  0.0414  1.0000  -5.4189   0.0000   0.0000   0.0000   0.2728
  11.500   1.4928   0.02350   0.01672  -0.0561  0.0404  1.0000  -5.4963   0.0000   0.0000   0.0000   0.2721
  11.600   1.4968   0.02390   0.01714  -0.0555  0.0392  1.0000  -5.5721   0.0000   0.0000   0.0000   0.2714
  11.700   1.5007   0.02432   0.01758  -0.0548  0.0380  1.0000  -5.6471   0.0000   0.0000   0.0000   0.2707
  11.800   1.5043   0.02477   0.01804  -0.0542  0.0368  1.0000  -5.7210   0.0000   0.0000   0.0000   0.2700
  11.900   1.5074   0.02526   0.01853  -0.0535  0.0356  1.0000  -5.7925   0.0000   0.0000   0.0000   0.2694
  12.000   1.5101   0.02578   0.01906  -0.0529  0.0344  1.0000  -5.8618   0.0000   0.0000   0.0000   0.2687
  12.100   1.5128   0.02632   0.01961  -0.0522  0.0332  1.0000  -5.9312   0.0000   0.0000   0.0000   0.2680
  12.200   1.5155   0.02688   0.02017  -0.0516  0.0319  1.0000  -6.0006   0.0000   0.0000   0.0000   0.2674
  12.300   1.5179   0.02747   0.02078  -0.0510  0.0306  1.0000  -6.0678   0.0000   0.0000   0.0000   0.2668
  12.400   1.5198   0.02811   0.02146  -0.0504  0.0293  1.0000  -6.1310   0.0000   0.0000   0.0000   0.2661
  12.500   1.5214   0.02880   0.02217  -0.0498  0.0281  1.0000  -6.1920   0.0000   0.0000   0.0000   0.2655
  12.600   1.5227   0.02952   0.02294  -0.0493  0.0270  1.0000  -6.2505   0.0000   0.0000   0.0000   0.2649
  12.700   1.5247   0.03019   0.02364  -0.0487  0.0263  1.0000  -6.3146   0.0000   0.0000   0.0000   0.2644
  12.800   1.5284   0.03072   0.02421  -0.0484  0.0261  1.0000  -6.3932   0.0000   0.0000   0.0000   0.2638
  12.900   1.5318   0.03129   0.02482  -0.0480  0.0259  1.0000  -6.4697   0.0000   0.0000   0.0000   0.2633
  13.000   1.5350   0.03186   0.02543  -0.0477  0.0257  1.0000  -6.5456   0.0000   0.0000   0.0000   0.2628
  13.100   1.5381   0.03245   0.02606  -0.0473  0.0254  1.0000  -6.6209   0.0000   0.0000   0.0000   0.2623
  13.200   1.5411   0.03305   0.02670  -0.0469  0.0251  1.0000  -6.6955   0.0000   0.0000   0.0000   0.2618
  13.300   1.5439   0.03368   0.02737  -0.0466  0.0247  1.0000  -6.7694   0.0000   0.0000   0.0000   0.2614
  13.400   1.5460   0.03439   0.02812  -0.0462  0.0243  1.0000  -6.8387   0.0000   0.0000   0.0000   0.2609
  13.500   1.5477   0.03516   0.02892  -0.0459  0.0238  1.0000  -6.9056   0.0000   0.0000   0.0000   0.2605
  13.600   1.5495   0.03593   0.02973  -0.0456  0.0233  1.0000  -6.9736   0.0000   0.0000   0.0000   0.2601
  13.700   1.5513   0.03671   0.03054  -0.0454  0.0228  1.0000  -7.0416   0.0000   0.0000   0.0000   0.2596
  13.800   1.5530   0.03752   0.03138  -0.0451  0.0222  1.0000  -7.1089   0.0000   0.0000   0.0000   0.2592
  13.900   1.5544   0.03837   0.03225  -0.0449  0.0217  1.0000  -7.1743   0.0000   0.0000   0.0000   0.2589
  14.000   1.5555   0.03926   0.03321  -0.0447  0.0202  1.0000  -7.2625   0.0000   0.0000   0.0000   0.2585
  14.100   1.5554   0.04030   0.03427  -0.0445  0.0195  1.0000  -7.3222   0.0000   0.0000   0.0000   0.2582
  14.200   1.5556   0.04132   0.03530  -0.0444  0.0189  1.0000  -7.3826   0.0000   0.0000   0.0000   0.2579
  14.300   1.5558   0.04234   0.03635  -0.0442  0.0182  1.0000  -7.4426   0.0000   0.0000   0.0000   0.2576
  14.400   1.5559   0.04339   0.03742  -0.0441  0.0175  1.0000  -7.5010   0.0000   0.0000   0.0000   0.2573
  14.500   1.5553   0.04454   0.03860  -0.0440  0.0169  1.0000  -7.5532   0.0000   0.0000   0.0000   0.2570
  14.600   1.5535   0.04585   0.03995  -0.0440  0.0163  1.0000  -7.5962   0.0000   0.0000   0.0000   0.2568
  14.700   1.5521   0.04712   0.04126  -0.0440  0.0158  1.0000  -7.6411   0.0000   0.0000   0.0000   0.2566
  14.800   1.5508   0.04839   0.04257  -0.0440  0.0152  1.0000  -7.6855   0.0000   0.0000   0.0000   0.2564
  14.900   1.5491   0.04970   0.04394  -0.0440  0.0147  1.0000  -7.7267   0.0000   0.0000   0.0000   0.2563
  15.000   1.5464   0.05117   0.04547  -0.0441  0.0143  1.0000  -7.7592   0.0000   0.0000   0.0000   0.2562
  15.100   1.5425   0.05284   0.04720  -0.0443  0.0139  1.0000  -7.7827   0.0000   0.0000   0.0000   0.2561
  15.200   1.5398   0.05435   0.04875  -0.0445  0.0136  1.0000  -7.8153   0.0000   0.0000   0.0000   0.2561
  15.300   1.5403   0.05542   0.04986  -0.0446  0.0136  1.0000  -7.8789   0.0000   0.0000   0.0000   0.2559
  15.400   1.5407   0.05651   0.05100  -0.0447  0.0135  1.0000  -7.9413   0.0000   0.0000   0.0000   0.2558
  15.500   1.5408   0.05765   0.05218  -0.0448  0.0134  1.0000  -8.0019   0.0000   0.0000   0.0000   0.2556
  15.600   1.5394   0.05906   0.05365  -0.0451  0.0133  1.0000  -8.0489   0.0000   0.0000   0.0000   0.2556
  15.700   1.5377   0.06055   0.05519  -0.0454  0.0132  1.0000  -8.0938   0.0000   0.0000   0.0000   0.2556
  15.800   1.5370   0.06192   0.05660  -0.0457  0.0131  1.0000  -8.1462   0.0000   0.0000   0.0000   0.2556
  15.900   1.5365   0.06325   0.05798  -0.0460  0.0129  1.0000  -8.2013   0.0000   0.0000   0.0000   0.2556
  16.000   1.5362   0.06460   0.05937  -0.0463  0.0127  1.0000  -8.2568   0.0000   0.0000   0.0000   0.2555
  16.100   1.5356   0.06599   0.06081  -0.0466  0.0125  1.0000  -8.3102   0.0000   0.0000   0.0000   0.2555
  16.200   1.5337   0.06761   0.06248  -0.0471  0.0123  1.0000  -8.3528   0.0000   0.0000   0.0000   0.2556
  16.300   1.5305   0.06951   0.06443  -0.0477  0.0121  1.0000  -8.3827   0.0000   0.0000   0.0000   0.2559
  16.400   1.5284   0.07123   0.06619  -0.0482  0.0118  1.0000  -8.4217   0.0000   0.0000   0.0000   0.2560
  16.500   1.5265   0.07289   0.06790  -0.0487  0.0114  1.0000  -8.4630   0.0000   0.0000   0.0000   0.2562
  16.600   1.5245   0.07458   0.06962  -0.0492  0.0110  1.0000  -8.5031   0.0000   0.0000   0.0000   0.2563
  16.700   1.5223   0.07634   0.07142  -0.0498  0.0106  1.0000  -8.5408   0.0000   0.0000   0.0000   0.2565
  16.800   1.5183   0.07844   0.07357  -0.0506  0.0103  1.0000  -8.5616   0.0000   0.0000   0.0000   0.2569
  16.900   1.5136   0.08069   0.07586  -0.0515  0.0100  1.0000  -8.5750   0.0000   0.0000   0.0000   0.2574
  17.000   1.5101   0.08269   0.07790  -0.0522  0.0096  1.0000  -8.6091   0.0000   0.0000   0.0000   0.2577
  17.100   1.5069   0.08466   0.07990  -0.0530  0.0092  1.0000  -8.6460   0.0000   0.0000   0.0000   0.2580
  17.200   1.5035   0.08667   0.08194  -0.0538  0.0088  1.0000  -8.6792   0.0000   0.0000   0.0000   0.2584
  17.300   1.4993   0.08882   0.08412  -0.0546  0.0084  1.0000  -8.7041   0.0000   0.0000   0.0000   0.2589
  17.400   1.4927   0.09148   0.08684  -0.0559  0.0082  1.0000  -8.6998   0.0000   0.0000   0.0000   0.2596
  17.500   1.4878   0.09382   0.08921  -0.0569  0.0079  1.0000  -8.7133   0.0000   0.0000   0.0000   0.2602
  17.600   1.4834   0.09603   0.09145  -0.0579  0.0075  1.0000  -8.7321   0.0000   0.0000   0.0000   0.2607
  17.700   1.4789   0.09823   0.09369  -0.0588  0.0071  1.0000  -8.7491   0.0000   0.0000   0.0000   0.2613
  17.800   1.4742   0.10050   0.09599  -0.0599  0.0068  1.0000  -8.7611   0.0000   0.0000   0.0000   0.2619
  17.900   1.4673   0.10328   0.09882  -0.0613  0.0066  1.0000  -8.7456   0.0000   0.0000   0.0000   0.2628
  18.000   1.4612   0.10587   0.10147  -0.0626  0.0063  1.0000  -8.7370   0.0000   0.0000   0.0000   0.2637
  18.100   1.4557   0.10830   0.10395  -0.0638  0.0060  1.0000  -8.7328   0.0000   0.0000   0.0000   0.2644
  18.200   1.4498   0.11080   0.10651  -0.0650  0.0057  1.0000  -8.7207   0.0000   0.0000   0.0000   0.2653
  18.300   1.4429   0.11350   0.10926  -0.0664  0.0054  1.0000  -8.6937   0.0000   0.0000   0.0000   0.2662
  18.400   1.4345   0.11659   0.11242  -0.0682  0.0053  1.0000  -8.6483   0.0000   0.0000   0.0000   0.2675
  18.500   1.4262   0.11959   0.11549  -0.0698  0.0051  1.0000  -8.5996   0.0000   0.0000   0.0000   0.2688
  18.600   1.4217   0.12177   0.11769  -0.0711  0.0050  1.0000  -8.6009   0.0000   0.0000   0.0000   0.2696
  18.700   1.4191   0.12353   0.11950  -0.0721  0.0050  1.0000  -8.6315   0.0000   0.0000   0.0000   0.2702
  18.800   1.4163   0.12535   0.12136  -0.0732  0.0050  1.0000  -8.6567   0.0000   0.0000   0.0000   0.2708
  18.900   1.4128   0.12730   0.12336  -0.0744  0.0049  1.0000  -8.6732   0.0000   0.0000   0.0000   0.2716
  19.000   1.4054   0.13013   0.12625  -0.0762  0.0049  1.0000  -8.6325   0.0000   0.0000   0.0000   0.2729
  19.100   1.4009   0.13247   0.12863  -0.0776  0.0049  1.0000  -8.6298   0.0000   0.0000   0.0000   0.2739
  19.200   1.3977   0.13454   0.13075  -0.0789  0.0048  1.0000  -8.6454   0.0000   0.0000   0.0000   0.2747
  19.300   1.3948   0.13658   0.13282  -0.0801  0.0048  1.0000  -8.6639   0.0000   0.0000   0.0000   0.2755
  19.400   1.3919   0.13866   0.13495  -0.0813  0.0047  1.0000  -8.6802   0.0000   0.0000   0.0000   0.2763
  19.500   1.3886   0.14085   0.13718  -0.0826  0.0046  1.0000  -8.6903   0.0000   0.0000   0.0000   0.2771
  19.600   1.3847   0.14321   0.13959  -0.0841  0.0046  1.0000  -8.6910   0.0000   0.0000   0.0000   0.2781
  19.700   1.3772   0.14653   0.14297  -0.0861  0.0046  1.0000  -8.6347   0.0000   0.0000   0.0000   0.2797
  19.800   1.3729   0.14910   0.14558  -0.0876  0.0045  1.0000  -8.6262   0.0000   0.0000   0.0000   0.2808
  19.900   1.3697   0.15145   0.14797  -0.0890  0.0045  1.0000  -8.6315   0.0000   0.0000   0.0000   0.2818
  20.000   1.3667   0.15377   0.15033  -0.0903  0.0044  1.0000  -8.6388   0.0000   0.0000   0.0000   0.2827
  20.100   1.3635   0.15614   0.15274  -0.0917  0.0044  1.0000  -8.6437   0.0000   0.0000   0.0000   0.2836
  20.200   1.3604   0.15859   0.15523  -0.0931  0.0043  1.0000  -8.6462   0.0000   0.0000   0.0000   0.2846
  20.300   1.3566   0.16124   0.15792  -0.0946  0.0042  1.0000  -8.6370   0.0000   0.0000   0.0000   0.2857
  20.400   1.3486   0.16503   0.16177  -0.0968  0.0042  1.0000  -8.5604   0.0000   0.0000   0.0000   0.2876
  20.500   1.3440   0.16798   0.16477  -0.0985  0.0042  1.0000  -8.5351   0.0000   0.0000   0.0000   0.2889
  20.600   1.3405   0.17065   0.16747  -0.1000  0.0041  1.0000  -8.5270   0.0000   0.0000   0.0000   0.2900
  20.700   1.3376   0.17322   0.17008  -0.1014  0.0041  1.0000  -8.5256   0.0000   0.0000   0.0000   0.2910
  20.800   1.3346   0.17583   0.17273  -0.1028  0.0040  1.0000  -8.5227   0.0000   0.0000   0.0000   0.2921
  20.900   1.3313   0.17858   0.17552  -0.1043  0.0039  1.0000  -8.5125   0.0000   0.0000   0.0000   0.2932
  21.000   1.3273   0.18154   0.17852  -0.1059  0.0039  1.0000  -8.4900   0.0000   0.0000   0.0000   0.2944
  21.100   1.3196   0.18566   0.18270  -0.1081  0.0039  1.0000  -8.4021   0.0000   0.0000   0.0000   0.2964
  21.200   1.3137   0.18930   0.18638  -0.1100  0.0039  1.0000  -8.3432   0.0000   0.0000   0.0000   0.2981
  21.300   1.3102   0.19228   0.18940  -0.1116  0.0038  1.0000  -8.3231   0.0000   0.0000   0.0000   0.2993
  21.400   1.3071   0.19518   0.19234  -0.1131  0.0038  1.0000  -8.3076   0.0000   0.0000   0.0000   0.3005
  21.500   1.3039   0.19812   0.19531  -0.1145  0.0037  1.0000  -8.2901   0.0000   0.0000   0.0000   0.3016
  21.600   1.3004   0.20118   0.19842  -0.1161  0.0036  1.0000  -8.2657   0.0000   0.0000   0.0000   0.3029
  21.700   1.2963   0.20448   0.20176  -0.1177  0.0036  1.0000  -8.2289   0.0000   0.0000   0.0000   0.3042
  21.800   1.2909   0.20822   0.20555  -0.1195  0.0036  1.0000  -8.1677   0.0000   0.0000   0.0000   0.3059
  21.900   1.2816   0.21340   0.21079  -0.1219  0.0036  1.0000  -8.0298   0.0000   0.0000   0.0000   0.3084
  22.000   1.2770   0.21701   0.21444  -0.1236  0.0036  1.0000  -7.9783   0.0000   0.0000   0.0000   0.3099
  22.100   1.2731   0.22042   0.21789  -0.1252  0.0035  1.0000  -7.9375   0.0000   0.0000   0.0000   0.3112
  22.200   1.2692   0.22389   0.22140  -0.1267  0.0035  1.0000  -7.8934   0.0000   0.0000   0.0000   0.3126
  22.300   1.2645   0.22763   0.22517  -0.1284  0.0034  1.0000  -7.8352   0.0000   0.0000   0.0000   0.3141
  22.400   1.2588   0.23178   0.22938  -0.1301  0.0034  1.0000  -7.7540   0.0000   0.0000   0.0000   0.3159
  22.500   1.2477   0.23800   0.23566  -0.1327  0.0035  1.0000  -7.5631   0.0000   0.0000   0.0000   0.3189
  22.600   1.2383   0.24367   0.24139  -0.1349  0.0035  1.0000  -7.4021   0.0000   0.0000   0.0000   0.3215
  22.700   1.2314   0.24841   0.24618  -0.1367  0.0035  1.0000  -7.2896   0.0000   0.0000   0.0000   0.3235
  22.800   1.2238   0.25346   0.25128  -0.1386  0.0035  1.0000  -7.1595   0.0000   0.0000   0.0000   0.3257
  22.900   1.2123   0.26005   0.25793  -0.1409  0.0035  1.0000  -6.9451   0.0000   0.0000   0.0000   0.3288
  23.000   1.1856   0.27271   0.27070  -0.1447  0.0037  1.0000  -6.3933   0.0000   0.0000   0.0000   0.3352
  23.300   0.9547   0.30345   0.30166  -0.1429  0.0042  1.0000  -2.7967   0.0000   0.0000   0.0000   0.3691
  23.400   0.9455   0.30456   0.30278  -0.1429  0.0041  1.0000  -2.6423   0.0000   0.0000   0.0000   0.3707
  23.500   0.9372   0.30572   0.30394  -0.1429  0.0041  1.0000  -2.4987   0.0000   0.0000   0.0000   0.3721
  23.600   0.9302   0.30687   0.30509  -0.1429  0.0041  1.0000  -2.3812   0.0000   0.0000   0.0000   0.3734
  23.700   0.9242   0.30797   0.30620  -0.1430  0.0041  1.0000  -2.2781   0.0000   0.0000   0.0000   0.3746
  23.800   0.9189   0.30903   0.30726  -0.1431  0.0042  1.0000  -2.1868   0.0000   0.0000   0.0000   0.3756
  23.900   0.9142   0.31006   0.30830  -0.1433  0.0042  1.0000  -2.1041   0.0000   0.0000   0.0000   0.3766
  24.000   0.9098   0.31107   0.30932  -0.1434  0.0043  1.0000  -2.0262   0.0000   0.0000   0.0000   0.3775
  24.100   0.9055   0.31208   0.31033  -0.1436  0.0044  1.0000  -1.9476   0.0000   0.0000   0.0000   0.3785
  24.200   0.9003   0.31317   0.31143  -0.1437  0.0046  1.0000  -1.8467   0.0000   0.0000   0.0000   0.3795
  25.100   0.8795   0.32405   0.32237  -0.1459  0.0086  1.0000  -1.2376   0.0000   0.0000   0.0000   0.3856
  25.200   0.8787   0.32480   0.32312  -0.1462  0.0084  1.0000  -1.2315   0.0000   0.0000   0.0000   0.3860
  25.300   0.8779   0.32554   0.32386  -0.1465  0.0083  1.0000  -1.2260   0.0000   0.0000   0.0000   0.3864
  25.400   0.8772   0.32627   0.32461  -0.1469  0.0082  1.0000  -1.2212   0.0000   0.0000   0.0000   0.3867
  25.500   0.8765   0.32700   0.32534  -0.1472  0.0080  1.0000  -1.2170   0.0000   0.0000   0.0000   0.3871
  25.600   0.8758   0.32773   0.32607  -0.1475  0.0079  1.0000  -1.2135   0.0000   0.0000   0.0000   0.3874
  25.700   0.8752   0.32845   0.32680  -0.1479  0.0078  1.0000  -1.2107   0.0000   0.0000   0.0000   0.3877
  25.800   0.8746   0.32917   0.32752  -0.1482  0.0076  1.0000  -1.2084   0.0000   0.0000   0.0000   0.3881
  25.900   0.8740   0.32988   0.32824  -0.1485  0.0075  1.0000  -1.2069   0.0000   0.0000   0.0000   0.3884
  26.000   0.8735   0.33058   0.32895  -0.1489  0.0074  1.0000  -1.2060   0.0000   0.0000   0.0000   0.3887
  26.100   0.8730   0.33128   0.32965  -0.1492  0.0073  1.0000  -1.2057   0.0000   0.0000   0.0000   0.3890
  26.200   0.8725   0.33197   0.33035  -0.1496  0.0072  1.0000  -1.2062   0.0000   0.0000   0.0000   0.3893
  26.300   0.8721   0.33266   0.33104  -0.1499  0.0071  1.0000  -1.2073   0.0000   0.0000   0.0000   0.3896
  26.400   0.8717   0.33333   0.33172  -0.1502  0.0070  1.0000  -1.2091   0.0000   0.0000   0.0000   0.3898
  26.500   0.8713   0.33400   0.33240  -0.1506  0.0069  1.0000  -1.2116   0.0000   0.0000   0.0000   0.3901
  26.600   0.8709   0.33466   0.33306  -0.1509  0.0068  1.0000  -1.2148   0.0000   0.0000   0.0000   0.3904
  26.700   0.8706   0.33532   0.33372  -0.1512  0.0067  1.0000  -1.2187   0.0000   0.0000   0.0000   0.3906
  26.800   0.8703   0.33596   0.33437  -0.1516  0.0066  1.0000  -1.2233   0.0000   0.0000   0.0000   0.3909
  26.900   0.8700   0.33659   0.33500  -0.1519  0.0065  1.0000  -1.2286   0.0000   0.0000   0.0000   0.3911
  27.000   0.8697   0.33724   0.33570  -0.1522  0.0064  1.0000  -1.2336   0.0000   0.0000   0.0000   0.3913
  27.100   0.8694   0.33786   0.33633  -0.1526  0.0063  1.0000  -1.2396   0.0000   0.0000   0.0000   0.3916
  27.200   0.8691   0.33847   0.33694  -0.1529  0.0062  1.0000  -1.2465   0.0000   0.0000   0.0000   0.3918
  27.300   0.8689   0.33907   0.33754  -0.1532  0.0062  1.0000  -1.2540   0.0000   0.0000   0.0000   0.3920
  27.400   0.8686   0.33965   0.33813  -0.1535  0.0061  1.0000  -1.2623   0.0000   0.0000   0.0000   0.3922
  27.500   0.8684   0.34023   0.33871  -0.1539  0.0060  1.0000  -1.2713   0.0000   0.0000   0.0000   0.3923
  27.600   0.8682   0.34079   0.33928  -0.1542  0.0060  1.0000  -1.2809   0.0000   0.0000   0.0000   0.3925
  27.700   0.8680   0.34134   0.33983  -0.1545  0.0059  1.0000  -1.2910   0.0000   0.0000   0.0000   0.3926
  27.800   0.8677   0.34188   0.34038  -0.1547  0.0058  1.0000  -1.3015   0.0000   0.0000   0.0000   0.3928
  27.900   0.8675   0.34240   0.34091  -0.1550  0.0058  1.0000  -1.3124   0.0000   0.0000   0.0000   0.3929


