xflr5 v6.61

 Calculated polar for: S3010-103-84

 1 1 Reynolds number fixed          Mach number fixed         

 xtrf =   1.000 (top)        1.000 (bottom)
 Mach =   0.000     Re =     0.160 e 6     Ncrit =   9.000

  alpha     CL        CD       CDp       Cm    Top Xtr Bot Xtr   Cpmin    Chinge    XCp    
 ------- -------- --------- --------- -------- ------- ------- -------- --------- ---------
 -10.000  -0.4127   0.11654   0.11243  -0.0043  1.0000  0.0524  -1.3136   0.0000   0.0000   0.0000   0.2327
  -9.900  -0.4105   0.11523   0.11113  -0.0050  1.0000  0.0530  -1.3157   0.0000   0.0000   0.0000   0.2311
  -9.800  -0.4084   0.11393   0.10983  -0.0057  1.0000  0.0537  -1.3186   0.0000   0.0000   0.0000   0.2295
  -9.700  -0.4064   0.11262   0.10854  -0.0064  1.0000  0.0544  -1.3226   0.0000   0.0000   0.0000   0.2277
  -9.600  -0.4044   0.11131   0.10724  -0.0071  1.0000  0.0551  -1.3276   0.0000   0.0000   0.0000   0.2259
  -9.500  -0.4026   0.11000   0.10594  -0.0079  1.0000  0.0558  -1.3339   0.0000   0.0000   0.0000   0.2239
  -9.400  -0.4009   0.10870   0.10466  -0.0087  1.0000  0.0566  -1.3417   0.0000   0.0000   0.0000   0.2218
  -9.300  -0.3993   0.10742   0.10339  -0.0097  1.0000  0.0574  -1.3516   0.0000   0.0000   0.0000   0.2195
  -9.200  -0.3979   0.10617   0.10215  -0.0107  1.0000  0.0582  -1.3638   0.0000   0.0000   0.0000   0.2169
  -9.100  -0.3968   0.10498   0.10097  -0.0118  1.0000  0.0591  -1.3793   0.0000   0.0000   0.0000   0.2140
  -9.000  -0.3960   0.10389   0.09991  -0.0132  1.0000  0.0600  -1.3989   0.0000   0.0000   0.0000   0.2106
  -8.900  -0.3952   0.10300   0.09903  -0.0147  1.0000  0.0609  -1.4211   0.0000   0.0000   0.0000   0.2068
  -8.800  -0.3948   0.10229   0.09834  -0.0164  1.0000  0.0618  -1.4456   0.0000   0.0000   0.0000   0.2025
  -8.700  -0.3929   0.10164   0.09771  -0.0179  1.0000  0.0624  -1.4593   0.0000   0.0000   0.0000   0.1987
  -8.600  -0.3910   0.10079   0.09688  -0.0192  1.0000  0.0628  -1.4703   0.0000   0.0000   0.0000   0.1952
  -8.500  -0.3893   0.09977   0.09588  -0.0204  1.0000  0.0630  -1.4815   0.0000   0.0000   0.0000   0.1919
  -8.400  -0.3879   0.09862   0.09475  -0.0216  1.0000  0.0632  -1.4932   0.0000   0.0000   0.0000   0.1887
  -8.300  -0.3867   0.09739   0.09354  -0.0228  1.0000  0.0633  -1.5057   0.0000   0.0000   0.0000   0.1855
  -8.200  -0.3856   0.09608   0.09225  -0.0240  1.0000  0.0634  -1.5189   0.0000   0.0000   0.0000   0.1822
  -8.100  -0.3847   0.09472   0.09091  -0.0253  1.0000  0.0635  -1.5332   0.0000   0.0000   0.0000   0.1788
  -8.000  -0.3841   0.09331   0.08952  -0.0267  1.0000  0.0636  -1.5487   0.0000   0.0000   0.0000   0.1753
  -7.900  -0.3838   0.09184   0.08808  -0.0281  1.0000  0.0636  -1.5657   0.0000   0.0000   0.0000   0.1716
  -7.800  -0.3837   0.09031   0.08657  -0.0298  1.0000  0.0637  -1.5849   0.0000   0.0000   0.0000   0.1674
  -7.700  -0.3829   0.08860   0.08487  -0.0319  1.0000  0.0637  -1.6069   0.0000   0.0000   0.0000   0.1616
  -7.600  -0.3814   0.08671   0.08299  -0.0344  1.0000  0.0637  -1.6310   0.0000   0.0000   0.0000   0.1550
  -7.500  -0.3968   0.07978   0.07613  -0.0378  1.0000  0.0651  -1.7673   0.0000   0.0000   0.0000   0.1501
  -7.400  -0.3996   0.07683   0.07320  -0.0380  1.0000  0.0662  -1.7802   0.0000   0.0000   0.0000   0.1503
  -7.300  -0.3972   0.07531   0.07171  -0.0373  1.0000  0.0671  -1.7544   0.0000   0.0000   0.0000   0.1515
  -7.200  -0.3926   0.07439   0.07081  -0.0359  1.0000  0.0678  -1.7102   0.0000   0.0000   0.0000   0.1539
  -7.100  -0.3884   0.07342   0.06986  -0.0351  1.0000  0.0686  -1.6757   0.0000   0.0000   0.0000   0.1550
  -7.000  -0.3847   0.07239   0.06885  -0.0348  1.0000  0.0693  -1.6489   0.0000   0.0000   0.0000   0.1550
  -6.900  -0.3815   0.07130   0.06778  -0.0349  1.0000  0.0701  -1.6285   0.0000   0.0000   0.0000   0.1542
  -6.800  -0.3788   0.07018   0.06668  -0.0351  1.0000  0.0709  -1.6127   0.0000   0.0000   0.0000   0.1530
  -6.700  -0.3764   0.06908   0.06560  -0.0353  1.0000  0.0717  -1.5995   0.0000   0.0000   0.0000   0.1519
  -6.600  -0.3752   0.06797   0.06451  -0.0356  1.0000  0.0725  -1.5920   0.0000   0.0000   0.0000   0.1510
  -6.500  -0.3757   0.06692   0.06348  -0.0356  1.0000  0.0732  -1.5901   0.0000   0.0000   0.0000   0.1510
  -6.400  -0.3783   0.06600   0.06258  -0.0354  1.0000  0.0739  -1.5930   0.0000   0.0000   0.0000   0.1525
  -6.300  -0.3828   0.06520   0.06181  -0.0347  1.0000  0.0744  -1.5995   0.0000   0.0000   0.0000   0.1554
  -6.200  -0.3887   0.06452   0.06114  -0.0338  1.0000  0.0748  -1.6082   0.0000   0.0000   0.0000   0.1593
  -6.100  -0.3948   0.06385   0.06049  -0.0328  1.0000  0.0752  -1.6172   0.0000   0.0000   0.0000   0.1632
  -6.000  -0.4004   0.06315   0.05980  -0.0320  1.0000  0.0757  -1.6255   0.0000   0.0000   0.0000   0.1666
  -5.900  -0.3988   0.06192   0.05855  -0.0328  0.9989  0.0768  -1.6257   0.0000   0.0000   0.0000   0.1644
  -5.800  -0.3845   0.05966   0.05624  -0.0366  0.9957  0.0792  -1.6180   0.0000   0.0000   0.0000   0.1513
  -5.700  -0.3697   0.05731   0.05381  -0.0407  0.9921  0.0822  -1.6192   0.0000   0.0000   0.0000   0.1362
  -5.600  -0.3503   0.05518   0.05150  -0.0459  0.9886  0.0868  -1.6326   0.0000   0.0000   0.0000   0.1152
  -5.500  -0.3224   0.05729   0.05330  -0.0496  0.9844  0.0914  -1.5967   0.0000   0.0000   0.0000   0.0922
  -5.400  -0.3229   0.04983   0.04565  -0.0547  0.9796  0.0942  -1.6990   0.0000   0.0000   0.0000   0.0765
  -5.300  -0.3136   0.04646   0.04228  -0.0569  0.9769  0.0967  -1.6834   0.0000   0.0000   0.0000   0.0645
  -5.200  -0.2993   0.04485   0.04073  -0.0582  0.9749  0.0983  -1.6361   0.0000   0.0000   0.0000   0.0514
  -4.800  -0.2363   0.03335   0.02817  -0.0654  0.9623  0.0587  -1.8733   0.0000   0.0000   0.0000  -0.0324
  -4.700  -0.2212   0.02824   0.02215  -0.0663  0.9589  0.0428  -2.1342   0.0000   0.0000   0.0000  -0.0562
  -4.600  -0.2020   0.02891   0.02283  -0.0671  0.9566  0.0412  -2.0446   0.0000   0.0000   0.0000  -0.0890
  -4.500  -0.1886   0.02608   0.01979  -0.0682  0.9543  0.0383  -2.0843   0.0000   0.0000   0.0000  -0.1189
  -4.400  -0.1732   0.02430   0.01778  -0.0693  0.9522  0.0370  -2.0888   0.0000   0.0000   0.0000  -0.1579
  -4.300  -0.1569   0.02288   0.01614  -0.0703  0.9503  0.0359  -2.0809   0.0000   0.0000   0.0000  -0.2067
  -4.200  -0.1457   0.02188   0.01499  -0.0702  0.9458  0.0351  -2.0703   0.0000   0.0000   0.0000  -0.2410
  -4.100  -0.1342   0.02098   0.01394  -0.0701  0.9409  0.0344  -2.0560   0.0000   0.0000   0.0000  -0.2824
  -4.000  -0.1210   0.02009   0.01291  -0.0703  0.9367  0.0337  -2.0367   0.0000   0.0000   0.0000  -0.3419
  -3.900  -0.1068   0.01926   0.01195  -0.0706  0.9329  0.0331  -2.0125   0.0000   0.0000   0.0000  -0.4232
  -3.800  -0.0923   0.01850   0.01108  -0.0710  0.9295  0.0327  -1.9835   0.0000   0.0000   0.0000  -0.5324
  -3.700  -0.0779   0.01783   0.01032  -0.0713  0.9262  0.0324  -1.9497   0.0000   0.0000   0.0000  -0.6799
  -3.600  -0.0639   0.01725   0.00966  -0.0715  0.9231  0.0322  -1.9124   0.0000   0.0000   0.0000  -0.8868
  -3.500  -0.0551   0.01684   0.00920  -0.0709  0.9174  0.0322  -1.8808   0.0000   0.0000   0.0000  -1.0560
  -3.400  -0.0453   0.01644   0.00875  -0.0704  0.9118  0.0322  -1.8446   0.0000   0.0000   0.0000  -1.3269
  -3.300  -0.0345   0.01607   0.00832  -0.0701  0.9069  0.0323  -1.8023   0.0000   0.0000   0.0000  -1.8109
  -3.200  -0.0233   0.01576   0.00793  -0.0699  0.9024  0.0322  -1.7464   0.0000   0.0000   0.0000  -2.7979
  -3.100  -0.0119   0.01545   0.00738  -0.0697  0.8984  0.0314  -1.6810   0.0000   0.0000   0.0000  -5.6891
  -3.000  -0.0006   0.01518   0.00704  -0.0694  0.8947  0.0319  -1.6381   0.0000   0.0000   0.0000  -114.4816
  -2.900   0.0107   0.01496   0.00675  -0.0691  0.8910  0.0327  -1.5946   0.0000   0.0000   0.0000   6.7725
  -2.800   0.0201   0.01477   0.00650  -0.0687  0.8858  0.0336  -1.5557   0.0000   0.0000   0.0000   3.7058
  -2.700   0.0300   0.01458   0.00625  -0.0682  0.8802  0.0350  -1.5167   0.0000   0.0000   0.0000   2.5542
  -2.600   0.0402   0.01440   0.00600  -0.0678  0.8748  0.0371  -1.4790   0.0000   0.0000   0.0000   1.9560
  -2.500   0.0506   0.01421   0.00573  -0.0673  0.8698  0.0404  -1.4443   0.0000   0.0000   0.0000   1.5938
  -2.400   0.0603   0.01365   0.00542  -0.0668  0.8651  0.0858  -1.4353   0.0000   0.0000   0.0000   1.3701
  -2.300   0.0689   0.01305   0.00528  -0.0664  0.8607  0.1850  -1.3971   0.0000   0.0000   0.0000   1.2239
  -2.200   0.0784   0.01278   0.00521  -0.0660  0.8563  0.2454  -1.3434   0.0000   0.0000   0.0000   1.1001
  -2.100   0.0867   0.01238   0.00523  -0.0657  0.8513  0.3335  -1.2871   0.0000   0.0000   0.0000   1.0139
  -2.000   0.0955   0.01211   0.00523  -0.0653  0.8457  0.3977  -1.2272   0.0000   0.0000   0.0000   0.9392
  -1.900   0.1047   0.01194   0.00521  -0.0648  0.8402  0.4396  -1.1646   0.0000   0.0000   0.0000   0.8737
  -1.800   0.1140   0.01177   0.00519  -0.0643  0.8350  0.4791  -1.1010   0.0000   0.0000   0.0000   0.8181
  -1.700   0.1234   0.01163   0.00517  -0.0637  0.8302  0.5166  -1.0367   0.0000   0.0000   0.0000   0.7700
  -1.600   0.1327   0.01150   0.00514  -0.0631  0.8258  0.5544  -0.9726   0.0000   0.0000   0.0000   0.7284
  -1.500   0.1416   0.01137   0.00514  -0.0623  0.8216  0.5921  -0.9099   0.0000   0.0000   0.0000   0.6926
  -1.400   0.1496   0.01123   0.00518  -0.0613  0.8174  0.6463  -0.8549   0.0000   0.0000   0.0000   0.6616
  -1.200   0.1620   0.01090   0.00538  -0.0582  0.8082  0.7834  -0.7804   0.0000   0.0000   0.0000   0.6107
  -1.100   0.1681   0.01078   0.00543  -0.0564  0.8031  0.8497  -0.7439   0.0000   0.0000   0.0000   0.5865
  -1.000   0.1803   0.01065   0.00541  -0.0555  0.7981  0.9170  -0.6954   0.0000   0.0000   0.0000   0.5588
  -0.900   0.2085   0.01049   0.00526  -0.0581  0.7934  0.9707  -0.6173   0.0000   0.0000   0.0000   0.5294
  -0.800   0.2329   0.01039   0.00508  -0.0605  0.7882  0.9900  -0.5632   0.0000   0.0000   0.0000   0.5102
  -0.700   0.2503   0.01033   0.00494  -0.0617  0.7831  1.0000  -0.5777   0.0000   0.0000   0.0000   0.4965
  -0.600   0.2587   0.01035   0.00487  -0.0611  0.7779  1.0000  -0.5868   0.0000   0.0000   0.0000   0.4860
  -0.500   0.2675   0.01043   0.00486  -0.0606  0.7723  1.0000  -0.5961   0.0000   0.0000   0.0000   0.4762
  -0.400   0.2769   0.01043   0.00484  -0.0604  0.7675  1.0000  -0.6056   0.0000   0.0000   0.0000   0.4675
  -0.300   0.2865   0.01045   0.00483  -0.0601  0.7621  1.0000  -0.6152   0.0000   0.0000   0.0000   0.4593
  -0.200   0.2962   0.01047   0.00481  -0.0599  0.7565  1.0000  -0.6250   0.0000   0.0000   0.0000   0.4513
  -0.100   0.3059   0.01049   0.00477  -0.0595  0.7509  1.0000  -0.6349   0.0000   0.0000   0.0000   0.4437
   0.000   0.3156   0.01049   0.00473  -0.0592  0.7454  1.0000  -0.6455   0.0000   0.0000   0.0000   0.4364
   0.100   0.3255   0.01050   0.00467  -0.0588  0.7401  1.0000  -0.6572   0.0000   0.0000   0.0000   0.4294
   0.200   0.3353   0.01053   0.00462  -0.0583  0.7347  1.0000  -0.6690   0.0000   0.0000   0.0000   0.4227
   0.300   0.3453   0.01061   0.00462  -0.0580  0.7289  1.0000  -0.6809   0.0000   0.0000   0.0000   0.4165
   0.400   0.3556   0.01065   0.00468  -0.0578  0.7237  1.0000  -0.6928   0.0000   0.0000   0.0000   0.4110
   0.500   0.3659   0.01067   0.00467  -0.0576  0.7182  1.0000  -0.7048   0.0000   0.0000   0.0000   0.4059
   0.600   0.3763   0.01069   0.00466  -0.0574  0.7123  1.0000  -0.7169   0.0000   0.0000   0.0000   0.4009
   0.700   0.3866   0.01071   0.00464  -0.0572  0.7065  1.0000  -0.7290   0.0000   0.0000   0.0000   0.3962
   0.800   0.3970   0.01073   0.00461  -0.0570  0.7010  1.0000  -0.7413   0.0000   0.0000   0.0000   0.3916
   0.900   0.4074   0.01076   0.00458  -0.0567  0.6958  1.0000  -0.7536   0.0000   0.0000   0.0000   0.3872
   1.000   0.4178   0.01080   0.00455  -0.0564  0.6906  1.0000  -0.7660   0.0000   0.0000   0.0000   0.3830
   1.100   0.4283   0.01087   0.00454  -0.0561  0.6850  1.0000  -0.7785   0.0000   0.0000   0.0000   0.3789
   1.200   0.4388   0.01098   0.00459  -0.0559  0.6790  1.0000  -0.7908   0.0000   0.0000   0.0000   0.3753
   1.300   0.4494   0.01100   0.00461  -0.0558  0.6742  1.0000  -0.8045   0.0000   0.0000   0.0000   0.3719
   1.400   0.4600   0.01102   0.00462  -0.0557  0.6684  1.0000  -0.8190   0.0000   0.0000   0.0000   0.3687
   1.500   0.4706   0.01105   0.00462  -0.0555  0.6622  1.0000  -0.8336   0.0000   0.0000   0.0000   0.3655
   1.600   0.4811   0.01107   0.00460  -0.0553  0.6561  1.0000  -0.8484   0.0000   0.0000   0.0000   0.3624
   1.700   0.4916   0.01109   0.00458  -0.0551  0.6501  1.0000  -0.8632   0.0000   0.0000   0.0000   0.3594
   1.800   0.5022   0.01113   0.00455  -0.0548  0.6443  1.0000  -0.8781   0.0000   0.0000   0.0000   0.3564
   1.900   0.5127   0.01121   0.00455  -0.0546  0.6385  1.0000  -0.8930   0.0000   0.0000   0.0000   0.3536
   2.000   0.5233   0.01137   0.00463  -0.0544  0.6318  1.0000  -0.9078   0.0000   0.0000   0.0000   0.3510
   2.100   0.5341   0.01140   0.00466  -0.0543  0.6273  1.0000  -0.9227   0.0000   0.0000   0.0000   0.3487
   2.200   0.5448   0.01143   0.00470  -0.0542  0.6219  1.0000  -0.9385   0.0000   0.0000   0.0000   0.3464
   2.300   0.5555   0.01146   0.00473  -0.0541  0.6159  1.0000  -0.9561   0.0000   0.0000   0.0000   0.3442
   2.400   0.5661   0.01149   0.00474  -0.0539  0.6097  1.0000  -0.9739   0.0000   0.0000   0.0000   0.3420
   2.500   0.5767   0.01153   0.00473  -0.0537  0.6034  1.0000  -0.9918   0.0000   0.0000   0.0000   0.3398
   2.600   0.5872   0.01157   0.00472  -0.0535  0.5972  1.0000  -1.0098   0.0000   0.0000   0.0000   0.3376
   2.700   0.5978   0.01165   0.00473  -0.0532  0.5910  1.0000  -1.0279   0.0000   0.0000   0.0000   0.3356
   2.800   0.6084   0.01181   0.00480  -0.0531  0.5839  1.0000  -1.0458   0.0000   0.0000   0.0000   0.3336
   2.900   0.6191   0.01189   0.00488  -0.0530  0.5789  1.0000  -1.0638   0.0000   0.0000   0.0000   0.3319
   3.000   0.6299   0.01193   0.00494  -0.0529  0.5741  1.0000  -1.0819   0.0000   0.0000   0.0000   0.3302
   3.100   0.6406   0.01199   0.00501  -0.0528  0.5687  1.0000  -1.1000   0.0000   0.0000   0.0000   0.3286
   3.200   0.6513   0.01204   0.00506  -0.0527  0.5629  1.0000  -1.1185   0.0000   0.0000   0.0000   0.3270
   3.300   0.6619   0.01209   0.00509  -0.0525  0.5569  1.0000  -1.1403   0.0000   0.0000   0.0000   0.3254
   3.400   0.6725   0.01215   0.00511  -0.0523  0.5507  1.0000  -1.1621   0.0000   0.0000   0.0000   0.3237
   3.500   0.6830   0.01223   0.00512  -0.0521  0.5443  1.0000  -1.1841   0.0000   0.0000   0.0000   0.3221
   3.600   0.6935   0.01237   0.00517  -0.0519  0.5372  1.0000  -1.2060   0.0000   0.0000   0.0000   0.3206
   3.700   0.7041   0.01253   0.00529  -0.0518  0.5304  1.0000  -1.2279   0.0000   0.0000   0.0000   0.3192
   3.800   0.7147   0.01256   0.00535  -0.0517  0.5254  1.0000  -1.2500   0.0000   0.0000   0.0000   0.3179
   3.900   0.7253   0.01260   0.00552  -0.0516  0.5199  1.0000  -1.2725   0.0000   0.0000   0.0000   0.3166
   4.000   0.7360   0.01265   0.00557  -0.0515  0.5140  1.0000  -1.2949   0.0000   0.0000   0.0000   0.3153
   4.100   0.7465   0.01272   0.00562  -0.0513  0.5080  1.0000  -1.3173   0.0000   0.0000   0.0000   0.3140
   4.200   0.7570   0.01279   0.00566  -0.0512  0.5019  1.0000  -1.3399   0.0000   0.0000   0.0000   0.3128
   4.300   0.7674   0.01289   0.00570  -0.0510  0.4955  1.0000  -1.3624   0.0000   0.0000   0.0000   0.3115
   4.400   0.7778   0.01305   0.00577  -0.0508  0.4883  1.0000  -1.3848   0.0000   0.0000   0.0000   0.3103
   4.500   0.7882   0.01325   0.00591  -0.0507  0.4809  1.0000  -1.4086   0.0000   0.0000   0.0000   0.3091
   4.600   0.7988   0.01328   0.00599  -0.0506  0.4761  1.0000  -1.4363   0.0000   0.0000   0.0000   0.3081
   4.700   0.8092   0.01333   0.00606  -0.0504  0.4700  1.0000  -1.4641   0.0000   0.0000   0.0000   0.3070
   4.800   0.8197   0.01339   0.00613  -0.0503  0.4635  1.0000  -1.4921   0.0000   0.0000   0.0000   0.3059
   4.900   0.8301   0.01346   0.00618  -0.0501  0.4567  1.0000  -1.5203   0.0000   0.0000   0.0000   0.3049
   5.000   0.8403   0.01356   0.00623  -0.0499  0.4500  1.0000  -1.5484   0.0000   0.0000   0.0000   0.3038
   5.100   0.8505   0.01371   0.00631  -0.0497  0.4432  1.0000  -1.5807   0.0000   0.0000   0.0000   0.3027
   5.200   0.8606   0.01396   0.00646  -0.0496  0.4351  1.0000  -1.6147   0.0000   0.0000   0.0000   0.3017
   5.300   0.8711   0.01407   0.00660  -0.0495  0.4297  1.0000  -1.6493   0.0000   0.0000   0.0000   0.3008
   5.400   0.8815   0.01413   0.00671  -0.0493  0.4244  1.0000  -1.6842   0.0000   0.0000   0.0000   0.2999
   5.500   0.8918   0.01420   0.00680  -0.0492  0.4181  1.0000  -1.7193   0.0000   0.0000   0.0000   0.2990
   5.600   0.9020   0.01428   0.00688  -0.0491  0.4111  1.0000  -1.7546   0.0000   0.0000   0.0000   0.2981
   5.700   0.9121   0.01438   0.00695  -0.0488  0.4038  1.0000  -1.7899   0.0000   0.0000   0.0000   0.2972
   5.800   0.9219   0.01453   0.00702  -0.0486  0.3962  1.0000  -1.8251   0.0000   0.0000   0.0000   0.2962
   5.900   0.9316   0.01480   0.00718  -0.0484  0.3871  1.0000  -1.8597   0.0000   0.0000   0.0000   0.2953
   6.000   0.9418   0.01493   0.00733  -0.0483  0.3811  1.0000  -1.8952   0.0000   0.0000   0.0000   0.2945
   6.100   0.9520   0.01500   0.00746  -0.0481  0.3756  1.0000  -1.9312   0.0000   0.0000   0.0000   0.2937
   6.200   0.9622   0.01510   0.00759  -0.0480  0.3694  1.0000  -1.9672   0.0000   0.0000   0.0000   0.2929
   6.300   0.9722   0.01521   0.00770  -0.0478  0.3626  1.0000  -2.0032   0.0000   0.0000   0.0000   0.2921
   6.400   0.9820   0.01536   0.00781  -0.0476  0.3556  1.0000  -2.0392   0.0000   0.0000   0.0000   0.2913
   6.500   0.9915   0.01555   0.00793  -0.0474  0.3482  1.0000  -2.0747   0.0000   0.0000   0.0000   0.2905
   6.600   1.0009   0.01591   0.00817  -0.0471  0.3385  1.0000  -2.1093   0.0000   0.0000   0.0000   0.2897
   6.700   1.0109   0.01600   0.00832  -0.0470  0.3335  1.0000  -2.1459   0.0000   0.0000   0.0000   0.2889
   6.800   1.0209   0.01608   0.00846  -0.0468  0.3274  1.0000  -2.1826   0.0000   0.0000   0.0000   0.2882
   6.900   1.0307   0.01619   0.00859  -0.0467  0.3204  1.0000  -2.2194   0.0000   0.0000   0.0000   0.2875
   7.000   1.0402   0.01634   0.00871  -0.0464  0.3128  1.0000  -2.2559   0.0000   0.0000   0.0000   0.2867
   7.100   1.0492   0.01653   0.00883  -0.0462  0.3052  1.0000  -2.2918   0.0000   0.0000   0.0000   0.2859
   7.200   1.0580   0.01688   0.00906  -0.0459  0.2961  1.0000  -2.3264   0.0000   0.0000   0.0000   0.2852
   7.300   1.0676   0.01711   0.00931  -0.0457  0.2899  1.0000  -2.3669   0.0000   0.0000   0.0000   0.2845
   7.400   1.0774   0.01723   0.00949  -0.0455  0.2848  1.0000  -2.4143   0.0000   0.0000   0.0000   0.2838
   7.500   1.0868   0.01741   0.01007  -0.0453  0.2767  1.0000  -2.4751   0.0000   0.0000   0.0000   0.2831
   7.600   1.0958   0.01761   0.01026  -0.0450  0.2693  1.0000  -2.5263   0.0000   0.0000   0.0000   0.2824
   7.700   1.1043   0.01787   0.01046  -0.0447  0.2617  1.0000  -2.5748   0.0000   0.0000   0.0000   0.2816
   7.800   1.1123   0.01832   0.01080  -0.0443  0.2519  1.0000  -2.6200   0.0000   0.0000   0.0000   0.2809
   7.900   1.1216   0.01852   0.01105  -0.0441  0.2464  1.0000  -2.6689   0.0000   0.0000   0.0000   0.2803
   8.000   1.1309   0.01864   0.01125  -0.0439  0.2407  1.0000  -2.7184   0.0000   0.0000   0.0000   0.2796
   8.100   1.1400   0.01881   0.01145  -0.0437  0.2342  1.0000  -2.7735   0.0000   0.0000   0.0000   0.2790
   8.200   1.1486   0.01903   0.01166  -0.0434  0.2274  1.0000  -2.8482   0.0000   0.0000   0.0000   0.2783
   8.300   1.1565   0.01934   0.01190  -0.0430  0.2206  1.0000  -2.9355   0.0000   0.0000   0.0000   0.2776
   8.400   1.1638   0.01987   0.01233  -0.0426  0.2120  1.0000  -3.0181   0.0000   0.0000   0.0000   0.2769
   8.500   1.1726   0.02017   0.01267  -0.0424  0.2070  1.0000  -3.1094   0.0000   0.0000   0.0000   0.2762
   8.600   1.1816   0.02034   0.01292  -0.0421  0.2026  1.0000  -3.2034   0.0000   0.0000   0.0000   0.2756
   8.700   1.1903   0.02056   0.01319  -0.0418  0.1973  1.0000  -3.2970   0.0000   0.0000   0.0000   0.2750
   8.800   1.1986   0.02080   0.01345  -0.0415  0.1915  1.0000  -3.3898   0.0000   0.0000   0.0000   0.2743
   8.900   1.2061   0.02111   0.01372  -0.0411  0.1856  1.0000  -3.4800   0.0000   0.0000   0.0000   0.2737
   9.000   1.2127   0.02157   0.01409  -0.0407  0.1788  1.0000  -3.5650   0.0000   0.0000   0.0000   0.2729
   9.100   1.2197   0.02224   0.01470  -0.0402  0.1713  1.0000  -3.6485   0.0000   0.0000   0.0000   0.2723
   9.200   1.2282   0.02237   0.01493  -0.0400  0.1679  1.0000  -3.7459   0.0000   0.0000   0.0000   0.2716
   9.300   1.2363   0.02257   0.01519  -0.0396  0.1634  1.0000  -3.8419   0.0000   0.0000   0.0000   0.2710
   9.400   1.2441   0.02281   0.01547  -0.0393  0.1584  1.0000  -3.9371   0.0000   0.0000   0.0000   0.2704
   9.500   1.2512   0.02310   0.01576  -0.0389  0.1533  1.0000  -4.0302   0.0000   0.0000   0.0000   0.2697
   9.600   1.2574   0.02349   0.01610  -0.0384  0.1482  1.0000  -4.1182   0.0000   0.0000   0.0000   0.2691
   9.700   1.2627   0.02414   0.01666  -0.0378  0.1420  1.0000  -4.1978   0.0000   0.0000   0.0000   0.2683
   9.800   1.2692   0.02485   0.01737  -0.0373  0.1369  1.0000  -4.2812   0.0000   0.0000   0.0000   0.2677
   9.900   1.2768   0.02508   0.01769  -0.0369  0.1344  1.0000  -4.3771   0.0000   0.0000   0.0000   0.2670
  10.000   1.2840   0.02537   0.01806  -0.0365  0.1312  1.0000  -4.4711   0.0000   0.0000   0.0000   0.2664
  10.100   1.2908   0.02570   0.01845  -0.0361  0.1277  1.0000  -4.5635   0.0000   0.0000   0.0000   0.2657
  10.200   1.2972   0.02606   0.01883  -0.0356  0.1241  1.0000  -4.6547   0.0000   0.0000   0.0000   0.2651
  10.300   1.3031   0.02644   0.01923  -0.0351  0.1207  1.0000  -4.7441   0.0000   0.0000   0.0000   0.2644
  10.400   1.3082   0.02690   0.01967  -0.0345  0.1173  1.0000  -4.8288   0.0000   0.0000   0.0000   0.2637
  10.500   1.3126   0.02753   0.02025  -0.0338  0.1136  1.0000  -4.9070   0.0000   0.0000   0.0000   0.2630
  10.600   1.3171   0.02877   0.02146  -0.0332  0.1081  1.0000  -4.9741   0.0000   0.0000   0.0000   0.2623
  10.700   1.3232   0.02935   0.02210  -0.0327  0.1060  1.0000  -5.0597   0.0000   0.0000   0.0000   0.2616
  10.800   1.3289   0.02968   0.02252  -0.0322  0.1045  1.0000  -5.1484   0.0000   0.0000   0.0000   0.2609
  10.900   1.3344   0.03008   0.02300  -0.0316  0.1026  1.0000  -5.2347   0.0000   0.0000   0.0000   0.2603
  11.000   1.3382   0.02987   0.02294  -0.0309  0.0997  1.0000  -5.3158   0.0000   0.0000   0.0000   0.2595
  11.100   1.3413   0.02999   0.02308  -0.0302  0.0965  1.0000  -5.3995   0.0000   0.0000   0.0000   0.2587
  11.200   1.3440   0.03019   0.02329  -0.0294  0.0934  1.0000  -5.4823   0.0000   0.0000   0.0000   0.2580
  11.300   1.3461   0.03050   0.02359  -0.0287  0.0904  1.0000  -5.5606   0.0000   0.0000   0.0000   0.2572
  11.400   1.3470   0.03098   0.02403  -0.0279  0.0875  1.0000  -5.6300   0.0000   0.0000   0.0000   0.2565
  11.500   1.3471   0.03170   0.02471  -0.0271  0.0842  1.0000  -5.6889   0.0000   0.0000   0.0000   0.2557
  11.600   1.3474   0.03291   0.02588  -0.0263  0.0798  1.0000  -5.7362   0.0000   0.0000   0.0000   0.2550
  11.700   1.3509   0.03314   0.02618  -0.0259  0.0788  1.0000  -5.8235   0.0000   0.0000   0.0000   0.2544
  11.800   1.3546   0.03348   0.02660  -0.0254  0.0773  1.0000  -5.9089   0.0000   0.0000   0.0000   0.2539
  11.900   1.3579   0.03393   0.02713  -0.0250  0.0758  1.0000  -5.9894   0.0000   0.0000   0.0000   0.2533
  12.000   1.3610   0.03447   0.02773  -0.0245  0.0742  1.0000  -6.0664   0.0000   0.0000   0.0000   0.2528
  12.100   1.3638   0.03503   0.02835  -0.0241  0.0725  1.0000  -6.1424   0.0000   0.0000   0.0000   0.2522
  12.200   1.3662   0.03561   0.02899  -0.0237  0.0707  1.0000  -6.2169   0.0000   0.0000   0.0000   0.2518
  12.300   1.3682   0.03623   0.02965  -0.0234  0.0689  1.0000  -6.2893   0.0000   0.0000   0.0000   0.2513
  12.400   1.3698   0.03689   0.03034  -0.0231  0.0670  1.0000  -6.3598   0.0000   0.0000   0.0000   0.2509
  12.500   1.3707   0.03763   0.03110  -0.0228  0.0652  1.0000  -6.4252   0.0000   0.0000   0.0000   0.2505
  12.600   1.3704   0.03850   0.03198  -0.0225  0.0636  1.0000  -6.4808   0.0000   0.0000   0.0000   0.2501
  12.700   1.3692   0.03949   0.03298  -0.0222  0.0619  1.0000  -6.5281   0.0000   0.0000   0.0000   0.2497
  12.800   1.3673   0.04061   0.03410  -0.0218  0.0600  1.0000  -6.5669   0.0000   0.0000   0.0000   0.2492
  12.900   1.3647   0.04193   0.03544  -0.0214  0.0578  1.0000  -6.5934   0.0000   0.0000   0.0000   0.2488
  13.000   1.3640   0.04307   0.03662  -0.0210  0.0562  1.0000  -6.6349   0.0000   0.0000   0.0000   0.2483
  13.100   1.3659   0.04382   0.03745  -0.0210  0.0553  1.0000  -6.7044   0.0000   0.0000   0.0000   0.2481
  13.200   1.3677   0.04461   0.03834  -0.0211  0.0542  1.0000  -6.7712   0.0000   0.0000   0.0000   0.2479
  13.300   1.3690   0.04548   0.03929  -0.0211  0.0527  1.0000  -6.8331   0.0000   0.0000   0.0000   0.2478
  13.400   1.3694   0.04647   0.04035  -0.0212  0.0509  1.0000  -6.8867   0.0000   0.0000   0.0000   0.2476
  13.500   1.3692   0.04754   0.04148  -0.0214  0.0490  1.0000  -6.9357   0.0000   0.0000   0.0000   0.2476
  13.600   1.3686   0.04868   0.04266  -0.0217  0.0468  1.0000  -6.9814   0.0000   0.0000   0.0000   0.2476
  13.700   1.3664   0.05002   0.04403  -0.0220  0.0447  1.0000  -7.0144   0.0000   0.0000   0.0000   0.2476
  13.800   1.3621   0.05166   0.04566  -0.0225  0.0428  1.0000  -7.0288   0.0000   0.0000   0.0000   0.2478
  13.900   1.3558   0.05356   0.04755  -0.0230  0.0408  1.0000  -7.0231   0.0000   0.0000   0.0000   0.2481
  14.000   1.3463   0.05587   0.04988  -0.0234  0.0385  1.0000  -6.9798   0.0000   0.0000   0.0000   0.2483
  14.100   1.3397   0.05792   0.05197  -0.0238  0.0363  1.0000  -6.9513   0.0000   0.0000   0.0000   0.2485
  14.200   1.3379   0.05948   0.05363  -0.0245  0.0335  1.0000  -6.9565   0.0000   0.0000   0.0000   0.2488
  14.300   1.3326   0.06143   0.05563  -0.0253  0.0307  1.0000  -6.9344   0.0000   0.0000   0.0000   0.2492
  14.400   1.3266   0.06354   0.05779  -0.0261  0.0290  1.0000  -6.9144   0.0000   0.0000   0.0000   0.2498
  14.500   1.3202   0.06573   0.06000  -0.0270  0.0275  1.0000  -6.8934   0.0000   0.0000   0.0000   0.2503
  14.600   1.3132   0.06806   0.06235  -0.0279  0.0264  1.0000  -6.8671   0.0000   0.0000   0.0000   0.2510
  14.700   1.3054   0.07062   0.06494  -0.0290  0.0255  1.0000  -6.8325   0.0000   0.0000   0.0000   0.2517
  14.800   1.2971   0.07326   0.06761  -0.0301  0.0246  1.0000  -6.7879   0.0000   0.0000   0.0000   0.2525
  14.900   1.2880   0.07600   0.07039  -0.0310  0.0236  1.0000  -6.7265   0.0000   0.0000   0.0000   0.2532
  15.000   1.2778   0.07889   0.07334  -0.0318  0.0225  1.0000  -6.6441   0.0000   0.0000   0.0000   0.2538
  15.200   1.2634   0.08403   0.07861  -0.0335  0.0215  1.0000  -6.5419   0.0000   0.0000   0.0000   0.2551
  15.300   1.2602   0.08609   0.08075  -0.0345  0.0212  1.0000  -6.5372   0.0000   0.0000   0.0000   0.2557
  15.400   1.2567   0.08821   0.08294  -0.0354  0.0210  1.0000  -6.5281   0.0000   0.0000   0.0000   0.2563
  15.500   1.2529   0.09039   0.08520  -0.0364  0.0207  1.0000  -6.5152   0.0000   0.0000   0.0000   0.2570
  15.600   1.2481   0.09277   0.08765  -0.0375  0.0205  1.0000  -6.4948   0.0000   0.0000   0.0000   0.2579
  15.700   1.2434   0.09516   0.09012  -0.0387  0.0203  1.0000  -6.4727   0.0000   0.0000   0.0000   0.2587
  15.800   1.2389   0.09751   0.09255  -0.0398  0.0202  1.0000  -6.4508   0.0000   0.0000   0.0000   0.2596
  15.900   1.2344   0.09987   0.09498  -0.0410  0.0200  1.0000  -6.4275   0.0000   0.0000   0.0000   0.2604
  16.000   1.2297   0.10225   0.09744  -0.0422  0.0198  1.0000  -6.4019   0.0000   0.0000   0.0000   0.2614
  16.100   1.2244   0.10479   0.10006  -0.0435  0.0197  1.0000  -6.3708   0.0000   0.0000   0.0000   0.2624
  16.200   1.2187   0.10747   0.10282  -0.0450  0.0196  1.0000  -6.3349   0.0000   0.0000   0.0000   0.2637
  16.300   1.2130   0.11013   0.10554  -0.0465  0.0195  1.0000  -6.2982   0.0000   0.0000   0.0000   0.2649
  16.400   1.2074   0.11278   0.10827  -0.0480  0.0194  1.0000  -6.2597   0.0000   0.0000   0.0000   0.2662
  16.500   1.2016   0.11551   0.11108  -0.0495  0.0194  1.0000  -6.2182   0.0000   0.0000   0.0000   0.2675
  16.600   1.1950   0.11843   0.11407  -0.0513  0.0193  1.0000  -6.1682   0.0000   0.0000   0.0000   0.2691
  16.700   1.1879   0.12137   0.11708  -0.0532  0.0193  1.0000  -6.1130   0.0000   0.0000   0.0000   0.2708
  16.800   1.1811   0.12425   0.12004  -0.0551  0.0193  1.0000  -6.0574   0.0000   0.0000   0.0000   0.2725
  16.900   1.1742   0.12725   0.12311  -0.0570  0.0193  1.0000  -5.9974   0.0000   0.0000   0.0000   0.2743
  17.000   1.1664   0.13055   0.12648  -0.0591  0.0194  1.0000  -5.9269   0.0000   0.0000   0.0000   0.2763
  17.100   1.1577   0.13421   0.13022  -0.0615  0.0195  1.0000  -5.8442   0.0000   0.0000   0.0000   0.2787
  17.200   1.1492   0.13792   0.13399  -0.0639  0.0195  1.0000  -5.7589   0.0000   0.0000   0.0000   0.2811
  17.300   1.1402   0.14187   0.13801  -0.0664  0.0196  1.0000  -5.6634   0.0000   0.0000   0.0000   0.2836
  17.400   1.1292   0.14655   0.14276  -0.0693  0.0198  1.0000  -5.5416   0.0000   0.0000   0.0000   0.2868
  17.500   1.1181   0.15140   0.14767  -0.0722  0.0200  1.0000  -5.4101   0.0000   0.0000   0.0000   0.2900
  17.600   1.1050   0.15697   0.15330  -0.0755  0.0203  1.0000  -5.2468   0.0000   0.0000   0.0000   0.2938
  17.700   1.0888   0.16379   0.16017  -0.0794  0.0206  1.0000  -5.0287   0.0000   0.0000   0.0000   0.2986
  17.800   1.0671   0.17267   0.16909  -0.0841  0.0211  1.0000  -4.7112   0.0000   0.0000   0.0000   0.3048
  17.900   1.0407   0.18381   0.18024  -0.0894  0.0216  1.0000  -4.2752   0.0000   0.0000   0.0000   0.3124
  18.100   1.0184   0.19735   0.19380  -0.0951  0.0218  1.0000  -3.8123   0.0000   0.0000   0.0000   0.3203
  18.200   1.0102   0.20337   0.19980  -0.0973  0.0219  1.0000  -3.6119   0.0000   0.0000   0.0000   0.3234
  18.300   1.0041   0.20870   0.20512  -0.0992  0.0218  1.0000  -3.4449   0.0000   0.0000   0.0000   0.3260
  18.400   0.9998   0.21339   0.20981  -0.1008  0.0219  1.0000  -3.3105   0.0000   0.0000   0.0000   0.3281
  18.500   0.9969   0.21753   0.21393  -0.1022  0.0219  1.0000  -3.2050   0.0000   0.0000   0.0000   0.3297
  18.600   0.9952   0.22125   0.21765  -0.1034  0.0219  1.0000  -3.1201   0.0000   0.0000   0.0000   0.3311
  18.700   0.9941   0.22469   0.22108  -0.1045  0.0220  1.0000  -3.0492   0.0000   0.0000   0.0000   0.3323
  18.800   0.9937   0.22792   0.22431  -0.1055  0.0221  1.0000  -2.9877   0.0000   0.0000   0.0000   0.3333
  18.900   0.9936   0.23100   0.22739  -0.1065  0.0223  1.0000  -2.9329   0.0000   0.0000   0.0000   0.3342
  19.000   0.9939   0.23402   0.23042  -0.1075  0.0225  1.0000  -2.8805   0.0000   0.0000   0.0000   0.3351
  19.100   0.9938   0.23756   0.23395  -0.1086  0.0230  1.0000  -2.8029   0.0000   0.0000   0.0000   0.3362
  19.200   0.9723   0.25416   0.25039  -0.1136  0.0299  1.0000  -2.1385   0.0000   0.0000   0.0000   0.3449
  19.300   0.9718   0.25745   0.25368  -0.1144  0.0316  1.0000  -2.0839   0.0000   0.0000   0.0000   0.3457
  19.400   0.9725   0.26019   0.25643  -0.1147  0.0333  1.0000  -2.0605   0.0000   0.0000   0.0000   0.3458
  19.600   0.9844   0.26359   0.25991  -0.1123  0.0379  1.0000  -2.1730   0.0000   0.0000   0.0000   0.3414
  19.700   0.9865   0.26537   0.26170  -0.1134  0.0385  1.0000  -2.1492   0.0000   0.0000   0.0000   0.3421
  19.800   0.9858   0.26825   0.26458  -0.1146  0.0388  1.0000  -2.1033   0.0000   0.0000   0.0000   0.3433
  19.900   0.9855   0.27103   0.26736  -0.1155  0.0389  1.0000  -2.0721   0.0000   0.0000   0.0000   0.3442
  20.000   0.9857   0.27362   0.26996  -0.1162  0.0389  1.0000  -2.0538   0.0000   0.0000   0.0000   0.3448
  20.100   0.9863   0.27612   0.27246  -0.1168  0.0388  1.0000  -2.0432   0.0000   0.0000   0.0000   0.3451
  20.200   0.9871   0.27859   0.27494  -0.1172  0.0387  1.0000  -2.0374   0.0000   0.0000   0.0000   0.3454
  20.300   0.9880   0.28108   0.27744  -0.1176  0.0385  1.0000  -2.0346   0.0000   0.0000   0.0000   0.3455
  20.500   0.9791   0.29178   0.28815  -0.1186  0.0372  1.0000  -1.9221   0.0000   0.0000   0.0000   0.3476
  20.600   0.9770   0.29541   0.29174  -0.1193  0.0371  1.0000  -1.8813   0.0000   0.0000   0.0000   0.3485
  20.800   0.9760   0.30040   0.29684  -0.1205  0.0370  1.0000  -1.8338   0.0000   0.0000   0.0000   0.3496
  20.900   0.9753   0.30279   0.29923  -0.1211  0.0370  1.0000  -1.8161   0.0000   0.0000   0.0000   0.3502
  21.000   0.9744   0.30512   0.30158  -0.1216  0.0370  1.0000  -1.7988   0.0000   0.0000   0.0000   0.3507
  21.100   0.9732   0.30739   0.30385  -0.1221  0.0370  1.0000  -1.7815   0.0000   0.0000   0.0000   0.3513
  21.200   0.9718   0.30958   0.30606  -0.1226  0.0370  1.0000  -1.7641   0.0000   0.0000   0.0000   0.3519
  21.300   0.9701   0.31169   0.30817  -0.1230  0.0370  1.0000  -1.7463   0.0000   0.0000   0.0000   0.3524
  21.400   0.9680   0.31368   0.31018  -0.1234  0.0370  1.0000  -1.7279   0.0000   0.0000   0.0000   0.3530
  21.500   0.9653   0.31553   0.31204  -0.1237  0.0370  1.0000  -1.7086   0.0000   0.0000   0.0000   0.3536
  21.600   0.9620   0.31718   0.31371  -0.1239  0.0369  1.0000  -1.6879   0.0000   0.0000   0.0000   0.3542
  21.700   0.9299   0.31212   0.30873  -0.1208  0.0369  1.0000  -1.6011   0.0000   0.0000   0.0000   0.3557
  21.800   0.9161   0.31033   0.30699  -0.1197  0.0369  1.0000  -1.5570   0.0000   0.0000   0.0000   0.3566
  21.900   0.9080   0.30980   0.30649  -0.1193  0.0369  1.0000  -1.5263   0.0000   0.0000   0.0000   0.3574
  22.000   0.9018   0.30965   0.30635  -0.1192  0.0369  1.0000  -1.5001   0.0000   0.0000   0.0000   0.3581
  22.100   0.8965   0.30968   0.30641  -0.1191  0.0369  1.0000  -1.4765   0.0000   0.0000   0.0000   0.3588
  22.200   0.8919   0.30982   0.30657  -0.1192  0.0368  1.0000  -1.4548   0.0000   0.0000   0.0000   0.3595
  22.300   0.8879   0.31003   0.30680  -0.1192  0.0368  1.0000  -1.4343   0.0000   0.0000   0.0000   0.3602
  22.400   0.8842   0.31028   0.30706  -0.1194  0.0368  1.0000  -1.4149   0.0000   0.0000   0.0000   0.3608
  22.500   0.8807   0.31055   0.30735  -0.1195  0.0368  1.0000  -1.3961   0.0000   0.0000   0.0000   0.3615
  22.600   0.8775   0.31084   0.30765  -0.1197  0.0367  1.0000  -1.3781   0.0000   0.0000   0.0000   0.3622
  22.700   0.8746   0.31114   0.30797  -0.1200  0.0367  1.0000  -1.3608   0.0000   0.0000   0.0000   0.3628
  22.800   0.8718   0.31146   0.30830  -0.1202  0.0366  1.0000  -1.3441   0.0000   0.0000   0.0000   0.3635
  22.900   0.8691   0.31174   0.30860  -0.1205  0.0366  1.0000  -1.3273   0.0000   0.0000   0.0000   0.3641
  23.000   0.8666   0.31202   0.30889  -0.1208  0.0365  1.0000  -1.3110   0.0000   0.0000   0.0000   0.3648
  23.100   0.8635   0.31216   0.30905  -0.1212  0.0365  1.0000  -1.2907   0.0000   0.0000   0.0000   0.3657
  23.200   0.8605   0.31228   0.30918  -0.1216  0.0364  1.0000  -1.2695   0.0000   0.0000   0.0000   0.3666
  23.300   0.8576   0.31241   0.30932  -0.1221  0.0363  1.0000  -1.2485   0.0000   0.0000   0.0000   0.3675
  23.400   0.8549   0.31256   0.30948  -0.1226  0.0362  1.0000  -1.2273   0.0000   0.0000   0.0000   0.3685
  23.500   0.8524   0.31275   0.30968  -0.1231  0.0360  1.0000  -1.2057   0.0000   0.0000   0.0000   0.3695
  23.600   0.8502   0.31299   0.30993  -0.1238  0.0358  1.0000  -1.1834   0.0000   0.0000   0.0000   0.3705
  23.700   0.8483   0.31335   0.31030  -0.1245  0.0355  1.0000  -1.1600   0.0000   0.0000   0.0000   0.3716
  23.800   0.8468   0.31389   0.31085  -0.1253  0.0350  1.0000  -1.1362   0.0000   0.0000   0.0000   0.3727
  23.900   0.8457   0.31459   0.31156  -0.1260  0.0344  1.0000  -1.1148   0.0000   0.0000   0.0000   0.3736
  24.000   0.8448   0.31534   0.31232  -0.1266  0.0338  1.0000  -1.0977   0.0000   0.0000   0.0000   0.3744
  24.100   0.8439   0.31607   0.31306  -0.1271  0.0332  1.0000  -1.0841   0.0000   0.0000   0.0000   0.3750
  24.200   0.8430   0.31677   0.31377  -0.1275  0.0326  1.0000  -1.0729   0.0000   0.0000   0.0000   0.3756
  24.300   0.8422   0.31744   0.31446  -0.1279  0.0321  1.0000  -1.0633   0.0000   0.0000   0.0000   0.3761
  24.400   0.8413   0.31811   0.31513  -0.1283  0.0316  1.0000  -1.0549   0.0000   0.0000   0.0000   0.3765
  24.500   0.8406   0.31876   0.31580  -0.1286  0.0311  1.0000  -1.0475   0.0000   0.0000   0.0000   0.3770
  24.600   0.8398   0.31940   0.31645  -0.1290  0.0306  1.0000  -1.0407   0.0000   0.0000   0.0000   0.3774
  24.700   0.8391   0.32004   0.31710  -0.1293  0.0302  1.0000  -1.0346   0.0000   0.0000   0.0000   0.3778
  24.800   0.8385   0.32067   0.31775  -0.1297  0.0298  1.0000  -1.0290   0.0000   0.0000   0.0000   0.3782
  24.900   0.8379   0.32130   0.31839  -0.1300  0.0294  1.0000  -1.0239   0.0000   0.0000   0.0000   0.3786
  25.000   0.8373   0.32192   0.31902  -0.1304  0.0290  1.0000  -1.0193   0.0000   0.0000   0.0000   0.3790
  25.100   0.8367   0.32254   0.31965  -0.1307  0.0286  1.0000  -1.0151   0.0000   0.0000   0.0000   0.3793
  25.200   0.8362   0.32316   0.32028  -0.1310  0.0283  1.0000  -1.0114   0.0000   0.0000   0.0000   0.3797
  25.300   0.8357   0.32377   0.32091  -0.1314  0.0279  1.0000  -1.0081   0.0000   0.0000   0.0000   0.3800
  25.400   0.8353   0.32438   0.32153  -0.1317  0.0276  1.0000  -1.0052   0.0000   0.0000   0.0000   0.3804
  25.500   0.8349   0.32499   0.32215  -0.1321  0.0273  1.0000  -1.0028   0.0000   0.0000   0.0000   0.3807
  25.600   0.8345   0.32559   0.32276  -0.1324  0.0270  1.0000  -1.0007   0.0000   0.0000   0.0000   0.3810
  25.700   0.8341   0.32619   0.32337  -0.1327  0.0267  1.0000  -0.9991   0.0000   0.0000   0.0000   0.3813
  25.800   0.8338   0.32678   0.32398  -0.1331  0.0264  1.0000  -0.9979   0.0000   0.0000   0.0000   0.3816
  25.900   0.8335   0.32737   0.32458  -0.1334  0.0261  1.0000  -0.9972   0.0000   0.0000   0.0000   0.3819
  26.000   0.8332   0.32795   0.32517  -0.1338  0.0259  1.0000  -0.9970   0.0000   0.0000   0.0000   0.3822
  26.100   0.8330   0.32853   0.32576  -0.1341  0.0256  1.0000  -0.9972   0.0000   0.0000   0.0000   0.3825
  26.200   0.8328   0.32910   0.32634  -0.1344  0.0253  1.0000  -0.9980   0.0000   0.0000   0.0000   0.3827
  26.300   0.8326   0.32967   0.32692  -0.1347  0.0251  1.0000  -0.9992   0.0000   0.0000   0.0000   0.3830
  26.400   0.8324   0.33022   0.32749  -0.1350  0.0249  1.0000  -1.0011   0.0000   0.0000   0.0000   0.3832
  26.500   0.8322   0.33077   0.32805  -0.1353  0.0246  1.0000  -1.0036   0.0000   0.0000   0.0000   0.3834
  26.600   0.8321   0.33132   0.32861  -0.1356  0.0244  1.0000  -1.0067   0.0000   0.0000   0.0000   0.3836
  26.700   0.8320   0.33185   0.32915  -0.1359  0.0242  1.0000  -1.0105   0.0000   0.0000   0.0000   0.3838
  26.800   0.8319   0.33238   0.32970  -0.1362  0.0240  1.0000  -1.0150   0.0000   0.0000   0.0000   0.3839
  26.900   0.8319   0.33291   0.33024  -0.1365  0.0238  1.0000  -1.0203   0.0000   0.0000   0.0000   0.3841
  27.000   0.8318   0.33344   0.33077  -0.1367  0.0236  1.0000  -1.0265   0.0000   0.0000   0.0000   0.3842
  27.100   0.8318   0.33397   0.33132  -0.1370  0.0234  1.0000  -1.0337   0.0000   0.0000   0.0000   0.3842
  27.200   0.8319   0.33451   0.33187  -0.1372  0.0232  1.0000  -1.0419   0.0000   0.0000   0.0000   0.3842
  27.300   0.8320   0.33508   0.33246  -0.1373  0.0230  1.0000  -1.0513   0.0000   0.0000   0.0000   0.3842
  27.400   0.8322   0.33572   0.33311  -0.1375  0.0228  1.0000  -1.0618   0.0000   0.0000   0.0000   0.3841
  27.500   0.8326   0.33646   0.33386  -0.1375  0.0227  1.0000  -1.0736   0.0000   0.0000   0.0000   0.3839
  27.600   0.8331   0.33743   0.33485  -0.1375  0.0225  1.0000  -1.0869   0.0000   0.0000   0.0000   0.3836
  27.700   0.8341   0.33899   0.33642  -0.1374  0.0222  1.0000  -1.1018   0.0000   0.0000   0.0000   0.3831
  28.200   0.8323   0.34732   0.34476  -0.1388  0.0216  1.0000  -1.0367   0.0000   0.0000   0.0000   0.3844
  28.300   0.8318   0.34793   0.34538  -0.1392  0.0216  1.0000  -1.0296   0.0000   0.0000   0.0000   0.3848
  28.400   0.8313   0.34846   0.34593  -0.1397  0.0216  1.0000  -1.0218   0.0000   0.0000   0.0000   0.3853
  28.500   0.8307   0.34892   0.34639  -0.1401  0.0216  1.0000  -1.0134   0.0000   0.0000   0.0000   0.3858
  28.600   0.8300   0.34927   0.34675  -0.1406  0.0216  1.0000  -1.0116   0.0000   0.0000   0.0000   0.3863
  28.700   0.8285   0.34909   0.34664  -0.1412  0.0215  1.0000  -1.0002   0.0000   0.0000   0.0000   0.3872
  28.800   0.8270   0.34896   0.34652  -0.1419  0.0214  1.0000  -0.9915   0.0000   0.0000   0.0000   0.3881
  28.900   0.8255   0.34885   0.34641  -0.1426  0.0213  1.0000  -0.9805   0.0000   0.0000   0.0000   0.3891
  29.000   0.8244   0.34892   0.34650  -0.1434  0.0212  1.0000  -0.9698   0.0000   0.0000   0.0000   0.3901
  29.100   0.8237   0.34930   0.34688  -0.1441  0.0211  1.0000  -0.9616   0.0000   0.0000   0.0000   0.3909
  29.200   0.8233   0.34982   0.34740  -0.1448  0.0209  1.0000  -0.9528   0.0000   0.0000   0.0000   0.3916
  29.300   0.8232   0.35047   0.34806  -0.1456  0.0207  1.0000  -0.9401   0.0000   0.0000   0.0000   0.3924
  29.400   0.8236   0.35143   0.34902  -0.1466  0.0201  1.0000  -0.9214   0.0000   0.0000   0.0000   0.3933
  29.500   0.8245   0.35269   0.35029  -0.1474  0.0190  1.0000  -0.9016   0.0000   0.0000   0.0000   0.3940
  29.600   0.8248   0.35370   0.35131  -0.1480  0.0178  1.0000  -0.8921   0.0000   0.0000   0.0000   0.3944
  29.700   0.8248   0.35454   0.35216  -0.1484  0.0168  1.0000  -0.8875   0.0000   0.0000   0.0000   0.3947
  29.800   0.8248   0.35531   0.35293  -0.1488  0.0159  1.0000  -0.8852   0.0000   0.0000   0.0000   0.3950
  29.900   0.8248   0.35604   0.35367  -0.1492  0.0152  1.0000  -0.8844   0.0000   0.0000   0.0000   0.3953
  30.000   0.8248   0.35672   0.35436  -0.1496  0.0145  1.0000  -0.8850   0.0000   0.0000   0.0000   0.3955


