xflr5 v6.61

 Calculated polar for: S3010-103-84

 1 1 Reynolds number fixed          Mach number fixed         

 xtrf =   1.000 (top)        1.000 (bottom)
 Mach =   0.000     Re =     0.130 e 6     Ncrit =   9.000

  alpha     CL        CD       CDp       Cm    Top Xtr Bot Xtr   Cpmin    Chinge    XCp    
 ------- -------- --------- --------- -------- ------- ------- -------- --------- ---------
 -10.000  -0.4250   0.12450   0.11998  -0.0111  1.0000  0.0635  -1.4261   0.0000   0.0000   0.0000   0.2176
  -9.900  -0.4231   0.12323   0.11873  -0.0120  1.0000  0.0635  -1.4344   0.0000   0.0000   0.0000   0.2154
  -9.800  -0.4213   0.12193   0.11744  -0.0128  1.0000  0.0636  -1.4428   0.0000   0.0000   0.0000   0.2133
  -9.700  -0.4196   0.12061   0.11614  -0.0137  1.0000  0.0637  -1.4516   0.0000   0.0000   0.0000   0.2111
  -9.600  -0.4179   0.11927   0.11481  -0.0146  1.0000  0.0637  -1.4606   0.0000   0.0000   0.0000   0.2089
  -9.500  -0.4163   0.11791   0.11346  -0.0155  1.0000  0.0637  -1.4699   0.0000   0.0000   0.0000   0.2067
  -9.400  -0.4147   0.11653   0.11210  -0.0164  1.0000  0.0638  -1.4795   0.0000   0.0000   0.0000   0.2044
  -9.300  -0.4241   0.10851   0.10414  -0.0169  1.0000  0.0659  -1.5582   0.0000   0.0000   0.0000   0.2042
  -9.200  -0.4175   0.10639   0.10202  -0.0159  1.0000  0.0668  -1.5164   0.0000   0.0000   0.0000   0.2059
  -9.100  -0.4120   0.10480   0.10044  -0.0153  1.0000  0.0676  -1.4825   0.0000   0.0000   0.0000   0.2067
  -9.000  -0.4063   0.10340   0.09904  -0.0149  1.0000  0.0683  -1.4500   0.0000   0.0000   0.0000   0.2073
  -8.900  -0.4014   0.10210   0.09775  -0.0147  1.0000  0.0691  -1.4233   0.0000   0.0000   0.0000   0.2075
  -8.800  -0.3969   0.10085   0.09650  -0.0146  1.0000  0.0699  -1.4014   0.0000   0.0000   0.0000   0.2073
  -8.700  -0.3930   0.09962   0.09528  -0.0146  1.0000  0.0708  -1.3834   0.0000   0.0000   0.0000   0.2068
  -8.600  -0.3894   0.09841   0.09408  -0.0148  1.0000  0.0716  -1.3693   0.0000   0.0000   0.0000   0.2061
  -8.500  -0.3863   0.09720   0.09289  -0.0151  1.0000  0.0725  -1.3583   0.0000   0.0000   0.0000   0.2052
  -8.400  -0.3834   0.09598   0.09169  -0.0154  1.0000  0.0734  -1.3500   0.0000   0.0000   0.0000   0.2040
  -8.300  -0.3808   0.09476   0.09048  -0.0159  1.0000  0.0744  -1.3440   0.0000   0.0000   0.0000   0.2026
  -8.200  -0.3784   0.09352   0.08926  -0.0164  1.0000  0.0754  -1.3402   0.0000   0.0000   0.0000   0.2010
  -8.100  -0.3763   0.09228   0.08804  -0.0170  1.0000  0.0764  -1.3385   0.0000   0.0000   0.0000   0.1993
  -8.000  -0.3745   0.09103   0.08681  -0.0177  1.0000  0.0775  -1.3387   0.0000   0.0000   0.0000   0.1974
  -7.900  -0.3728   0.08977   0.08557  -0.0184  1.0000  0.0786  -1.3409   0.0000   0.0000   0.0000   0.1953
  -7.800  -0.3715   0.08851   0.08433  -0.0192  1.0000  0.0798  -1.3452   0.0000   0.0000   0.0000   0.1931
  -7.700  -0.3705   0.08725   0.08310  -0.0201  1.0000  0.0810  -1.3518   0.0000   0.0000   0.0000   0.1906
  -7.600  -0.3698   0.08599   0.08186  -0.0211  1.0000  0.0822  -1.3610   0.0000   0.0000   0.0000   0.1879
  -7.500  -0.3696   0.08474   0.08064  -0.0222  1.0000  0.0835  -1.3737   0.0000   0.0000   0.0000   0.1849
  -7.400  -0.3702   0.08353   0.07946  -0.0236  1.0000  0.0848  -1.3908   0.0000   0.0000   0.0000   0.1814
  -7.300  -0.3714   0.08240   0.07836  -0.0252  1.0000  0.0862  -1.4125   0.0000   0.0000   0.0000   0.1774
  -7.200  -0.3737   0.08136   0.07737  -0.0276  1.0000  0.0876  -1.4438   0.0000   0.0000   0.0000   0.1715
  -7.100  -0.3737   0.08043   0.07646  -0.0331  1.0000  0.0896  -1.4949   0.0000   0.0000   0.0000   0.1570
  -7.000  -0.3711   0.07985   0.07585  -0.0369  1.0000  0.0908  -1.5270   0.0000   0.0000   0.0000   0.1461
  -6.900  -0.3697   0.07888   0.07486  -0.0389  1.0000  0.0912  -1.5472   0.0000   0.0000   0.0000   0.1406
  -6.800  -0.3689   0.07780   0.07376  -0.0401  1.0000  0.0914  -1.5629   0.0000   0.0000   0.0000   0.1371
  -6.700  -0.3688   0.07673   0.07267  -0.0408  1.0000  0.0915  -1.5760   0.0000   0.0000   0.0000   0.1353
  -6.600  -0.3698   0.07573   0.07166  -0.0409  1.0000  0.0916  -1.5875   0.0000   0.0000   0.0000   0.1352
  -6.500  -0.3719   0.07482   0.07074  -0.0407  1.0000  0.0917  -1.5980   0.0000   0.0000   0.0000   0.1366
  -6.400  -0.3904   0.06963   0.06561  -0.0414  1.0000  0.0931  -1.6918   0.0000   0.0000   0.0000   0.1400
  -6.300  -0.3994   0.06658   0.06260  -0.0408  1.0000  0.0944  -1.7174   0.0000   0.0000   0.0000   0.1440
  -6.200  -0.4037   0.06507   0.06113  -0.0398  1.0000  0.0952  -1.7179   0.0000   0.0000   0.0000   0.1478
  -6.100  -0.4049   0.06403   0.06013  -0.0385  1.0000  0.0959  -1.7013   0.0000   0.0000   0.0000   0.1515
  -6.000  -0.4058   0.06318   0.05932  -0.0371  1.0000  0.0966  -1.6838   0.0000   0.0000   0.0000   0.1551
  -5.900  -0.4070   0.06241   0.05858  -0.0358  1.0000  0.0972  -1.6680   0.0000   0.0000   0.0000   0.1586
  -5.800  -0.4082   0.06168   0.05789  -0.0346  1.0000  0.0979  -1.6535   0.0000   0.0000   0.0000   0.1619
  -5.700  -0.4093   0.06097   0.05720  -0.0335  1.0000  0.0985  -1.6401   0.0000   0.0000   0.0000   0.1649
  -5.600  -0.4103   0.06025   0.05650  -0.0325  1.0000  0.0993  -1.6275   0.0000   0.0000   0.0000   0.1676
  -5.500  -0.3993   0.05891   0.05515  -0.0337  0.9979  0.1009  -1.5934   0.0000   0.0000   0.0000   0.1625
  -5.400  -0.3854   0.05737   0.05360  -0.0356  0.9952  0.1031  -1.5602   0.0000   0.0000   0.0000   0.1544
  -5.300  -0.3710   0.05576   0.05195  -0.0379  0.9920  0.1057  -1.5322   0.0000   0.0000   0.0000   0.1446
  -5.200  -0.3551   0.05396   0.05008  -0.0409  0.9890  0.1090  -1.5111   0.0000   0.0000   0.0000   0.1317
  -4.700  -0.2700   0.03456   0.02901  -0.0584  0.9726  0.0568  -1.9496   0.0000   0.0000   0.0000   0.0286
  -4.600  -0.2552   0.03111   0.02515  -0.0600  0.9700  0.0503  -2.0373   0.0000   0.0000   0.0000   0.0093
  -4.500  -0.2409   0.02844   0.02180  -0.0602  0.9658  0.0436  -2.1732   0.0000   0.0000   0.0000  -0.0061
  -4.400  -0.2238   0.02827   0.02151  -0.0610  0.9621  0.0420  -2.1267   0.0000   0.0000   0.0000  -0.0287
  -4.300  -0.2060   0.02826   0.02147  -0.0619  0.9591  0.0411  -2.0578   0.0000   0.0000   0.0000  -0.0573
  -4.200  -0.1898   0.02679   0.01982  -0.0631  0.9567  0.0399  -2.0421   0.0000   0.0000   0.0000  -0.0895
  -4.100  -0.1735   0.02494   0.01774  -0.0644  0.9547  0.0391  -2.0449   0.0000   0.0000   0.0000  -0.1285
  -4.000  -0.1557   0.02354   0.01614  -0.0657  0.9529  0.0384  -2.0289   0.0000   0.0000   0.0000  -0.1800
  -3.900  -0.1373   0.02237   0.01480  -0.0670  0.9512  0.0379  -2.0041   0.0000   0.0000   0.0000  -0.2472
  -3.800  -0.1191   0.02136   0.01365  -0.0682  0.9494  0.0376  -1.9740   0.0000   0.0000   0.0000  -0.3330
  -3.700  -0.1097   0.02073   0.01293  -0.0677  0.9435  0.0374  -1.9515   0.0000   0.0000   0.0000  -0.3782
  -3.600  -0.0960   0.02002   0.01214  -0.0680  0.9391  0.0373  -1.9205   0.0000   0.0000   0.0000  -0.4706
  -3.500  -0.0807   0.01934   0.01137  -0.0686  0.9353  0.0373  -1.8839   0.0000   0.0000   0.0000  -0.6136
  -3.400  -0.0647   0.01871   0.01067  -0.0692  0.9318  0.0374  -1.8424   0.0000   0.0000   0.0000  -0.8365
  -3.300  -0.0485   0.01814   0.01003  -0.0700  0.9286  0.0377  -1.7959   0.0000   0.0000   0.0000  -1.2142
  -3.200  -0.0320   0.01765   0.00946  -0.0707  0.9258  0.0380  -1.7394   0.0000   0.0000   0.0000  -1.9914
  -3.100  -0.0158   0.01722   0.00878  -0.0715  0.9231  0.0372  -1.6559   0.0000   0.0000   0.0000  -4.3293
  -3.000  -0.0078   0.01697   0.00848  -0.0708  0.9170  0.0378  -1.6236   0.0000   0.0000   0.0000  -9.0047
  -2.900   0.0025   0.01671   0.00815  -0.0705  0.9114  0.0386  -1.5870   0.0000   0.0000   0.0000  28.3314
  -2.800   0.0145   0.01646   0.00782  -0.0704  0.9066  0.0398  -1.5468   0.0000   0.0000   0.0000   5.1577
  -2.700   0.0273   0.01608   0.00735  -0.0704  0.9024  0.0429  -1.5213   0.0000   0.0000   0.0000   2.8595
  -2.600   0.0404   0.01559   0.00688  -0.0705  0.8986  0.0553  -1.5094   0.0000   0.0000   0.0000   2.0162
  -2.500   0.0518   0.01475   0.00657  -0.0706  0.8951  0.1588  -1.5006   0.0000   0.0000   0.0000   1.6283
  -2.400   0.0629   0.01423   0.00650  -0.0707  0.8916  0.2579  -1.4509   0.0000   0.0000   0.0000   1.3851
  -2.300   0.0703   0.01394   0.00652  -0.0702  0.8858  0.3264  -1.4006   0.0000   0.0000   0.0000   1.2570
  -2.200   0.0776   0.01360   0.00657  -0.0695  0.8796  0.4087  -1.3464   0.0000   0.0000   0.0000   1.1540
  -2.100   0.0866   0.01339   0.00656  -0.0689  0.8739  0.4618  -1.2848   0.0000   0.0000   0.0000   1.0523
  -2.000   0.0968   0.01324   0.00652  -0.0684  0.8687  0.5031  -1.2188   0.0000   0.0000   0.0000   0.9630
  -1.900   0.1065   0.01306   0.00650  -0.0678  0.8641  0.5440  -1.1527   0.0000   0.0000   0.0000   0.8911
  -1.800   0.1162   0.01291   0.00647  -0.0670  0.8598  0.5825  -1.0864   0.0000   0.0000   0.0000   0.8307
  -1.700   0.1246   0.01276   0.00653  -0.0659  0.8558  0.6403  -1.0237   0.0000   0.0000   0.0000   0.7823
  -1.600   0.1306   0.01262   0.00663  -0.0644  0.8505  0.7077  -0.9689   0.0000   0.0000   0.0000   0.7462
  -1.500   0.1356   0.01248   0.00674  -0.0625  0.8447  0.7736  -0.9171   0.0000   0.0000   0.0000   0.7135
  -1.400   0.1412   0.01237   0.00682  -0.0604  0.8395  0.8388  -0.8748   0.0000   0.0000   0.0000   0.6800
  -1.300   0.1533   0.01225   0.00682  -0.0593  0.8352  0.9050  -0.8239   0.0000   0.0000   0.0000   0.6391
  -1.200   0.1815   0.01210   0.00667  -0.0617  0.8320  0.9587  -0.7415   0.0000   0.0000   0.0000   0.5913
  -1.100   0.2074   0.01199   0.00648  -0.0643  0.8281  0.9804  -0.6680   0.0000   0.0000   0.0000   0.5608
  -1.000   0.2343   0.01185   0.00626  -0.0671  0.8242  0.9983  -0.5949   0.0000   0.0000   0.0000   0.5372
  -0.900   0.2432   0.01185   0.00617  -0.0667  0.8193  1.0000  -0.5623   0.0000   0.0000   0.0000   0.5245
  -0.800   0.2510   0.01191   0.00615  -0.0660  0.8141  1.0000  -0.5708   0.0000   0.0000   0.0000   0.5132
  -0.700   0.2589   0.01194   0.00614  -0.0656  0.8078  1.0000  -0.5791   0.0000   0.0000   0.0000   0.5035
  -0.600   0.2671   0.01196   0.00611  -0.0651  0.8012  1.0000  -0.5878   0.0000   0.0000   0.0000   0.4937
  -0.500   0.2756   0.01197   0.00606  -0.0646  0.7949  1.0000  -0.5969   0.0000   0.0000   0.0000   0.4840
  -0.400   0.2844   0.01196   0.00600  -0.0640  0.7892  1.0000  -0.6063   0.0000   0.0000   0.0000   0.4746
  -0.300   0.2935   0.01196   0.00592  -0.0634  0.7839  1.0000  -0.6159   0.0000   0.0000   0.0000   0.4655
  -0.200   0.3027   0.01197   0.00586  -0.0628  0.7791  1.0000  -0.6256   0.0000   0.0000   0.0000   0.4569
  -0.100   0.3121   0.01204   0.00585  -0.0623  0.7743  1.0000  -0.6355   0.0000   0.0000   0.0000   0.4488
   0.000   0.3218   0.01211   0.00588  -0.0621  0.7692  1.0000  -0.6460   0.0000   0.0000   0.0000   0.4419
   0.100   0.3316   0.01215   0.00590  -0.0619  0.7635  1.0000  -0.6573   0.0000   0.0000   0.0000   0.4355
   0.200   0.3414   0.01218   0.00590  -0.0616  0.7574  1.0000  -0.6687   0.0000   0.0000   0.0000   0.4292
   0.300   0.3512   0.01219   0.00588  -0.0612  0.7514  1.0000  -0.6804   0.0000   0.0000   0.0000   0.4230
   0.400   0.3611   0.01220   0.00588  -0.0608  0.7457  1.0000  -0.6922   0.0000   0.0000   0.0000   0.4170
   0.500   0.3710   0.01220   0.00581  -0.0603  0.7403  1.0000  -0.7042   0.0000   0.0000   0.0000   0.4111
   0.600   0.3809   0.01221   0.00574  -0.0598  0.7351  1.0000  -0.7162   0.0000   0.0000   0.0000   0.4055
   0.700   0.3910   0.01228   0.00572  -0.0594  0.7297  1.0000  -0.7284   0.0000   0.0000   0.0000   0.4002
   0.800   0.4011   0.01235   0.00576  -0.0592  0.7242  1.0000  -0.7402   0.0000   0.0000   0.0000   0.3957
   0.900   0.4114   0.01239   0.00578  -0.0590  0.7184  1.0000  -0.7521   0.0000   0.0000   0.0000   0.3916
   1.000   0.4216   0.01243   0.00580  -0.0588  0.7124  1.0000  -0.7641   0.0000   0.0000   0.0000   0.3875
   1.100   0.4320   0.01246   0.00580  -0.0586  0.7066  1.0000  -0.7763   0.0000   0.0000   0.0000   0.3836
   1.200   0.4423   0.01249   0.00578  -0.0583  0.7010  1.0000  -0.7886   0.0000   0.0000   0.0000   0.3797
   1.300   0.4527   0.01250   0.00575  -0.0580  0.6957  1.0000  -0.8026   0.0000   0.0000   0.0000   0.3759
   1.400   0.4630   0.01253   0.00571  -0.0576  0.6905  1.0000  -0.8172   0.0000   0.0000   0.0000   0.3721
   1.500   0.4734   0.01260   0.00569  -0.0573  0.6850  1.0000  -0.8319   0.0000   0.0000   0.0000   0.3686
   1.600   0.4838   0.01273   0.00576  -0.0570  0.6791  1.0000  -0.8463   0.0000   0.0000   0.0000   0.3653
   1.700   0.4942   0.01276   0.00580  -0.0569  0.6736  1.0000  -0.8607   0.0000   0.0000   0.0000   0.3625
   1.800   0.5046   0.01279   0.00582  -0.0567  0.6673  1.0000  -0.8751   0.0000   0.0000   0.0000   0.3597
   1.900   0.5151   0.01282   0.00583  -0.0565  0.6609  1.0000  -0.8898   0.0000   0.0000   0.0000   0.3569
   2.000   0.5255   0.01284   0.00582  -0.0562  0.6548  1.0000  -0.9046   0.0000   0.0000   0.0000   0.3542
   2.100   0.5360   0.01286   0.00580  -0.0560  0.6490  1.0000  -0.9195   0.0000   0.0000   0.0000   0.3515
   2.200   0.5465   0.01290   0.00578  -0.0557  0.6436  1.0000  -0.9355   0.0000   0.0000   0.0000   0.3489
   2.300   0.5571   0.01298   0.00578  -0.0554  0.6380  1.0000  -0.9532   0.0000   0.0000   0.0000   0.3463
   2.400   0.5677   0.01317   0.00588  -0.0551  0.6314  1.0000  -0.9708   0.0000   0.0000   0.0000   0.3440
   2.500   0.5781   0.01320   0.00594  -0.0550  0.6265  1.0000  -0.9882   0.0000   0.0000   0.0000   0.3420
   2.600   0.5886   0.01324   0.00599  -0.0549  0.6205  1.0000  -1.0057   0.0000   0.0000   0.0000   0.3399
   2.700   0.5991   0.01328   0.00602  -0.0547  0.6140  1.0000  -1.0234   0.0000   0.0000   0.0000   0.3379
   2.800   0.6096   0.01331   0.00603  -0.0545  0.6075  1.0000  -1.0413   0.0000   0.0000   0.0000   0.3359
   2.900   0.6201   0.01334   0.00603  -0.0542  0.6013  1.0000  -1.0594   0.0000   0.0000   0.0000   0.3339
   3.000   0.6306   0.01338   0.00601  -0.0540  0.5954  1.0000  -1.0776   0.0000   0.0000   0.0000   0.3319
   3.100   0.6412   0.01347   0.00603  -0.0537  0.5894  1.0000  -1.0959   0.0000   0.0000   0.0000   0.3300
   3.200   0.6518   0.01369   0.00616  -0.0535  0.5826  1.0000  -1.1140   0.0000   0.0000   0.0000   0.3282
   3.300   0.6624   0.01376   0.00626  -0.0534  0.5779  1.0000  -1.1351   0.0000   0.0000   0.0000   0.3267
   3.400   0.6729   0.01382   0.00635  -0.0533  0.5725  1.0000  -1.1564   0.0000   0.0000   0.0000   0.3252
   3.500   0.6834   0.01388   0.00642  -0.0532  0.5665  1.0000  -1.1780   0.0000   0.0000   0.0000   0.3237
   3.600   0.6939   0.01393   0.00647  -0.0530  0.5601  1.0000  -1.1997   0.0000   0.0000   0.0000   0.3222
   3.700   0.7044   0.01398   0.00649  -0.0528  0.5538  1.0000  -1.2217   0.0000   0.0000   0.0000   0.3206
   3.800   0.7148   0.01403   0.00649  -0.0525  0.5475  1.0000  -1.2439   0.0000   0.0000   0.0000   0.3191
   3.900   0.7254   0.01411   0.00661  -0.0523  0.5412  1.0000  -1.2666   0.0000   0.0000   0.0000   0.3175
   4.000   0.7359   0.01433   0.00672  -0.0520  0.5338  1.0000  -1.2888   0.0000   0.0000   0.0000   0.3161
   4.100   0.7463   0.01442   0.00683  -0.0519  0.5283  1.0000  -1.3107   0.0000   0.0000   0.0000   0.3149
   4.200   0.7567   0.01447   0.00692  -0.0518  0.5226  1.0000  -1.3327   0.0000   0.0000   0.0000   0.3137
   4.300   0.7671   0.01453   0.00700  -0.0516  0.5164  1.0000  -1.3548   0.0000   0.0000   0.0000   0.3124
   4.400   0.7775   0.01461   0.00707  -0.0515  0.5101  1.0000  -1.3771   0.0000   0.0000   0.0000   0.3112
   4.500   0.7879   0.01467   0.00712  -0.0513  0.5038  1.0000  -1.4008   0.0000   0.0000   0.0000   0.3100
   4.600   0.7983   0.01475   0.00714  -0.0510  0.4974  1.0000  -1.4286   0.0000   0.0000   0.0000   0.3088
   4.700   0.8086   0.01488   0.00718  -0.0508  0.4905  1.0000  -1.4564   0.0000   0.0000   0.0000   0.3075
   4.800   0.8190   0.01519   0.00738  -0.0506  0.4819  1.0000  -1.4839   0.0000   0.0000   0.0000   0.3064
   4.900   0.8292   0.01521   0.00747  -0.0505  0.4770  1.0000  -1.5114   0.0000   0.0000   0.0000   0.3054
   5.000   0.8394   0.01527   0.00756  -0.0503  0.4707  1.0000  -1.5391   0.0000   0.0000   0.0000   0.3044
   5.100   0.8496   0.01533   0.00764  -0.0501  0.4637  1.0000  -1.5705   0.0000   0.0000   0.0000   0.3033
   5.200   0.8599   0.01540   0.00770  -0.0499  0.4568  1.0000  -1.6049   0.0000   0.0000   0.0000   0.3023
   5.300   0.8700   0.01550   0.00775  -0.0497  0.4501  1.0000  -1.6395   0.0000   0.0000   0.0000   0.3012
   5.400   0.8802   0.01564   0.00782  -0.0494  0.4434  1.0000  -1.6742   0.0000   0.0000   0.0000   0.3002
   5.500   0.8904   0.01592   0.00801  -0.0492  0.4354  1.0000  -1.7086   0.0000   0.0000   0.0000   0.2992
   5.600   0.9005   0.01609   0.00819  -0.0491  0.4294  1.0000  -1.7429   0.0000   0.0000   0.0000   0.2983
   5.700   0.9106   0.01616   0.00832  -0.0489  0.4236  1.0000  -1.7775   0.0000   0.0000   0.0000   0.2974
   5.800   0.9206   0.01624   0.00843  -0.0488  0.4167  1.0000  -1.8124   0.0000   0.0000   0.0000   0.2965
   5.900   0.9306   0.01632   0.00852  -0.0485  0.4095  1.0000  -1.8477   0.0000   0.0000   0.0000   0.2956
   6.000   0.9405   0.01642   0.00857  -0.0483  0.4021  1.0000  -1.8832   0.0000   0.0000   0.0000   0.2947
   6.100   0.9503   0.01658   0.00864  -0.0480  0.3945  1.0000  -1.9188   0.0000   0.0000   0.0000   0.2937
   6.200   0.9601   0.01696   0.00890  -0.0478  0.3848  1.0000  -1.9536   0.0000   0.0000   0.0000   0.2929
   6.300   0.9700   0.01703   0.00904  -0.0476  0.3797  1.0000  -1.9888   0.0000   0.0000   0.0000   0.2921
   6.400   0.9798   0.01713   0.00919  -0.0474  0.3734  1.0000  -2.0242   0.0000   0.0000   0.0000   0.2913
   6.500   0.9897   0.01724   0.00934  -0.0472  0.3666  1.0000  -2.0598   0.0000   0.0000   0.0000   0.2905
   6.600   0.9994   0.01737   0.00947  -0.0470  0.3597  1.0000  -2.0956   0.0000   0.0000   0.0000   0.2897
   6.700   1.0090   0.01753   0.00958  -0.0468  0.3527  1.0000  -2.1315   0.0000   0.0000   0.0000   0.2889
   6.800   1.0184   0.01778   0.00972  -0.0465  0.3449  1.0000  -2.1670   0.0000   0.0000   0.0000   0.2880
   6.900   1.0279   0.01818   0.01004  -0.0463  0.3363  1.0000  -2.2018   0.0000   0.0000   0.0000   0.2873
   7.000   1.0375   0.01825   0.01020  -0.0461  0.3308  1.0000  -2.2375   0.0000   0.0000   0.0000   0.2866
   7.100   1.0470   0.01836   0.01037  -0.0458  0.3240  1.0000  -2.2734   0.0000   0.0000   0.0000   0.2858
   7.200   1.0564   0.01848   0.01050  -0.0456  0.3166  1.0000  -2.3096   0.0000   0.0000   0.0000   0.2850
   7.300   1.0655   0.01864   0.01061  -0.0453  0.3092  1.0000  -2.3458   0.0000   0.0000   0.0000   0.2843
   7.400   1.0743   0.01889   0.01077  -0.0450  0.3014  1.0000  -2.3956   0.0000   0.0000   0.0000   0.2835
   7.500   1.0831   0.01941   0.01157  -0.0447  0.2909  1.0000  -2.4456   0.0000   0.0000   0.0000   0.2827
   7.600   1.0923   0.01955   0.01183  -0.0444  0.2855  1.0000  -2.4977   0.0000   0.0000   0.0000   0.2820
   7.700   1.1015   0.01973   0.01207  -0.0442  0.2790  1.0000  -2.5472   0.0000   0.0000   0.0000   0.2813
   7.800   1.1105   0.01991   0.01229  -0.0439  0.2721  1.0000  -2.5959   0.0000   0.0000   0.0000   0.2806
   7.900   1.1191   0.02013   0.01247  -0.0436  0.2650  1.0000  -2.6439   0.0000   0.0000   0.0000   0.2799
   8.000   1.1272   0.02048   0.01272  -0.0432  0.2571  1.0000  -2.6900   0.0000   0.0000   0.0000   0.2792
   8.100   1.1358   0.02103   0.01320  -0.0429  0.2484  1.0000  -2.7420   0.0000   0.0000   0.0000   0.2785
   8.200   1.1445   0.02114   0.01342  -0.0426  0.2434  1.0000  -2.8021   0.0000   0.0000   0.0000   0.2778
   8.300   1.1531   0.02131   0.01365  -0.0423  0.2370  1.0000  -2.8828   0.0000   0.0000   0.0000   0.2771
   8.400   1.1614   0.02150   0.01387  -0.0420  0.2303  1.0000  -2.9725   0.0000   0.0000   0.0000   0.2765
   8.500   1.1694   0.02176   0.01409  -0.0416  0.2237  1.0000  -3.0613   0.0000   0.0000   0.0000   0.2758
   8.600   1.1768   0.02219   0.01442  -0.0412  0.2166  1.0000  -3.1472   0.0000   0.0000   0.0000   0.2751
   8.700   1.1849   0.02290   0.01506  -0.0409  0.2086  1.0000  -3.2319   0.0000   0.0000   0.0000   0.2744
   8.800   1.1933   0.02308   0.01535  -0.0406  0.2047  1.0000  -3.3225   0.0000   0.0000   0.0000   0.2738
   8.900   1.2014   0.02332   0.01567  -0.0402  0.1996  1.0000  -3.4129   0.0000   0.0000   0.0000   0.2731
   9.000   1.2094   0.02359   0.01599  -0.0399  0.1941  1.0000  -3.5032   0.0000   0.0000   0.0000   0.2724
   9.100   1.2170   0.02388   0.01628  -0.0395  0.1887  1.0000  -3.5935   0.0000   0.0000   0.0000   0.2718
   9.200   1.2240   0.02425   0.01660  -0.0391  0.1831  1.0000  -3.6821   0.0000   0.0000   0.0000   0.2711
   9.300   1.2307   0.02494   0.01718  -0.0386  0.1759  1.0000  -3.7657   0.0000   0.0000   0.0000   0.2704
   9.400   1.2382   0.02559   0.01785  -0.0383  0.1703  1.0000  -3.8520   0.0000   0.0000   0.0000   0.2698
   9.500   1.2456   0.02579   0.01815  -0.0378  0.1665  1.0000  -3.9428   0.0000   0.0000   0.0000   0.2691
   9.600   1.2527   0.02604   0.01847  -0.0374  0.1619  1.0000  -4.0335   0.0000   0.0000   0.0000   0.2685
   9.700   1.2595   0.02632   0.01878  -0.0370  0.1570  1.0000  -4.1241   0.0000   0.0000   0.0000   0.2678
   9.800   1.2659   0.02662   0.01909  -0.0365  0.1523  1.0000  -4.2142   0.0000   0.0000   0.0000   0.2671
   9.900   1.2718   0.02703   0.01945  -0.0360  0.1476  1.0000  -4.3013   0.0000   0.0000   0.0000   0.2664
  10.000   1.2774   0.02779   0.02012  -0.0355  0.1418  1.0000  -4.3825   0.0000   0.0000   0.0000   0.2658
  10.100   1.2843   0.02876   0.02109  -0.0351  0.1368  1.0000  -4.4641   0.0000   0.0000   0.0000   0.2652
  10.200   1.2907   0.02906   0.02150  -0.0346  0.1344  1.0000  -4.5521   0.0000   0.0000   0.0000   0.2645
  10.300   1.2969   0.02943   0.02196  -0.0341  0.1315  1.0000  -4.6387   0.0000   0.0000   0.0000   0.2638
  10.400   1.3030   0.02985   0.02245  -0.0335  0.1282  1.0000  -4.7247   0.0000   0.0000   0.0000   0.2631
  10.500   1.3088   0.03027   0.02293  -0.0330  0.1249  1.0000  -4.8105   0.0000   0.0000   0.0000   0.2625
  10.600   1.3143   0.03071   0.02339  -0.0324  0.1217  1.0000  -4.8960   0.0000   0.0000   0.0000   0.2618
  10.700   1.3195   0.03116   0.02386  -0.0319  0.1188  1.0000  -4.9805   0.0000   0.0000   0.0000   0.2611
  10.800   1.3243   0.03170   0.02439  -0.0313  0.1158  1.0000  -5.0630   0.0000   0.0000   0.0000   0.2604
  10.900   1.3291   0.03250   0.02515  -0.0307  0.1124  1.0000  -5.1409   0.0000   0.0000   0.0000   0.2598
  11.000   1.3358   0.03385   0.02664  -0.0305  0.1087  1.0000  -5.2058   0.0000   0.0000   0.0000   0.2593
  11.100   1.3411   0.03500   0.02787  -0.0301  0.1064  1.0000  -5.2704   0.0000   0.0000   0.0000   0.2588
  11.200   1.3454   0.03521   0.02817  -0.0294  0.1049  1.0000  -5.3512   0.0000   0.0000   0.0000   0.2580
  11.300   1.3484   0.03544   0.02849  -0.0286  0.1030  1.0000  -5.4274   0.0000   0.0000   0.0000   0.2573
  11.400   1.3505   0.03569   0.02881  -0.0277  0.1007  1.0000  -5.4994   0.0000   0.0000   0.0000   0.2564
  11.500   1.3519   0.03595   0.02912  -0.0268  0.0982  1.0000  -5.5696   0.0000   0.0000   0.0000   0.2555
  11.600   1.3531   0.03621   0.02940  -0.0259  0.0956  1.0000  -5.6406   0.0000   0.0000   0.0000   0.2547
  11.700   1.3540   0.03646   0.02967  -0.0251  0.0930  1.0000  -5.7118   0.0000   0.0000   0.0000   0.2539
  11.800   1.3544   0.03677   0.02998  -0.0244  0.0905  1.0000  -5.7813   0.0000   0.0000   0.0000   0.2532
  11.900   1.3543   0.03719   0.03038  -0.0237  0.0881  1.0000  -5.8469   0.0000   0.0000   0.0000   0.2525
  12.000   1.3540   0.03782   0.03096  -0.0230  0.0855  1.0000  -5.9084   0.0000   0.0000   0.0000   0.2518
  12.100   1.3549   0.03905   0.03214  -0.0225  0.0814  1.0000  -5.9635   0.0000   0.0000   0.0000   0.2513
  12.200   1.3556   0.03998   0.03311  -0.0219  0.0791  1.0000  -6.0192   0.0000   0.0000   0.0000   0.2507
  12.300   1.3555   0.04039   0.03361  -0.0214  0.0780  1.0000  -6.0814   0.0000   0.0000   0.0000   0.2501
  12.400   1.3557   0.04091   0.03421  -0.0210  0.0764  1.0000  -6.1440   0.0000   0.0000   0.0000   0.2497
  12.500   1.3559   0.04153   0.03491  -0.0207  0.0747  1.0000  -6.2046   0.0000   0.0000   0.0000   0.2492
  12.600   1.3563   0.04222   0.03566  -0.0204  0.0729  1.0000  -6.2641   0.0000   0.0000   0.0000   0.2488
  12.700   1.3565   0.04297   0.03648  -0.0201  0.0711  1.0000  -6.3212   0.0000   0.0000   0.0000   0.2484
  12.800   1.3564   0.04378   0.03734  -0.0199  0.0694  1.0000  -6.3764   0.0000   0.0000   0.0000   0.2481
  12.900   1.3563   0.04463   0.03824  -0.0197  0.0677  1.0000  -6.4303   0.0000   0.0000   0.0000   0.2477
  13.000   1.3559   0.04553   0.03918  -0.0195  0.0661  1.0000  -6.4825   0.0000   0.0000   0.0000   0.2474
  13.100   1.3548   0.04653   0.04021  -0.0195  0.0647  1.0000  -6.5293   0.0000   0.0000   0.0000   0.2472
  13.200   1.3532   0.04761   0.04131  -0.0194  0.0632  1.0000  -6.5723   0.0000   0.0000   0.0000   0.2470
  13.300   1.3512   0.04880   0.04251  -0.0194  0.0615  1.0000  -6.6094   0.0000   0.0000   0.0000   0.2468
  13.400   1.3485   0.05017   0.04388  -0.0193  0.0596  1.0000  -6.6361   0.0000   0.0000   0.0000   0.2466
  13.500   1.3453   0.05206   0.04577  -0.0187  0.0566  1.0000  -6.6382   0.0000   0.0000   0.0000   0.2460
  13.600   1.3436   0.05321   0.04699  -0.0189  0.0559  1.0000  -6.6742   0.0000   0.0000   0.0000   0.2460
  13.700   1.3418   0.05440   0.04829  -0.0192  0.0550  1.0000  -6.7085   0.0000   0.0000   0.0000   0.2460
  13.800   1.3397   0.05567   0.04966  -0.0195  0.0538  1.0000  -6.7383   0.0000   0.0000   0.0000   0.2461
  13.900   1.3368   0.05709   0.05118  -0.0200  0.0525  1.0000  -6.7597   0.0000   0.0000   0.0000   0.2462
  14.000   1.3337   0.05855   0.05272  -0.0204  0.0508  1.0000  -6.7774   0.0000   0.0000   0.0000   0.2464
  14.100   1.3302   0.06004   0.05427  -0.0209  0.0490  1.0000  -6.7920   0.0000   0.0000   0.0000   0.2466
  14.200   1.3260   0.06166   0.05594  -0.0215  0.0472  1.0000  -6.8006   0.0000   0.0000   0.0000   0.2469
  14.300   1.3214   0.06337   0.05768  -0.0222  0.0454  1.0000  -6.8069   0.0000   0.0000   0.0000   0.2473
  14.400   1.3165   0.06517   0.05951  -0.0231  0.0437  1.0000  -6.8109   0.0000   0.0000   0.0000   0.2478
  14.500   1.3105   0.06720   0.06154  -0.0240  0.0422  1.0000  -6.8032   0.0000   0.0000   0.0000   0.2483
  14.600   1.3030   0.06949   0.06382  -0.0249  0.0406  1.0000  -6.7779   0.0000   0.0000   0.0000   0.2489
  14.700   1.2919   0.07233   0.06664  -0.0254  0.0380  1.0000  -6.6975   0.0000   0.0000   0.0000   0.2493
  14.800   1.2840   0.07491   0.06928  -0.0262  0.0365  1.0000  -6.6408   0.0000   0.0000   0.0000   0.2499
  14.900   1.2786   0.07720   0.07168  -0.0274  0.0357  1.0000  -6.6214   0.0000   0.0000   0.0000   0.2507
  15.000   1.2729   0.07960   0.07418  -0.0287  0.0346  1.0000  -6.5942   0.0000   0.0000   0.0000   0.2516
  15.100   1.2673   0.08202   0.07668  -0.0299  0.0334  1.0000  -6.5633   0.0000   0.0000   0.0000   0.2525
  15.200   1.2614   0.08450   0.07924  -0.0312  0.0323  1.0000  -6.5297   0.0000   0.0000   0.0000   0.2534
  15.300   1.2552   0.08708   0.08188  -0.0325  0.0314  1.0000  -6.4949   0.0000   0.0000   0.0000   0.2544
  15.400   1.2495   0.08959   0.08445  -0.0338  0.0305  1.0000  -6.4632   0.0000   0.0000   0.0000   0.2554
  15.500   1.2441   0.09204   0.08696  -0.0351  0.0296  1.0000  -6.4343   0.0000   0.0000   0.0000   0.2563
  15.600   1.2387   0.09453   0.08950  -0.0364  0.0289  1.0000  -6.4057   0.0000   0.0000   0.0000   0.2573
  15.700   1.2327   0.09716   0.09219  -0.0379  0.0284  1.0000  -6.3735   0.0000   0.0000   0.0000   0.2585
  15.800   1.2271   0.09972   0.09480  -0.0393  0.0279  1.0000  -6.3433   0.0000   0.0000   0.0000   0.2596
  15.900   1.2219   0.10225   0.09738  -0.0407  0.0274  1.0000  -6.3144   0.0000   0.0000   0.0000   0.2607
  16.000   1.2165   0.10479   0.09998  -0.0421  0.0269  1.0000  -6.2840   0.0000   0.0000   0.0000   0.2619
  16.100   1.2101   0.10757   0.10281  -0.0438  0.0266  1.0000  -6.2444   0.0000   0.0000   0.0000   0.2632
  16.200   1.2039   0.11038   0.10569  -0.0454  0.0264  1.0000  -6.2027   0.0000   0.0000   0.0000   0.2647
  16.300   1.1978   0.11313   0.10849  -0.0471  0.0261  1.0000  -6.1617   0.0000   0.0000   0.0000   0.2660
  16.400   1.1917   0.11589   0.11131  -0.0487  0.0259  1.0000  -6.1180   0.0000   0.0000   0.0000   0.2675
  16.500   1.1850   0.11881   0.11429  -0.0505  0.0257  1.0000  -6.0659   0.0000   0.0000   0.0000   0.2691
  16.600   1.1772   0.12194   0.11750  -0.0525  0.0257  1.0000  -6.0009   0.0000   0.0000   0.0000   0.2710
  16.700   1.1695   0.12504   0.12067  -0.0545  0.0257  1.0000  -5.9341   0.0000   0.0000   0.0000   0.2729
  16.800   1.1613   0.12840   0.12410  -0.0567  0.0257  1.0000  -5.8576   0.0000   0.0000   0.0000   0.2749
  16.900   1.1435   0.13432   0.13019  -0.0605  0.0268  1.0000  -5.6695   0.0000   0.0000   0.0000   0.2791
  17.000   0.9818   0.18990   0.18576  -0.0877  0.0536  1.0000  -3.2926   0.0000   0.0000   0.0000   0.3192
  17.100   0.9781   0.19394   0.18979  -0.0899  0.0519  1.0000  -3.1929   0.0000   0.0000   0.0000   0.3218
  17.200   0.9754   0.19752   0.19337  -0.0917  0.0502  1.0000  -3.1154   0.0000   0.0000   0.0000   0.3239
  17.300   0.9736   0.20081   0.19665  -0.0932  0.0489  1.0000  -3.0515   0.0000   0.0000   0.0000   0.3256
  17.400   0.9725   0.20384   0.19968  -0.0945  0.0478  1.0000  -2.9981   0.0000   0.0000   0.0000   0.3270
  17.500   0.9723   0.20645   0.20230  -0.0957  0.0464  1.0000  -2.9624   0.0000   0.0000   0.0000   0.3281
  17.600   0.9742   0.20802   0.20388  -0.0964  0.0444  1.0000  -2.9712   0.0000   0.0000   0.0000   0.3284
  17.800   0.9934   0.20175   0.19768  -0.0933  0.0372  1.0000  -3.4262   0.0000   0.0000   0.0000   0.3222
  17.900   0.9897   0.20621   0.20210  -0.0954  0.0364  1.0000  -3.2980   0.0000   0.0000   0.0000   0.3247
  18.000   0.9867   0.21068   0.20655  -0.0974  0.0353  1.0000  -3.1618   0.0000   0.0000   0.0000   0.3271
  18.100   0.9832   0.21537   0.21123  -0.0993  0.0343  1.0000  -3.0151   0.0000   0.0000   0.0000   0.3294
  18.200   0.9803   0.21975   0.21559  -0.1009  0.0335  1.0000  -2.8868   0.0000   0.0000   0.0000   0.3315
  18.300   0.9781   0.22375   0.21959  -0.1024  0.0330  1.0000  -2.7789   0.0000   0.0000   0.0000   0.3332
  18.400   0.9765   0.22748   0.22331  -0.1037  0.0326  1.0000  -2.6869   0.0000   0.0000   0.0000   0.3347
  18.500   0.9754   0.23101   0.22683  -0.1049  0.0325  1.0000  -2.6070   0.0000   0.0000   0.0000   0.3360
  18.600   0.9745   0.23439   0.23020  -0.1060  0.0325  1.0000  -2.5366   0.0000   0.0000   0.0000   0.3371
  18.700   0.9738   0.23768   0.23350  -0.1070  0.0326  1.0000  -2.4721   0.0000   0.0000   0.0000   0.3382
  18.800   0.9734   0.24086   0.23667  -0.1080  0.0329  1.0000  -2.4151   0.0000   0.0000   0.0000   0.3392
  18.900   0.9732   0.24391   0.23972  -0.1089  0.0332  1.0000  -2.3658   0.0000   0.0000   0.0000   0.3401
  19.000   0.9733   0.24685   0.24266  -0.1097  0.0337  1.0000  -2.3243   0.0000   0.0000   0.0000   0.3407
  19.100   0.9737   0.24967   0.24549  -0.1103  0.0342  1.0000  -2.2914   0.0000   0.0000   0.0000   0.3412
  19.200   0.9742   0.25249   0.24832  -0.1108  0.0349  1.0000  -2.2653   0.0000   0.0000   0.0000   0.3415
  19.400   0.9718   0.26995   0.26582  -0.1111  0.0558  1.0000  -1.9318   0.0000   0.0000   0.0000   0.3426
  19.500   0.9722   0.27239   0.26827  -0.1119  0.0558  1.0000  -1.9116   0.0000   0.0000   0.0000   0.3433
  19.600   0.9726   0.27476   0.27064  -0.1127  0.0557  1.0000  -1.8918   0.0000   0.0000   0.0000   0.3440
  19.700   0.9729   0.27703   0.27291  -0.1136  0.0556  1.0000  -1.8720   0.0000   0.0000   0.0000   0.3447
  19.800   0.9727   0.27916   0.27505  -0.1145  0.0554  1.0000  -1.8499   0.0000   0.0000   0.0000   0.3455
  19.900   0.9715   0.28110   0.27699  -0.1157  0.0552  1.0000  -1.8209   0.0000   0.0000   0.0000   0.3467
  20.000   0.9689   0.28274   0.27863  -0.1171  0.0548  1.0000  -1.7816   0.0000   0.0000   0.0000   0.3485
  20.100   0.9652   0.28413   0.28000  -0.1192  0.0536  1.0000  -1.7253   0.0000   0.0000   0.0000   0.3510
  20.200   0.9635   0.28616   0.28204  -0.1207  0.0520  1.0000  -1.6848   0.0000   0.0000   0.0000   0.3527
  20.300   0.9630   0.28841   0.28430  -0.1217  0.0509  1.0000  -1.6617   0.0000   0.0000   0.0000   0.3537
  20.400   0.9627   0.29066   0.28655  -0.1224  0.0500  1.0000  -1.6442   0.0000   0.0000   0.0000   0.3544
  20.500   0.9624   0.29288   0.28878  -0.1231  0.0492  1.0000  -1.6297   0.0000   0.0000   0.0000   0.3550
  20.600   0.9620   0.29507   0.29098  -0.1237  0.0484  1.0000  -1.6168   0.0000   0.0000   0.0000   0.3556
  20.700   0.9616   0.29721   0.29313  -0.1243  0.0478  1.0000  -1.6052   0.0000   0.0000   0.0000   0.3561
  20.800   0.9610   0.29930   0.29523  -0.1248  0.0471  1.0000  -1.5945   0.0000   0.0000   0.0000   0.3566
  20.900   0.9603   0.30134   0.29728  -0.1253  0.0465  1.0000  -1.5844   0.0000   0.0000   0.0000   0.3570
  21.000   0.9594   0.30332   0.29928  -0.1257  0.0459  1.0000  -1.5748   0.0000   0.0000   0.0000   0.3575
  21.100   0.9582   0.30524   0.30120  -0.1261  0.0454  1.0000  -1.5654   0.0000   0.0000   0.0000   0.3579
  21.200   0.9568   0.30707   0.30305  -0.1264  0.0449  1.0000  -1.5561   0.0000   0.0000   0.0000   0.3583
  21.300   0.9550   0.30880   0.30480  -0.1266  0.0444  1.0000  -1.5466   0.0000   0.0000   0.0000   0.3587
  21.400   0.9527   0.31040   0.30641  -0.1268  0.0440  1.0000  -1.5366   0.0000   0.0000   0.0000   0.3591
  21.500   0.9498   0.31183   0.30786  -0.1269  0.0435  1.0000  -1.5257   0.0000   0.0000   0.0000   0.3596
  21.600   0.9231   0.30823   0.30435  -0.1242  0.0435  1.0000  -1.4568   0.0000   0.0000   0.0000   0.3608
  21.700   0.9093   0.30647   0.30263  -0.1230  0.0432  1.0000  -1.4198   0.0000   0.0000   0.0000   0.3616
  21.800   0.9015   0.30589   0.30209  -0.1224  0.0429  1.0000  -1.3982   0.0000   0.0000   0.0000   0.3622
  21.900   0.8956   0.30567   0.30189  -0.1221  0.0425  1.0000  -1.3819   0.0000   0.0000   0.0000   0.3627
  22.000   0.8910   0.30558   0.30192  -0.1218  0.0420  1.0000  -1.3630   0.0000   0.0000   0.0000   0.3630
  22.100   0.8870   0.30562   0.30198  -0.1216  0.0416  1.0000  -1.3526   0.0000   0.0000   0.0000   0.3634
  22.200   0.8835   0.30574   0.30213  -0.1215  0.0413  1.0000  -1.3445   0.0000   0.0000   0.0000   0.3637
  22.300   0.8804   0.30591   0.30231  -0.1214  0.0410  1.0000  -1.3384   0.0000   0.0000   0.0000   0.3640
  22.400   0.8778   0.30612   0.30254  -0.1213  0.0406  1.0000  -1.3343   0.0000   0.0000   0.0000   0.3642
  22.500   0.8754   0.30637   0.30281  -0.1212  0.0403  1.0000  -1.3320   0.0000   0.0000   0.0000   0.3644
  22.600   0.8734   0.30666   0.30312  -0.1212  0.0400  1.0000  -1.3317   0.0000   0.0000   0.0000   0.3645
  22.700   0.8717   0.30699   0.30347  -0.1211  0.0397  1.0000  -1.3334   0.0000   0.0000   0.0000   0.3645
  22.800   0.8703   0.30738   0.30388  -0.1209  0.0394  1.0000  -1.3372   0.0000   0.0000   0.0000   0.3645
  22.900   0.8693   0.30785   0.30437  -0.1208  0.0391  1.0000  -1.3436   0.0000   0.0000   0.0000   0.3644
  23.000   0.8687   0.30846   0.30500  -0.1206  0.0388  1.0000  -1.3528   0.0000   0.0000   0.0000   0.3641
  23.100   0.8686   0.30930   0.30587  -0.1204  0.0385  1.0000  -1.3654   0.0000   0.0000   0.0000   0.3637
  23.200   0.8696   0.31067   0.30726  -0.1200  0.0382  1.0000  -1.3831   0.0000   0.0000   0.0000   0.3630
  23.300   0.8728   0.31404   0.31065  -0.1195  0.0376  1.0000  -1.4073   0.0000   0.0000   0.0000   0.3617
  23.400   0.8669   0.31848   0.31506  -0.1195  0.0371  1.0000  -1.3415   0.0000   0.0000   0.0000   0.3628
  23.500   0.8649   0.31899   0.31558  -0.1198  0.0370  1.0000  -1.3274   0.0000   0.0000   0.0000   0.3634
  23.600   0.8631   0.31949   0.31609  -0.1201  0.0370  1.0000  -1.3136   0.0000   0.0000   0.0000   0.3639
  23.700   0.8613   0.31999   0.31661  -0.1204  0.0370  1.0000  -1.3002   0.0000   0.0000   0.0000   0.3645
  23.800   0.8596   0.32048   0.31711  -0.1208  0.0370  1.0000  -1.2870   0.0000   0.0000   0.0000   0.3651
  23.900   0.8578   0.32094   0.31759  -0.1211  0.0370  1.0000  -1.2738   0.0000   0.0000   0.0000   0.3656
  24.000   0.8562   0.32140   0.31806  -0.1214  0.0369  1.0000  -1.2609   0.0000   0.0000   0.0000   0.3662
  24.100   0.8546   0.32185   0.31852  -0.1218  0.0369  1.0000  -1.2483   0.0000   0.0000   0.0000   0.3668
  24.200   0.8531   0.32229   0.31897  -0.1221  0.0369  1.0000  -1.2359   0.0000   0.0000   0.0000   0.3673
  24.300   0.8516   0.32272   0.31942  -0.1225  0.0369  1.0000  -1.2237   0.0000   0.0000   0.0000   0.3679
  24.400   0.8501   0.32313   0.31984  -0.1229  0.0368  1.0000  -1.2115   0.0000   0.0000   0.0000   0.3685
  24.500   0.8486   0.32350   0.32023  -0.1232  0.0368  1.0000  -1.1993   0.0000   0.0000   0.0000   0.3690
  24.600   0.8472   0.32387   0.32061  -0.1236  0.0368  1.0000  -1.1872   0.0000   0.0000   0.0000   0.3696
  24.700   0.8455   0.32414   0.32089  -0.1240  0.0367  1.0000  -1.1736   0.0000   0.0000   0.0000   0.3703
  24.800   0.8435   0.32430   0.32106  -0.1245  0.0367  1.0000  -1.1579   0.0000   0.0000   0.0000   0.3711
  24.900   0.8416   0.32445   0.32122  -0.1250  0.0366  1.0000  -1.1425   0.0000   0.0000   0.0000   0.3718
  25.000   0.8398   0.32461   0.32140  -0.1254  0.0366  1.0000  -1.1272   0.0000   0.0000   0.0000   0.3726
  25.100   0.8381   0.32478   0.32157  -0.1259  0.0365  1.0000  -1.1120   0.0000   0.0000   0.0000   0.3734
  25.200   0.8364   0.32495   0.32175  -0.1264  0.0365  1.0000  -1.0970   0.0000   0.0000   0.0000   0.3741
  25.300   0.8349   0.32513   0.32195  -0.1269  0.0364  1.0000  -1.0819   0.0000   0.0000   0.0000   0.3749
  25.400   0.8334   0.32532   0.32215  -0.1275  0.0363  1.0000  -1.0668   0.0000   0.0000   0.0000   0.3757
  25.500   0.8320   0.32554   0.32238  -0.1281  0.0362  1.0000  -1.0516   0.0000   0.0000   0.0000   0.3765
  25.600   0.8308   0.32580   0.32264  -0.1287  0.0361  1.0000  -1.0362   0.0000   0.0000   0.0000   0.3773
  25.700   0.8297   0.32610   0.32296  -0.1293  0.0359  1.0000  -1.0205   0.0000   0.0000   0.0000   0.3782
  25.800   0.8287   0.32648   0.32335  -0.1300  0.0357  1.0000  -1.0045   0.0000   0.0000   0.0000   0.3790
  25.900   0.8281   0.32698   0.32385  -0.1307  0.0354  1.0000  -0.9885   0.0000   0.0000   0.0000   0.3799
  26.000   0.8276   0.32759   0.32448  -0.1314  0.0350  1.0000  -0.9731   0.0000   0.0000   0.0000   0.3806
  26.100   0.8273   0.32831   0.32520  -0.1320  0.0346  1.0000  -0.9591   0.0000   0.0000   0.0000   0.3813
  26.200   0.8271   0.32907   0.32597  -0.1326  0.0341  1.0000  -0.9473   0.0000   0.0000   0.0000   0.3820
  26.300   0.8269   0.32983   0.32675  -0.1331  0.0337  1.0000  -0.9375   0.0000   0.0000   0.0000   0.3825
  26.400   0.8268   0.33058   0.32752  -0.1336  0.0332  1.0000  -0.9293   0.0000   0.0000   0.0000   0.3829
  26.500   0.8266   0.33133   0.32827  -0.1341  0.0327  1.0000  -0.9221   0.0000   0.0000   0.0000   0.3834
  26.600   0.8264   0.33205   0.32901  -0.1345  0.0323  1.0000  -0.9159   0.0000   0.0000   0.0000   0.3838
  26.700   0.8262   0.33277   0.32974  -0.1349  0.0318  1.0000  -0.9103   0.0000   0.0000   0.0000   0.3842
  26.800   0.8260   0.33348   0.33046  -0.1354  0.0314  1.0000  -0.9052   0.0000   0.0000   0.0000   0.3845
  26.900   0.8258   0.33418   0.33117  -0.1358  0.0310  1.0000  -0.9006   0.0000   0.0000   0.0000   0.3849
  27.000   0.8256   0.33488   0.33188  -0.1362  0.0306  1.0000  -0.8965   0.0000   0.0000   0.0000   0.3852
  27.100   0.8254   0.33557   0.33258  -0.1366  0.0302  1.0000  -0.8926   0.0000   0.0000   0.0000   0.3856
  27.200   0.8252   0.33626   0.33328  -0.1370  0.0299  1.0000  -0.8891   0.0000   0.0000   0.0000   0.3859
  27.300   0.8251   0.33694   0.33398  -0.1374  0.0295  1.0000  -0.8859   0.0000   0.0000   0.0000   0.3863
  27.400   0.8249   0.33762   0.33467  -0.1378  0.0292  1.0000  -0.8830   0.0000   0.0000   0.0000   0.3866
  27.500   0.8248   0.33829   0.33535  -0.1381  0.0288  1.0000  -0.8804   0.0000   0.0000   0.0000   0.3869
  27.600   0.8247   0.33896   0.33604  -0.1385  0.0285  1.0000  -0.8780   0.0000   0.0000   0.0000   0.3872
  27.700   0.8246   0.33963   0.33672  -0.1389  0.0282  1.0000  -0.8760   0.0000   0.0000   0.0000   0.3875
  27.800   0.8245   0.34030   0.33739  -0.1393  0.0279  1.0000  -0.8742   0.0000   0.0000   0.0000   0.3878
  27.900   0.8244   0.34096   0.33807  -0.1397  0.0276  1.0000  -0.8728   0.0000   0.0000   0.0000   0.3881
  28.000   0.8243   0.34161   0.33873  -0.1401  0.0273  1.0000  -0.8716   0.0000   0.0000   0.0000   0.3884
  28.100   0.8242   0.34226   0.33940  -0.1405  0.0270  1.0000  -0.8708   0.0000   0.0000   0.0000   0.3887
  28.200   0.8242   0.34291   0.34005  -0.1408  0.0267  1.0000  -0.8703   0.0000   0.0000   0.0000   0.3889
  28.300   0.8241   0.34355   0.34071  -0.1412  0.0264  1.0000  -0.8702   0.0000   0.0000   0.0000   0.3892
  28.400   0.8240   0.34419   0.34135  -0.1416  0.0261  1.0000  -0.8705   0.0000   0.0000   0.0000   0.3894
  28.500   0.8240   0.34481   0.34199  -0.1420  0.0258  1.0000  -0.8712   0.0000   0.0000   0.0000   0.3897
  28.600   0.8240   0.34544   0.34263  -0.1423  0.0256  1.0000  -0.8724   0.0000   0.0000   0.0000   0.3899
  28.700   0.8239   0.34605   0.34325  -0.1427  0.0253  1.0000  -0.8801   0.0000   0.0000   0.0000   0.3902
  28.800   0.8239   0.34663   0.34385  -0.1430  0.0250  1.0000  -0.8923   0.0000   0.0000   0.0000   0.3903
  28.900   0.8240   0.34715   0.34438  -0.1433  0.0246  1.0000  -0.9075   0.0000   0.0000   0.0000   0.3905
  29.000   0.8243   0.34740   0.34472  -0.1435  0.0239  1.0000  -0.9313   0.0000   0.0000   0.0000   0.3903
  29.100   0.8249   0.34761   0.34494  -0.1434  0.0232  1.0000  -0.9678   0.0000   0.0000   0.0000   0.3897
  29.200   0.8264   0.34844   0.34579  -0.1427  0.0225  1.0000  -1.0257   0.0000   0.0000   0.0000   0.3883
  29.300   0.8287   0.35513   0.35245  -0.1418  0.0216  1.0000  -1.0433   0.0000   0.0000   0.0000   0.3867
  29.400   0.8272   0.35492   0.35226  -0.1424  0.0216  1.0000  -1.0340   0.0000   0.0000   0.0000   0.3875
  29.500   0.8262   0.35505   0.35239  -0.1429  0.0215  1.0000  -1.0266   0.0000   0.0000   0.0000   0.3882
  29.600   0.8250   0.35525   0.35260  -0.1435  0.0215  1.0000  -1.0168   0.0000   0.0000   0.0000   0.3889
  29.700   0.8239   0.35544   0.35280  -0.1440  0.0214  1.0000  -1.0051   0.0000   0.0000   0.0000   0.3896
  29.800   0.8229   0.35564   0.35300  -0.1446  0.0214  1.0000  -0.9914   0.0000   0.0000   0.0000   0.3903
  29.900   0.8218   0.35586   0.35323  -0.1452  0.0213  1.0000  -0.9759   0.0000   0.0000   0.0000   0.3911
  30.000   0.8209   0.35613   0.35350  -0.1458  0.0212  1.0000  -0.9587   0.0000   0.0000   0.0000   0.3919


