xflr5 v6.61

 Calculated polar for: S3010-103-84

 1 1 Reynolds number fixed          Mach number fixed         

 xtrf =   1.000 (top)        1.000 (bottom)
 Mach =   0.000     Re =     0.100 e 6     Ncrit =   9.000

  alpha     CL        CD       CDp       Cm    Top Xtr Bot Xtr   Cpmin    Chinge    XCp    
 ------- -------- --------- --------- -------- ------- ------- -------- --------- ---------
 -10.000  -0.4101   0.12030   0.11515  -0.0046  1.0000  0.0837  -1.2229   0.0000   0.0000   0.0000   0.2321
  -9.900  -0.4091   0.11927   0.11414  -0.0056  1.0000  0.0849  -1.2331   0.0000   0.0000   0.0000   0.2298
  -9.800  -0.4087   0.11840   0.11328  -0.0067  1.0000  0.0862  -1.2480   0.0000   0.0000   0.0000   0.2271
  -9.700  -0.4093   0.11780   0.11270  -0.0082  1.0000  0.0876  -1.2694   0.0000   0.0000   0.0000   0.2236
  -9.600  -0.4110   0.11757   0.11250  -0.0100  1.0000  0.0888  -1.2973   0.0000   0.0000   0.0000   0.2195
  -9.500  -0.4126   0.11754   0.11250  -0.0119  1.0000  0.0898  -1.3246   0.0000   0.0000   0.0000   0.2152
  -9.400  -0.4142   0.11733   0.11232  -0.0135  1.0000  0.0904  -1.3490   0.0000   0.0000   0.0000   0.2115
  -9.300  -0.4139   0.11684   0.11184  -0.0148  1.0000  0.0908  -1.3633   0.0000   0.0000   0.0000   0.2084
  -9.200  -0.4131   0.11610   0.11113  -0.0160  1.0000  0.0910  -1.3751   0.0000   0.0000   0.0000   0.2056
  -9.100  -0.4122   0.11520   0.11025  -0.0171  1.0000  0.0912  -1.3865   0.0000   0.0000   0.0000   0.2028
  -9.000  -0.4113   0.11418   0.10926  -0.0183  1.0000  0.0914  -1.3978   0.0000   0.0000   0.0000   0.2001
  -8.900  -0.4105   0.11309   0.10818  -0.0194  1.0000  0.0915  -1.4092   0.0000   0.0000   0.0000   0.1974
  -8.800  -0.4098   0.11193   0.10704  -0.0205  1.0000  0.0916  -1.4210   0.0000   0.0000   0.0000   0.1947
  -8.700  -0.4092   0.11071   0.10585  -0.0216  1.0000  0.0917  -1.4332   0.0000   0.0000   0.0000   0.1919
  -8.600  -0.4087   0.10944   0.10460  -0.0228  1.0000  0.0917  -1.4460   0.0000   0.0000   0.0000   0.1890
  -8.500  -0.4130   0.10118   0.09641  -0.0223  1.0000  0.0942  -1.4817   0.0000   0.0000   0.0000   0.1909
  -8.400  -0.4033   0.09872   0.09394  -0.0205  1.0000  0.0956  -1.4310   0.0000   0.0000   0.0000   0.1938
  -8.300  -0.3960   0.09702   0.09224  -0.0196  1.0000  0.0967  -1.3942   0.0000   0.0000   0.0000   0.1952
  -8.200  -0.3893   0.09556   0.09078  -0.0189  1.0000  0.0979  -1.3629   0.0000   0.0000   0.0000   0.1961
  -8.100  -0.3839   0.09423   0.08946  -0.0186  1.0000  0.0990  -1.3396   0.0000   0.0000   0.0000   0.1963
  -8.000  -0.3793   0.09297   0.08821  -0.0184  1.0000  0.1002  -1.3212   0.0000   0.0000   0.0000   0.1961
  -7.900  -0.3753   0.09174   0.08700  -0.0185  1.0000  0.1014  -1.3067   0.0000   0.0000   0.0000   0.1956
  -7.800  -0.3719   0.09053   0.08581  -0.0186  1.0000  0.1027  -1.2961   0.0000   0.0000   0.0000   0.1947
  -7.700  -0.3690   0.08934   0.08464  -0.0189  1.0000  0.1040  -1.2886   0.0000   0.0000   0.0000   0.1936
  -7.600  -0.3667   0.08815   0.08347  -0.0193  1.0000  0.1054  -1.2840   0.0000   0.0000   0.0000   0.1923
  -7.500  -0.3648   0.08697   0.08231  -0.0198  1.0000  0.1069  -1.2820   0.0000   0.0000   0.0000   0.1907
  -7.400  -0.3633   0.08579   0.08116  -0.0204  1.0000  0.1084  -1.2825   0.0000   0.0000   0.0000   0.1890
  -7.300  -0.3624   0.08462   0.08002  -0.0211  1.0000  0.1100  -1.2857   0.0000   0.0000   0.0000   0.1870
  -7.200  -0.3622   0.08348   0.07891  -0.0219  1.0000  0.1116  -1.2920   0.0000   0.0000   0.0000   0.1849
  -7.100  -0.3629   0.08237   0.07783  -0.0228  1.0000  0.1133  -1.3019   0.0000   0.0000   0.0000   0.1826
  -7.000  -0.3647   0.08131   0.07682  -0.0240  1.0000  0.1151  -1.3169   0.0000   0.0000   0.0000   0.1798
  -6.900  -0.3664   0.08023   0.07578  -0.0262  1.0000  0.1173  -1.3393   0.0000   0.0000   0.0000   0.1742
  -6.800  -0.3699   0.07966   0.07523  -0.0322  1.0000  0.1210  -1.3979   0.0000   0.0000   0.0000   0.1590
  -6.700  -0.3709   0.08064   0.07615  -0.0369  1.0000  0.1234  -1.4455   0.0000   0.0000   0.0000   0.1466
  -6.600  -0.3711   0.08015   0.07564  -0.0379  1.0000  0.1239  -1.4604   0.0000   0.0000   0.0000   0.1440
  -6.500  -0.3720   0.07944   0.07491  -0.0383  1.0000  0.1241  -1.4717   0.0000   0.0000   0.0000   0.1433
  -6.400  -0.3736   0.07868   0.07415  -0.0382  1.0000  0.1243  -1.4812   0.0000   0.0000   0.0000   0.1440
  -6.300  -0.3916   0.07195   0.06754  -0.0390  1.0000  0.1268  -1.5534   0.0000   0.0000   0.0000   0.1468
  -6.200  -0.3930   0.06980   0.06545  -0.0378  1.0000  0.1281  -1.5426   0.0000   0.0000   0.0000   0.1503
  -6.100  -0.3916   0.06850   0.06421  -0.0362  1.0000  0.1291  -1.5195   0.0000   0.0000   0.0000   0.1542
  -6.000  -0.3913   0.06751   0.06327  -0.0346  1.0000  0.1300  -1.5005   0.0000   0.0000   0.0000   0.1581
  -5.900  -0.3917   0.06667   0.06246  -0.0332  1.0000  0.1309  -1.4851   0.0000   0.0000   0.0000   0.1620
  -5.800  -0.3928   0.06589   0.06172  -0.0318  1.0000  0.1318  -1.4726   0.0000   0.0000   0.0000   0.1658
  -5.700  -0.3942   0.06515   0.06101  -0.0306  1.0000  0.1328  -1.4624   0.0000   0.0000   0.0000   0.1693
  -5.600  -0.3956   0.06441   0.06029  -0.0295  1.0000  0.1338  -1.4539   0.0000   0.0000   0.0000   0.1724
  -5.500  -0.3970   0.06367   0.05957  -0.0285  1.0000  0.1348  -1.4464   0.0000   0.0000   0.0000   0.1753
  -5.400  -0.3981   0.06292   0.05884  -0.0276  1.0000  0.1360  -1.4393   0.0000   0.0000   0.0000   0.1778
  -5.300  -0.3990   0.06214   0.05807  -0.0269  1.0000  0.1372  -1.4335   0.0000   0.0000   0.0000   0.1799
  -5.200  -0.3997   0.06132   0.05726  -0.0263  1.0000  0.1385  -1.4288   0.0000   0.0000   0.0000   0.1815
  -4.600  -0.3398   0.03934   0.03336  -0.0446  0.9912  0.0666  -2.0161   0.0000   0.0000   0.0000   0.1148
  -4.500  -0.3211   0.03810   0.03211  -0.0458  0.9886  0.0603  -1.9933   0.0000   0.0000   0.0000   0.1032
  -4.400  -0.3058   0.03536   0.02914  -0.0478  0.9860  0.0574  -2.0130   0.0000   0.0000   0.0000   0.0892
  -4.300  -0.2907   0.03316   0.02668  -0.0493  0.9825  0.0547  -2.0313   0.0000   0.0000   0.0000   0.0757
  -4.200  -0.2741   0.03106   0.02425  -0.0508  0.9793  0.0520  -2.0556   0.0000   0.0000   0.0000   0.0598
  -4.100  -0.2563   0.02907   0.02188  -0.0522  0.9766  0.0494  -2.0857   0.0000   0.0000   0.0000   0.0411
  -4.000  -0.2378   0.02740   0.01986  -0.0535  0.9742  0.0473  -2.1035   0.0000   0.0000   0.0000   0.0194
  -3.900  -0.2186   0.02611   0.01828  -0.0548  0.9722  0.0458  -2.1024   0.0000   0.0000   0.0000  -0.0067
  -3.800  -0.2026   0.02519   0.01715  -0.0556  0.9691  0.0449  -2.0862   0.0000   0.0000   0.0000  -0.0307
  -3.700  -0.1882   0.02443   0.01625  -0.0561  0.9652  0.0444  -2.0622   0.0000   0.0000   0.0000  -0.0546
  -3.600  -0.1721   0.02369   0.01538  -0.0569  0.9616  0.0440  -2.0309   0.0000   0.0000   0.0000  -0.0877
  -3.500  -0.1547   0.02293   0.01451  -0.0579  0.9583  0.0439  -1.9953   0.0000   0.0000   0.0000  -0.1323
  -3.400  -0.1361   0.02216   0.01365  -0.0592  0.9554  0.0441  -1.9566   0.0000   0.0000   0.0000  -0.1931
  -3.300  -0.1167   0.02140   0.01282  -0.0606  0.9529  0.0446  -1.9150   0.0000   0.0000   0.0000  -0.2787
  -3.200  -0.0962   0.02068   0.01205  -0.0622  0.9506  0.0455  -1.8691   0.0000   0.0000   0.0000  -0.4070
  -3.100  -0.0820   0.02018   0.01151  -0.0627  0.9463  0.0466  -1.8292   0.0000   0.0000   0.0000  -0.5263
  -3.000  -0.0692   0.01977   0.01105  -0.0629  0.9409  0.0479  -1.7872   0.0000   0.0000   0.0000  -0.6727
  -2.900  -0.0530   0.01942   0.01061  -0.0638  0.9365  0.0486  -1.7181   0.0000   0.0000   0.0000  -0.9719
  -2.800  -0.0347   0.01903   0.00995  -0.0649  0.9328  0.0492  -1.6425   0.0000   0.0000   0.0000  -1.6480
  -2.700  -0.0157   0.01862   0.00948  -0.0662  0.9296  0.0540  -1.5988   0.0000   0.0000   0.0000  -4.0163
  -2.600   0.0034   0.01822   0.00898  -0.0674  0.9267  0.0632  -1.5712   0.0000   0.0000   0.0000  20.5282
  -2.500   0.0193   0.01683   0.00845  -0.0686  0.9245  0.2126  -1.5954   0.0000   0.0000   0.0000   3.8379
  -2.400   0.0322   0.01631   0.00845  -0.0692  0.9208  0.3231  -1.5414   0.0000   0.0000   0.0000   2.4185
  -2.300   0.0382   0.01600   0.00854  -0.0684  0.9143  0.4070  -1.4943   0.0000   0.0000   0.0000   2.0599
  -2.200   0.0480   0.01570   0.00863  -0.0681  0.9090  0.4932  -1.4315   0.0000   0.0000   0.0000   1.6811
  -2.100   0.0606   0.01553   0.00864  -0.0681  0.9043  0.5447  -1.3591   0.0000   0.0000   0.0000   1.3843
  -2.000   0.0737   0.01534   0.00866  -0.0680  0.9002  0.6050  -1.2825   0.0000   0.0000   0.0000   1.1808
  -1.900   0.0845   0.01510   0.00877  -0.0670  0.8965  0.6898  -1.2102   0.0000   0.0000   0.0000   1.0499
  -1.800   0.0940   0.01493   0.00890  -0.0654  0.8932  0.7744  -1.1409   0.0000   0.0000   0.0000   0.9509
  -1.700   0.1023   0.01485   0.00901  -0.0634  0.8894  0.8472  -1.0762   0.0000   0.0000   0.0000   0.8746
  -1.600   0.1172   0.01476   0.00903  -0.0628  0.8845  0.9156  -0.9918   0.0000   0.0000   0.0000   0.7897
  -1.500   0.1540   0.01458   0.00878  -0.0668  0.8819  0.9623  -0.8742   0.0000   0.0000   0.0000   0.6864
  -1.400   0.1906   0.01438   0.00848  -0.0714  0.8787  0.9881  -0.7756   0.0000   0.0000   0.0000   0.6264
  -1.300   0.2146   0.01427   0.00826  -0.0740  0.8739  1.0000  -0.7067   0.0000   0.0000   0.0000   0.5960
  -1.200   0.2232   0.01427   0.00819  -0.0736  0.8677  1.0000  -0.6701   0.0000   0.0000   0.0000   0.5810
  -1.100   0.2333   0.01426   0.00810  -0.0734  0.8625  1.0000  -0.6303   0.0000   0.0000   0.0000   0.5655
  -1.000   0.2440   0.01427   0.00803  -0.0732  0.8580  1.0000  -0.5899   0.0000   0.0000   0.0000   0.5507
  -0.900   0.2525   0.01435   0.00804  -0.0727  0.8530  1.0000  -0.5617   0.0000   0.0000   0.0000   0.5385
  -0.800   0.2575   0.01445   0.00810  -0.0719  0.8454  1.0000  -0.5679   0.0000   0.0000   0.0000   0.5295
  -0.700   0.2649   0.01451   0.00810  -0.0713  0.8384  1.0000  -0.5758   0.0000   0.0000   0.0000   0.5192
  -0.600   0.2739   0.01453   0.00806  -0.0708  0.8322  1.0000  -0.5851   0.0000   0.0000   0.0000   0.5083
  -0.500   0.2838   0.01452   0.00798  -0.0703  0.8268  1.0000  -0.5951   0.0000   0.0000   0.0000   0.4975
  -0.400   0.2940   0.01451   0.00790  -0.0698  0.8219  1.0000  -0.6055   0.0000   0.0000   0.0000   0.4870
  -0.300   0.3040   0.01453   0.00785  -0.0692  0.8174  1.0000  -0.6158   0.0000   0.0000   0.0000   0.4771
  -0.200   0.3124   0.01463   0.00790  -0.0687  0.8115  1.0000  -0.6246   0.0000   0.0000   0.0000   0.4692
  -0.100   0.3204   0.01470   0.00794  -0.0682  0.8042  1.0000  -0.6329   0.0000   0.0000   0.0000   0.4621
   0.000   0.3293   0.01475   0.00795  -0.0677  0.7975  1.0000  -0.6435   0.0000   0.0000   0.0000   0.4548
   0.100   0.3389   0.01477   0.00792  -0.0672  0.7916  1.0000  -0.6548   0.0000   0.0000   0.0000   0.4475
   0.200   0.3489   0.01477   0.00787  -0.0668  0.7864  1.0000  -0.6666   0.0000   0.0000   0.0000   0.4403
   0.300   0.3591   0.01477   0.00782  -0.0663  0.7817  1.0000  -0.6786   0.0000   0.0000   0.0000   0.4334
   0.400   0.3692   0.01479   0.00783  -0.0657  0.7773  1.0000  -0.6908   0.0000   0.0000   0.0000   0.4267
   0.500   0.3792   0.01490   0.00785  -0.0651  0.7727  1.0000  -0.7028   0.0000   0.0000   0.0000   0.4204
   0.600   0.3882   0.01498   0.00793  -0.0650  0.7663  1.0000  -0.7133   0.0000   0.0000   0.0000   0.4158
   0.700   0.3975   0.01505   0.00797  -0.0647  0.7593  1.0000  -0.7243   0.0000   0.0000   0.0000   0.4111
   0.800   0.4072   0.01508   0.00797  -0.0643  0.7528  1.0000  -0.7358   0.0000   0.0000   0.0000   0.4061
   0.900   0.4171   0.01508   0.00792  -0.0638  0.7467  1.0000  -0.7478   0.0000   0.0000   0.0000   0.4011
   1.000   0.4273   0.01506   0.00784  -0.0633  0.7412  1.0000  -0.7601   0.0000   0.0000   0.0000   0.3962
   1.100   0.4375   0.01505   0.00776  -0.0627  0.7362  1.0000  -0.7726   0.0000   0.0000   0.0000   0.3914
   1.200   0.4477   0.01508   0.00772  -0.0622  0.7315  1.0000  -0.7852   0.0000   0.0000   0.0000   0.3868
   1.300   0.4578   0.01522   0.00779  -0.0618  0.7263  1.0000  -0.7993   0.0000   0.0000   0.0000   0.3828
   1.400   0.4675   0.01531   0.00790  -0.0617  0.7203  1.0000  -0.8125   0.0000   0.0000   0.0000   0.3797
   1.500   0.4774   0.01540   0.00798  -0.0615  0.7139  1.0000  -0.8260   0.0000   0.0000   0.0000   0.3765
   1.600   0.4875   0.01545   0.00801  -0.0612  0.7076  1.0000  -0.8400   0.0000   0.0000   0.0000   0.3732
   1.700   0.4977   0.01547   0.00800  -0.0609  0.7017  1.0000  -0.8544   0.0000   0.0000   0.0000   0.3698
   1.800   0.5081   0.01547   0.00795  -0.0604  0.6961  1.0000  -0.8691   0.0000   0.0000   0.0000   0.3664
   1.900   0.5185   0.01546   0.00788  -0.0599  0.6908  1.0000  -0.8841   0.0000   0.0000   0.0000   0.3630
   2.000   0.5289   0.01549   0.00784  -0.0594  0.6857  1.0000  -0.8991   0.0000   0.0000   0.0000   0.3597
   2.100   0.5392   0.01565   0.00791  -0.0590  0.6799  1.0000  -0.9140   0.0000   0.0000   0.0000   0.3566
   2.200   0.5491   0.01572   0.00801  -0.0589  0.6739  1.0000  -0.9287   0.0000   0.0000   0.0000   0.3543
   2.300   0.5590   0.01579   0.00809  -0.0587  0.6672  1.0000  -0.9452   0.0000   0.0000   0.0000   0.3520
   2.400   0.5692   0.01584   0.00813  -0.0584  0.6606  1.0000  -0.9623   0.0000   0.0000   0.0000   0.3496
   2.500   0.5796   0.01587   0.00814  -0.0581  0.6545  1.0000  -0.9797   0.0000   0.0000   0.0000   0.3471
   2.600   0.5901   0.01589   0.00812  -0.0578  0.6488  1.0000  -0.9975   0.0000   0.0000   0.0000   0.3447
   2.700   0.6006   0.01590   0.00809  -0.0574  0.6434  1.0000  -1.0156   0.0000   0.0000   0.0000   0.3422
   2.800   0.6112   0.01595   0.00806  -0.0570  0.6381  1.0000  -1.0338   0.0000   0.0000   0.0000   0.3398
   2.900   0.6217   0.01615   0.00818  -0.0566  0.6319  1.0000  -1.0518   0.0000   0.0000   0.0000   0.3375
   3.000   0.6317   0.01623   0.00829  -0.0565  0.6261  1.0000  -1.0686   0.0000   0.0000   0.0000   0.3358
   3.100   0.6417   0.01629   0.00838  -0.0563  0.6194  1.0000  -1.0856   0.0000   0.0000   0.0000   0.3341
   3.200   0.6519   0.01635   0.00844  -0.0560  0.6125  1.0000  -1.1032   0.0000   0.0000   0.0000   0.3322
   3.300   0.6623   0.01638   0.00845  -0.0557  0.6059  1.0000  -1.1239   0.0000   0.0000   0.0000   0.3303
   3.400   0.6728   0.01639   0.00843  -0.0554  0.5998  1.0000  -1.1457   0.0000   0.0000   0.0000   0.3284
   3.500   0.6833   0.01642   0.00841  -0.0550  0.5942  1.0000  -1.1677   0.0000   0.0000   0.0000   0.3265
   3.600   0.6940   0.01651   0.00843  -0.0547  0.5886  1.0000  -1.1898   0.0000   0.0000   0.0000   0.3247
   3.700   0.7046   0.01679   0.00863  -0.0545  0.5821  1.0000  -1.2116   0.0000   0.0000   0.0000   0.3231
   3.800   0.7145   0.01688   0.00877  -0.0543  0.5769  1.0000  -1.2321   0.0000   0.0000   0.0000   0.3218
   3.900   0.7246   0.01697   0.00902  -0.0542  0.5706  1.0000  -1.2532   0.0000   0.0000   0.0000   0.3204
   4.000   0.7348   0.01704   0.00910  -0.0540  0.5640  1.0000  -1.2747   0.0000   0.0000   0.0000   0.3190
   4.100   0.7452   0.01708   0.00913  -0.0537  0.5573  1.0000  -1.2967   0.0000   0.0000   0.0000   0.3175
   4.200   0.7556   0.01710   0.00912  -0.0534  0.5508  1.0000  -1.3192   0.0000   0.0000   0.0000   0.3160
   4.300   0.7661   0.01713   0.00909  -0.0530  0.5446  1.0000  -1.3420   0.0000   0.0000   0.0000   0.3144
   4.400   0.7767   0.01723   0.00910  -0.0527  0.5381  1.0000  -1.3649   0.0000   0.0000   0.0000   0.3130
   4.500   0.7870   0.01752   0.00931  -0.0525  0.5309  1.0000  -1.3876   0.0000   0.0000   0.0000   0.3117
   4.600   0.7968   0.01759   0.00945  -0.0523  0.5251  1.0000  -1.4135   0.0000   0.0000   0.0000   0.3106
   4.700   0.8068   0.01769   0.00959  -0.0521  0.5185  1.0000  -1.4399   0.0000   0.0000   0.0000   0.3094
   4.800   0.8169   0.01778   0.00969  -0.0519  0.5116  1.0000  -1.4669   0.0000   0.0000   0.0000   0.3082
   4.900   0.8273   0.01784   0.00974  -0.0516  0.5048  1.0000  -1.4947   0.0000   0.0000   0.0000   0.3070
   5.000   0.8376   0.01789   0.00975  -0.0513  0.4983  1.0000  -1.5230   0.0000   0.0000   0.0000   0.3058
   5.100   0.8480   0.01798   0.00976  -0.0510  0.4916  1.0000  -1.5535   0.0000   0.0000   0.0000   0.3045
   5.200   0.8585   0.01828   0.00993  -0.0507  0.4837  1.0000  -1.5880   0.0000   0.0000   0.0000   0.3034
   5.300   0.8682   0.01842   0.01012  -0.0505  0.4775  1.0000  -1.6206   0.0000   0.0000   0.0000   0.3024
   5.400   0.8778   0.01850   0.01026  -0.0503  0.4706  1.0000  -1.6535   0.0000   0.0000   0.0000   0.3014
   5.500   0.8877   0.01858   0.01037  -0.0500  0.4631  1.0000  -1.6873   0.0000   0.0000   0.0000   0.3004
   5.600   0.8978   0.01865   0.01043  -0.0497  0.4558  1.0000  -1.7219   0.0000   0.0000   0.0000   0.2993
   5.700   0.9079   0.01873   0.01047  -0.0494  0.4490  1.0000  -1.7570   0.0000   0.0000   0.0000   0.2982
   5.800   0.9182   0.01887   0.01053  -0.0491  0.4423  1.0000  -1.7926   0.0000   0.0000   0.0000   0.2972
   5.900   0.9285   0.01926   0.01080  -0.0489  0.4342  1.0000  -1.8276   0.0000   0.0000   0.0000   0.2963
   6.000   0.9380   0.01944   0.01104  -0.0487  0.4283  1.0000  -1.8607   0.0000   0.0000   0.0000   0.2954
   6.100   0.9475   0.01954   0.01122  -0.0485  0.4215  1.0000  -1.8942   0.0000   0.0000   0.0000   0.2945
   6.200   0.9572   0.01964   0.01135  -0.0482  0.4139  1.0000  -1.9286   0.0000   0.0000   0.0000   0.2936
   6.300   0.9670   0.01972   0.01142  -0.0479  0.4063  1.0000  -1.9640   0.0000   0.0000   0.0000   0.2927
   6.400   0.9768   0.01980   0.01145  -0.0476  0.3990  1.0000  -2.0002   0.0000   0.0000   0.0000   0.2917
   6.500   0.9867   0.02000   0.01153  -0.0473  0.3912  1.0000  -2.0366   0.0000   0.0000   0.0000   0.2908
   6.600   0.9965   0.02044   0.01189  -0.0471  0.3828  1.0000  -2.0710   0.0000   0.0000   0.0000   0.2900
   6.700   1.0056   0.02054   0.01209  -0.0468  0.3767  1.0000  -2.1047   0.0000   0.0000   0.0000   0.2892
   6.800   1.0149   0.02068   0.01229  -0.0465  0.3696  1.0000  -2.1388   0.0000   0.0000   0.0000   0.2884
   6.900   1.0244   0.02083   0.01246  -0.0462  0.3624  1.0000  -2.1737   0.0000   0.0000   0.0000   0.2875
   7.000   1.0339   0.02096   0.01258  -0.0459  0.3554  1.0000  -2.2094   0.0000   0.0000   0.0000   0.2867
   7.100   1.0435   0.02115   0.01269  -0.0456  0.3483  1.0000  -2.2457   0.0000   0.0000   0.0000   0.2859
   7.200   1.0532   0.02164   0.01303  -0.0454  0.3394  1.0000  -2.2811   0.0000   0.0000   0.0000   0.2851
   7.300   1.0621   0.02190   0.01335  -0.0451  0.3332  1.0000  -2.3143   0.0000   0.0000   0.0000   0.2844
   7.400   1.0709   0.02203   0.01357  -0.0448  0.3265  1.0000  -2.3611   0.0000   0.0000   0.0000   0.2836
   7.500   1.0798   0.02216   0.01374  -0.0445  0.3189  1.0000  -2.4211   0.0000   0.0000   0.0000   0.2828
   7.600   1.0885   0.02230   0.01428  -0.0440  0.3094  1.0000  -2.4563   0.0000   0.0000   0.0000   0.2819
   7.700   1.0974   0.02253   0.01443  -0.0436  0.3015  1.0000  -2.5079   0.0000   0.0000   0.0000   0.2811
   7.800   1.1066   0.02324   0.01500  -0.0434  0.2920  1.0000  -2.5551   0.0000   0.0000   0.0000   0.2805
   7.900   1.1150   0.02341   0.01531  -0.0431  0.2870  1.0000  -2.6001   0.0000   0.0000   0.0000   0.2797
   8.000   1.1234   0.02364   0.01563  -0.0427  0.2806  1.0000  -2.6450   0.0000   0.0000   0.0000   0.2790
   8.100   1.1320   0.02386   0.01590  -0.0424  0.2736  1.0000  -2.7000   0.0000   0.0000   0.0000   0.2783
   8.200   1.1405   0.02406   0.01610  -0.0420  0.2668  1.0000  -2.7587   0.0000   0.0000   0.0000   0.2775
   8.300   1.1489   0.02434   0.01631  -0.0416  0.2598  1.0000  -2.8187   0.0000   0.0000   0.0000   0.2768
   8.400   1.1578   0.02524   0.01704  -0.0414  0.2499  1.0000  -2.8951   0.0000   0.0000   0.0000   0.2762
   8.500   1.1654   0.02540   0.01732  -0.0410  0.2453  1.0000  -2.9783   0.0000   0.0000   0.0000   0.2755
   8.600   1.1730   0.02560   0.01762  -0.0406  0.2391  1.0000  -3.0627   0.0000   0.0000   0.0000   0.2747
   8.700   1.1808   0.02581   0.01787  -0.0402  0.2323  1.0000  -3.1496   0.0000   0.0000   0.0000   0.2740
   8.800   1.1885   0.02602   0.01808  -0.0398  0.2258  1.0000  -3.2383   0.0000   0.0000   0.0000   0.2733
   8.900   1.1961   0.02633   0.01833  -0.0393  0.2194  1.0000  -3.3273   0.0000   0.0000   0.0000   0.2726
   9.000   1.2045   0.02723   0.01908  -0.0391  0.2112  1.0000  -3.4145   0.0000   0.0000   0.0000   0.2720
   9.100   1.2119   0.02775   0.01969  -0.0387  0.2065  1.0000  -3.4967   0.0000   0.0000   0.0000   0.2714
   9.200   1.2190   0.02808   0.02013  -0.0382  0.2020  1.0000  -3.5797   0.0000   0.0000   0.0000   0.2707
   9.300   1.2262   0.02844   0.02058  -0.0378  0.1967  1.0000  -3.6640   0.0000   0.0000   0.0000   0.2700
   9.400   1.2335   0.02879   0.02097  -0.0373  0.1913  1.0000  -3.7506   0.0000   0.0000   0.0000   0.2693
   9.500   1.2407   0.02914   0.02131  -0.0369  0.1862  1.0000  -3.8389   0.0000   0.0000   0.0000   0.2686
   9.600   1.2477   0.02957   0.02170  -0.0365  0.1811  1.0000  -3.9277   0.0000   0.0000   0.0000   0.2679
   9.700   1.2557   0.03077   0.02277  -0.0363  0.1737  1.0000  -4.0134   0.0000   0.0000   0.0000   0.2674
   9.800   1.2619   0.03144   0.02352  -0.0358  0.1697  1.0000  -4.0911   0.0000   0.0000   0.0000   0.2668
   9.900   1.2676   0.03175   0.02396  -0.0352  0.1661  1.0000  -4.1713   0.0000   0.0000   0.0000   0.2661
  10.000   1.2734   0.03211   0.02441  -0.0346  0.1617  1.0000  -4.2528   0.0000   0.0000   0.0000   0.2653
  10.100   1.2794   0.03244   0.02479  -0.0341  0.1570  1.0000  -4.3376   0.0000   0.0000   0.0000   0.2646
  10.200   1.2854   0.03275   0.02510  -0.0336  0.1525  1.0000  -4.4256   0.0000   0.0000   0.0000   0.2639
  10.300   1.2912   0.03309   0.02542  -0.0331  0.1483  1.0000  -4.5140   0.0000   0.0000   0.0000   0.2633
  10.400   1.2973   0.03371   0.02597  -0.0326  0.1439  1.0000  -4.6017   0.0000   0.0000   0.0000   0.2627
  10.500   1.3040   0.03574   0.02794  -0.0325  0.1377  1.0000  -4.6695   0.0000   0.0000   0.0000   0.2623
  10.600   1.3091   0.03612   0.02846  -0.0319  0.1359  1.0000  -4.7468   0.0000   0.0000   0.0000   0.2616
  10.700   1.3137   0.03664   0.02910  -0.0312  0.1337  1.0000  -4.8197   0.0000   0.0000   0.0000   0.2609
  10.800   1.3179   0.03724   0.02983  -0.0306  0.1312  1.0000  -4.8899   0.0000   0.0000   0.0000   0.2602
  10.900   1.3221   0.03789   0.03058  -0.0299  0.1284  1.0000  -4.9600   0.0000   0.0000   0.0000   0.2594
  11.000   1.3264   0.03854   0.03131  -0.0293  0.1256  1.0000  -5.0314   0.0000   0.0000   0.0000   0.2588
  11.100   1.3307   0.03918   0.03201  -0.0287  0.1229  1.0000  -5.1039   0.0000   0.0000   0.0000   0.2581
  11.200   1.3357   0.03976   0.03282  -0.0282  0.1212  1.0000  -5.1636   0.0000   0.0000   0.0000   0.2574
  11.300   1.3402   0.04035   0.03344  -0.0276  0.1188  1.0000  -5.2371   0.0000   0.0000   0.0000   0.2568
  11.400   1.3449   0.04096   0.03406  -0.0271  0.1165  1.0000  -5.3141   0.0000   0.0000   0.0000   0.2562
  11.500   1.3496   0.04168   0.03479  -0.0266  0.1141  1.0000  -5.3914   0.0000   0.0000   0.0000   0.2556
  11.600   1.3536   0.04282   0.03593  -0.0261  0.1115  1.0000  -5.4582   0.0000   0.0000   0.0000   0.2550
  11.700   1.3547   0.04498   0.03818  -0.0257  0.1087  1.0000  -5.4897   0.0000   0.0000   0.0000   0.2545
  11.800   1.3501   0.04758   0.04094  -0.0249  0.1069  1.0000  -5.4798   0.0000   0.0000   0.0000   0.2540
  11.900   1.3497   0.04816   0.04163  -0.0240  0.1061  1.0000  -5.5240   0.0000   0.0000   0.0000   0.2531
  12.000   1.3482   0.04873   0.04231  -0.0229  0.1051  1.0000  -5.5627   0.0000   0.0000   0.0000   0.2522
  12.100   1.3462   0.04933   0.04301  -0.0219  0.1038  1.0000  -5.5991   0.0000   0.0000   0.0000   0.2513
  12.200   1.3439   0.04995   0.04372  -0.0209  0.1023  1.0000  -5.6350   0.0000   0.0000   0.0000   0.2505
  12.300   1.3418   0.05054   0.04439  -0.0201  0.1005  1.0000  -5.6741   0.0000   0.0000   0.0000   0.2497
  12.400   1.3398   0.05109   0.04500  -0.0194  0.0983  1.0000  -5.7164   0.0000   0.0000   0.0000   0.2490
  12.500   1.3383   0.05153   0.04548  -0.0188  0.0959  1.0000  -5.7655   0.0000   0.0000   0.0000   0.2484
  12.600   1.3397   0.05150   0.04542  -0.0183  0.0927  1.0000  -5.8467   0.0000   0.0000   0.0000   0.2478
  12.700   1.3448   0.05084   0.04461  -0.0180  0.0886  1.0000  -5.9710   0.0000   0.0000   0.0000   0.2473
  12.800   1.3472   0.05077   0.04441  -0.0177  0.0851  1.0000  -6.0713   0.0000   0.0000   0.0000   0.2468
  12.900   1.3455   0.05236   0.04593  -0.0174  0.0815  1.0000  -6.1101   0.0000   0.0000   0.0000   0.2465
  13.000   1.3379   0.05470   0.04837  -0.0171  0.0796  1.0000  -6.0881   0.0000   0.0000   0.0000   0.2461
  13.100   1.3349   0.05519   0.04893  -0.0169  0.0787  1.0000  -6.1295   0.0000   0.0000   0.0000   0.2458
  13.200   1.3315   0.05596   0.04978  -0.0168  0.0775  1.0000  -6.1630   0.0000   0.0000   0.0000   0.2456
  13.300   1.3281   0.05689   0.05080  -0.0168  0.0762  1.0000  -6.1933   0.0000   0.0000   0.0000   0.2454
  13.400   1.3235   0.05809   0.05209  -0.0169  0.0748  1.0000  -6.2117   0.0000   0.0000   0.0000   0.2453
  13.500   1.3193   0.05934   0.05342  -0.0171  0.0734  1.0000  -6.2312   0.0000   0.0000   0.0000   0.2453
  13.600   1.3151   0.06065   0.05480  -0.0173  0.0719  1.0000  -6.2499   0.0000   0.0000   0.0000   0.2454
  13.700   1.3112   0.06197   0.05619  -0.0177  0.0703  1.0000  -6.2706   0.0000   0.0000   0.0000   0.2455
  13.800   1.3079   0.06326   0.05754  -0.0180  0.0688  1.0000  -6.2942   0.0000   0.0000   0.0000   0.2455
  13.900   1.3042   0.06463   0.05896  -0.0183  0.0674  1.0000  -6.3139   0.0000   0.0000   0.0000   0.2456
  14.000   1.3008   0.06604   0.06040  -0.0187  0.0660  1.0000  -6.3332   0.0000   0.0000   0.0000   0.2458
  14.100   1.2984   0.06731   0.06169  -0.0191  0.0645  1.0000  -6.3623   0.0000   0.0000   0.0000   0.2459
  14.200   1.2963   0.06854   0.06291  -0.0195  0.0629  1.0000  -6.3957   0.0000   0.0000   0.0000   0.2460
  14.300   1.2932   0.06999   0.06437  -0.0200  0.0614  1.0000  -6.4177   0.0000   0.0000   0.0000   0.2462
  14.400   1.2897   0.07165   0.06600  -0.0203  0.0595  1.0000  -6.4305   0.0000   0.0000   0.0000   0.2463
  14.500   1.2821   0.07418   0.06858  -0.0208  0.0579  1.0000  -6.3953   0.0000   0.0000   0.0000   0.2467
  14.600   1.2718   0.07717   0.07167  -0.0217  0.0570  1.0000  -6.3350   0.0000   0.0000   0.0000   0.2473
  14.700   1.2609   0.08025   0.07486  -0.0229  0.0566  1.0000  -6.2714   0.0000   0.0000   0.0000   0.2482
  14.800   1.2519   0.08294   0.07761  -0.0242  0.0563  1.0000  -6.2282   0.0000   0.0000   0.0000   0.2493
  14.900   1.2437   0.08551   0.08028  -0.0256  0.0561  1.0000  -6.1918   0.0000   0.0000   0.0000   0.2503
  15.000   1.2345   0.08833   0.08319  -0.0272  0.0559  1.0000  -6.1449   0.0000   0.0000   0.0000   0.2516
  15.100   1.2245   0.09140   0.08635  -0.0289  0.0559  1.0000  -6.0883   0.0000   0.0000   0.0000   0.2530
  15.200   1.2142   0.09461   0.08965  -0.0308  0.0559  1.0000  -6.0254   0.0000   0.0000   0.0000   0.2546
  15.300   1.2022   0.09823   0.09335  -0.0329  0.0561  1.0000  -5.9446   0.0000   0.0000   0.0000   0.2564
  15.400   1.1889   0.10220   0.09741  -0.0352  0.0563  1.0000  -5.8477   0.0000   0.0000   0.0000   0.2585
  15.500   1.1590   0.11046   0.10599  -0.0419  0.0619  1.0000  -5.5762   0.0000   0.0000   0.0000   0.2651
  15.600   1.1534   0.11303   0.10858  -0.0434  0.0610  1.0000  -5.5478   0.0000   0.0000   0.0000   0.2665
  15.700   1.1482   0.11555   0.11111  -0.0449  0.0600  1.0000  -5.5210   0.0000   0.0000   0.0000   0.2678
  16.000   0.9453   0.20558   0.20077  -0.0853  0.1370  1.0000  -2.4060   0.0000   0.0000   0.0000   0.3234
  16.100   0.9446   0.20705   0.20224  -0.0866  0.1367  1.0000  -2.3859   0.0000   0.0000   0.0000   0.3248
  16.200   0.9413   0.20775   0.20293  -0.0884  0.1361  1.0000  -2.3476   0.0000   0.0000   0.0000   0.3269
  16.300   0.9318   0.20669   0.20184  -0.0912  0.1345  1.0000  -2.2695   0.0000   0.0000   0.0000   0.3308
  16.400   0.9213   0.20588   0.20099  -0.0944  0.1302  1.0000  -2.1829   0.0000   0.0000   0.0000   0.3352
  16.500   0.9200   0.20712   0.20224  -0.0958  0.1259  1.0000  -2.1638   0.0000   0.0000   0.0000   0.3368
  16.600   0.9217   0.20860   0.20372  -0.0965  0.1222  1.0000  -2.1696   0.0000   0.0000   0.0000   0.3372
  16.700   0.9251   0.21001   0.20515  -0.0968  0.1187  1.0000  -2.1915   0.0000   0.0000   0.0000   0.3369
  16.800   0.9305   0.21134   0.20651  -0.0965  0.1157  1.0000  -2.2315   0.0000   0.0000   0.0000   0.3359
  16.900   0.9388   0.21276   0.20797  -0.0956  0.1130  1.0000  -2.2947   0.0000   0.0000   0.0000   0.3338
  17.000   0.9534   0.21499   0.21026  -0.0935  0.1106  1.0000  -2.4028   0.0000   0.0000   0.0000   0.3298
  17.100   0.9610   0.22638   0.22166  -0.0914  0.1069  1.0000  -2.4464   0.0000   0.0000   0.0000   0.3267
  17.200   0.9606   0.22829   0.22357  -0.0926  0.1067  1.0000  -2.4179   0.0000   0.0000   0.0000   0.3279
  17.300   0.9598   0.22978   0.22506  -0.0940  0.1065  1.0000  -2.3875   0.0000   0.0000   0.0000   0.3293
  17.400   0.9585   0.23063   0.22590  -0.0955  0.1060  1.0000  -2.3535   0.0000   0.0000   0.0000   0.3309
  17.500   0.9544   0.23101   0.22627  -0.0976  0.1053  1.0000  -2.3027   0.0000   0.0000   0.0000   0.3334
  17.600   0.9480   0.23113   0.22636  -0.1000  0.1041  1.0000  -2.2395   0.0000   0.0000   0.0000   0.3365
  17.700   0.9416   0.23150   0.22671  -0.1026  0.1018  1.0000  -2.1707   0.0000   0.0000   0.0000   0.3400
  17.800   0.9396   0.23217   0.22737  -0.1045  0.0945  1.0000  -2.1428   0.0000   0.0000   0.0000   0.3421
  17.900   0.9672   0.22180   0.21708  -0.0987  0.0604  1.0000  -2.6481   0.0000   0.0000   0.0000   0.3317
  18.000   0.9641   0.22563   0.22090  -0.1004  0.0609  1.0000  -2.5513   0.0000   0.0000   0.0000   0.3338
  18.100   0.9614   0.22939   0.22465  -0.1021  0.0615  1.0000  -2.4569   0.0000   0.0000   0.0000   0.3358
  18.200   0.9594   0.23298   0.22823  -0.1035  0.0619  1.0000  -2.3695   0.0000   0.0000   0.0000   0.3375
  18.300   0.9585   0.23623   0.23148  -0.1047  0.0621  1.0000  -2.2979   0.0000   0.0000   0.0000   0.3388
  18.400   0.9588   0.23906   0.23431  -0.1055  0.0619  1.0000  -2.2456   0.0000   0.0000   0.0000   0.3395
  18.500   0.9608   0.24136   0.23662  -0.1059  0.0612  1.0000  -2.2204   0.0000   0.0000   0.0000   0.3396
  18.600   0.9647   0.24324   0.23851  -0.1058  0.0603  1.0000  -2.2231   0.0000   0.0000   0.0000   0.3388
  18.700   0.9714   0.24494   0.24024  -0.1050  0.0591  1.0000  -2.2580   0.0000   0.0000   0.0000   0.3369
  18.800   0.9512   0.25398   0.24921  -0.1110  0.0704  1.0000  -1.9220   0.0000   0.0000   0.0000   0.3461
  18.900   0.9518   0.25634   0.25157  -0.1118  0.0692  1.0000  -1.8950   0.0000   0.0000   0.0000   0.3468
  19.000   0.9526   0.25865   0.25388  -0.1126  0.0681  1.0000  -1.8725   0.0000   0.0000   0.0000   0.3473
  19.100   0.9536   0.26091   0.25615  -0.1132  0.0670  1.0000  -1.8538   0.0000   0.0000   0.0000   0.3478
  19.200   0.9546   0.26313   0.25838  -0.1138  0.0660  1.0000  -1.8386   0.0000   0.0000   0.0000   0.3481
  19.300   0.9558   0.26531   0.26057  -0.1144  0.0651  1.0000  -1.8261   0.0000   0.0000   0.0000   0.3484
  19.400   0.9570   0.26748   0.26274  -0.1149  0.0643  1.0000  -1.8159   0.0000   0.0000   0.0000   0.3487
  19.500   0.9583   0.26961   0.26489  -0.1154  0.0636  1.0000  -1.8080   0.0000   0.0000   0.0000   0.3489
  19.600   0.9596   0.27174   0.26702  -0.1159  0.0629  1.0000  -1.8020   0.0000   0.0000   0.0000   0.3491
  19.700   0.9609   0.27385   0.26914  -0.1163  0.0623  1.0000  -1.7978   0.0000   0.0000   0.0000   0.3492
  19.800   0.9623   0.27595   0.27126  -0.1167  0.0617  1.0000  -1.7954   0.0000   0.0000   0.0000   0.3492
  19.900   0.9638   0.27806   0.27338  -0.1170  0.0612  1.0000  -1.7948   0.0000   0.0000   0.0000   0.3492
  20.000   0.9653   0.28017   0.27550  -0.1173  0.0607  1.0000  -1.7959   0.0000   0.0000   0.0000   0.3492
  20.100   0.9670   0.28231   0.27765  -0.1175  0.0602  1.0000  -1.7989   0.0000   0.0000   0.0000   0.3490
  20.200   0.9687   0.28447   0.27983  -0.1177  0.0598  1.0000  -1.8041   0.0000   0.0000   0.0000   0.3488
  20.300   0.9707   0.28670   0.28207  -0.1178  0.0593  1.0000  -1.8118   0.0000   0.0000   0.0000   0.3485
  20.400   0.9730   0.28904   0.28443  -0.1178  0.0589  1.0000  -1.8226   0.0000   0.0000   0.0000   0.3480
  20.500   0.9760   0.29158   0.28699  -0.1176  0.0585  1.0000  -1.8379   0.0000   0.0000   0.0000   0.3474
  20.600   0.9800   0.29457   0.29000  -0.1173  0.0580  1.0000  -1.8595   0.0000   0.0000   0.0000   0.3464
  20.800   0.9805   0.30753   0.30305  -0.1172  0.0565  1.0000  -1.8099   0.0000   0.0000   0.0000   0.3461
  20.900   0.9798   0.30981   0.30533  -0.1178  0.0564  1.0000  -1.7908   0.0000   0.0000   0.0000   0.3466
  21.000   0.9790   0.31202   0.30755  -0.1183  0.0564  1.0000  -1.7729   0.0000   0.0000   0.0000   0.3472
  21.100   0.9780   0.31416   0.30970  -0.1189  0.0564  1.0000  -1.7553   0.0000   0.0000   0.0000   0.3478
  21.200   0.9767   0.31622   0.31178  -0.1194  0.0564  1.0000  -1.7378   0.0000   0.0000   0.0000   0.3484
  21.300   0.9752   0.31818   0.31375  -0.1199  0.0563  1.0000  -1.7198   0.0000   0.0000   0.0000   0.3490
  21.400   0.9732   0.32003   0.31561  -0.1204  0.0563  1.0000  -1.7015   0.0000   0.0000   0.0000   0.3496
  21.500   0.9709   0.32175   0.31734  -0.1208  0.0562  1.0000  -1.6826   0.0000   0.0000   0.0000   0.3503
  21.600   0.9681   0.32331   0.31892  -0.1212  0.0562  1.0000  -1.6628   0.0000   0.0000   0.0000   0.3509
  21.700   0.9644   0.32464   0.32027  -0.1214  0.0562  1.0000  -1.6414   0.0000   0.0000   0.0000   0.3516
  21.800   0.9596   0.32563   0.32128  -0.1216  0.0561  1.0000  -1.6176   0.0000   0.0000   0.0000   0.3523
  21.900   0.9273   0.31954   0.31529  -0.1182  0.0561  1.0000  -1.5346   0.0000   0.0000   0.0000   0.3536
  22.000   0.9144   0.31753   0.31333  -0.1174  0.0560  1.0000  -1.4925   0.0000   0.0000   0.0000   0.3546
  22.100   0.9048   0.31626   0.31209  -0.1171  0.0560  1.0000  -1.4571   0.0000   0.0000   0.0000   0.3556
  22.200   0.8967   0.31523   0.31109  -0.1169  0.0559  1.0000  -1.4243   0.0000   0.0000   0.0000   0.3566
  22.300   0.8891   0.31425   0.31013  -0.1169  0.0558  1.0000  -1.3920   0.0000   0.0000   0.0000   0.3577
  22.400   0.8824   0.31339   0.30930  -0.1170  0.0558  1.0000  -1.3613   0.0000   0.0000   0.0000   0.3588
  22.500   0.8762   0.31262   0.30855  -0.1172  0.0556  1.0000  -1.3318   0.0000   0.0000   0.0000   0.3599
  22.600   0.8705   0.31192   0.30786  -0.1175  0.0555  1.0000  -1.3029   0.0000   0.0000   0.0000   0.3611
  22.700   0.8653   0.31127   0.30723  -0.1179  0.0553  1.0000  -1.2743   0.0000   0.0000   0.0000   0.3623
  22.800   0.8605   0.31070   0.30668  -0.1183  0.0551  1.0000  -1.2458   0.0000   0.0000   0.0000   0.3635
  22.900   0.8563   0.31025   0.30624  -0.1189  0.0548  1.0000  -1.2172   0.0000   0.0000   0.0000   0.3648
  23.000   0.8526   0.31002   0.30602  -0.1196  0.0543  1.0000  -1.1888   0.0000   0.0000   0.0000   0.3662
  23.100   0.8497   0.31009   0.30610  -0.1203  0.0537  1.0000  -1.1625   0.0000   0.0000   0.0000   0.3674
  23.200   0.8476   0.31044   0.30647  -0.1209  0.0530  1.0000  -1.1404   0.0000   0.0000   0.0000   0.3684
  23.300   0.8458   0.31094   0.30698  -0.1214  0.0522  1.0000  -1.1227   0.0000   0.0000   0.0000   0.3692
  23.400   0.8443   0.31149   0.30755  -0.1219  0.0514  1.0000  -1.1083   0.0000   0.0000   0.0000   0.3699
  23.500   0.8429   0.31207   0.30814  -0.1222  0.0507  1.0000  -1.0960   0.0000   0.0000   0.0000   0.3705
  23.600   0.8416   0.31264   0.30873  -0.1226  0.0500  1.0000  -1.0853   0.0000   0.0000   0.0000   0.3710
  23.700   0.8404   0.31322   0.30933  -0.1229  0.0493  1.0000  -1.0758   0.0000   0.0000   0.0000   0.3715
  23.800   0.8393   0.31380   0.30992  -0.1232  0.0487  1.0000  -1.0672   0.0000   0.0000   0.0000   0.3720
  23.900   0.8382   0.31437   0.31051  -0.1235  0.0481  1.0000  -1.0594   0.0000   0.0000   0.0000   0.3724
  24.000   0.8372   0.31495   0.31110  -0.1238  0.0475  1.0000  -1.0523   0.0000   0.0000   0.0000   0.3728
  24.100   0.8363   0.31552   0.31169  -0.1241  0.0469  1.0000  -1.0459   0.0000   0.0000   0.0000   0.3732
  24.200   0.8354   0.31609   0.31228  -0.1244  0.0464  1.0000  -1.0401   0.0000   0.0000   0.0000   0.3736
  24.300   0.8346   0.31666   0.31286  -0.1247  0.0458  1.0000  -1.0349   0.0000   0.0000   0.0000   0.3740
  24.400   0.8339   0.31723   0.31345  -0.1250  0.0453  1.0000  -1.0302   0.0000   0.0000   0.0000   0.3743
  24.500   0.8332   0.31779   0.31403  -0.1253  0.0448  1.0000  -1.0262   0.0000   0.0000   0.0000   0.3747
  24.600   0.8326   0.31836   0.31460  -0.1256  0.0443  1.0000  -1.0227   0.0000   0.0000   0.0000   0.3750
  24.700   0.8320   0.31891   0.31518  -0.1259  0.0438  1.0000  -1.0199   0.0000   0.0000   0.0000   0.3753
  24.800   0.8315   0.31947   0.31575  -0.1261  0.0433  1.0000  -1.0176   0.0000   0.0000   0.0000   0.3755
  24.900   0.8311   0.32002   0.31631  -0.1264  0.0429  1.0000  -1.0161   0.0000   0.0000   0.0000   0.3758
  25.000   0.8306   0.32056   0.31687  -0.1267  0.0425  1.0000  -1.0151   0.0000   0.0000   0.0000   0.3761
  25.100   0.8303   0.32111   0.31743  -0.1269  0.0420  1.0000  -1.0149   0.0000   0.0000   0.0000   0.3763
  25.200   0.8300   0.32164   0.31798  -0.1272  0.0416  1.0000  -1.0155   0.0000   0.0000   0.0000   0.3765
  25.300   0.8297   0.32218   0.31854  -0.1274  0.0412  1.0000  -1.0169   0.0000   0.0000   0.0000   0.3766
  25.400   0.8295   0.32272   0.31909  -0.1276  0.0408  1.0000  -1.0192   0.0000   0.0000   0.0000   0.3768
  25.500   0.8294   0.32326   0.31965  -0.1278  0.0405  1.0000  -1.0224   0.0000   0.0000   0.0000   0.3769
  25.600   0.8293   0.32381   0.32021  -0.1280  0.0401  1.0000  -1.0268   0.0000   0.0000   0.0000   0.3769
  25.700   0.8293   0.32438   0.32080  -0.1282  0.0398  1.0000  -1.0324   0.0000   0.0000   0.0000   0.3769
  25.800   0.8295   0.32500   0.32143  -0.1283  0.0394  1.0000  -1.0395   0.0000   0.0000   0.0000   0.3769
  25.900   0.8297   0.32569   0.32214  -0.1284  0.0391  1.0000  -1.0482   0.0000   0.0000   0.0000   0.3768
  26.000   0.8302   0.32651   0.32298  -0.1284  0.0388  1.0000  -1.0590   0.0000   0.0000   0.0000   0.3765
  26.100   0.8311   0.32758   0.32407  -0.1284  0.0385  1.0000  -1.0725   0.0000   0.0000   0.0000   0.3761
  26.200   0.8327   0.32919   0.32570  -0.1283  0.0381  1.0000  -1.0902   0.0000   0.0000   0.0000   0.3755
  26.300   0.8361   0.33236   0.32889  -0.1280  0.0377  1.0000  -1.1157   0.0000   0.0000   0.0000   0.3743
  26.400   0.8437   0.34229   0.33879  -0.1278  0.0371  1.0000  -1.1288   0.0000   0.0000   0.0000   0.3726
  26.500   0.8427   0.34271   0.33922  -0.1282  0.0370  1.0000  -1.1193   0.0000   0.0000   0.0000   0.3731
  26.600   0.8417   0.34306   0.33959  -0.1286  0.0370  1.0000  -1.1096   0.0000   0.0000   0.0000   0.3736
  26.700   0.8407   0.34341   0.33995  -0.1290  0.0370  1.0000  -1.1000   0.0000   0.0000   0.0000   0.3742
  26.800   0.8397   0.34375   0.34030  -0.1295  0.0370  1.0000  -1.0905   0.0000   0.0000   0.0000   0.3747
  26.900   0.8387   0.34409   0.34065  -0.1299  0.0370  1.0000  -1.0811   0.0000   0.0000   0.0000   0.3752
  27.000   0.8373   0.34417   0.34075  -0.1303  0.0369  1.0000  -1.0690   0.0000   0.0000   0.0000   0.3759
  27.100   0.8358   0.34424   0.34082  -0.1308  0.0369  1.0000  -1.0567   0.0000   0.0000   0.0000   0.3765
  27.200   0.8343   0.34430   0.34090  -0.1312  0.0369  1.0000  -1.0446   0.0000   0.0000   0.0000   0.3772
  27.300   0.8329   0.34438   0.34099  -0.1317  0.0369  1.0000  -1.0327   0.0000   0.0000   0.0000   0.3778
  27.400   0.8316   0.34445   0.34107  -0.1321  0.0368  1.0000  -1.0209   0.0000   0.0000   0.0000   0.3785
  27.500   0.8303   0.34453   0.34117  -0.1326  0.0368  1.0000  -1.0093   0.0000   0.0000   0.0000   0.3792
  27.600   0.8290   0.34462   0.34126  -0.1331  0.0368  1.0000  -0.9978   0.0000   0.0000   0.0000   0.3798
  27.700   0.8278   0.34471   0.34137  -0.1336  0.0367  1.0000  -0.9865   0.0000   0.0000   0.0000   0.3805
  27.800   0.8266   0.34480   0.34147  -0.1341  0.0367  1.0000  -0.9752   0.0000   0.0000   0.0000   0.3811
  27.900   0.8255   0.34491   0.34159  -0.1346  0.0366  1.0000  -0.9640   0.0000   0.0000   0.0000   0.3818
  28.000   0.8244   0.34502   0.34171  -0.1351  0.0366  1.0000  -0.9529   0.0000   0.0000   0.0000   0.3825
  28.100   0.8234   0.34514   0.34185  -0.1356  0.0365  1.0000  -0.9418   0.0000   0.0000   0.0000   0.3831
  28.200   0.8224   0.34528   0.34199  -0.1361  0.0365  1.0000  -0.9307   0.0000   0.0000   0.0000   0.3838
  28.300   0.8214   0.34543   0.34216  -0.1367  0.0364  1.0000  -0.9196   0.0000   0.0000   0.0000   0.3845
  28.400   0.8206   0.34561   0.34235  -0.1373  0.0363  1.0000  -0.9085   0.0000   0.0000   0.0000   0.3851
  28.500   0.8198   0.34582   0.34257  -0.1378  0.0362  1.0000  -0.8973   0.0000   0.0000   0.0000   0.3858
  28.600   0.8191   0.34607   0.34283  -0.1384  0.0361  1.0000  -0.8859   0.0000   0.0000   0.0000   0.3865
  28.700   0.8185   0.34638   0.34315  -0.1391  0.0360  1.0000  -0.8745   0.0000   0.0000   0.0000   0.3872
  28.800   0.8181   0.34677   0.34355  -0.1397  0.0358  1.0000  -0.8630   0.0000   0.0000   0.0000   0.3879
  28.900   0.8177   0.34724   0.34403  -0.1404  0.0356  1.0000  -0.8588   0.0000   0.0000   0.0000   0.3886
  29.000   0.8176   0.34782   0.34462  -0.1410  0.0353  1.0000  -0.8570   0.0000   0.0000   0.0000   0.3892
  29.100   0.8176   0.34850   0.34531  -0.1417  0.0350  1.0000  -0.8556   0.0000   0.0000   0.0000   0.3898
  29.200   0.8177   0.34928   0.34618  -0.1423  0.0345  1.0000  -0.8476   0.0000   0.0000   0.0000   0.3904
  29.300   0.8178   0.35009   0.34700  -0.1429  0.0339  1.0000  -0.8453   0.0000   0.0000   0.0000   0.3909
  29.400   0.8180   0.35093   0.34786  -0.1435  0.0330  1.0000  -0.8437   0.0000   0.0000   0.0000   0.3913
  29.500   0.8181   0.35175   0.34869  -0.1440  0.0317  1.0000  -0.8439   0.0000   0.0000   0.0000   0.3918
  29.600   0.8182   0.35250   0.34944  -0.1445  0.0302  1.0000  -0.8472   0.0000   0.0000   0.0000   0.3921
  29.700   0.8183   0.35314   0.35010  -0.1449  0.0286  1.0000  -0.8544   0.0000   0.0000   0.0000   0.3923
  29.800   0.8185   0.35367   0.35064  -0.1453  0.0271  1.0000  -0.8659   0.0000   0.0000   0.0000   0.3925
  29.900   0.8187   0.35410   0.35109  -0.1456  0.0258  1.0000  -0.8810   0.0000   0.0000   0.0000   0.3926
  30.000   0.8189   0.35450   0.35150  -0.1459  0.0249  1.0000  -0.8973   0.0000   0.0000   0.0000   0.3926


