xflr5 v6.61

 Calculated polar for: S3010-103-84

 1 1 Reynolds number fixed          Mach number fixed         

 xtrf =   1.000 (top)        1.000 (bottom)
 Mach =   0.000     Re =     1.000 e 6     Ncrit =   9.000

  alpha     CL        CD       CDp       Cm    Top Xtr Bot Xtr   Cpmin    Chinge    XCp    
 ------- -------- --------- --------- -------- ------- ------- -------- --------- ---------
 -10.000  -0.4129   0.10986   0.10813  -0.0050  1.0000  0.0092  -1.8091   0.0000   0.0000   0.0000   0.2305
  -9.900  -0.4109   0.10836   0.10664  -0.0057  1.0000  0.0092  -1.8201   0.0000   0.0000   0.0000   0.2288
  -9.800  -0.4089   0.10686   0.10514  -0.0064  1.0000  0.0092  -1.8316   0.0000   0.0000   0.0000   0.2271
  -9.700  -0.4069   0.10535   0.10364  -0.0071  1.0000  0.0092  -1.8434   0.0000   0.0000   0.0000   0.2253
  -9.600  -0.4050   0.10384   0.10213  -0.0078  1.0000  0.0092  -1.8556   0.0000   0.0000   0.0000   0.2235
  -9.500  -0.4031   0.10233   0.10062  -0.0085  1.0000  0.0092  -1.8683   0.0000   0.0000   0.0000   0.2217
  -9.400  -0.4013   0.10081   0.09910  -0.0093  1.0000  0.0092  -1.8814   0.0000   0.0000   0.0000   0.2198
  -9.300  -0.3996   0.09928   0.09758  -0.0100  1.0000  0.0092  -1.8951   0.0000   0.0000   0.0000   0.2179
  -9.200  -0.3979   0.09776   0.09606  -0.0107  1.0000  0.0093  -1.9092   0.0000   0.0000   0.0000   0.2160
  -9.100  -0.3963   0.09623   0.09454  -0.0115  1.0000  0.0093  -1.9240   0.0000   0.0000   0.0000   0.2141
  -9.000  -0.3949   0.09470   0.09302  -0.0122  1.0000  0.0093  -1.9393   0.0000   0.0000   0.0000   0.2121
  -8.900  -0.3935   0.09317   0.09149  -0.0130  1.0000  0.0093  -1.9552   0.0000   0.0000   0.0000   0.2102
  -8.800  -0.3922   0.09165   0.08997  -0.0137  1.0000  0.0093  -1.9718   0.0000   0.0000   0.0000   0.2082
  -8.700  -0.3911   0.09011   0.08845  -0.0145  1.0000  0.0093  -1.9891   0.0000   0.0000   0.0000   0.2062
  -8.600  -0.3898   0.08855   0.08689  -0.0153  1.0000  0.0093  -2.0071   0.0000   0.0000   0.0000   0.2040
  -8.500  -0.3886   0.08696   0.08530  -0.0162  1.0000  0.0093  -2.0259   0.0000   0.0000   0.0000   0.2018
  -8.400  -0.3874   0.08535   0.08370  -0.0171  1.0000  0.0093  -2.0455   0.0000   0.0000   0.0000   0.1994
  -8.300  -0.3864   0.08373   0.08209  -0.0180  1.0000  0.0093  -2.0661   0.0000   0.0000   0.0000   0.1971
  -8.200  -0.3855   0.08210   0.08047  -0.0189  1.0000  0.0093  -2.0877   0.0000   0.0000   0.0000   0.1946
  -8.100  -0.3847   0.08046   0.07884  -0.0198  1.0000  0.0093  -2.1105   0.0000   0.0000   0.0000   0.1921
  -8.000  -0.3841   0.07881   0.07720  -0.0208  1.0000  0.0093  -2.1346   0.0000   0.0000   0.0000   0.1896
  -7.900  -0.3837   0.07713   0.07553  -0.0218  1.0000  0.0093  -2.1600   0.0000   0.0000   0.0000   0.1869
  -7.400  -0.3835   0.06204   0.06046  -0.0385  0.9540  0.0094  -2.6013   0.0000   0.0000   0.0000   0.1436
  -7.300  -0.3837   0.05714   0.05549  -0.0447  0.9355  0.0095  -2.7589   0.0000   0.0000   0.0000   0.1276
  -7.000  -0.4150   0.03872   0.03641  -0.0557  0.8965  0.0099  -3.6794   0.0000   0.0000   0.0000   0.1098
  -6.900  -0.4225   0.03375   0.03113  -0.0571  0.8888  0.0104  -3.9251   0.0000   0.0000   0.0000   0.1087
  -6.800  -0.4191   0.03164   0.02889  -0.0576  0.8844  0.0108  -3.9514   0.0000   0.0000   0.0000   0.1065
  -6.700  -0.4130   0.03039   0.02755  -0.0578  0.8797  0.0111  -3.9141   0.0000   0.0000   0.0000   0.1040
  -6.600  -0.4058   0.02954   0.02662  -0.0579  0.8746  0.0114  -3.8469   0.0000   0.0000   0.0000   0.1013
  -6.500  -0.3975   0.02915   0.02616  -0.0579  0.8693  0.0117  -3.7362   0.0000   0.0000   0.0000   0.0984
  -6.400  -0.3896   0.02853   0.02547  -0.0578  0.8635  0.0120  -3.6591   0.0000   0.0000   0.0000   0.0956
  -6.300  -0.3813   0.02795   0.02481  -0.0578  0.8569  0.0123  -3.5802   0.0000   0.0000   0.0000   0.0925
  -6.200  -0.3725   0.02736   0.02417  -0.0579  0.8531  0.0125  -3.4989   0.0000   0.0000   0.0000   0.0888
  -6.100  -0.3634   0.02679   0.02354  -0.0579  0.8499  0.0128  -3.4177   0.0000   0.0000   0.0000   0.0847
  -6.000  -0.3541   0.02627   0.02298  -0.0580  0.8461  0.0132  -3.3335   0.0000   0.0000   0.0000   0.0804
  -5.900  -0.3448   0.02579   0.02245  -0.0580  0.8420  0.0135  -3.2486   0.0000   0.0000   0.0000   0.0760
  -5.800  -0.3355   0.02530   0.02191  -0.0580  0.8377  0.0139  -3.1665   0.0000   0.0000   0.0000   0.0713
  -5.700  -0.3261   0.02481   0.02135  -0.0580  0.8333  0.0143  -3.0871   0.0000   0.0000   0.0000   0.0664
  -5.600  -0.3166   0.02432   0.02079  -0.0579  0.8286  0.0148  -3.0104   0.0000   0.0000   0.0000   0.0612
  -5.500  -0.3071   0.02383   0.02024  -0.0579  0.8234  0.0153  -2.9361   0.0000   0.0000   0.0000   0.0557
  -5.400  -0.2974   0.02336   0.01969  -0.0578  0.8177  0.0160  -2.8633   0.0000   0.0000   0.0000   0.0497
  -5.300  -0.2873   0.02289   0.01916  -0.0578  0.8143  0.0167  -2.7908   0.0000   0.0000   0.0000   0.0428
  -5.200  -0.2769   0.02245   0.01868  -0.0578  0.8121  0.0175  -2.7178   0.0000   0.0000   0.0000   0.0353
  -5.100  -0.2663   0.02211   0.01830  -0.0577  0.8093  0.0184  -2.6423   0.0000   0.0000   0.0000   0.0271
  -5.000  -0.2554   0.02195   0.01812  -0.0576  0.8058  0.0194  -2.5599   0.0000   0.0000   0.0000   0.0181
  -4.900  -0.2439   0.02215   0.01831  -0.0575  0.8015  0.0205  -2.4606   0.0000   0.0000   0.0000   0.0079
  -4.800  -0.2308   0.02343   0.01967  -0.0573  0.7965  0.0216  -2.3079   0.0000   0.0000   0.0000  -0.0044
  -4.700  -0.2181   0.02465   0.02090  -0.0570  0.7909  0.0221  -2.1719   0.0000   0.0000   0.0000  -0.0177
  -4.600  -0.2077   0.02432   0.02048  -0.0568  0.7851  0.0223  -2.1164   0.0000   0.0000   0.0000  -0.0301
  -4.500  -0.1977   0.02374   0.01979  -0.0567  0.7787  0.0223  -2.0734   0.0000   0.0000   0.0000  -0.0435
  -4.400  -0.1963   0.01708   0.01257  -0.0572  0.7741  0.0259  -2.2944   0.0000   0.0000   0.0000  -0.0483
  -4.300  -0.1858   0.01675   0.01224  -0.0572  0.7712  0.0271  -2.2101   0.0000   0.0000   0.0000  -0.0652
  -4.200  -0.1751   0.01652   0.01200  -0.0573  0.7690  0.0283  -2.1253   0.0000   0.0000   0.0000  -0.0845
  -4.100  -0.1643   0.01633   0.01181  -0.0573  0.7662  0.0296  -2.0412   0.0000   0.0000   0.0000  -0.1065
  -4.000  -0.1534   0.01615   0.01162  -0.0574  0.7630  0.0312  -1.9612   0.0000   0.0000   0.0000  -0.1315
  -3.900  -0.1425   0.01599   0.01145  -0.0573  0.7593  0.0331  -1.8853   0.0000   0.0000   0.0000  -0.1605
  -3.800  -0.1313   0.01591   0.01135  -0.0573  0.7551  0.0352  -1.8113   0.0000   0.0000   0.0000  -0.1945
  -3.700  -0.1199   0.01606   0.01150  -0.0572  0.7506  0.0375  -1.7333   0.0000   0.0000   0.0000  -0.2357
  -3.600  -0.1077   0.01697   0.01244  -0.0570  0.7455  0.0395  -1.6316   0.0000   0.0000   0.0000  -0.2887
  -3.500  -0.0954   0.01794   0.01341  -0.0568  0.7398  0.0403  -1.5379   0.0000   0.0000   0.0000  -0.3552
  -3.400  -0.0842   0.01773   0.01313  -0.0566  0.7335  0.0405  -1.4900   0.0000   0.0000   0.0000  -0.4334
  -3.200  -0.0666   0.01323   0.00825  -0.0569  0.7259  0.0497  -1.4924   0.0000   0.0000   0.0000  -0.6177
  -3.100  -0.0554   0.01290   0.00790  -0.0569  0.7235  0.0515  -1.4387   0.0000   0.0000   0.0000  -0.7922
  -3.000  -0.0441   0.01254   0.00752  -0.0568  0.7203  0.0531  -1.3899   0.0000   0.0000   0.0000  -1.0570
  -2.900  -0.0302   0.00956   0.00395  -0.0546  0.7177  0.0194  -1.7294   0.0000   0.0000   0.0000  -1.5870
  -2.800  -0.0191   0.00893   0.00318  -0.0542  0.7135  0.0169  -1.7465   0.0000   0.0000   0.0000  -2.6295
  -2.700  -0.0078   0.00859   0.00271  -0.0540  0.7086  0.0154  -1.7338   0.0000   0.0000   0.0000  -6.8090
  -2.600   0.0036   0.00840   0.00242  -0.0538  0.7033  0.0144  -1.6944   0.0000   0.0000   0.0000  15.3526
  -2.500   0.0149   0.00828   0.00223  -0.0537  0.6978  0.0138  -1.6367   0.0000   0.0000   0.0000   3.8951
  -2.400   0.0262   0.00820   0.00208  -0.0536  0.6919  0.0133  -1.5730   0.0000   0.0000   0.0000   2.3195
  -2.300   0.0375   0.00813   0.00195  -0.0536  0.6851  0.0129  -1.5071   0.0000   0.0000   0.0000   1.6924
  -2.200   0.0489   0.00806   0.00184  -0.0535  0.6798  0.0126  -1.4402   0.0000   0.0000   0.0000   1.3542
  -2.100   0.0605   0.00798   0.00174  -0.0535  0.6778  0.0124  -1.3727   0.0000   0.0000   0.0000   1.1422
  -2.000   0.0720   0.00791   0.00165  -0.0535  0.6749  0.0122  -1.3055   0.0000   0.0000   0.0000   0.9984
  -1.900   0.0835   0.00785   0.00156  -0.0534  0.6711  0.0120  -1.2385   0.0000   0.0000   0.0000   0.8945
  -1.800   0.0950   0.00780   0.00148  -0.0534  0.6663  0.0119  -1.1717   0.0000   0.0000   0.0000   0.8158
  -1.700   0.1064   0.00777   0.00139  -0.0533  0.6607  0.0119  -1.1049   0.0000   0.0000   0.0000   0.7543
  -1.600   0.1178   0.00774   0.00132  -0.0533  0.6548  0.0119  -1.0377   0.0000   0.0000   0.0000   0.7048
  -1.500   0.1291   0.00773   0.00125  -0.0532  0.6485  0.0121  -0.9695   0.0000   0.0000   0.0000   0.6641
  -1.400   0.1405   0.00772   0.00119  -0.0532  0.6417  0.0126  -0.8982   0.0000   0.0000   0.0000   0.6300
  -1.300   0.1519   0.00771   0.00113  -0.0531  0.6344  0.0137  -0.8369   0.0000   0.0000   0.0000   0.6008
  -1.200   0.1634   0.00768   0.00110  -0.0531  0.6306  0.0163  -0.7777   0.0000   0.0000   0.0000   0.5758
  -1.100   0.1749   0.00766   0.00111  -0.0531  0.6285  0.0186  -0.7116   0.0000   0.0000   0.0000   0.5541
  -1.000   0.1864   0.00762   0.00110  -0.0531  0.6258  0.0203  -0.6444   0.0000   0.0000   0.0000   0.5352
  -0.900   0.1978   0.00760   0.00110  -0.0531  0.6222  0.0217  -0.5985   0.0000   0.0000   0.0000   0.5185
  -0.800   0.2091   0.00747   0.00106  -0.0532  0.6178  0.0474  -0.5559   0.0000   0.0000   0.0000   0.5040
  -0.700   0.2203   0.00736   0.00103  -0.0532  0.6124  0.0715  -0.5661   0.0000   0.0000   0.0000   0.4910
  -0.600   0.2314   0.00728   0.00100  -0.0532  0.6060  0.0936  -0.5769   0.0000   0.0000   0.0000   0.4792
  -0.500   0.2424   0.00720   0.00098  -0.0532  0.5984  0.1184  -0.5876   0.0000   0.0000   0.0000   0.4687
  -0.400   0.2535   0.00715   0.00097  -0.0532  0.5893  0.1422  -0.5983   0.0000   0.0000   0.0000   0.4590
  -0.300   0.2647   0.00710   0.00096  -0.0532  0.5817  0.1615  -0.6092   0.0000   0.0000   0.0000   0.4501
  -0.200   0.2760   0.00698   0.00096  -0.0533  0.5797  0.1923  -0.6201   0.0000   0.0000   0.0000   0.4419
  -0.100   0.2873   0.00689   0.00095  -0.0533  0.5770  0.2214  -0.6311   0.0000   0.0000   0.0000   0.4344
   0.000   0.2985   0.00680   0.00096  -0.0534  0.5734  0.2490  -0.6423   0.0000   0.0000   0.0000   0.4274
   0.100   0.3097   0.00668   0.00096  -0.0534  0.5686  0.2889  -0.6549   0.0000   0.0000   0.0000   0.4211
   0.200   0.3207   0.00656   0.00096  -0.0535  0.5627  0.3348  -0.6674   0.0000   0.0000   0.0000   0.4152
   0.300   0.3315   0.00643   0.00097  -0.0535  0.5557  0.3895  -0.6799   0.0000   0.0000   0.0000   0.4097
   0.400   0.3419   0.00620   0.00099  -0.0535  0.5476  0.4839  -0.6920   0.0000   0.0000   0.0000   0.4047
   0.500   0.3478   0.00542   0.00115  -0.0526  0.5394  0.7767  -0.7014   0.0000   0.0000   0.0000   0.3994
   0.600   0.3583   0.00540   0.00117  -0.0524  0.5318  0.8010  -0.7138   0.0000   0.0000   0.0000   0.3943
   0.700   0.3689   0.00536   0.00119  -0.0522  0.5300  0.8214  -0.7263   0.0000   0.0000   0.0000   0.3894
   0.800   0.3794   0.00532   0.00120  -0.0519  0.5275  0.8435  -0.7388   0.0000   0.0000   0.0000   0.3848
   0.900   0.3893   0.00528   0.00122  -0.0516  0.5244  0.8659  -0.7510   0.0000   0.0000   0.0000   0.3802
   1.000   0.3994   0.00526   0.00123  -0.0512  0.5205  0.8885  -0.7633   0.0000   0.0000   0.0000   0.3759
   1.100   0.4086   0.00523   0.00125  -0.0506  0.5161  0.9120  -0.7750   0.0000   0.0000   0.0000   0.3715
   1.200   0.4184   0.00523   0.00126  -0.0502  0.5110  0.9319  -0.7872   0.0000   0.0000   0.0000   0.3675
   1.400   0.4429   0.00528   0.00126  -0.0505  0.4981  0.9665  -0.8165   0.0000   0.0000   0.0000   0.3613
   1.500   0.4586   0.00532   0.00126  -0.0515  0.4885  0.9811  -0.8351   0.0000   0.0000   0.0000   0.3594
   1.600   0.4753   0.00535   0.00126  -0.0527  0.4814  0.9988  -0.8547   0.0000   0.0000   0.0000   0.3580
   1.700   0.4869   0.00537   0.00127  -0.0527  0.4790  1.0000  -0.8704   0.0000   0.0000   0.0000   0.3554
   1.800   0.4982   0.00540   0.00129  -0.0527  0.4755  1.0000  -0.8859   0.0000   0.0000   0.0000   0.3528
   1.900   0.5094   0.00543   0.00130  -0.0527  0.4709  1.0000  -0.9014   0.0000   0.0000   0.0000   0.3504
   2.000   0.5206   0.00548   0.00132  -0.0527  0.4660  1.0000  -0.9169   0.0000   0.0000   0.0000   0.3481
   2.100   0.5317   0.00553   0.00134  -0.0527  0.4607  1.0000  -0.9324   0.0000   0.0000   0.0000   0.3459
   2.200   0.5428   0.00559   0.00136  -0.0527  0.4548  1.0000  -0.9491   0.0000   0.0000   0.0000   0.3437
   2.300   0.5539   0.00566   0.00138  -0.0527  0.4477  1.0000  -0.9673   0.0000   0.0000   0.0000   0.3417
   2.400   0.5649   0.00573   0.00141  -0.0526  0.4389  1.0000  -0.9855   0.0000   0.0000   0.0000   0.3397
   2.500   0.5761   0.00578   0.00143  -0.0526  0.4323  1.0000  -1.0040   0.0000   0.0000   0.0000   0.3378
   2.600   0.5874   0.00581   0.00145  -0.0526  0.4300  1.0000  -1.0227   0.0000   0.0000   0.0000   0.3360
   2.700   0.5987   0.00584   0.00148  -0.0527  0.4266  1.0000  -1.0415   0.0000   0.0000   0.0000   0.3342
   2.800   0.6099   0.00588   0.00150  -0.0527  0.4221  1.0000  -1.0603   0.0000   0.0000   0.0000   0.3325
   2.900   0.6211   0.00593   0.00153  -0.0527  0.4170  1.0000  -1.0791   0.0000   0.0000   0.0000   0.3309
   3.000   0.6322   0.00600   0.00156  -0.0526  0.4116  1.0000  -1.0979   0.0000   0.0000   0.0000   0.3293
   3.100   0.6432   0.00607   0.00159  -0.0526  0.4056  1.0000  -1.1166   0.0000   0.0000   0.0000   0.3278
   3.200   0.6542   0.00615   0.00162  -0.0526  0.3985  1.0000  -1.1376   0.0000   0.0000   0.0000   0.3263
   3.300   0.6653   0.00622   0.00166  -0.0526  0.3904  1.0000  -1.1600   0.0000   0.0000   0.0000   0.3248
   3.400   0.6764   0.00628   0.00170  -0.0526  0.3841  1.0000  -1.1826   0.0000   0.0000   0.0000   0.3235
   3.500   0.6877   0.00631   0.00173  -0.0526  0.3825  1.0000  -1.2056   0.0000   0.0000   0.0000   0.3221
   3.600   0.6990   0.00634   0.00176  -0.0526  0.3797  1.0000  -1.2287   0.0000   0.0000   0.0000   0.3208
   3.700   0.7102   0.00639   0.00179  -0.0526  0.3753  1.0000  -1.2517   0.0000   0.0000   0.0000   0.3195
   3.800   0.7213   0.00645   0.00187  -0.0526  0.3698  1.0000  -1.2751   0.0000   0.0000   0.0000   0.3183
   3.900   0.7322   0.00653   0.00191  -0.0526  0.3628  1.0000  -1.2982   0.0000   0.0000   0.0000   0.3171
   4.000   0.7430   0.00663   0.00195  -0.0526  0.3549  1.0000  -1.3211   0.0000   0.0000   0.0000   0.3159
   4.100   0.7539   0.00672   0.00200  -0.0526  0.3465  1.0000  -1.3442   0.0000   0.0000   0.0000   0.3148
   4.200   0.7649   0.00681   0.00205  -0.0525  0.3374  1.0000  -1.3674   0.0000   0.0000   0.0000   0.3137
   4.300   0.7761   0.00685   0.00208  -0.0526  0.3345  1.0000  -1.3911   0.0000   0.0000   0.0000   0.3126
   4.400   0.7871   0.00691   0.00213  -0.0526  0.3286  1.0000  -1.4162   0.0000   0.0000   0.0000   0.3116
   4.500   0.7978   0.00703   0.00218  -0.0525  0.3182  1.0000  -1.4443   0.0000   0.0000   0.0000   0.3105
   4.600   0.8081   0.00720   0.00225  -0.0524  0.3030  1.0000  -1.4720   0.0000   0.0000   0.0000   0.3095
   4.700   0.8188   0.00732   0.00231  -0.0524  0.2906  1.0000  -1.5004   0.0000   0.0000   0.0000   0.3085
   4.800   0.8296   0.00741   0.00237  -0.0524  0.2822  1.0000  -1.5292   0.0000   0.0000   0.0000   0.3076
   4.900   0.8398   0.00759   0.00245  -0.0523  0.2682  1.0000  -1.5573   0.0000   0.0000   0.0000   0.3066
   5.000   0.8500   0.00778   0.00254  -0.0523  0.2503  1.0000  -1.5854   0.0000   0.0000   0.0000   0.3057
   5.100   0.8609   0.00786   0.00260  -0.0522  0.2442  1.0000  -1.6183   0.0000   0.0000   0.0000   0.3048
   5.200   0.8713   0.00801   0.00268  -0.0522  0.2336  1.0000  -1.6538   0.0000   0.0000   0.0000   0.3039
   5.300   0.8813   0.00822   0.00279  -0.0521  0.2186  1.0000  -1.6884   0.0000   0.0000   0.0000   0.3030
   5.400   0.8919   0.00835   0.00287  -0.0521  0.2076  1.0000  -1.7244   0.0000   0.0000   0.0000   0.3022
   5.500   0.9026   0.00846   0.00294  -0.0520  0.2013  1.0000  -1.7609   0.0000   0.0000   0.0000   0.3013
   5.600   0.9130   0.00861   0.00303  -0.0520  0.1927  1.0000  -1.7971   0.0000   0.0000   0.0000   0.3005
   5.700   0.9232   0.00877   0.00314  -0.0519  0.1839  1.0000  -1.8332   0.0000   0.0000   0.0000   0.2997
   5.800   0.9337   0.00891   0.00323  -0.0519  0.1747  1.0000  -1.8698   0.0000   0.0000   0.0000   0.2989
   5.900   0.9445   0.00899   0.00330  -0.0518  0.1707  1.0000  -1.9074   0.0000   0.0000   0.0000   0.2981
   6.000   0.9554   0.00907   0.00337  -0.0518  0.1681  1.0000  -1.9453   0.0000   0.0000   0.0000   0.2974
   6.100   0.9661   0.00916   0.00344  -0.0518  0.1648  1.0000  -1.9833   0.0000   0.0000   0.0000   0.2966
   6.200   0.9767   0.00927   0.00352  -0.0518  0.1603  1.0000  -2.0212   0.0000   0.0000   0.0000   0.2959
   6.300   0.9871   0.00941   0.00362  -0.0517  0.1546  1.0000  -2.0589   0.0000   0.0000   0.0000   0.2952
   6.400   0.9973   0.00958   0.00374  -0.0516  0.1473  1.0000  -2.0963   0.0000   0.0000   0.0000   0.2944
   6.500   1.0076   0.00972   0.00385  -0.0516  0.1382  1.0000  -2.1341   0.0000   0.0000   0.0000   0.2937
   6.600   1.0182   0.00982   0.00393  -0.0515  0.1352  1.0000  -2.1730   0.0000   0.0000   0.0000   0.2930
   6.700   1.0288   0.00992   0.00402  -0.0515  0.1320  1.0000  -2.2120   0.0000   0.0000   0.0000   0.2924
   6.800   1.0393   0.01005   0.00412  -0.0514  0.1279  1.0000  -2.2509   0.0000   0.0000   0.0000   0.2917
   6.900   1.0495   0.01019   0.00422  -0.0514  0.1227  1.0000  -2.2991   0.0000   0.0000   0.0000   0.2910
   7.000   1.0595   0.01037   0.00435  -0.0513  0.1170  1.0000  -2.3476   0.0000   0.0000   0.0000   0.2904
   7.100   1.0697   0.01052   0.00447  -0.0512  0.1104  1.0000  -2.3968   0.0000   0.0000   0.0000   0.2897
   7.200   1.0802   0.01063   0.00457  -0.0511  0.1064  1.0000  -2.4472   0.0000   0.0000   0.0000   0.2891
   7.300   1.0942   0.01027   0.00462  -0.0514  0.1346  1.0000  -2.5148   0.0000   0.0000   0.0000   0.2885
   7.400   1.1053   0.01031   0.00471  -0.0513  0.1372  1.0000  -2.5700   0.0000   0.0000   0.0000   0.2879
   7.500   1.1161   0.01037   0.00480  -0.0513  0.1377  1.0000  -2.6240   0.0000   0.0000   0.0000   0.2873
   7.600   1.1269   0.01044   0.00490  -0.0513  0.1373  1.0000  -2.6777   0.0000   0.0000   0.0000   0.2867
   7.700   1.1375   0.01053   0.00499  -0.0512  0.1361  1.0000  -2.7312   0.0000   0.0000   0.0000   0.2861
   7.800   1.1479   0.01063   0.00510  -0.0512  0.1338  1.0000  -2.7845   0.0000   0.0000   0.0000   0.2855
   7.900   1.1582   0.01076   0.00522  -0.0511  0.1301  1.0000  -2.8661   0.0000   0.0000   0.0000   0.2849
   8.000   1.1680   0.01094   0.00535  -0.0510  0.1248  1.0000  -2.9651   0.0000   0.0000   0.0000   0.2843
   8.100   1.1775   0.01116   0.00552  -0.0509  0.1180  1.0000  -3.0631   0.0000   0.0000   0.0000   0.2837
   8.200   1.1872   0.01136   0.00568  -0.0507  0.1094  1.0000  -3.1628   0.0000   0.0000   0.0000   0.2831
   8.300   1.1974   0.01149   0.00580  -0.0506  0.1059  1.0000  -3.2669   0.0000   0.0000   0.0000   0.2826
   8.400   1.2075   0.01162   0.00593  -0.0506  0.1032  1.0000  -3.3721   0.0000   0.0000   0.0000   0.2820
   8.500   1.2173   0.01178   0.00607  -0.0505  0.0993  1.0000  -3.4770   0.0000   0.0000   0.0000   0.2814
   8.600   1.2270   0.01197   0.00622  -0.0503  0.0950  1.0000  -3.5817   0.0000   0.0000   0.0000   0.2809
   8.700   1.2363   0.01218   0.00639  -0.0502  0.0902  1.0000  -3.6860   0.0000   0.0000   0.0000   0.2803
   8.800   1.2459   0.01238   0.00657  -0.0500  0.0844  1.0000  -3.7919   0.0000   0.0000   0.0000   0.2797
   8.900   1.2557   0.01254   0.00672  -0.0499  0.0798  1.0000  -3.9004   0.0000   0.0000   0.0000   0.2791
   9.000   1.2657   0.01266   0.00685  -0.0498  0.0786  1.0000  -4.0125   0.0000   0.0000   0.0000   0.2786
   9.100   1.2756   0.01280   0.00699  -0.0497  0.0768  1.0000  -4.1246   0.0000   0.0000   0.0000   0.2781
   9.200   1.2853   0.01297   0.00714  -0.0495  0.0742  1.0000  -4.2364   0.0000   0.0000   0.0000   0.2775
   9.300   1.2946   0.01317   0.00732  -0.0494  0.0708  1.0000  -4.3476   0.0000   0.0000   0.0000   0.2770
   9.400   1.3036   0.01340   0.00750  -0.0492  0.0670  1.0000  -4.4579   0.0000   0.0000   0.0000   0.2764
   9.500   1.3126   0.01363   0.00771  -0.0490  0.0626  1.0000  -4.5685   0.0000   0.0000   0.0000   0.2758
   9.600   1.3219   0.01383   0.00790  -0.0488  0.0580  1.0000  -4.6820   0.0000   0.0000   0.0000   0.2753
   9.700   1.3315   0.01398   0.00806  -0.0487  0.0561  1.0000  -4.7990   0.0000   0.0000   0.0000   0.2748
   9.800   1.3411   0.01413   0.00821  -0.0485  0.0550  1.0000  -4.9175   0.0000   0.0000   0.0000   0.2743
   9.900   1.3505   0.01430   0.00838  -0.0484  0.0535  1.0000  -5.0358   0.0000   0.0000   0.0000   0.2737
  10.000   1.3596   0.01449   0.00856  -0.0482  0.0514  1.0000  -5.1533   0.0000   0.0000   0.0000   0.2732
  10.100   1.3684   0.01472   0.00876  -0.0479  0.0488  1.0000  -5.2698   0.0000   0.0000   0.0000   0.2726
  10.200   1.3769   0.01497   0.00898  -0.0477  0.0461  1.0000  -5.3853   0.0000   0.0000   0.0000   0.2721
  10.300   1.3842   0.01533   0.00931  -0.0473  0.0369  1.0000  -5.4839   0.0000   0.0000   0.0000   0.2715
  10.400   1.3931   0.01552   0.00950  -0.0471  0.0354  1.0000  -5.6016   0.0000   0.0000   0.0000   0.2710
  10.500   1.4016   0.01575   0.00972  -0.0469  0.0332  1.0000  -5.7184   0.0000   0.0000   0.0000   0.2704
  10.600   1.4093   0.01606   0.00998  -0.0465  0.0302  1.0000  -5.8310   0.0000   0.0000   0.0000   0.2698
  10.700   1.4163   0.01642   0.01028  -0.0461  0.0263  1.0000  -5.9391   0.0000   0.0000   0.0000   0.2692
  10.800   1.4242   0.01669   0.01053  -0.0458  0.0219  1.0000  -6.0531   0.0000   0.0000   0.0000   0.2687
  10.900   1.4323   0.01694   0.01077  -0.0455  0.0202  1.0000  -6.1682   0.0000   0.0000   0.0000   0.2681
  11.000   1.4370   0.01748   0.01126  -0.0448  0.0148  1.0000  -6.2601   0.0000   0.0000   0.0000   0.2674
  11.100   1.4404   0.01814   0.01181  -0.0440  0.0087  1.0000  -6.3317   0.0000   0.0000   0.0000   0.2666
  11.300   1.4455   0.01963   0.01350  -0.0416  0.0043  1.0000  -6.2350   0.0000   0.0000   0.0000   0.2645
  11.400   1.4517   0.01997   0.01390  -0.0410  0.0043  1.0000  -6.3195   0.0000   0.0000   0.0000   0.2638
  11.500   1.4576   0.02033   0.01431  -0.0404  0.0043  1.0000  -6.4037   0.0000   0.0000   0.0000   0.2631
  11.600   1.4630   0.02070   0.01473  -0.0398  0.0043  1.0000  -6.4870   0.0000   0.0000   0.0000   0.2624
  11.700   1.4678   0.02108   0.01516  -0.0390  0.0043  1.0000  -6.5677   0.0000   0.0000   0.0000   0.2616
  11.800   1.4714   0.02145   0.01559  -0.0380  0.0043  1.0000  -6.6429   0.0000   0.0000   0.0000   0.2607
  11.900   1.4743   0.02185   0.01603  -0.0370  0.0043  1.0000  -6.7146   0.0000   0.0000   0.0000   0.2598
  12.000   1.4768   0.02226   0.01650  -0.0360  0.0043  1.0000  -6.7843   0.0000   0.0000   0.0000   0.2589
  12.100   1.4790   0.02270   0.01699  -0.0350  0.0043  1.0000  -6.8524   0.0000   0.0000   0.0000   0.2580
  12.200   1.4810   0.02317   0.01751  -0.0340  0.0044  1.0000  -6.9194   0.0000   0.0000   0.0000   0.2572
  12.300   1.4827   0.02367   0.01806  -0.0330  0.0044  1.0000  -6.9847   0.0000   0.0000   0.0000   0.2563
  12.400   1.4843   0.02421   0.01864  -0.0321  0.0044  1.0000  -7.0497   0.0000   0.0000   0.0000   0.2555
  12.500   1.4856   0.02478   0.01926  -0.0313  0.0044  1.0000  -7.1127   0.0000   0.0000   0.0000   0.2548
  12.600   1.4870   0.02537   0.01991  -0.0305  0.0045  1.0000  -7.1761   0.0000   0.0000   0.0000   0.2540
  12.700   1.4878   0.02601   0.02060  -0.0297  0.0045  1.0000  -7.2358   0.0000   0.0000   0.0000   0.2533
  12.800   1.4883   0.02669   0.02133  -0.0290  0.0045  1.0000  -7.2941   0.0000   0.0000   0.0000   0.2526
  12.900   1.4891   0.02739   0.02208  -0.0284  0.0045  1.0000  -7.3537   0.0000   0.0000   0.0000   0.2520
  13.000   1.4892   0.02816   0.02290  -0.0278  0.0046  1.0000  -7.4088   0.0000   0.0000   0.0000   0.2514
  13.100   1.4894   0.02896   0.02376  -0.0272  0.0046  1.0000  -7.4640   0.0000   0.0000   0.0000   0.2508
  13.200   1.4897   0.02979   0.02463  -0.0267  0.0046  1.0000  -7.5201   0.0000   0.0000   0.0000   0.2503
  13.300   1.4892   0.03071   0.02561  -0.0263  0.0047  1.0000  -7.5699   0.0000   0.0000   0.0000   0.2498
  13.400   1.4886   0.03166   0.02661  -0.0259  0.0047  1.0000  -7.6194   0.0000   0.0000   0.0000   0.2494
  13.500   1.4883   0.03261   0.02762  -0.0255  0.0047  1.0000  -7.6702   0.0000   0.0000   0.0000   0.2490
  13.600   1.4870   0.03367   0.02873  -0.0253  0.0048  1.0000  -7.7140   0.0000   0.0000   0.0000   0.2486
  13.700   1.4851   0.03478   0.02990  -0.0250  0.0048  1.0000  -7.7536   0.0000   0.0000   0.0000   0.2482
  13.800   1.4838   0.03589   0.03106  -0.0248  0.0049  1.0000  -7.7962   0.0000   0.0000   0.0000   0.2479
  13.900   1.4820   0.03707   0.03230  -0.0246  0.0049  1.0000  -7.8357   0.0000   0.0000   0.0000   0.2476
  14.000   1.4793   0.03843   0.03371  -0.0246  0.0049  1.0000  -7.8674   0.0000   0.0000   0.0000   0.2474
  14.100   1.4773   0.03973   0.03507  -0.0246  0.0050  1.0000  -7.9035   0.0000   0.0000   0.0000   0.2472
  14.200   1.4754   0.04105   0.03644  -0.0246  0.0050  1.0000  -7.9397   0.0000   0.0000   0.0000   0.2471
  14.300   1.4720   0.04261   0.03807  -0.0248  0.0050  1.0000  -7.9636   0.0000   0.0000   0.0000   0.2470
  14.400   1.4688   0.04415   0.03967  -0.0250  0.0051  1.0000  -7.9894   0.0000   0.0000   0.0000   0.2470
  14.500   1.4661   0.04566   0.04123  -0.0252  0.0051  1.0000  -8.0174   0.0000   0.0000   0.0000   0.2469
  14.600   1.4628   0.04727   0.04290  -0.0255  0.0052  1.0000  -8.0400   0.0000   0.0000   0.0000   0.2470
  14.700   1.4581   0.04913   0.04483  -0.0260  0.0052  1.0000  -8.0511   0.0000   0.0000   0.0000   0.2471
  14.800   1.4544   0.05084   0.04660  -0.0264  0.0052  1.0000  -8.0687   0.0000   0.0000   0.0000   0.2472
  14.900   1.4507   0.05254   0.04836  -0.0267  0.0053  1.0000  -8.0859   0.0000   0.0000   0.0000   0.2473
  15.000   1.4456   0.05452   0.05040  -0.0273  0.0053  1.0000  -8.0910   0.0000   0.0000   0.0000   0.2476
  15.100   1.4402   0.05656   0.05250  -0.0280  0.0054  1.0000  -8.0928   0.0000   0.0000   0.0000   0.2479
  15.200   1.4357   0.05845   0.05446  -0.0285  0.0054  1.0000  -8.0999   0.0000   0.0000   0.0000   0.2481
  15.300   1.4310   0.06034   0.05641  -0.0291  0.0055  1.0000  -8.1044   0.0000   0.0000   0.0000   0.2484
  15.400   1.4241   0.06260   0.05873  -0.0299  0.0055  1.0000  -8.0926   0.0000   0.0000   0.0000   0.2488
  15.500   1.4180   0.06482   0.06101  -0.0308  0.0055  1.0000  -8.0836   0.0000   0.0000   0.0000   0.2493
  15.600   1.4127   0.06692   0.06318  -0.0315  0.0056  1.0000  -8.0789   0.0000   0.0000   0.0000   0.2497
  15.700   1.4073   0.06908   0.06540  -0.0322  0.0056  1.0000  -8.0715   0.0000   0.0000   0.0000   0.2501
  15.800   1.4005   0.07164   0.06803  -0.0333  0.0057  1.0000  -8.0516   0.0000   0.0000   0.0000   0.2508
  15.900   1.3937   0.07424   0.07070  -0.0345  0.0057  1.0000  -8.0295   0.0000   0.0000   0.0000   0.2515
  16.000   1.3879   0.07666   0.07318  -0.0354  0.0058  1.0000  -8.0109   0.0000   0.0000   0.0000   0.2521
  16.100   1.3820   0.07910   0.07569  -0.0364  0.0059  1.0000  -7.9886   0.0000   0.0000   0.0000   0.2527
  16.200   1.3756   0.08166   0.07833  -0.0374  0.0059  1.0000  -7.9603   0.0000   0.0000   0.0000   0.2533
  16.300   1.3674   0.08475   0.08148  -0.0390  0.0060  1.0000  -7.9212   0.0000   0.0000   0.0000   0.2544
  16.400   1.3605   0.08749   0.08429  -0.0402  0.0060  1.0000  -7.8851   0.0000   0.0000   0.0000   0.2553
  16.500   1.3538   0.09018   0.08706  -0.0413  0.0061  1.0000  -7.8459   0.0000   0.0000   0.0000   0.2561
  16.600   1.3469   0.09293   0.08988  -0.0426  0.0062  1.0000  -7.8022   0.0000   0.0000   0.0000   0.2569
  16.700   1.3392   0.09590   0.09293  -0.0440  0.0063  1.0000  -7.7546   0.0000   0.0000   0.0000   0.2580
  16.800   1.3309   0.09915   0.09624  -0.0458  0.0063  1.0000  -7.7049   0.0000   0.0000   0.0000   0.2594
  16.900   1.3235   0.10209   0.09926  -0.0472  0.0064  1.0000  -7.6528   0.0000   0.0000   0.0000   0.2605
  17.000   1.3161   0.10500   0.10225  -0.0487  0.0065  1.0000  -7.5980   0.0000   0.0000   0.0000   0.2616
  17.100   1.3085   0.10796   0.10528  -0.0502  0.0066  1.0000  -7.5411   0.0000   0.0000   0.0000   0.2628
  17.200   1.3003   0.11125   0.10864  -0.0521  0.0066  1.0000  -7.4848   0.0000   0.0000   0.0000   0.2643
  17.300   1.2922   0.11452   0.11197  -0.0540  0.0066  1.0000  -7.4270   0.0000   0.0000   0.0000   0.2659
  17.400   1.2845   0.11758   0.11510  -0.0558  0.0067  1.0000  -7.3657   0.0000   0.0000   0.0000   0.2673
  17.500   1.2770   0.12065   0.11824  -0.0575  0.0068  1.0000  -7.3020   0.0000   0.0000   0.0000   0.2688
  17.600   1.2693   0.12378   0.12144  -0.0594  0.0068  1.0000  -7.2373   0.0000   0.0000   0.0000   0.2704
  17.700   1.2609   0.12719   0.12489  -0.0616  0.0068  1.0000  -7.1771   0.0000   0.0000   0.0000   0.2723
  17.800   1.2533   0.13009   0.12785  -0.0636  0.0069  1.0000  -7.1122   0.0000   0.0000   0.0000   0.2740
  17.900   1.2459   0.13298   0.13080  -0.0655  0.0069  1.0000  -7.0434   0.0000   0.0000   0.0000   0.2757
  18.000   1.2385   0.13600   0.13389  -0.0675  0.0070  1.0000  -6.9727   0.0000   0.0000   0.0000   0.2775
  18.100   1.2305   0.13939   0.13733  -0.0698  0.0070  1.0000  -6.9032   0.0000   0.0000   0.0000   0.2796
  18.200   1.2226   0.14291   0.14090  -0.0721  0.0070  1.0000  -6.8302   0.0000   0.0000   0.0000   0.2818
  18.300   1.2152   0.14634   0.14438  -0.0742  0.0070  1.0000  -6.7511   0.0000   0.0000   0.0000   0.2838
  18.400   1.2077   0.14988   0.14797  -0.0764  0.0071  1.0000  -6.6690   0.0000   0.0000   0.0000   0.2859
  18.500   1.1998   0.15367   0.15182  -0.0788  0.0071  1.0000  -6.5856   0.0000   0.0000   0.0000   0.2882
  18.600   1.1916   0.15780   0.15599  -0.0814  0.0070  1.0000  -6.4983   0.0000   0.0000   0.0000   0.2907
  18.700   1.1839   0.16176   0.15999  -0.0837  0.0071  1.0000  -6.4034   0.0000   0.0000   0.0000   0.2931
  18.800   1.1760   0.16585   0.16413  -0.0861  0.0071  1.0000  -6.3031   0.0000   0.0000   0.0000   0.2955
  18.900   1.1674   0.17038   0.16871  -0.0887  0.0071  1.0000  -6.1968   0.0000   0.0000   0.0000   0.2983
  19.000   1.1586   0.17513   0.17350  -0.0914  0.0071  1.0000  -6.0808   0.0000   0.0000   0.0000   0.3012
  19.100   1.1499   0.17987   0.17828  -0.0939  0.0071  1.0000  -5.9539   0.0000   0.0000   0.0000   0.3040
  19.200   1.1406   0.18502   0.18347  -0.0966  0.0071  1.0000  -5.8114   0.0000   0.0000   0.0000   0.3071
  19.300   1.1294   0.19108   0.18957  -0.0997  0.0070  1.0000  -5.6412   0.0000   0.0000   0.0000   0.3108
  19.400   1.1180   0.19732   0.19584  -0.1027  0.0070  1.0000  -5.4421   0.0000   0.0000   0.0000   0.3145
  19.500   1.1012   0.20598   0.20454  -0.1066  0.0070  1.0000  -5.1344   0.0000   0.0000   0.0000   0.3198
  20.000   1.0187   0.25976   0.25834  -0.1232  0.0119  1.0000  -2.7331   0.0000   0.0000   0.0000   0.3464
  20.100   1.0191   0.26230   0.26088  -0.1241  0.0118  1.0000  -2.7231   0.0000   0.0000   0.0000   0.3471
  20.200   1.0195   0.26483   0.26342  -0.1249  0.0117  1.0000  -2.7140   0.0000   0.0000   0.0000   0.3477
  20.300   1.0196   0.26741   0.26599  -0.1258  0.0116  1.0000  -2.7035   0.0000   0.0000   0.0000   0.3484
  20.400   1.0193   0.27017   0.26876  -0.1267  0.0114  1.0000  -2.6849   0.0000   0.0000   0.0000   0.3492
  20.500   0.9921   0.28698   0.28553  -0.1300  0.0104  1.0000  -2.0505   0.0000   0.0000   0.0000   0.3569
  20.600   0.9920   0.28970   0.28826  -0.1308  0.0104  1.0000  -2.0293   0.0000   0.0000   0.0000   0.3575
  20.700   0.9918   0.29241   0.29097  -0.1315  0.0103  1.0000  -2.0087   0.0000   0.0000   0.0000   0.3582
  20.800   0.9914   0.29508   0.29364  -0.1322  0.0103  1.0000  -1.9883   0.0000   0.0000   0.0000   0.3588
  20.900   0.9910   0.29773   0.29629  -0.1329  0.0103  1.0000  -1.9682   0.0000   0.0000   0.0000   0.3595
  21.000   0.9904   0.30034   0.29891  -0.1336  0.0103  1.0000  -1.9483   0.0000   0.0000   0.0000   0.3601
  21.100   0.9896   0.30291   0.30149  -0.1342  0.0103  1.0000  -1.9283   0.0000   0.0000   0.0000   0.3607
  21.200   0.9886   0.30544   0.30402  -0.1348  0.0103  1.0000  -1.9083   0.0000   0.0000   0.0000   0.3614
  21.300   0.9873   0.30791   0.30649  -0.1354  0.0103  1.0000  -1.8880   0.0000   0.0000   0.0000   0.3620
  21.400   0.9857   0.31031   0.30890  -0.1359  0.0103  1.0000  -1.8673   0.0000   0.0000   0.0000   0.3627
  21.500   0.9837   0.31261   0.31121  -0.1364  0.0103  1.0000  -1.8459   0.0000   0.0000   0.0000   0.3634
  21.600   0.9812   0.31480   0.31340  -0.1368  0.0103  1.0000  -1.8235   0.0000   0.0000   0.0000   0.3641
  21.700   0.9778   0.31680   0.31541  -0.1372  0.0103  1.0000  -1.7995   0.0000   0.0000   0.0000   0.3648
  21.800   0.9199   0.30612   0.30481  -0.1317  0.0103  1.0000  -1.6319   0.0000   0.0000   0.0000   0.3686
  21.900   0.9127   0.30595   0.30465  -0.1315  0.0103  1.0000  -1.5998   0.0000   0.0000   0.0000   0.3695
  22.000   0.9071   0.30605   0.30476  -0.1315  0.0103  1.0000  -1.5723   0.0000   0.0000   0.0000   0.3704
  22.100   0.9022   0.30628   0.30500  -0.1315  0.0103  1.0000  -1.5476   0.0000   0.0000   0.0000   0.3711
  22.200   0.8980   0.30659   0.30532  -0.1316  0.0103  1.0000  -1.5248   0.0000   0.0000   0.0000   0.3719
  22.300   0.8943   0.30697   0.30570  -0.1317  0.0103  1.0000  -1.5036   0.0000   0.0000   0.0000   0.3726
  22.400   0.8909   0.30739   0.30614  -0.1319  0.0103  1.0000  -1.4838   0.0000   0.0000   0.0000   0.3732
  22.500   0.8878   0.30786   0.30661  -0.1320  0.0103  1.0000  -1.4652   0.0000   0.0000   0.0000   0.3739
  22.600   0.8850   0.30835   0.30711  -0.1322  0.0103  1.0000  -1.4476   0.0000   0.0000   0.0000   0.3745
  22.700   0.8825   0.30887   0.30763  -0.1324  0.0102  1.0000  -1.4311   0.0000   0.0000   0.0000   0.3751
  22.800   0.8801   0.30941   0.30818  -0.1327  0.0102  1.0000  -1.4157   0.0000   0.0000   0.0000   0.3757
  22.900   0.8779   0.30996   0.30874  -0.1329  0.0102  1.0000  -1.4009   0.0000   0.0000   0.0000   0.3762
  23.000   0.8759   0.31053   0.30932  -0.1332  0.0102  1.0000  -1.3869   0.0000   0.0000   0.0000   0.3768
  23.100   0.8740   0.31111   0.30990  -0.1334  0.0102  1.0000  -1.3735   0.0000   0.0000   0.0000   0.3773
  23.200   0.8722   0.31171   0.31050  -0.1337  0.0102  1.0000  -1.3606   0.0000   0.0000   0.0000   0.3779
  23.300   0.8705   0.31231   0.31111  -0.1340  0.0102  1.0000  -1.3481   0.0000   0.0000   0.0000   0.3784
  23.400   0.8690   0.31292   0.31173  -0.1343  0.0102  1.0000  -1.3362   0.0000   0.0000   0.0000   0.3789
  23.500   0.8675   0.31354   0.31235  -0.1346  0.0102  1.0000  -1.3249   0.0000   0.0000   0.0000   0.3794
  23.600   0.8661   0.31417   0.31298  -0.1349  0.0101  1.0000  -1.3140   0.0000   0.0000   0.0000   0.3799
  23.700   0.8649   0.31480   0.31362  -0.1352  0.0101  1.0000  -1.3037   0.0000   0.0000   0.0000   0.3803
  23.800   0.8637   0.31543   0.31426  -0.1355  0.0101  1.0000  -1.2939   0.0000   0.0000   0.0000   0.3808
  23.900   0.8626   0.31607   0.31490  -0.1358  0.0101  1.0000  -1.2847   0.0000   0.0000   0.0000   0.3813
  24.000   0.8616   0.31671   0.31555  -0.1362  0.0101  1.0000  -1.2762   0.0000   0.0000   0.0000   0.3817
  24.100   0.8607   0.31736   0.31620  -0.1365  0.0101  1.0000  -1.2684   0.0000   0.0000   0.0000   0.3821
  24.200   0.8599   0.31801   0.31686  -0.1369  0.0100  1.0000  -1.2613   0.0000   0.0000   0.0000   0.3826
  24.300   0.8592   0.31866   0.31751  -0.1372  0.0100  1.0000  -1.2551   0.0000   0.0000   0.0000   0.3830
  24.400   0.8586   0.31931   0.31817  -0.1376  0.0100  1.0000  -1.2493   0.0000   0.0000   0.0000   0.3834
  24.500   0.8580   0.31997   0.31884  -0.1380  0.0099  1.0000  -1.2446   0.0000   0.0000   0.0000   0.3838
  24.600   0.8577   0.32064   0.31950  -0.1384  0.0099  1.0000  -1.2416   0.0000   0.0000   0.0000   0.3841
  24.700   0.8576   0.32130   0.32017  -0.1388  0.0098  1.0000  -1.2406   0.0000   0.0000   0.0000   0.3845
  24.800   0.8577   0.32201   0.32088  -0.1392  0.0096  1.0000  -1.2405   0.0000   0.0000   0.0000   0.3848
  24.900   0.8582   0.32282   0.32170  -0.1398  0.0094  1.0000  -1.2406   0.0000   0.0000   0.0000   0.3852
  25.000   0.8592   0.32376   0.32264  -0.1403  0.0089  1.0000  -1.2377   0.0000   0.0000   0.0000   0.3855
  25.100   0.8594   0.32465   0.32354  -0.1408  0.0083  1.0000  -1.2292   0.0000   0.0000   0.0000   0.3859
  25.200   0.8591   0.32543   0.32432  -0.1412  0.0078  1.0000  -1.2231   0.0000   0.0000   0.0000   0.3863
  25.300   0.8587   0.32613   0.32503  -0.1416  0.0074  1.0000  -1.2198   0.0000   0.0000   0.0000   0.3867
  25.400   0.8582   0.32681   0.32571  -0.1419  0.0071  1.0000  -1.2183   0.0000   0.0000   0.0000   0.3870
  25.500   0.8577   0.32746   0.32637  -0.1423  0.0068  1.0000  -1.2179   0.0000   0.0000   0.0000   0.3874
  25.600   0.8573   0.32811   0.32702  -0.1427  0.0065  1.0000  -1.2179   0.0000   0.0000   0.0000   0.3878


