xflr5 v6.61

 Calculated polar for: S3010-103-84

 1 1 Reynolds number fixed          Mach number fixed         

 xtrf =   1.000 (top)        1.000 (bottom)
 Mach =   0.000     Re =     0.450 e 6     Ncrit =   9.000

  alpha     CL        CD       CDp       Cm    Top Xtr Bot Xtr   Cpmin    Chinge    XCp    
 ------- -------- --------- --------- -------- ------- ------- -------- --------- ---------
 -10.000  -0.4114   0.11452   0.11201  -0.0069  1.0000  0.0223  -1.6009   0.0000   0.0000   0.0000   0.2261
  -9.900  -0.4092   0.11304   0.11053  -0.0076  1.0000  0.0223  -1.6092   0.0000   0.0000   0.0000   0.2243
  -9.800  -0.4070   0.11155   0.10905  -0.0084  1.0000  0.0223  -1.6179   0.0000   0.0000   0.0000   0.2224
  -9.700  -0.4048   0.11006   0.10757  -0.0091  1.0000  0.0223  -1.6268   0.0000   0.0000   0.0000   0.2205
  -9.600  -0.4027   0.10856   0.10608  -0.0099  1.0000  0.0223  -1.6361   0.0000   0.0000   0.0000   0.2185
  -9.500  -0.4006   0.10706   0.10458  -0.0106  1.0000  0.0223  -1.6458   0.0000   0.0000   0.0000   0.2165
  -9.400  -0.3986   0.10556   0.10308  -0.0114  1.0000  0.0223  -1.6559   0.0000   0.0000   0.0000   0.2145
  -9.300  -0.3966   0.10404   0.10158  -0.0122  1.0000  0.0223  -1.6664   0.0000   0.0000   0.0000   0.2124
  -9.200  -0.3947   0.10253   0.10007  -0.0130  1.0000  0.0223  -1.6773   0.0000   0.0000   0.0000   0.2103
  -9.100  -0.3928   0.10101   0.09856  -0.0138  1.0000  0.0223  -1.6887   0.0000   0.0000   0.0000   0.2082
  -9.000  -0.3911   0.09949   0.09705  -0.0146  1.0000  0.0223  -1.7007   0.0000   0.0000   0.0000   0.2060
  -8.900  -0.4098   0.09278   0.09038  -0.0175  1.0000  0.0231  -1.9803   0.0000   0.0000   0.0000   0.2007
  -8.800  -0.4156   0.08967   0.08729  -0.0188  1.0000  0.0236  -2.0603   0.0000   0.0000   0.0000   0.1983
  -8.700  -0.4164   0.08778   0.08541  -0.0196  1.0000  0.0240  -2.0784   0.0000   0.0000   0.0000   0.1965
  -8.600  -0.4160   0.08619   0.08383  -0.0203  1.0000  0.0242  -2.0819   0.0000   0.0000   0.0000   0.1949
  -8.500  -0.4151   0.08474   0.08238  -0.0210  1.0000  0.0245  -2.0794   0.0000   0.0000   0.0000   0.1932
  -8.400  -0.4140   0.08335   0.08101  -0.0217  1.0000  0.0248  -2.0744   0.0000   0.0000   0.0000   0.1915
  -8.300  -0.4126   0.08204   0.07971  -0.0223  1.0000  0.0250  -2.0656   0.0000   0.0000   0.0000   0.1899
  -8.200  -0.4103   0.08094   0.07862  -0.0227  1.0000  0.0253  -2.0426   0.0000   0.0000   0.0000   0.1887
  -8.100  -0.4080   0.07981   0.07751  -0.0232  1.0000  0.0255  -2.0222   0.0000   0.0000   0.0000   0.1873
  -8.000  -0.4059   0.07866   0.07636  -0.0237  1.0000  0.0258  -2.0047   0.0000   0.0000   0.0000   0.1858
  -7.900  -0.4041   0.07747   0.07519  -0.0243  1.0000  0.0260  -1.9904   0.0000   0.0000   0.0000   0.1841
  -7.800  -0.4026   0.07624   0.07398  -0.0250  1.0000  0.0263  -1.9796   0.0000   0.0000   0.0000   0.1822
  -7.700  -0.4014   0.07498   0.07273  -0.0258  1.0000  0.0266  -1.9724   0.0000   0.0000   0.0000   0.1802
  -7.600  -0.4006   0.07368   0.07144  -0.0267  1.0000  0.0268  -1.9690   0.0000   0.0000   0.0000   0.1781
  -7.500  -0.4003   0.07232   0.07011  -0.0276  1.0000  0.0271  -1.9703   0.0000   0.0000   0.0000   0.1757
  -7.400  -0.4003   0.07088   0.06869  -0.0289  1.0000  0.0273  -1.9758   0.0000   0.0000   0.0000   0.1727
  -7.300  -0.3989   0.06924   0.06706  -0.0307  1.0000  0.0276  -1.9817   0.0000   0.0000   0.0000   0.1679
  -7.200  -0.3969   0.06745   0.06529  -0.0330  1.0000  0.0279  -1.9898   0.0000   0.0000   0.0000   0.1620
  -7.100  -0.3948   0.06555   0.06339  -0.0354  1.0000  0.0281  -2.0018   0.0000   0.0000   0.0000   0.1556
  -7.000  -0.3930   0.06361   0.06146  -0.0377  1.0000  0.0285  -2.0169   0.0000   0.0000   0.0000   0.1494
  -6.900  -0.3870   0.06131   0.05915  -0.0410  0.9942  0.0289  -2.0272   0.0000   0.0000   0.0000   0.1394
  -6.800  -0.3756   0.05851   0.05630  -0.0457  0.9862  0.0296  -2.0332   0.0000   0.0000   0.0000   0.1236
  -6.700  -0.3648   0.05578   0.05353  -0.0498  0.9785  0.0304  -2.0423   0.0000   0.0000   0.0000   0.1086
  -6.600  -0.3535   0.05307   0.05075  -0.0538  0.9722  0.0313  -2.0522   0.0000   0.0000   0.0000   0.0929
  -6.500  -0.3445   0.05069   0.04829  -0.0567  0.9642  0.0322  -2.0640   0.0000   0.0000   0.0000   0.0806
  -6.400  -0.3361   0.04847   0.04599  -0.0590  0.9563  0.0332  -2.0757   0.0000   0.0000   0.0000   0.0694
  -6.300  -0.3280   0.04645   0.04387  -0.0607  0.9494  0.0342  -2.0875   0.0000   0.0000   0.0000   0.0596
  -6.200  -0.3224   0.04480   0.04214  -0.0614  0.9414  0.0350  -2.0965   0.0000   0.0000   0.0000   0.0542
  -6.100  -0.3161   0.04336   0.04061  -0.0619  0.9340  0.0359  -2.0992   0.0000   0.0000   0.0000   0.0489
  -6.000  -0.3091   0.04221   0.03936  -0.0620  0.9275  0.0369  -2.0931   0.0000   0.0000   0.0000   0.0440
  -5.900  -0.3008   0.04151   0.03857  -0.0619  0.9218  0.0379  -2.0720   0.0000   0.0000   0.0000   0.0388
  -5.800  -0.2902   0.04158   0.03859  -0.0616  0.9164  0.0391  -2.0237   0.0000   0.0000   0.0000   0.0322
  -5.700  -0.2793   0.04205   0.03898  -0.0611  0.9105  0.0399  -1.9653   0.0000   0.0000   0.0000   0.0256
  -5.600  -0.2716   0.04154   0.03838  -0.0609  0.9042  0.0402  -1.9383   0.0000   0.0000   0.0000   0.0200
  -5.500  -0.2649   0.04069   0.03742  -0.0608  0.8983  0.0403  -1.9219   0.0000   0.0000   0.0000   0.0149
  -5.400  -0.2582   0.03972   0.03633  -0.0606  0.8924  0.0404  -1.9082   0.0000   0.0000   0.0000   0.0096
  -5.300  -0.2507   0.03862   0.03513  -0.0607  0.8877  0.0405  -1.8943   0.0000   0.0000   0.0000   0.0021
  -5.200  -0.2428   0.03748   0.03390  -0.0608  0.8829  0.0405  -1.8802   0.0000   0.0000   0.0000  -0.0061
  -5.100  -0.2511   0.02860   0.02454  -0.0629  0.8778  0.0440  -2.1053   0.0000   0.0000   0.0000  -0.0067
  -5.000  -0.2430   0.02757   0.02346  -0.0628  0.8728  0.0450  -2.0650   0.0000   0.0000   0.0000  -0.0147
  -4.900  -0.2345   0.02677   0.02261  -0.0627  0.8680  0.0460  -2.0201   0.0000   0.0000   0.0000  -0.0234
  -4.800  -0.2256   0.02609   0.02188  -0.0625  0.8634  0.0469  -1.9727   0.0000   0.0000   0.0000  -0.0331
  -4.700  -0.2165   0.02546   0.02120  -0.0622  0.8588  0.0478  -1.9253   0.0000   0.0000   0.0000  -0.0438
  -4.600  -0.2070   0.02484   0.02053  -0.0621  0.8543  0.0488  -1.8793   0.0000   0.0000   0.0000  -0.0564
  -4.500  -0.1969   0.02418   0.01983  -0.0621  0.8511  0.0499  -1.8346   0.0000   0.0000   0.0000  -0.0717
  -4.400  -0.1868   0.02354   0.01913  -0.0620  0.8475  0.0511  -1.7921   0.0000   0.0000   0.0000  -0.0886
  -4.300  -0.1765   0.02292   0.01844  -0.0619  0.8435  0.0525  -1.7514   0.0000   0.0000   0.0000  -0.1074
  -4.200  -0.1663   0.02232   0.01777  -0.0617  0.8392  0.0540  -1.7123   0.0000   0.0000   0.0000  -0.1284
  -4.100  -0.1559   0.02175   0.01712  -0.0615  0.8348  0.0555  -1.6744   0.0000   0.0000   0.0000  -0.1519
  -4.000  -0.1455   0.02121   0.01650  -0.0613  0.8302  0.0570  -1.6376   0.0000   0.0000   0.0000  -0.1786
  -3.900  -0.1319   0.01502   0.00924  -0.0591  0.8275  0.0267  -2.0994   0.0000   0.0000   0.0000  -0.2076
  -3.800  -0.1204   0.01497   0.00909  -0.0587  0.8227  0.0243  -2.0603   0.0000   0.0000   0.0000  -0.2470
  -3.700  -0.1093   0.01518   0.00927  -0.0584  0.8170  0.0234  -1.9835   0.0000   0.0000   0.0000  -0.2949
  -3.600  -0.0982   0.01458   0.00862  -0.0581  0.8133  0.0216  -1.9647   0.0000   0.0000   0.0000  -0.3528
  -3.500  -0.0879   0.01340   0.00732  -0.0578  0.8100  0.0208  -1.9784   0.0000   0.0000   0.0000  -0.4199
  -3.400  -0.0772   0.01270   0.00653  -0.0575  0.8060  0.0202  -1.9606   0.0000   0.0000   0.0000  -0.5081
  -3.300  -0.0666   0.01215   0.00591  -0.0572  0.8017  0.0198  -1.9324   0.0000   0.0000   0.0000  -0.6247
  -3.200  -0.0559   0.01171   0.00539  -0.0570  0.7972  0.0193  -1.8967   0.0000   0.0000   0.0000  -0.7862
  -3.100  -0.0452   0.01136   0.00496  -0.0567  0.7927  0.0190  -1.8530   0.0000   0.0000   0.0000  -1.0255
  -3.000  -0.0344   0.01112   0.00454  -0.0565  0.7883  0.0186  -1.8045   0.0000   0.0000   0.0000  -1.4183
  -2.900  -0.0237   0.01083   0.00416  -0.0562  0.7837  0.0183  -1.7616   0.0000   0.0000   0.0000  -2.1619
  -2.800  -0.0129   0.01059   0.00384  -0.0560  0.7788  0.0180  -1.7153   0.0000   0.0000   0.0000  -4.1628
  -2.700  -0.0019   0.01040   0.00356  -0.0558  0.7732  0.0178  -1.6659   0.0000   0.0000   0.0000  -29.2156
  -2.600   0.0094   0.01021   0.00332  -0.0557  0.7703  0.0176  -1.6130   0.0000   0.0000   0.0000   6.2342
  -2.500   0.0208   0.01003   0.00310  -0.0556  0.7673  0.0175  -1.5578   0.0000   0.0000   0.0000   2.9539
  -2.400   0.0322   0.00989   0.00292  -0.0555  0.7637  0.0174  -1.5003   0.0000   0.0000   0.0000   1.9936
  -2.300   0.0435   0.00978   0.00275  -0.0554  0.7594  0.0175  -1.4409   0.0000   0.0000   0.0000   1.5359
  -2.200   0.0548   0.00969   0.00261  -0.0553  0.7546  0.0176  -1.3797   0.0000   0.0000   0.0000   1.2683
  -2.100   0.0660   0.00961   0.00248  -0.0551  0.7496  0.0178  -1.3164   0.0000   0.0000   0.0000   1.0927
  -2.000   0.0771   0.00955   0.00235  -0.0549  0.7442  0.0181  -1.2565   0.0000   0.0000   0.0000   0.9686
  -1.900   0.0882   0.00951   0.00224  -0.0548  0.7386  0.0186  -1.1973   0.0000   0.0000   0.0000   0.8761
  -1.800   0.0992   0.00948   0.00215  -0.0546  0.7323  0.0194  -1.1382   0.0000   0.0000   0.0000   0.8044
  -1.700   0.1105   0.00945   0.00209  -0.0545  0.7266  0.0206  -1.0789   0.0000   0.0000   0.0000   0.7467
  -1.600   0.1219   0.00939   0.00203  -0.0545  0.7237  0.0224  -1.0182   0.0000   0.0000   0.0000   0.6994
  -1.500   0.1329   0.00911   0.00193  -0.0545  0.7203  0.0665  -0.9585   0.0000   0.0000   0.0000   0.6621
  -1.400   0.1437   0.00879   0.00187  -0.0546  0.7164  0.1252  -0.8955   0.0000   0.0000   0.0000   0.6315
  -1.300   0.1546   0.00862   0.00183  -0.0546  0.7119  0.1612  -0.8295   0.0000   0.0000   0.0000   0.6043
  -1.200   0.1655   0.00846   0.00181  -0.0546  0.7069  0.1979  -0.7633   0.0000   0.0000   0.0000   0.5808
  -1.100   0.1762   0.00830   0.00178  -0.0546  0.7015  0.2366  -0.7051   0.0000   0.0000   0.0000   0.5602
  -1.000   0.1869   0.00816   0.00176  -0.0545  0.6956  0.2753  -0.6609   0.0000   0.0000   0.0000   0.5420
  -0.900   0.1976   0.00806   0.00174  -0.0544  0.6891  0.3122  -0.6180   0.0000   0.0000   0.0000   0.5256
  -0.800   0.2084   0.00800   0.00173  -0.0544  0.6816  0.3445  -0.5761   0.0000   0.0000   0.0000   0.5109
  -0.700   0.2194   0.00786   0.00173  -0.0544  0.6779  0.3803  -0.5641   0.0000   0.0000   0.0000   0.4977
  -0.600   0.2305   0.00775   0.00174  -0.0544  0.6745  0.4108  -0.5748   0.0000   0.0000   0.0000   0.4855
  -0.500   0.2415   0.00765   0.00174  -0.0544  0.6705  0.4448  -0.5856   0.0000   0.0000   0.0000   0.4745
  -0.400   0.2523   0.00752   0.00175  -0.0543  0.6660  0.4846  -0.5962   0.0000   0.0000   0.0000   0.4645
  -0.300   0.2630   0.00741   0.00175  -0.0542  0.6611  0.5236  -0.6069   0.0000   0.0000   0.0000   0.4552
  -0.200   0.2737   0.00731   0.00176  -0.0541  0.6559  0.5645  -0.6175   0.0000   0.0000   0.0000   0.4466
  -0.100   0.2832   0.00710   0.00180  -0.0537  0.6506  0.6360  -0.6275   0.0000   0.0000   0.0000   0.4386
   0.000   0.2918   0.00690   0.00185  -0.0531  0.6448  0.7193  -0.6371   0.0000   0.0000   0.0000   0.4306
   0.100   0.2987   0.00671   0.00191  -0.0519  0.6382  0.8037  -0.6465   0.0000   0.0000   0.0000   0.4223
   0.200   0.3041   0.00657   0.00197  -0.0502  0.6314  0.8766  -0.6556   0.0000   0.0000   0.0000   0.4136
   0.300   0.3145   0.00643   0.00197  -0.0495  0.6285  0.9483  -0.6681   0.0000   0.0000   0.0000   0.4057
   0.400   0.3364   0.00639   0.00194  -0.0516  0.6239  0.9809  -0.6879   0.0000   0.0000   0.0000   0.4016
   0.500   0.3535   0.00638   0.00193  -0.0528  0.6184  0.9950  -0.7047   0.0000   0.0000   0.0000   0.3976
   0.600   0.3665   0.00641   0.00192  -0.0532  0.6126  1.0000  -0.7186   0.0000   0.0000   0.0000   0.3932
   0.700   0.3773   0.00644   0.00190  -0.0531  0.6070  1.0000  -0.7312   0.0000   0.0000   0.0000   0.3887
   0.800   0.3880   0.00649   0.00190  -0.0530  0.6011  1.0000  -0.7438   0.0000   0.0000   0.0000   0.3845
   0.900   0.3987   0.00655   0.00189  -0.0529  0.5943  1.0000  -0.7563   0.0000   0.0000   0.0000   0.3804
   1.000   0.4093   0.00662   0.00190  -0.0528  0.5862  1.0000  -0.7689   0.0000   0.0000   0.0000   0.3766
   1.100   0.4203   0.00666   0.00191  -0.0527  0.5806  1.0000  -0.7817   0.0000   0.0000   0.0000   0.3730
   1.200   0.4315   0.00668   0.00191  -0.0527  0.5771  1.0000  -0.7947   0.0000   0.0000   0.0000   0.3697
   1.300   0.4426   0.00670   0.00191  -0.0527  0.5725  1.0000  -0.8082   0.0000   0.0000   0.0000   0.3664
   1.400   0.4537   0.00673   0.00192  -0.0526  0.5671  1.0000  -0.8233   0.0000   0.0000   0.0000   0.3633
   1.500   0.4647   0.00677   0.00192  -0.0526  0.5615  1.0000  -0.8384   0.0000   0.0000   0.0000   0.3604
   1.600   0.4756   0.00682   0.00193  -0.0525  0.5557  1.0000  -0.8535   0.0000   0.0000   0.0000   0.3576
   1.700   0.4865   0.00688   0.00194  -0.0524  0.5496  1.0000  -0.8685   0.0000   0.0000   0.0000   0.3549
   1.800   0.4973   0.00695   0.00196  -0.0523  0.5427  1.0000  -0.8836   0.0000   0.0000   0.0000   0.3523
   1.900   0.5081   0.00704   0.00198  -0.0523  0.5348  1.0000  -0.8986   0.0000   0.0000   0.0000   0.3498
   2.000   0.5192   0.00708   0.00201  -0.0522  0.5305  1.0000  -0.9140   0.0000   0.0000   0.0000   0.3475
   2.100   0.5305   0.00710   0.00203  -0.0522  0.5276  1.0000  -0.9296   0.0000   0.0000   0.0000   0.3453
   2.200   0.5417   0.00713   0.00205  -0.0522  0.5237  1.0000  -0.9460   0.0000   0.0000   0.0000   0.3431
   2.300   0.5528   0.00717   0.00207  -0.0522  0.5187  1.0000  -0.9643   0.0000   0.0000   0.0000   0.3411
   2.400   0.5638   0.00722   0.00209  -0.0522  0.5129  1.0000  -0.9825   0.0000   0.0000   0.0000   0.3391
   2.500   0.5747   0.00728   0.00211  -0.0521  0.5064  1.0000  -1.0008   0.0000   0.0000   0.0000   0.3371
   2.600   0.5855   0.00736   0.00213  -0.0520  0.4992  1.0000  -1.0189   0.0000   0.0000   0.0000   0.3352
   2.700   0.5962   0.00744   0.00217  -0.0519  0.4912  1.0000  -1.0371   0.0000   0.0000   0.0000   0.3334
   2.800   0.6070   0.00755   0.00221  -0.0519  0.4826  1.0000  -1.0552   0.0000   0.0000   0.0000   0.3317
   2.900   0.6183   0.00757   0.00225  -0.0519  0.4800  1.0000  -1.0740   0.0000   0.0000   0.0000   0.3300
   3.000   0.6295   0.00761   0.00228  -0.0519  0.4770  1.0000  -1.0929   0.0000   0.0000   0.0000   0.3285
   3.100   0.6407   0.00764   0.00232  -0.0519  0.4730  1.0000  -1.1118   0.0000   0.0000   0.0000   0.3269
   3.200   0.6517   0.00769   0.00235  -0.0518  0.4679  1.0000  -1.1322   0.0000   0.0000   0.0000   0.3254
   3.300   0.6627   0.00775   0.00238  -0.0518  0.4620  1.0000  -1.1545   0.0000   0.0000   0.0000   0.3240
   3.400   0.6735   0.00783   0.00241  -0.0517  0.4552  1.0000  -1.1768   0.0000   0.0000   0.0000   0.3225
   3.500   0.6842   0.00792   0.00245  -0.0517  0.4476  1.0000  -1.1989   0.0000   0.0000   0.0000   0.3211
   3.600   0.6948   0.00803   0.00251  -0.0516  0.4387  1.0000  -1.2211   0.0000   0.0000   0.0000   0.3198
   3.700   0.7056   0.00812   0.00257  -0.0515  0.4320  1.0000  -1.2435   0.0000   0.0000   0.0000   0.3185
   3.800   0.7169   0.00815   0.00261  -0.0515  0.4294  1.0000  -1.2666   0.0000   0.0000   0.0000   0.3173
   3.900   0.7281   0.00819   0.00271  -0.0515  0.4263  1.0000  -1.2902   0.0000   0.0000   0.0000   0.3161
   4.000   0.7391   0.00824   0.00275  -0.0515  0.4222  1.0000  -1.3134   0.0000   0.0000   0.0000   0.3149
   4.100   0.7501   0.00830   0.00280  -0.0515  0.4173  1.0000  -1.3366   0.0000   0.0000   0.0000   0.3137
   4.200   0.7610   0.00837   0.00284  -0.0514  0.4116  1.0000  -1.3597   0.0000   0.0000   0.0000   0.3126
   4.300   0.7717   0.00846   0.00289  -0.0514  0.4050  1.0000  -1.3827   0.0000   0.0000   0.0000   0.3115
   4.400   0.7822   0.00858   0.00295  -0.0513  0.3970  1.0000  -1.4055   0.0000   0.0000   0.0000   0.3104
   4.500   0.7926   0.00871   0.00303  -0.0512  0.3873  1.0000  -1.4319   0.0000   0.0000   0.0000   0.3093
   4.600   0.8036   0.00877   0.00309  -0.0512  0.3825  1.0000  -1.4605   0.0000   0.0000   0.0000   0.3083
   4.700   0.8147   0.00882   0.00314  -0.0512  0.3788  1.0000  -1.4895   0.0000   0.0000   0.0000   0.3073
   4.800   0.8257   0.00888   0.00319  -0.0512  0.3741  1.0000  -1.5185   0.0000   0.0000   0.0000   0.3064
   4.900   0.8365   0.00895   0.00325  -0.0511  0.3687  1.0000  -1.5474   0.0000   0.0000   0.0000   0.3054
   5.000   0.8472   0.00904   0.00331  -0.0511  0.3626  1.0000  -1.5763   0.0000   0.0000   0.0000   0.3045
   5.100   0.8578   0.00915   0.00338  -0.0510  0.3559  1.0000  -1.6104   0.0000   0.0000   0.0000   0.3036
   5.200   0.8681   0.00928   0.00346  -0.0509  0.3480  1.0000  -1.6454   0.0000   0.0000   0.0000   0.3027
   5.300   0.8785   0.00943   0.00356  -0.0508  0.3387  1.0000  -1.6804   0.0000   0.0000   0.0000   0.3018
   5.400   0.8894   0.00949   0.00363  -0.0508  0.3351  1.0000  -1.7170   0.0000   0.0000   0.0000   0.3009
   5.500   0.9004   0.00955   0.00370  -0.0508  0.3309  1.0000  -1.7539   0.0000   0.0000   0.0000   0.3001
   5.600   0.9111   0.00963   0.00377  -0.0508  0.3250  1.0000  -1.7905   0.0000   0.0000   0.0000   0.2993
   5.700   0.9216   0.00974   0.00384  -0.0507  0.3178  1.0000  -1.8270   0.0000   0.0000   0.0000   0.2985
   5.800   0.9319   0.00988   0.00392  -0.0506  0.3098  1.0000  -1.8633   0.0000   0.0000   0.0000   0.2977
   5.900   0.9420   0.01004   0.00403  -0.0505  0.3007  1.0000  -1.8993   0.0000   0.0000   0.0000   0.2969
   6.000   0.9522   0.01019   0.00415  -0.0504  0.2922  1.0000  -1.9356   0.0000   0.0000   0.0000   0.2961
   6.100   0.9631   0.01025   0.00423  -0.0504  0.2892  1.0000  -1.9736   0.0000   0.0000   0.0000   0.2953
   6.200   0.9738   0.01034   0.00431  -0.0503  0.2843  1.0000  -2.0115   0.0000   0.0000   0.0000   0.2946
   6.300   0.9842   0.01045   0.00440  -0.0503  0.2775  1.0000  -2.0491   0.0000   0.0000   0.0000   0.2939
   6.400   0.9943   0.01061   0.00450  -0.0502  0.2690  1.0000  -2.0863   0.0000   0.0000   0.0000   0.2931
   6.500   1.0040   0.01081   0.00462  -0.0500  0.2584  1.0000  -2.1229   0.0000   0.0000   0.0000   0.2924
   6.600   1.0140   0.01097   0.00475  -0.0499  0.2487  1.0000  -2.1601   0.0000   0.0000   0.0000   0.2917
   6.700   1.0246   0.01107   0.00484  -0.0499  0.2433  1.0000  -2.1990   0.0000   0.0000   0.0000   0.2910
   6.800   1.0346   0.01122   0.00494  -0.0498  0.2340  1.0000  -2.2371   0.0000   0.0000   0.0000   0.2903
   6.900   1.0439   0.01147   0.00507  -0.0496  0.2217  1.0000  -2.2739   0.0000   0.0000   0.0000   0.2896
   7.000   1.0533   0.01169   0.00523  -0.0495  0.2085  1.0000  -2.3137   0.0000   0.0000   0.0000   0.2889
   7.100   1.0635   0.01182   0.00534  -0.0494  0.2015  1.0000  -2.3631   0.0000   0.0000   0.0000   0.2883
   7.200   1.0731   0.01203   0.00548  -0.0493  0.1917  1.0000  -2.4111   0.0000   0.0000   0.0000   0.2876
   7.300   1.0822   0.01229   0.00564  -0.0491  0.1804  1.0000  -2.4580   0.0000   0.0000   0.0000   0.2870
   7.400   1.0954   0.01210   0.00599  -0.0492  0.2042  1.0000  -2.5253   0.0000   0.0000   0.0000   0.2863
   7.500   1.1055   0.01225   0.00613  -0.0491  0.1989  1.0000  -2.5782   0.0000   0.0000   0.0000   0.2857
   7.600   1.1152   0.01243   0.00628  -0.0489  0.1925  1.0000  -2.6296   0.0000   0.0000   0.0000   0.2851
   7.700   1.1246   0.01265   0.00644  -0.0488  0.1854  1.0000  -2.6798   0.0000   0.0000   0.0000   0.2844
   7.800   1.1339   0.01288   0.00663  -0.0486  0.1770  1.0000  -2.7294   0.0000   0.0000   0.0000   0.2838
   7.900   1.1436   0.01306   0.00682  -0.0484  0.1713  1.0000  -2.7801   0.0000   0.0000   0.0000   0.2832
   8.000   1.1540   0.01316   0.00695  -0.0484  0.1689  1.0000  -2.8650   0.0000   0.0000   0.0000   0.2826
   8.100   1.1640   0.01330   0.00710  -0.0483  0.1652  1.0000  -2.9644   0.0000   0.0000   0.0000   0.2820
   8.200   1.1737   0.01347   0.00726  -0.0481  0.1605  1.0000  -3.0632   0.0000   0.0000   0.0000   0.2814
   8.300   1.1830   0.01368   0.00743  -0.0480  0.1550  1.0000  -3.1610   0.0000   0.0000   0.0000   0.2808
   8.400   1.1920   0.01393   0.00763  -0.0478  0.1488  1.0000  -3.2579   0.0000   0.0000   0.0000   0.2802
   8.500   1.2009   0.01419   0.00786  -0.0475  0.1411  1.0000  -3.3543   0.0000   0.0000   0.0000   0.2796
   8.600   1.2104   0.01437   0.00806  -0.0474  0.1370  1.0000  -3.4556   0.0000   0.0000   0.0000   0.2790
   8.700   1.2204   0.01450   0.00821  -0.0472  0.1347  1.0000  -3.5614   0.0000   0.0000   0.0000   0.2784
   8.800   1.2300   0.01465   0.00838  -0.0471  0.1315  1.0000  -3.6665   0.0000   0.0000   0.0000   0.2779
   8.900   1.2393   0.01485   0.00857  -0.0469  0.1273  1.0000  -3.7706   0.0000   0.0000   0.0000   0.2773
   9.000   1.2480   0.01511   0.00878  -0.0467  0.1221  1.0000  -3.8726   0.0000   0.0000   0.0000   0.2767
   9.100   1.2562   0.01542   0.00902  -0.0464  0.1152  1.0000  -3.9723   0.0000   0.0000   0.0000   0.2761
   9.200   1.2640   0.01576   0.00933  -0.0461  0.1070  1.0000  -4.0691   0.0000   0.0000   0.0000   0.2754
   9.300   1.2740   0.01585   0.00946  -0.0460  0.1051  1.0000  -4.1832   0.0000   0.0000   0.0000   0.2750
   9.400   1.2834   0.01602   0.00963  -0.0458  0.1018  1.0000  -4.2942   0.0000   0.0000   0.0000   0.2744
   9.500   1.2921   0.01625   0.00983  -0.0456  0.0972  1.0000  -4.4020   0.0000   0.0000   0.0000   0.2739
   9.600   1.3001   0.01654   0.01008  -0.0453  0.0921  1.0000  -4.5064   0.0000   0.0000   0.0000   0.2733
   9.700   1.3077   0.01688   0.01036  -0.0450  0.0862  1.0000  -4.6085   0.0000   0.0000   0.0000   0.2727
   9.800   1.3152   0.01723   0.01069  -0.0446  0.0802  1.0000  -4.7088   0.0000   0.0000   0.0000   0.2720
   9.900   1.3244   0.01738   0.01087  -0.0444  0.0789  1.0000  -4.8235   0.0000   0.0000   0.0000   0.2715
  10.000   1.3335   0.01754   0.01106  -0.0442  0.0773  1.0000  -4.9383   0.0000   0.0000   0.0000   0.2710
  10.100   1.3422   0.01774   0.01128  -0.0440  0.0751  1.0000  -5.0514   0.0000   0.0000   0.0000   0.2704
  10.200   1.3505   0.01798   0.01151  -0.0437  0.0725  1.0000  -5.1627   0.0000   0.0000   0.0000   0.2699
  10.300   1.3583   0.01826   0.01178  -0.0434  0.0696  1.0000  -5.2718   0.0000   0.0000   0.0000   0.2693
  10.400   1.3655   0.01857   0.01206  -0.0430  0.0666  1.0000  -5.3785   0.0000   0.0000   0.0000   0.2687
  10.500   1.3720   0.01895   0.01242  -0.0426  0.0593  1.0000  -5.4684   0.0000   0.0000   0.0000   0.2681
  10.600   1.3794   0.01923   0.01271  -0.0423  0.0563  1.0000  -5.5738   0.0000   0.0000   0.0000   0.2675
  10.700   1.3880   0.01941   0.01291  -0.0420  0.0554  1.0000  -5.6905   0.0000   0.0000   0.0000   0.2670
  10.800   1.3961   0.01961   0.01314  -0.0417  0.0540  1.0000  -5.8054   0.0000   0.0000   0.0000   0.2664
  10.900   1.4038   0.01985   0.01339  -0.0414  0.0523  1.0000  -5.9183   0.0000   0.0000   0.0000   0.2659
  11.000   1.4111   0.02011   0.01365  -0.0410  0.0502  1.0000  -6.0292   0.0000   0.0000   0.0000   0.2653
  11.100   1.4178   0.02042   0.01394  -0.0406  0.0478  1.0000  -6.1372   0.0000   0.0000   0.0000   0.2647
  11.200   1.4239   0.02076   0.01426  -0.0401  0.0452  1.0000  -6.2413   0.0000   0.0000   0.0000   0.2640
  11.300   1.4296   0.02113   0.01461  -0.0395  0.0425  1.0000  -6.3420   0.0000   0.0000   0.0000   0.2634
  11.400   1.4352   0.02150   0.01498  -0.0390  0.0393  1.0000  -6.4412   0.0000   0.0000   0.0000   0.2627
  11.500   1.4408   0.02182   0.01532  -0.0384  0.0369  1.0000  -6.5406   0.0000   0.0000   0.0000   0.2620
  11.600   1.4470   0.02206   0.01558  -0.0379  0.0358  1.0000  -6.6456   0.0000   0.0000   0.0000   0.2614
  11.700   1.4517   0.02239   0.01591  -0.0371  0.0334  1.0000  -6.7378   0.0000   0.0000   0.0000   0.2607
  11.800   1.4533   0.02291   0.01637  -0.0361  0.0286  1.0000  -6.8047   0.0000   0.0000   0.0000   0.2598
  11.900   1.4508   0.02371   0.01706  -0.0348  0.0206  1.0000  -6.8333   0.0000   0.0000   0.0000   0.2587
  12.000   1.4450   0.02477   0.01802  -0.0332  0.0141  1.0000  -6.8254   0.0000   0.0000   0.0000   0.2576
  12.100   1.4401   0.02583   0.01911  -0.0317  0.0096  1.0000  -6.7745   0.0000   0.0000   0.0000   0.2564
  12.200   1.4409   0.02651   0.01985  -0.0309  0.0091  1.0000  -6.8120   0.0000   0.0000   0.0000   0.2557
  12.300   1.4418   0.02719   0.02060  -0.0301  0.0088  1.0000  -6.8549   0.0000   0.0000   0.0000   0.2549
  12.400   1.4424   0.02790   0.02137  -0.0294  0.0085  1.0000  -6.8985   0.0000   0.0000   0.0000   0.2543
  12.500   1.4431   0.02863   0.02217  -0.0287  0.0084  1.0000  -6.9441   0.0000   0.0000   0.0000   0.2536
  12.600   1.4436   0.02941   0.02301  -0.0281  0.0082  1.0000  -6.9889   0.0000   0.0000   0.0000   0.2530
  12.700   1.4437   0.03024   0.02391  -0.0275  0.0081  1.0000  -7.0325   0.0000   0.0000   0.0000   0.2524
  12.800   1.4438   0.03110   0.02484  -0.0270  0.0080  1.0000  -7.0759   0.0000   0.0000   0.0000   0.2519
  12.900   1.4433   0.03204   0.02585  -0.0266  0.0079  1.0000  -7.1162   0.0000   0.0000   0.0000   0.2514
  13.000   1.4425   0.03303   0.02691  -0.0262  0.0078  1.0000  -7.1542   0.0000   0.0000   0.0000   0.2509
  13.100   1.4417   0.03404   0.02799  -0.0259  0.0078  1.0000  -7.1923   0.0000   0.0000   0.0000   0.2505
  13.200   1.4403   0.03514   0.02915  -0.0256  0.0077  1.0000  -7.2259   0.0000   0.0000   0.0000   0.2501
  13.300   1.4382   0.03630   0.03038  -0.0253  0.0077  1.0000  -7.2558   0.0000   0.0000   0.0000   0.2498
  13.400   1.4364   0.03748   0.03163  -0.0251  0.0077  1.0000  -7.2864   0.0000   0.0000   0.0000   0.2495
  13.500   1.4342   0.03874   0.03297  -0.0250  0.0076  1.0000  -7.3141   0.0000   0.0000   0.0000   0.2492
  13.600   1.4314   0.04012   0.03441  -0.0250  0.0076  1.0000  -7.3377   0.0000   0.0000   0.0000   0.2491
  13.700   1.4290   0.04149   0.03584  -0.0250  0.0076  1.0000  -7.3627   0.0000   0.0000   0.0000   0.2489
  13.800   1.4264   0.04291   0.03734  -0.0251  0.0076  1.0000  -7.3859   0.0000   0.0000   0.0000   0.2487
  13.900   1.4228   0.04450   0.03900  -0.0253  0.0076  1.0000  -7.4021   0.0000   0.0000   0.0000   0.2487
  14.000   1.4196   0.04607   0.04063  -0.0255  0.0075  1.0000  -7.4199   0.0000   0.0000   0.0000   0.2487
  14.100   1.4164   0.04763   0.04227  -0.0257  0.0075  1.0000  -7.4380   0.0000   0.0000   0.0000   0.2487
  14.200   1.4124   0.04938   0.04408  -0.0261  0.0075  1.0000  -7.4490   0.0000   0.0000   0.0000   0.2488
  14.300   1.4082   0.05115   0.04593  -0.0265  0.0075  1.0000  -7.4587   0.0000   0.0000   0.0000   0.2489
  14.400   1.4044   0.05287   0.04772  -0.0268  0.0075  1.0000  -7.4702   0.0000   0.0000   0.0000   0.2490
  14.500   1.4004   0.05463   0.04955  -0.0272  0.0075  1.0000  -7.4800   0.0000   0.0000   0.0000   0.2492
  14.600   1.3952   0.05664   0.05162  -0.0279  0.0075  1.0000  -7.4804   0.0000   0.0000   0.0000   0.2495
  14.700   1.3906   0.05855   0.05360  -0.0284  0.0075  1.0000  -7.4839   0.0000   0.0000   0.0000   0.2498
  14.800   1.3860   0.06040   0.05552  -0.0289  0.0075  1.0000  -7.4878   0.0000   0.0000   0.0000   0.2500
  14.900   1.3811   0.06230   0.05748  -0.0295  0.0075  1.0000  -7.4884   0.0000   0.0000   0.0000   0.2503
  15.000   1.3750   0.06449   0.05974  -0.0303  0.0075  1.0000  -7.4800   0.0000   0.0000   0.0000   0.2507
  15.100   1.3699   0.06657   0.06189  -0.0310  0.0076  1.0000  -7.4772   0.0000   0.0000   0.0000   0.2511
  15.200   1.3653   0.06861   0.06399  -0.0317  0.0076  1.0000  -7.4765   0.0000   0.0000   0.0000   0.2515
  15.300   1.3607   0.07069   0.06613  -0.0324  0.0076  1.0000  -7.4753   0.0000   0.0000   0.0000   0.2519
  15.400   1.3549   0.07308   0.06860  -0.0335  0.0076  1.0000  -7.4636   0.0000   0.0000   0.0000   0.2526
  15.500   1.3495   0.07543   0.07102  -0.0344  0.0076  1.0000  -7.4541   0.0000   0.0000   0.0000   0.2532
  15.600   1.3447   0.07766   0.07331  -0.0353  0.0076  1.0000  -7.4484   0.0000   0.0000   0.0000   0.2537
  15.700   1.3402   0.07988   0.07559  -0.0362  0.0076  1.0000  -7.4433   0.0000   0.0000   0.0000   0.2543
  15.800   1.3355   0.08215   0.07792  -0.0371  0.0076  1.0000  -7.4360   0.0000   0.0000   0.0000   0.2549
  15.900   1.3293   0.08479   0.08063  -0.0384  0.0076  1.0000  -7.4160   0.0000   0.0000   0.0000   0.2557
  16.000   1.3240   0.08728   0.08319  -0.0395  0.0077  1.0000  -7.4009   0.0000   0.0000   0.0000   0.2565
  16.100   1.3191   0.08964   0.08561  -0.0405  0.0077  1.0000  -7.3892   0.0000   0.0000   0.0000   0.2572
  16.200   1.3144   0.09197   0.08801  -0.0416  0.0077  1.0000  -7.3775   0.0000   0.0000   0.0000   0.2579
  16.300   1.3097   0.09435   0.09045  -0.0427  0.0077  1.0000  -7.3642   0.0000   0.0000   0.0000   0.2587
  16.400   1.3039   0.09700   0.09317  -0.0440  0.0077  1.0000  -7.3404   0.0000   0.0000   0.0000   0.2596
  16.500   1.2977   0.09974   0.09597  -0.0454  0.0077  1.0000  -7.3127   0.0000   0.0000   0.0000   0.2607
  16.600   1.2926   0.10225   0.09855  -0.0467  0.0078  1.0000  -7.2923   0.0000   0.0000   0.0000   0.2616
  16.700   1.2877   0.10470   0.10106  -0.0479  0.0078  1.0000  -7.2723   0.0000   0.0000   0.0000   0.2625
  16.800   1.2827   0.10717   0.10359  -0.0492  0.0078  1.0000  -7.2503   0.0000   0.0000   0.0000   0.2635
  16.900   1.2774   0.10971   0.10620  -0.0505  0.0078  1.0000  -7.2243   0.0000   0.0000   0.0000   0.2645
  17.000   1.2706   0.11271   0.10926  -0.0522  0.0078  1.0000  -7.1827   0.0000   0.0000   0.0000   0.2659
  17.100   1.2647   0.11545   0.11207  -0.0538  0.0079  1.0000  -7.1479   0.0000   0.0000   0.0000   0.2672
  17.200   1.2593   0.11806   0.11474  -0.0553  0.0079  1.0000  -7.1160   0.0000   0.0000   0.0000   0.2683
  17.300   1.2540   0.12066   0.11740  -0.0568  0.0079  1.0000  -7.0828   0.0000   0.0000   0.0000   0.2695
  17.400   1.2485   0.12331   0.12011  -0.0583  0.0079  1.0000  -7.0466   0.0000   0.0000   0.0000   0.2708
  17.500   1.2417   0.12618   0.12305  -0.0602  0.0079  1.0000  -6.9956   0.0000   0.0000   0.0000   0.2724
  17.600   1.2349   0.12901   0.12594  -0.0620  0.0080  1.0000  -6.9430   0.0000   0.0000   0.0000   0.2741
  17.700   1.2290   0.13164   0.12863  -0.0637  0.0080  1.0000  -6.8969   0.0000   0.0000   0.0000   0.2755
  17.800   1.2233   0.13433   0.13138  -0.0655  0.0080  1.0000  -6.8502   0.0000   0.0000   0.0000   0.2770
  17.900   1.2174   0.13718   0.13429  -0.0673  0.0080  1.0000  -6.7982   0.0000   0.0000   0.0000   0.2786
  18.000   1.2099   0.14053   0.13770  -0.0694  0.0081  1.0000  -6.7281   0.0000   0.0000   0.0000   0.2807
  18.100   1.2026   0.14396   0.14119  -0.0716  0.0081  1.0000  -6.6554   0.0000   0.0000   0.0000   0.2827
  18.200   1.1961   0.14724   0.14452  -0.0736  0.0081  1.0000  -6.5890   0.0000   0.0000   0.0000   0.2846
  18.300   1.1895   0.15063   0.14797  -0.0757  0.0081  1.0000  -6.5176   0.0000   0.0000   0.0000   0.2866
  18.400   1.1822   0.15432   0.15172  -0.0779  0.0082  1.0000  -6.4344   0.0000   0.0000   0.0000   0.2888
  18.500   1.1729   0.15873   0.15619  -0.0806  0.0082  1.0000  -6.3245   0.0000   0.0000   0.0000   0.2915
  18.600   1.1653   0.16275   0.16027  -0.0829  0.0082  1.0000  -6.2284   0.0000   0.0000   0.0000   0.2939
  18.700   1.1574   0.16692   0.16449  -0.0853  0.0083  1.0000  -6.1249   0.0000   0.0000   0.0000   0.2964
  18.800   1.1475   0.17188   0.16951  -0.0881  0.0083  1.0000  -5.9890   0.0000   0.0000   0.0000   0.2995
  18.900   1.1369   0.17725   0.17494  -0.0910  0.0083  1.0000  -5.8351   0.0000   0.0000   0.0000   0.3028
  19.000   1.1269   0.18257   0.18030  -0.0938  0.0084  1.0000  -5.6794   0.0000   0.0000   0.0000   0.3061
  19.100   1.1123   0.18970   0.18749  -0.0974  0.0084  1.0000  -5.4417   0.0000   0.0000   0.0000   0.3106
  19.200   1.0971   0.19738   0.19522  -0.1010  0.0085  1.0000  -5.1706   0.0000   0.0000   0.0000   0.3153
  19.300   1.0682   0.21099   0.20888  -0.1066  0.0087  1.0000  -4.5940   0.0000   0.0000   0.0000   0.3239
  19.400   1.0284   0.23141   0.22927  -0.1134  0.0092  1.0000  -3.6066   0.0000   0.0000   0.0000   0.3356
  19.500   1.0160   0.24039   0.23824  -0.1160  0.0096  1.0000  -3.2323   0.0000   0.0000   0.0000   0.3400
  19.800   1.0091   0.25508   0.25293  -0.1194  0.0127  1.0000  -2.7220   0.0000   0.0000   0.0000   0.3443
  19.900   1.0133   0.25504   0.25290  -0.1198  0.0122  1.0000  -2.8446   0.0000   0.0000   0.0000   0.3438
  20.300   0.9820   0.28474   0.28253  -0.1247  0.0214  1.0000  -1.9057   0.0000   0.0000   0.0000   0.3535
  20.400   0.9821   0.28729   0.28509  -0.1255  0.0214  1.0000  -1.8899   0.0000   0.0000   0.0000   0.3541
  20.500   0.9821   0.28982   0.28762  -0.1262  0.0214  1.0000  -1.8745   0.0000   0.0000   0.0000   0.3547
  20.600   0.9821   0.29231   0.29011  -0.1268  0.0214  1.0000  -1.8595   0.0000   0.0000   0.0000   0.3552
  20.700   0.9819   0.29476   0.29257  -0.1275  0.0213  1.0000  -1.8447   0.0000   0.0000   0.0000   0.3558
  20.800   0.9816   0.29720   0.29507  -0.1282  0.0213  1.0000  -1.8228   0.0000   0.0000   0.0000   0.3564
  20.900   0.9812   0.29955   0.29743  -0.1288  0.0213  1.0000  -1.8079   0.0000   0.0000   0.0000   0.3570
  21.000   0.9807   0.30185   0.29973  -0.1294  0.0212  1.0000  -1.7938   0.0000   0.0000   0.0000   0.3576
  21.100   0.9801   0.30407   0.30196  -0.1301  0.0212  1.0000  -1.7802   0.0000   0.0000   0.0000   0.3582
  21.200   0.9793   0.30621   0.30410  -0.1306  0.0211  1.0000  -1.7673   0.0000   0.0000   0.0000   0.3588
  21.300   0.9784   0.30824   0.30614  -0.1312  0.0210  1.0000  -1.7552   0.0000   0.0000   0.0000   0.3594
  21.400   0.9775   0.31014   0.30804  -0.1318  0.0209  1.0000  -1.7444   0.0000   0.0000   0.0000   0.3599
  21.500   0.9766   0.31186   0.30977  -0.1324  0.0207  1.0000  -1.7348   0.0000   0.0000   0.0000   0.3605
  21.600   0.9755   0.31354   0.31147  -0.1331  0.0202  1.0000  -1.7171   0.0000   0.0000   0.0000   0.3614
  21.700   0.9735   0.31542   0.31335  -0.1339  0.0196  1.0000  -1.6865   0.0000   0.0000   0.0000   0.3625
  21.800   0.9690   0.31701   0.31495  -0.1343  0.0190  1.0000  -1.6528   0.0000   0.0000   0.0000   0.3634
  21.900   0.9185   0.30743   0.30546  -0.1293  0.0192  1.0000  -1.5158   0.0000   0.0000   0.0000   0.3663
  22.000   0.9122   0.30752   0.30557  -0.1293  0.0187  1.0000  -1.4823   0.0000   0.0000   0.0000   0.3673
  22.100   0.9069   0.30773   0.30579  -0.1293  0.0182  1.0000  -1.4547   0.0000   0.0000   0.0000   0.3682
  22.200   0.9023   0.30801   0.30608  -0.1294  0.0178  1.0000  -1.4314   0.0000   0.0000   0.0000   0.3689
  22.300   0.8982   0.30833   0.30641  -0.1294  0.0174  1.0000  -1.4113   0.0000   0.0000   0.0000   0.3697
  22.400   0.8945   0.30869   0.30678  -0.1296  0.0171  1.0000  -1.3937   0.0000   0.0000   0.0000   0.3703
  22.500   0.8912   0.30908   0.30719  -0.1297  0.0167  1.0000  -1.3782   0.0000   0.0000   0.0000   0.3710
  22.600   0.8882   0.30949   0.30761  -0.1299  0.0164  1.0000  -1.3645   0.0000   0.0000   0.0000   0.3716
  22.700   0.8855   0.30993   0.30806  -0.1301  0.0161  1.0000  -1.3524   0.0000   0.0000   0.0000   0.3722
  22.800   0.8830   0.31038   0.30852  -0.1303  0.0158  1.0000  -1.3416   0.0000   0.0000   0.0000   0.3727
  22.900   0.8808   0.31084   0.30899  -0.1305  0.0155  1.0000  -1.3321   0.0000   0.0000   0.0000   0.3732
  23.000   0.8787   0.31132   0.30948  -0.1307  0.0152  1.0000  -1.3237   0.0000   0.0000   0.0000   0.3738
  23.100   0.8767   0.31180   0.30997  -0.1310  0.0150  1.0000  -1.3163   0.0000   0.0000   0.0000   0.3743
  23.200   0.8749   0.31229   0.31047  -0.1312  0.0147  1.0000  -1.3099   0.0000   0.0000   0.0000   0.3747
  23.300   0.8733   0.31279   0.31097  -0.1315  0.0145  1.0000  -1.3045   0.0000   0.0000   0.0000   0.3752
  23.400   0.8717   0.31328   0.31148  -0.1317  0.0143  1.0000  -1.2999   0.0000   0.0000   0.0000   0.3756
  23.500   0.8703   0.31378   0.31198  -0.1320  0.0141  1.0000  -1.2963   0.0000   0.0000   0.0000   0.3761
  23.600   0.8690   0.31428   0.31249  -0.1323  0.0139  1.0000  -1.2936   0.0000   0.0000   0.0000   0.3765
  23.700   0.8678   0.31478   0.31300  -0.1326  0.0137  1.0000  -1.2916   0.0000   0.0000   0.0000   0.3769
  23.800   0.8666   0.31528   0.31351  -0.1328  0.0135  1.0000  -1.2905   0.0000   0.0000   0.0000   0.3773
  23.900   0.8656   0.31577   0.31401  -0.1331  0.0133  1.0000  -1.2902   0.0000   0.0000   0.0000   0.3777
  24.000   0.8646   0.31627   0.31451  -0.1334  0.0131  1.0000  -1.2907   0.0000   0.0000   0.0000   0.3780
  24.100   0.8637   0.31676   0.31501  -0.1337  0.0130  1.0000  -1.2920   0.0000   0.0000   0.0000   0.3784
  24.200   0.8628   0.31724   0.31551  -0.1340  0.0128  1.0000  -1.2940   0.0000   0.0000   0.0000   0.3787
  24.300   0.8620   0.31773   0.31599  -0.1343  0.0127  1.0000  -1.2969   0.0000   0.0000   0.0000   0.3790
  24.400   0.8613   0.31820   0.31648  -0.1346  0.0125  1.0000  -1.3005   0.0000   0.0000   0.0000   0.3793
  24.500   0.8606   0.31867   0.31696  -0.1348  0.0124  1.0000  -1.3049   0.0000   0.0000   0.0000   0.3796
  24.600   0.8600   0.31913   0.31743  -0.1351  0.0123  1.0000  -1.3101   0.0000   0.0000   0.0000   0.3799
  24.700   0.8595   0.31959   0.31789  -0.1354  0.0121  1.0000  -1.3160   0.0000   0.0000   0.0000   0.3801
  24.800   0.8589   0.32003   0.31834  -0.1357  0.0120  1.0000  -1.3227   0.0000   0.0000   0.0000   0.3804
  24.900   0.8585   0.32047   0.31879  -0.1359  0.0119  1.0000  -1.3302   0.0000   0.0000   0.0000   0.3806
  25.000   0.8580   0.32090   0.31923  -0.1362  0.0118  1.0000  -1.3384   0.0000   0.0000   0.0000   0.3808
  25.100   0.8576   0.32133   0.31966  -0.1365  0.0117  1.0000  -1.3472   0.0000   0.0000   0.0000   0.3810
  25.200   0.8573   0.32175   0.32009  -0.1367  0.0116  1.0000  -1.3567   0.0000   0.0000   0.0000   0.3811
  25.300   0.8569   0.32216   0.32051  -0.1369  0.0115  1.0000  -1.3667   0.0000   0.0000   0.0000   0.3813
  25.400   0.8566   0.32257   0.32093  -0.1372  0.0114  1.0000  -1.3772   0.0000   0.0000   0.0000   0.3814
  25.500   0.8563   0.32298   0.32135  -0.1374  0.0113  1.0000  -1.3878   0.0000   0.0000   0.0000   0.3815
  25.600   0.8559   0.32340   0.32177  -0.1375  0.0112  1.0000  -1.3983   0.0000   0.0000   0.0000   0.3816
  25.700   0.8550   0.32393   0.32232  -0.1377  0.0110  1.0000  -1.3986   0.0000   0.0000   0.0000   0.3818
  25.800   0.8531   0.32462   0.32302  -0.1379  0.0109  1.0000  -1.3836   0.0000   0.0000   0.0000   0.3822
  25.900   0.8425   0.32743   0.32580  -0.1376  0.0104  1.0000  -1.1887   0.0000   0.0000   0.0000   0.3844
  26.000   0.8420   0.32815   0.32652  -0.1380  0.0104  1.0000  -1.1799   0.0000   0.0000   0.0000   0.3848
  26.100   0.8415   0.32887   0.32725  -0.1384  0.0104  1.0000  -1.1711   0.0000   0.0000   0.0000   0.3852
  26.200   0.8410   0.32958   0.32797  -0.1388  0.0104  1.0000  -1.1624   0.0000   0.0000   0.0000   0.3856
  26.300   0.8406   0.33030   0.32870  -0.1392  0.0103  1.0000  -1.1537   0.0000   0.0000   0.0000   0.3860
  26.400   0.8401   0.33102   0.32942  -0.1396  0.0103  1.0000  -1.1450   0.0000   0.0000   0.0000   0.3864
  26.500   0.8396   0.33173   0.33014  -0.1400  0.0103  1.0000  -1.1361   0.0000   0.0000   0.0000   0.3868
  26.600   0.8392   0.33243   0.33085  -0.1405  0.0103  1.0000  -1.1272   0.0000   0.0000   0.0000   0.3873
  26.700   0.8388   0.33314   0.33156  -0.1409  0.0103  1.0000  -1.1186   0.0000   0.0000   0.0000   0.3877
  26.800   0.8384   0.33384   0.33227  -0.1413  0.0103  1.0000  -1.1103   0.0000   0.0000   0.0000   0.3882
  26.900   0.8380   0.33455   0.33298  -0.1418  0.0103  1.0000  -1.1023   0.0000   0.0000   0.0000   0.3886
  27.000   0.8377   0.33526   0.33369  -0.1422  0.0103  1.0000  -1.0947   0.0000   0.0000   0.0000   0.3890
  27.100   0.8374   0.33596   0.33441  -0.1427  0.0102  1.0000  -1.0875   0.0000   0.0000   0.0000   0.3894
  27.200   0.8371   0.33668   0.33513  -0.1431  0.0102  1.0000  -1.0805   0.0000   0.0000   0.0000   0.3898
  27.300   0.8368   0.33739   0.33585  -0.1435  0.0102  1.0000  -1.0738   0.0000   0.0000   0.0000   0.3902
  27.400   0.8366   0.33811   0.33658  -0.1439  0.0102  1.0000  -1.0672   0.0000   0.0000   0.0000   0.3906
  27.500   0.8363   0.33883   0.33730  -0.1443  0.0102  1.0000  -1.0607   0.0000   0.0000   0.0000   0.3909
  27.600   0.8361   0.33955   0.33803  -0.1448  0.0102  1.0000  -1.0544   0.0000   0.0000   0.0000   0.3913
  27.700   0.8359   0.34028   0.33876  -0.1452  0.0102  1.0000  -1.0479   0.0000   0.0000   0.0000   0.3917
  27.800   0.8356   0.34100   0.33949  -0.1456  0.0102  1.0000  -1.0415   0.0000   0.0000   0.0000   0.3920
  27.900   0.8354   0.34172   0.34022  -0.1460  0.0102  1.0000  -1.0352   0.0000   0.0000   0.0000   0.3924
  28.000   0.8352   0.34245   0.34095  -0.1465  0.0101  1.0000  -1.0291   0.0000   0.0000   0.0000   0.3928
  28.100   0.8350   0.34318   0.34168  -0.1469  0.0101  1.0000  -1.0268   0.0000   0.0000   0.0000   0.3931
  28.200   0.8349   0.34391   0.34242  -0.1473  0.0101  1.0000  -1.0329   0.0000   0.0000   0.0000   0.3935
  28.300   0.8347   0.34464   0.34316  -0.1478  0.0101  1.0000  -1.0385   0.0000   0.0000   0.0000   0.3939
  28.400   0.8346   0.34538   0.34390  -0.1482  0.0101  1.0000  -1.0435   0.0000   0.0000   0.0000   0.3942
  28.500   0.8345   0.34613   0.34465  -0.1487  0.0100  1.0000  -1.0476   0.0000   0.0000   0.0000   0.3946
  28.600   0.8345   0.34693   0.34551  -0.1492  0.0100  1.0000  -1.0422   0.0000   0.0000   0.0000   0.3950
  28.700   0.8346   0.34780   0.34638  -0.1498  0.0099  1.0000  -1.0346   0.0000   0.0000   0.0000   0.3955


