xflr5 v6.61

 Calculated polar for: S3010-103-84

 1 1 Reynolds number fixed          Mach number fixed         

 xtrf =   1.000 (top)        1.000 (bottom)
 Mach =   0.000     Re =     0.625 e 6     Ncrit =   9.000

  alpha     CL        CD       CDp       Cm    Top Xtr Bot Xtr   Cpmin    Chinge    XCp    
 ------- -------- --------- --------- -------- ------- ------- -------- --------- ---------
 -10.000  -0.4252   0.10976   0.10762  -0.0047  1.0000  0.0169  -1.6968   0.0000   0.0000   0.0000   0.2319
  -9.900  -0.4232   0.10833   0.10619  -0.0054  1.0000  0.0172  -1.7042   0.0000   0.0000   0.0000   0.2302
  -9.800  -0.4213   0.10688   0.10475  -0.0062  1.0000  0.0174  -1.7123   0.0000   0.0000   0.0000   0.2284
  -9.700  -0.4194   0.10543   0.10330  -0.0070  1.0000  0.0177  -1.7213   0.0000   0.0000   0.0000   0.2265
  -9.600  -0.4175   0.10397   0.10185  -0.0077  1.0000  0.0180  -1.7311   0.0000   0.0000   0.0000   0.2246
  -9.500  -0.4157   0.10250   0.10039  -0.0085  1.0000  0.0183  -1.7418   0.0000   0.0000   0.0000   0.2227
  -9.400  -0.4138   0.10104   0.09893  -0.0094  1.0000  0.0186  -1.7533   0.0000   0.0000   0.0000   0.2207
  -9.300  -0.4120   0.09957   0.09748  -0.0102  1.0000  0.0189  -1.7654   0.0000   0.0000   0.0000   0.2186
  -9.200  -0.4100   0.09812   0.09603  -0.0110  1.0000  0.0192  -1.7778   0.0000   0.0000   0.0000   0.2165
  -9.100  -0.4079   0.09671   0.09463  -0.0119  1.0000  0.0195  -1.7890   0.0000   0.0000   0.0000   0.2143
  -9.000  -0.4056   0.09534   0.09326  -0.0127  1.0000  0.0199  -1.7990   0.0000   0.0000   0.0000   0.2121
  -8.900  -0.4028   0.09408   0.09201  -0.0135  1.0000  0.0203  -1.8035   0.0000   0.0000   0.0000   0.2099
  -8.800  -0.3990   0.09302   0.09095  -0.0142  1.0000  0.0207  -1.7972   0.0000   0.0000   0.0000   0.2078
  -8.700  -0.3946   0.09209   0.09004  -0.0149  1.0000  0.0212  -1.7833   0.0000   0.0000   0.0000   0.2057
  -8.600  -0.3904   0.09113   0.08908  -0.0157  1.0000  0.0215  -1.7706   0.0000   0.0000   0.0000   0.2035
  -8.500  -0.3870   0.09000   0.08796  -0.0165  1.0000  0.0217  -1.7654   0.0000   0.0000   0.0000   0.2011
  -8.400  -0.3842   0.08873   0.08670  -0.0173  1.0000  0.0218  -1.7662   0.0000   0.0000   0.0000   0.1987
  -8.300  -0.3818   0.08739   0.08537  -0.0182  1.0000  0.0219  -1.7707   0.0000   0.0000   0.0000   0.1961
  -8.200  -0.3798   0.08600   0.08399  -0.0191  1.0000  0.0219  -1.7780   0.0000   0.0000   0.0000   0.1936
  -8.100  -0.3779   0.08456   0.08256  -0.0200  1.0000  0.0220  -1.7875   0.0000   0.0000   0.0000   0.1909
  -8.000  -0.3763   0.08310   0.08110  -0.0210  1.0000  0.0220  -1.7987   0.0000   0.0000   0.0000   0.1882
  -7.900  -0.3748   0.08160   0.07962  -0.0220  1.0000  0.0220  -1.8115   0.0000   0.0000   0.0000   0.1854
  -7.800  -0.3735   0.08006   0.07809  -0.0230  1.0000  0.0221  -1.8259   0.0000   0.0000   0.0000   0.1825
  -7.700  -0.3723   0.07848   0.07653  -0.0241  1.0000  0.0221  -1.8419   0.0000   0.0000   0.0000   0.1793
  -7.600  -0.3714   0.07688   0.07494  -0.0253  1.0000  0.0221  -1.8597   0.0000   0.0000   0.0000   0.1761
  -7.500  -0.3709   0.07524   0.07332  -0.0266  1.0000  0.0221  -1.8796   0.0000   0.0000   0.0000   0.1727
  -7.400  -0.3707   0.07356   0.07165  -0.0280  1.0000  0.0221  -1.9021   0.0000   0.0000   0.0000   0.1690
  -7.300  -0.3709   0.07181   0.06992  -0.0296  1.0000  0.0222  -1.9279   0.0000   0.0000   0.0000   0.1648
  -7.200  -0.3699   0.06974   0.06787  -0.0321  1.0000  0.0222  -1.9589   0.0000   0.0000   0.0000   0.1579
  -7.000  -0.3524   0.06270   0.06077  -0.0437  0.9757  0.0222  -2.0628   0.0000   0.0000   0.0000   0.1205
  -6.900  -0.3434   0.05920   0.05720  -0.0485  0.9651  0.0222  -2.1196   0.0000   0.0000   0.0000   0.1031
  -6.800  -0.3372   0.05646   0.05438  -0.0516  0.9541  0.0223  -2.1629   0.0000   0.0000   0.0000   0.0913
  -6.700  -0.3336   0.05431   0.05214  -0.0534  0.9438  0.0223  -2.1951   0.0000   0.0000   0.0000   0.0845
  -6.400  -0.3255   0.04912   0.04669  -0.0557  0.9176  0.0223  -2.2562   0.0000   0.0000   0.0000   0.0733
  -6.300  -0.3219   0.04752   0.04500  -0.0562  0.9105  0.0223  -2.2682   0.0000   0.0000   0.0000   0.0696
  -6.200  -0.3179   0.04600   0.04339  -0.0566  0.9034  0.0223  -2.2765   0.0000   0.0000   0.0000   0.0664
  -6.100  -0.3427   0.03435   0.03116  -0.0602  0.8936  0.0243  -2.7672   0.0000   0.0000   0.0000   0.0685
  -6.000  -0.3370   0.03288   0.02962  -0.0605  0.8889  0.0250  -2.7358   0.0000   0.0000   0.0000   0.0649
  -5.900  -0.3293   0.03197   0.02868  -0.0606  0.8846  0.0256  -2.6777   0.0000   0.0000   0.0000   0.0604
  -5.800  -0.3214   0.03126   0.02793  -0.0606  0.8797  0.0262  -2.6144   0.0000   0.0000   0.0000   0.0557
  -5.700  -0.3131   0.03068   0.02731  -0.0606  0.8745  0.0268  -2.5466   0.0000   0.0000   0.0000   0.0509
  -5.600  -0.3047   0.03019   0.02679  -0.0604  0.8693  0.0275  -2.4755   0.0000   0.0000   0.0000   0.0460
  -5.500  -0.2963   0.02969   0.02625  -0.0603  0.8640  0.0282  -2.4085   0.0000   0.0000   0.0000   0.0408
  -5.400  -0.2878   0.02917   0.02566  -0.0602  0.8586  0.0290  -2.3458   0.0000   0.0000   0.0000   0.0352
  -5.300  -0.2787   0.02861   0.02504  -0.0602  0.8540  0.0300  -2.2864   0.0000   0.0000   0.0000   0.0284
  -5.200  -0.2691   0.02799   0.02438  -0.0602  0.8511  0.0311  -2.2304   0.0000   0.0000   0.0000   0.0205
  -5.100  -0.2594   0.02738   0.02371  -0.0602  0.8476  0.0325  -2.1781   0.0000   0.0000   0.0000   0.0120
  -5.000  -0.2494   0.02684   0.02311  -0.0602  0.8436  0.0340  -2.1273   0.0000   0.0000   0.0000   0.0028
  -4.900  -0.2389   0.02650   0.02270  -0.0600  0.8395  0.0358  -2.0733   0.0000   0.0000   0.0000  -0.0072
  -4.800  -0.2277   0.02653   0.02270  -0.0598  0.8352  0.0376  -2.0094   0.0000   0.0000   0.0000  -0.0185
  -4.700  -0.2163   0.02672   0.02285  -0.0594  0.8307  0.0389  -1.9433   0.0000   0.0000   0.0000  -0.0309
  -4.600  -0.2038   0.02773   0.02384  -0.0589  0.8258  0.0399  -1.8516   0.0000   0.0000   0.0000  -0.0455
  -4.500  -0.1928   0.02786   0.02389  -0.0586  0.8204  0.0403  -1.7939   0.0000   0.0000   0.0000  -0.0603
  -4.400  -0.1828   0.02732   0.02325  -0.0585  0.8150  0.0404  -1.7577   0.0000   0.0000   0.0000  -0.0764
  -4.300  -0.1810   0.02092   0.01633  -0.0594  0.8130  0.0436  -1.9149   0.0000   0.0000   0.0000  -0.0850
  -4.200  -0.1714   0.01979   0.01516  -0.0594  0.8099  0.0452  -1.8740   0.0000   0.0000   0.0000  -0.1040
  -4.100  -0.1611   0.01915   0.01448  -0.0594  0.8060  0.0464  -1.8224   0.0000   0.0000   0.0000  -0.1261
  -4.000  -0.1507   0.01861   0.01390  -0.0593  0.8016  0.0476  -1.7708   0.0000   0.0000   0.0000  -0.1514
  -3.900  -0.1402   0.01811   0.01336  -0.0592  0.7969  0.0487  -1.7198   0.0000   0.0000   0.0000  -0.1805
  -3.800  -0.1296   0.01763   0.01283  -0.0591  0.7921  0.0499  -1.6707   0.0000   0.0000   0.0000  -0.2142
  -3.500  -0.0931   0.01315   0.00747  -0.0567  0.7787  0.0241  -1.9090   0.0000   0.0000   0.0000  -0.3701
  -3.400  -0.0820   0.01244   0.00667  -0.0562  0.7732  0.0207  -1.9215   0.0000   0.0000   0.0000  -0.4479
  -3.300  -0.0713   0.01155   0.00569  -0.0559  0.7708  0.0196  -1.9249   0.0000   0.0000   0.0000  -0.5482
  -3.200  -0.0603   0.01097   0.00502  -0.0557  0.7683  0.0187  -1.9055   0.0000   0.0000   0.0000  -0.6884
  -3.100  -0.0493   0.01053   0.00451  -0.0555  0.7652  0.0180  -1.8733   0.0000   0.0000   0.0000  -0.8935
  -3.000  -0.0381   0.01029   0.00412  -0.0553  0.7616  0.0177  -1.8326   0.0000   0.0000   0.0000  -1.2238
  -2.900  -0.0270   0.00995   0.00370  -0.0552  0.7576  0.0171  -1.7976   0.0000   0.0000   0.0000  -1.8200
  -2.800  -0.0159   0.00968   0.00335  -0.0550  0.7534  0.0165  -1.7572   0.0000   0.0000   0.0000  -3.2594
  -2.700  -0.0047   0.00947   0.00306  -0.0548  0.7487  0.0161  -1.7119   0.0000   0.0000   0.0000  -11.5380
  -2.600   0.0064   0.00931   0.00282  -0.0546  0.7436  0.0157  -1.6621   0.0000   0.0000   0.0000   8.8305
  -2.500   0.0176   0.00918   0.00262  -0.0545  0.7378  0.0154  -1.6077   0.0000   0.0000   0.0000   3.3855
  -2.400   0.0287   0.00910   0.00245  -0.0543  0.7310  0.0152  -1.5486   0.0000   0.0000   0.0000   2.1627
  -2.300   0.0401   0.00901   0.00231  -0.0542  0.7262  0.0150  -1.4856   0.0000   0.0000   0.0000   1.6172
  -2.200   0.0516   0.00892   0.00218  -0.0542  0.7234  0.0149  -1.4201   0.0000   0.0000   0.0000   1.3105
  -2.100   0.0631   0.00884   0.00207  -0.0541  0.7198  0.0149  -1.3533   0.0000   0.0000   0.0000   1.1161
  -2.000   0.0745   0.00878   0.00196  -0.0541  0.7158  0.0149  -1.2856   0.0000   0.0000   0.0000   0.9819
  -1.900   0.0859   0.00873   0.00187  -0.0540  0.7115  0.0150  -1.2172   0.0000   0.0000   0.0000   0.8835
  -1.800   0.0973   0.00869   0.00178  -0.0539  0.7069  0.0153  -1.1479   0.0000   0.0000   0.0000   0.8083
  -1.700   0.1086   0.00866   0.00170  -0.0539  0.7019  0.0157  -1.0803   0.0000   0.0000   0.0000   0.7490
  -1.600   0.1198   0.00863   0.00162  -0.0538  0.6964  0.0166  -1.0202   0.0000   0.0000   0.0000   0.7010
  -1.500   0.1310   0.00861   0.00157  -0.0537  0.6898  0.0181  -0.9613   0.0000   0.0000   0.0000   0.6615
  -1.400   0.1422   0.00859   0.00154  -0.0536  0.6822  0.0201  -0.9000   0.0000   0.0000   0.0000   0.6283
  -1.300   0.1536   0.00855   0.00152  -0.0536  0.6784  0.0222  -0.8343   0.0000   0.0000   0.0000   0.5999
  -1.200   0.1645   0.00820   0.00144  -0.0536  0.6753  0.0826  -0.7710   0.0000   0.0000   0.0000   0.5770
  -1.100   0.1756   0.00804   0.00141  -0.0537  0.6714  0.1144  -0.7048   0.0000   0.0000   0.0000   0.5562
  -1.000   0.1867   0.00789   0.00138  -0.0537  0.6668  0.1470  -0.6537   0.0000   0.0000   0.0000   0.5380
  -0.900   0.1978   0.00775   0.00136  -0.0537  0.6621  0.1810  -0.6099   0.0000   0.0000   0.0000   0.5218
  -0.800   0.2088   0.00764   0.00135  -0.0538  0.6570  0.2146  -0.5675   0.0000   0.0000   0.0000   0.5073
  -0.700   0.2198   0.00754   0.00133  -0.0538  0.6516  0.2460  -0.5650   0.0000   0.0000   0.0000   0.4943
  -0.600   0.2306   0.00743   0.00132  -0.0538  0.6457  0.2805  -0.5757   0.0000   0.0000   0.0000   0.4825
  -0.500   0.2416   0.00738   0.00131  -0.0537  0.6388  0.3064  -0.5864   0.0000   0.0000   0.0000   0.4717
  -0.400   0.2526   0.00731   0.00132  -0.0537  0.6315  0.3364  -0.5970   0.0000   0.0000   0.0000   0.4619
  -0.300   0.2638   0.00720   0.00132  -0.0538  0.6292  0.3672  -0.6079   0.0000   0.0000   0.0000   0.4528
  -0.200   0.2750   0.00712   0.00132  -0.0538  0.6260  0.3970  -0.6189   0.0000   0.0000   0.0000   0.4445
  -0.100   0.2860   0.00698   0.00133  -0.0538  0.6217  0.4400  -0.6298   0.0000   0.0000   0.0000   0.4369
   0.000   0.2969   0.00686   0.00134  -0.0538  0.6165  0.4829  -0.6406   0.0000   0.0000   0.0000   0.4298
   0.100   0.3077   0.00675   0.00135  -0.0537  0.6106  0.5272  -0.6528   0.0000   0.0000   0.0000   0.4231
   0.200   0.3177   0.00655   0.00138  -0.0535  0.6043  0.6079  -0.6647   0.0000   0.0000   0.0000   0.4169
   0.300   0.3262   0.00627   0.00145  -0.0529  0.5980  0.7190  -0.6758   0.0000   0.0000   0.0000   0.4106
   0.400   0.3321   0.00600   0.00153  -0.0515  0.5914  0.8300  -0.6853   0.0000   0.0000   0.0000   0.4034
   0.500   0.3365   0.00585   0.00161  -0.0496  0.5844  0.9143  -0.6938   0.0000   0.0000   0.0000   0.3955
   0.600   0.3475   0.00582   0.00161  -0.0494  0.5805  0.9373  -0.7065   0.0000   0.0000   0.0000   0.3901
   0.700   0.3618   0.00580   0.00159  -0.0499  0.5773  0.9588  -0.7215   0.0000   0.0000   0.0000   0.3858
   0.800   0.3783   0.00580   0.00158  -0.0509  0.5725  0.9762  -0.7379   0.0000   0.0000   0.0000   0.3825
   0.900   0.3948   0.00581   0.00155  -0.0521  0.5664  0.9901  -0.7545   0.0000   0.0000   0.0000   0.3796
   1.000   0.4093   0.00584   0.00154  -0.0528  0.5598  1.0000  -0.7697   0.0000   0.0000   0.0000   0.3766
   1.100   0.4202   0.00589   0.00154  -0.0527  0.5533  1.0000  -0.7825   0.0000   0.0000   0.0000   0.3730
   1.200   0.4310   0.00595   0.00155  -0.0526  0.5466  1.0000  -0.7953   0.0000   0.0000   0.0000   0.3696
   1.300   0.4419   0.00601   0.00156  -0.0526  0.5388  1.0000  -0.8085   0.0000   0.0000   0.0000   0.3664
   1.400   0.4529   0.00607   0.00157  -0.0525  0.5317  1.0000  -0.8235   0.0000   0.0000   0.0000   0.3633
   1.500   0.4642   0.00609   0.00159  -0.0525  0.5296  1.0000  -0.8388   0.0000   0.0000   0.0000   0.3604
   1.600   0.4754   0.00611   0.00160  -0.0525  0.5266  1.0000  -0.8541   0.0000   0.0000   0.0000   0.3576
   1.700   0.4867   0.00614   0.00161  -0.0525  0.5228  1.0000  -0.8695   0.0000   0.0000   0.0000   0.3550
   1.800   0.4978   0.00618   0.00162  -0.0525  0.5183  1.0000  -0.8849   0.0000   0.0000   0.0000   0.3525
   1.900   0.5089   0.00622   0.00164  -0.0525  0.5129  1.0000  -0.9003   0.0000   0.0000   0.0000   0.3500
   2.000   0.5199   0.00628   0.00165  -0.0524  0.5066  1.0000  -0.9156   0.0000   0.0000   0.0000   0.3477
   2.100   0.5308   0.00635   0.00167  -0.0524  0.4993  1.0000  -0.9309   0.0000   0.0000   0.0000   0.3454
   2.200   0.5416   0.00643   0.00169  -0.0523  0.4903  1.0000  -0.9471   0.0000   0.0000   0.0000   0.3433
   2.300   0.5526   0.00651   0.00173  -0.0523  0.4819  1.0000  -0.9651   0.0000   0.0000   0.0000   0.3412
   2.400   0.5639   0.00653   0.00175  -0.0523  0.4795  1.0000  -0.9837   0.0000   0.0000   0.0000   0.3392
   2.500   0.5752   0.00656   0.00177  -0.0523  0.4765  1.0000  -1.0023   0.0000   0.0000   0.0000   0.3373
   2.600   0.5864   0.00659   0.00179  -0.0523  0.4728  1.0000  -1.0208   0.0000   0.0000   0.0000   0.3355
   2.700   0.5976   0.00664   0.00182  -0.0523  0.4683  1.0000  -1.0395   0.0000   0.0000   0.0000   0.3337
   2.800   0.6087   0.00669   0.00185  -0.0522  0.4630  1.0000  -1.0581   0.0000   0.0000   0.0000   0.3320
   2.900   0.6196   0.00676   0.00188  -0.0522  0.4567  1.0000  -1.0767   0.0000   0.0000   0.0000   0.3304
   3.000   0.6305   0.00684   0.00191  -0.0521  0.4492  1.0000  -1.0952   0.0000   0.0000   0.0000   0.3288
   3.100   0.6412   0.00694   0.00195  -0.0521  0.4399  1.0000  -1.1137   0.0000   0.0000   0.0000   0.3272
   3.200   0.6522   0.00701   0.00199  -0.0521  0.4322  1.0000  -1.1341   0.0000   0.0000   0.0000   0.3257
   3.300   0.6635   0.00704   0.00203  -0.0521  0.4298  1.0000  -1.1568   0.0000   0.0000   0.0000   0.3243
   3.400   0.6747   0.00708   0.00206  -0.0521  0.4265  1.0000  -1.1796   0.0000   0.0000   0.0000   0.3229
   3.500   0.6859   0.00712   0.00209  -0.0521  0.4226  1.0000  -1.2023   0.0000   0.0000   0.0000   0.3215
   3.600   0.6970   0.00718   0.00213  -0.0521  0.4179  1.0000  -1.2251   0.0000   0.0000   0.0000   0.3202
   3.700   0.7080   0.00724   0.00217  -0.0520  0.4125  1.0000  -1.2479   0.0000   0.0000   0.0000   0.3189
   3.800   0.7189   0.00732   0.00226  -0.0520  0.4068  1.0000  -1.2710   0.0000   0.0000   0.0000   0.3177
   3.900   0.7297   0.00741   0.00231  -0.0520  0.4002  1.0000  -1.2939   0.0000   0.0000   0.0000   0.3165
   4.000   0.7404   0.00751   0.00236  -0.0519  0.3915  1.0000  -1.3166   0.0000   0.0000   0.0000   0.3153
   4.100   0.7513   0.00760   0.00241  -0.0519  0.3839  1.0000  -1.3396   0.0000   0.0000   0.0000   0.3141
   4.200   0.7625   0.00763   0.00245  -0.0519  0.3813  1.0000  -1.3632   0.0000   0.0000   0.0000   0.3130
   4.300   0.7737   0.00768   0.00249  -0.0519  0.3772  1.0000  -1.3868   0.0000   0.0000   0.0000   0.3120
   4.400   0.7847   0.00774   0.00254  -0.0519  0.3720  1.0000  -1.4103   0.0000   0.0000   0.0000   0.3109
   4.500   0.7956   0.00781   0.00258  -0.0518  0.3662  1.0000  -1.4387   0.0000   0.0000   0.0000   0.3099
   4.600   0.8064   0.00790   0.00264  -0.0518  0.3600  1.0000  -1.4671   0.0000   0.0000   0.0000   0.3088
   4.700   0.8170   0.00801   0.00270  -0.0518  0.3529  1.0000  -1.4954   0.0000   0.0000   0.0000   0.3079
   4.800   0.8277   0.00813   0.00277  -0.0517  0.3443  1.0000  -1.5238   0.0000   0.0000   0.0000   0.3069
   4.900   0.8384   0.00822   0.00284  -0.0517  0.3370  1.0000  -1.5525   0.0000   0.0000   0.0000   0.3059
   5.000   0.8496   0.00827   0.00289  -0.0517  0.3344  1.0000  -1.5820   0.0000   0.0000   0.0000   0.3050
   5.100   0.8606   0.00833   0.00295  -0.0517  0.3302  1.0000  -1.6167   0.0000   0.0000   0.0000   0.3041
   5.200   0.8714   0.00841   0.00300  -0.0516  0.3240  1.0000  -1.6527   0.0000   0.0000   0.0000   0.3032
   5.300   0.8819   0.00852   0.00307  -0.0516  0.3158  1.0000  -1.6886   0.0000   0.0000   0.0000   0.3024
   5.400   0.8922   0.00868   0.00315  -0.0515  0.3053  1.0000  -1.7240   0.0000   0.0000   0.0000   0.3015
   5.500   0.9025   0.00884   0.00325  -0.0514  0.2927  1.0000  -1.7595   0.0000   0.0000   0.0000   0.3007
   5.600   0.9134   0.00890   0.00331  -0.0514  0.2887  1.0000  -1.7967   0.0000   0.0000   0.0000   0.2998
   5.700   0.9241   0.00899   0.00338  -0.0514  0.2823  1.0000  -1.8337   0.0000   0.0000   0.0000   0.2990
   5.800   0.9345   0.00912   0.00345  -0.0513  0.2732  1.0000  -1.8703   0.0000   0.0000   0.0000   0.2983
   5.900   0.9444   0.00932   0.00356  -0.0512  0.2612  1.0000  -1.9063   0.0000   0.0000   0.0000   0.2975
   6.000   0.9546   0.00948   0.00367  -0.0511  0.2489  1.0000  -1.9428   0.0000   0.0000   0.0000   0.2967
   6.100   0.9653   0.00958   0.00375  -0.0511  0.2428  1.0000  -1.9806   0.0000   0.0000   0.0000   0.2959
   6.200   0.9754   0.00974   0.00384  -0.0510  0.2328  1.0000  -2.0177   0.0000   0.0000   0.0000   0.2952
   6.300   0.9851   0.00997   0.00397  -0.0509  0.2196  1.0000  -2.0539   0.0000   0.0000   0.0000   0.2945
   6.400   0.9952   0.01013   0.00409  -0.0508  0.2080  1.0000  -2.0911   0.0000   0.0000   0.0000   0.2937
   6.500   1.0055   0.01026   0.00418  -0.0507  0.2013  1.0000  -2.1292   0.0000   0.0000   0.0000   0.2930
   6.600   1.0154   0.01045   0.00430  -0.0507  0.1915  1.0000  -2.1667   0.0000   0.0000   0.0000   0.2923
   6.700   1.0250   0.01069   0.00444  -0.0505  0.1796  1.0000  -2.2034   0.0000   0.0000   0.0000   0.2916
   6.800   1.0351   0.01084   0.00457  -0.0504  0.1708  1.0000  -2.2416   0.0000   0.0000   0.0000   0.2909
   6.900   1.0455   0.01096   0.00467  -0.0504  0.1666  1.0000  -2.2805   0.0000   0.0000   0.0000   0.2903
   7.000   1.0558   0.01110   0.00478  -0.0503  0.1614  1.0000  -2.3293   0.0000   0.0000   0.0000   0.2896
   7.100   1.0658   0.01126   0.00490  -0.0502  0.1555  1.0000  -2.3780   0.0000   0.0000   0.0000   0.2889
   7.200   1.0757   0.01144   0.00503  -0.0501  0.1492  1.0000  -2.4266   0.0000   0.0000   0.0000   0.2883
   7.300   1.0889   0.01122   0.00524  -0.0502  0.1718  1.0000  -2.4902   0.0000   0.0000   0.0000   0.2877
   7.400   1.1001   0.01123   0.00535  -0.0502  0.1787  1.0000  -2.5467   0.0000   0.0000   0.0000   0.2871
   7.500   1.1101   0.01139   0.00551  -0.0501  0.1719  1.0000  -2.5986   0.0000   0.0000   0.0000   0.2864
   7.600   1.1206   0.01148   0.00562  -0.0500  0.1700  1.0000  -2.6521   0.0000   0.0000   0.0000   0.2858
   7.700   1.1310   0.01160   0.00574  -0.0499  0.1670  1.0000  -2.7050   0.0000   0.0000   0.0000   0.2852
   7.800   1.1411   0.01173   0.00587  -0.0499  0.1629  1.0000  -2.7573   0.0000   0.0000   0.0000   0.2846
   7.900   1.1510   0.01190   0.00601  -0.0497  0.1578  1.0000  -2.8160   0.0000   0.0000   0.0000   0.2840
   8.000   1.1606   0.01210   0.00616  -0.0496  0.1519  1.0000  -2.9128   0.0000   0.0000   0.0000   0.2834
   8.100   1.1701   0.01232   0.00634  -0.0494  0.1448  1.0000  -3.0095   0.0000   0.0000   0.0000   0.2828
   8.200   1.1797   0.01251   0.00653  -0.0493  0.1377  1.0000  -3.1077   0.0000   0.0000   0.0000   0.2822
   8.300   1.1900   0.01261   0.00665  -0.0492  0.1361  1.0000  -3.2116   0.0000   0.0000   0.0000   0.2816
   8.400   1.2001   0.01274   0.00679  -0.0491  0.1334  1.0000  -3.3154   0.0000   0.0000   0.0000   0.2811
   8.500   1.2098   0.01291   0.00694  -0.0490  0.1291  1.0000  -3.4186   0.0000   0.0000   0.0000   0.2805
   8.600   1.2190   0.01313   0.00711  -0.0488  0.1235  1.0000  -3.5204   0.0000   0.0000   0.0000   0.2799
   8.700   1.2279   0.01340   0.00731  -0.0486  0.1162  1.0000  -3.6209   0.0000   0.0000   0.0000   0.2793
   8.800   1.2368   0.01366   0.00754  -0.0484  0.1075  1.0000  -3.7218   0.0000   0.0000   0.0000   0.2787
   8.900   1.2468   0.01378   0.00768  -0.0483  0.1052  1.0000  -3.8314   0.0000   0.0000   0.0000   0.2782
   9.000   1.2564   0.01394   0.00783  -0.0482  0.1017  1.0000  -3.9400   0.0000   0.0000   0.0000   0.2776
   9.100   1.2655   0.01416   0.00802  -0.0480  0.0970  1.0000  -4.0465   0.0000   0.0000   0.0000   0.2771
   9.200   1.2741   0.01442   0.00823  -0.0478  0.0919  1.0000  -4.1516   0.0000   0.0000   0.0000   0.2765
   9.300   1.2828   0.01468   0.00844  -0.0475  0.0865  1.0000  -4.2575   0.0000   0.0000   0.0000   0.2759
   9.400   1.2917   0.01492   0.00867  -0.0473  0.0809  1.0000  -4.3641   0.0000   0.0000   0.0000   0.2753
   9.500   1.3012   0.01508   0.00885  -0.0471  0.0791  1.0000  -4.4771   0.0000   0.0000   0.0000   0.2748
   9.600   1.3107   0.01523   0.00902  -0.0470  0.0775  1.0000  -4.5913   0.0000   0.0000   0.0000   0.2742
   9.700   1.3199   0.01541   0.00921  -0.0468  0.0752  1.0000  -4.7047   0.0000   0.0000   0.0000   0.2737
   9.800   1.3287   0.01563   0.00941  -0.0466  0.0723  1.0000  -4.8171   0.0000   0.0000   0.0000   0.2732
   9.900   1.3371   0.01588   0.00964  -0.0463  0.0690  1.0000  -4.9277   0.0000   0.0000   0.0000   0.2726
  10.000   1.3452   0.01617   0.00988  -0.0460  0.0654  1.0000  -5.0371   0.0000   0.0000   0.0000   0.2720
  10.100   1.3534   0.01644   0.01013  -0.0458  0.0611  1.0000  -5.1473   0.0000   0.0000   0.0000   0.2714
  10.200   1.3616   0.01671   0.01040  -0.0454  0.0570  1.0000  -5.2574   0.0000   0.0000   0.0000   0.2708
  10.300   1.3706   0.01688   0.01059  -0.0452  0.0560  1.0000  -5.3760   0.0000   0.0000   0.0000   0.2703
  10.400   1.3794   0.01705   0.01079  -0.0451  0.0526  1.0000  -5.4847   0.0000   0.0000   0.0000   0.2698
  10.500   1.3875   0.01731   0.01102  -0.0448  0.0498  1.0000  -5.5967   0.0000   0.0000   0.0000   0.2693
  10.600   1.3951   0.01759   0.01128  -0.0444  0.0470  1.0000  -5.7075   0.0000   0.0000   0.0000   0.2687
  10.700   1.4023   0.01791   0.01156  -0.0441  0.0440  1.0000  -5.8164   0.0000   0.0000   0.0000   0.2681
  10.800   1.4097   0.01822   0.01184  -0.0437  0.0405  1.0000  -5.9263   0.0000   0.0000   0.0000   0.2675
  10.900   1.4174   0.01848   0.01211  -0.0433  0.0371  1.0000  -6.0385   0.0000   0.0000   0.0000   0.2669
  11.000   1.4256   0.01868   0.01232  -0.0430  0.0363  1.0000  -6.1565   0.0000   0.0000   0.0000   0.2664
  11.100   1.4334   0.01891   0.01256  -0.0427  0.0348  1.0000  -6.2717   0.0000   0.0000   0.0000   0.2658
  11.200   1.4405   0.01920   0.01284  -0.0423  0.0324  1.0000  -6.3818   0.0000   0.0000   0.0000   0.2652
  11.300   1.4459   0.01962   0.01321  -0.0417  0.0285  1.0000  -6.4796   0.0000   0.0000   0.0000   0.2646
  11.400   1.4495   0.02017   0.01369  -0.0410  0.0218  1.0000  -6.5601   0.0000   0.0000   0.0000   0.2638
  11.500   1.4493   0.02099   0.01439  -0.0398  0.0140  1.0000  -6.6040   0.0000   0.0000   0.0000   0.2629
  11.600   1.4447   0.02201   0.01534  -0.0379  0.0079  1.0000  -6.5562   0.0000   0.0000   0.0000   0.2615
  11.700   1.4458   0.02257   0.01593  -0.0367  0.0071  1.0000  -6.5862   0.0000   0.0000   0.0000   0.2605
  11.800   1.4481   0.02304   0.01646  -0.0357  0.0067  1.0000  -6.6358   0.0000   0.0000   0.0000   0.2596
  11.900   1.4507   0.02350   0.01698  -0.0347  0.0065  1.0000  -6.6933   0.0000   0.0000   0.0000   0.2587
  12.000   1.4532   0.02397   0.01751  -0.0338  0.0063  1.0000  -6.7538   0.0000   0.0000   0.0000   0.2579
  12.100   1.4556   0.02447   0.01806  -0.0330  0.0062  1.0000  -6.8153   0.0000   0.0000   0.0000   0.2571
  12.200   1.4579   0.02498   0.01864  -0.0322  0.0062  1.0000  -6.8774   0.0000   0.0000   0.0000   0.2563
  12.300   1.4599   0.02554   0.01925  -0.0314  0.0061  1.0000  -6.9390   0.0000   0.0000   0.0000   0.2556
  12.400   1.4619   0.02611   0.01989  -0.0307  0.0061  1.0000  -7.0012   0.0000   0.0000   0.0000   0.2549
  12.500   1.4634   0.02673   0.02056  -0.0300  0.0060  1.0000  -7.0608   0.0000   0.0000   0.0000   0.2542
  12.600   1.4646   0.02738   0.02127  -0.0293  0.0060  1.0000  -7.1188   0.0000   0.0000   0.0000   0.2535
  12.700   1.4657   0.02806   0.02202  -0.0287  0.0060  1.0000  -7.1766   0.0000   0.0000   0.0000   0.2529
  12.800   1.4664   0.02881   0.02283  -0.0281  0.0060  1.0000  -7.2312   0.0000   0.0000   0.0000   0.2523
  12.900   1.4668   0.02960   0.02368  -0.0276  0.0059  1.0000  -7.2844   0.0000   0.0000   0.0000   0.2518
  13.000   1.4673   0.03041   0.02456  -0.0271  0.0059  1.0000  -7.3380   0.0000   0.0000   0.0000   0.2512
  13.100   1.4673   0.03130   0.02551  -0.0266  0.0059  1.0000  -7.3874   0.0000   0.0000   0.0000   0.2507
  13.200   1.4668   0.03225   0.02652  -0.0263  0.0059  1.0000  -7.4342   0.0000   0.0000   0.0000   0.2503
  13.300   1.4665   0.03321   0.02754  -0.0259  0.0059  1.0000  -7.4816   0.0000   0.0000   0.0000   0.2499
  13.400   1.4656   0.03424   0.02864  -0.0256  0.0059  1.0000  -7.5246   0.0000   0.0000   0.0000   0.2495
  13.500   1.4639   0.03535   0.02982  -0.0254  0.0060  1.0000  -7.5617   0.0000   0.0000   0.0000   0.2491
  13.600   1.4624   0.03647   0.03100  -0.0252  0.0060  1.0000  -7.6003   0.0000   0.0000   0.0000   0.2488
  13.700   1.4608   0.03765   0.03225  -0.0250  0.0060  1.0000  -7.6372   0.0000   0.0000   0.0000   0.2485
  13.800   1.4583   0.03899   0.03365  -0.0250  0.0060  1.0000  -7.6667   0.0000   0.0000   0.0000   0.2483
  13.900   1.4561   0.04031   0.03504  -0.0250  0.0060  1.0000  -7.6983   0.0000   0.0000   0.0000   0.2482
  14.000   1.4540   0.04165   0.03645  -0.0250  0.0060  1.0000  -7.7298   0.0000   0.0000   0.0000   0.2480
  14.100   1.4508   0.04319   0.03805  -0.0252  0.0060  1.0000  -7.7525   0.0000   0.0000   0.0000   0.2479
  14.200   1.4476   0.04474   0.03967  -0.0254  0.0060  1.0000  -7.7747   0.0000   0.0000   0.0000   0.2479
  14.300   1.4448   0.04627   0.04126  -0.0256  0.0061  1.0000  -7.7984   0.0000   0.0000   0.0000   0.2479
  14.400   1.4414   0.04789   0.04296  -0.0259  0.0061  1.0000  -7.8175   0.0000   0.0000   0.0000   0.2479
  14.500   1.4369   0.04972   0.04485  -0.0264  0.0061  1.0000  -7.8279   0.0000   0.0000   0.0000   0.2481
  14.600   1.4332   0.05144   0.04664  -0.0267  0.0061  1.0000  -7.8425   0.0000   0.0000   0.0000   0.2482
  14.700   1.4294   0.05316   0.04843  -0.0271  0.0061  1.0000  -7.8565   0.0000   0.0000   0.0000   0.2483
  14.800   1.4244   0.05512   0.05046  -0.0277  0.0061  1.0000  -7.8602   0.0000   0.0000   0.0000   0.2486
  14.900   1.4193   0.05711   0.05252  -0.0283  0.0062  1.0000  -7.8625   0.0000   0.0000   0.0000   0.2489
  15.000   1.4148   0.05900   0.05447  -0.0289  0.0062  1.0000  -7.8682   0.0000   0.0000   0.0000   0.2491
  15.100   1.4101   0.06088   0.05641  -0.0294  0.0062  1.0000  -7.8718   0.0000   0.0000   0.0000   0.2493
  15.200   1.4036   0.06309   0.05870  -0.0302  0.0062  1.0000  -7.8617   0.0000   0.0000   0.0000   0.2498
  15.300   1.3979   0.06524   0.06091  -0.0310  0.0062  1.0000  -7.8555   0.0000   0.0000   0.0000   0.2502
  15.400   1.3929   0.06731   0.06304  -0.0317  0.0063  1.0000  -7.8530   0.0000   0.0000   0.0000   0.2506
  15.500   1.3879   0.06942   0.06521  -0.0325  0.0063  1.0000  -7.8499   0.0000   0.0000   0.0000   0.2510
  15.600   1.3817   0.07188   0.06774  -0.0335  0.0063  1.0000  -7.8353   0.0000   0.0000   0.0000   0.2517
  15.700   1.3757   0.07433   0.07026  -0.0345  0.0063  1.0000  -7.8212   0.0000   0.0000   0.0000   0.2523
  15.800   1.3705   0.07663   0.07262  -0.0354  0.0064  1.0000  -7.8125   0.0000   0.0000   0.0000   0.2529
  15.900   1.3656   0.07891   0.07497  -0.0363  0.0064  1.0000  -7.8039   0.0000   0.0000   0.0000   0.2534
  16.000   1.3603   0.08127   0.07739  -0.0373  0.0064  1.0000  -7.7918   0.0000   0.0000   0.0000   0.2540
  16.100   1.3533   0.08411   0.08030  -0.0387  0.0064  1.0000  -7.7648   0.0000   0.0000   0.0000   0.2550
  16.200   1.3476   0.08664   0.08290  -0.0399  0.0065  1.0000  -7.7466   0.0000   0.0000   0.0000   0.2558
  16.300   1.3423   0.08906   0.08538  -0.0409  0.0065  1.0000  -7.7309   0.0000   0.0000   0.0000   0.2565
  16.400   1.3373   0.09148   0.08786  -0.0420  0.0065  1.0000  -7.7149   0.0000   0.0000   0.0000   0.2572
  16.500   1.3319   0.09396   0.09041  -0.0431  0.0065  1.0000  -7.6957   0.0000   0.0000   0.0000   0.2580
  16.600   1.3246   0.09696   0.09347  -0.0447  0.0066  1.0000  -7.6591   0.0000   0.0000   0.0000   0.2592
  16.700   1.3186   0.09966   0.09623  -0.0461  0.0066  1.0000  -7.6315   0.0000   0.0000   0.0000   0.2602
  16.800   1.3132   0.10219   0.09883  -0.0473  0.0066  1.0000  -7.6075   0.0000   0.0000   0.0000   0.2611
  16.900   1.3079   0.10471   0.10141  -0.0486  0.0067  1.0000  -7.5825   0.0000   0.0000   0.0000   0.2620
  17.000   1.3023   0.10728   0.10404  -0.0499  0.0067  1.0000  -7.5542   0.0000   0.0000   0.0000   0.2629
  17.100   1.2955   0.11023   0.10706  -0.0515  0.0067  1.0000  -7.5135   0.0000   0.0000   0.0000   0.2642
  17.200   1.2886   0.11322   0.11012  -0.0532  0.0067  1.0000  -7.4699   0.0000   0.0000   0.0000   0.2656
  17.300   1.2827   0.11591   0.11287  -0.0547  0.0068  1.0000  -7.4338   0.0000   0.0000   0.0000   0.2668
  17.400   1.2771   0.11855   0.11557  -0.0562  0.0068  1.0000  -7.3976   0.0000   0.0000   0.0000   0.2679
  17.500   1.2714   0.12125   0.11833  -0.0577  0.0068  1.0000  -7.3588   0.0000   0.0000   0.0000   0.2692
  17.600   1.2649   0.12414   0.12129  -0.0594  0.0069  1.0000  -7.3118   0.0000   0.0000   0.0000   0.2706
  17.700   1.2570   0.12728   0.12449  -0.0615  0.0069  1.0000  -7.2503   0.0000   0.0000   0.0000   0.2724
  17.800   1.2507   0.12990   0.12717  -0.0632  0.0069  1.0000  -7.2010   0.0000   0.0000   0.0000   0.2739
  17.900   1.2448   0.13251   0.12983  -0.0649  0.0069  1.0000  -7.1524   0.0000   0.0000   0.0000   0.2753
  18.000   1.2387   0.13524   0.13262  -0.0667  0.0070  1.0000  -7.1000   0.0000   0.0000   0.0000   0.2768
  18.100   1.2320   0.13825   0.13569  -0.0686  0.0070  1.0000  -7.0388   0.0000   0.0000   0.0000   0.2786
  18.200   1.2235   0.14186   0.13936  -0.0710  0.0070  1.0000  -6.9586   0.0000   0.0000   0.0000   0.2808
  18.300   1.2169   0.14507   0.14263  -0.0730  0.0071  1.0000  -6.8918   0.0000   0.0000   0.0000   0.2826
  18.400   1.2104   0.14831   0.14592  -0.0750  0.0071  1.0000  -6.8236   0.0000   0.0000   0.0000   0.2845
  18.500   1.2035   0.15173   0.14940  -0.0771  0.0071  1.0000  -6.7486   0.0000   0.0000   0.0000   0.2864
  18.600   1.1947   0.15589   0.15362  -0.0796  0.0071  1.0000  -6.6486   0.0000   0.0000   0.0000   0.2890
  18.700   1.1867   0.15990   0.15768  -0.0820  0.0072  1.0000  -6.5534   0.0000   0.0000   0.0000   0.2914
  18.800   1.1794   0.16377   0.16160  -0.0843  0.0072  1.0000  -6.4609   0.0000   0.0000   0.0000   0.2937
  18.900   1.1716   0.16790   0.16578  -0.0866  0.0072  1.0000  -6.3581   0.0000   0.0000   0.0000   0.2961
  19.000   1.1611   0.17305   0.17099  -0.0895  0.0072  1.0000  -6.2172   0.0000   0.0000   0.0000   0.2993
  19.100   1.1519   0.17794   0.17593  -0.0922  0.0073  1.0000  -6.0827   0.0000   0.0000   0.0000   0.3022
  19.200   1.1426   0.18295   0.18098  -0.0948  0.0073  1.0000  -5.9403   0.0000   0.0000   0.0000   0.3052
  19.300   1.1295   0.18953   0.18762  -0.0982  0.0073  1.0000  -5.7308   0.0000   0.0000   0.0000   0.3093
  19.400   1.1165   0.19629   0.19442  -0.1014  0.0074  1.0000  -5.5056   0.0000   0.0000   0.0000   0.3134
  19.500   1.0962   0.20614   0.20433  -0.1058  0.0074  1.0000  -5.1257   0.0000   0.0000   0.0000   0.3195
  19.600   1.0301   0.23806   0.23625  -0.1165  0.0084  1.0000  -3.5035   0.0000   0.0000   0.0000   0.3383
  19.700   1.0174   0.24755   0.24573  -0.1192  0.0090  1.0000  -3.1016   0.0000   0.0000   0.0000   0.3427
  20.100   0.9941   0.27609   0.27422  -0.1257  0.0160  1.0000  -2.0300   0.0000   0.0000   0.0000   0.3530
  20.200   0.9945   0.27864   0.27677  -0.1265  0.0158  1.0000  -2.0171   0.0000   0.0000   0.0000   0.3536
  20.300   0.9949   0.28115   0.27928  -0.1273  0.0155  1.0000  -2.0061   0.0000   0.0000   0.0000   0.3542
  20.400   0.9953   0.28361   0.28174  -0.1280  0.0153  1.0000  -1.9968   0.0000   0.0000   0.0000   0.3548
  20.500   0.9956   0.28605   0.28423  -0.1288  0.0150  1.0000  -1.9833   0.0000   0.0000   0.0000   0.3554
  20.600   0.9959   0.28843   0.28661  -0.1295  0.0148  1.0000  -1.9763   0.0000   0.0000   0.0000   0.3559
  20.700   0.9962   0.29077   0.28896  -0.1302  0.0145  1.0000  -1.9709   0.0000   0.0000   0.0000   0.3565
  20.800   0.9964   0.29307   0.29126  -0.1309  0.0143  1.0000  -1.9669   0.0000   0.0000   0.0000   0.3570
  20.900   0.9965   0.29534   0.29353  -0.1315  0.0141  1.0000  -1.9641   0.0000   0.0000   0.0000   0.3575
  21.000   0.9966   0.29756   0.29576  -0.1322  0.0139  1.0000  -1.9624   0.0000   0.0000   0.0000   0.3580
  21.100   0.9966   0.29974   0.29795  -0.1328  0.0137  1.0000  -1.9616   0.0000   0.0000   0.0000   0.3584
  21.200   0.9964   0.30187   0.30009  -0.1334  0.0136  1.0000  -1.9616   0.0000   0.0000   0.0000   0.3589
  21.300   0.9962   0.30396   0.30218  -0.1340  0.0134  1.0000  -1.9625   0.0000   0.0000   0.0000   0.3593
  21.400   0.9958   0.30600   0.30422  -0.1345  0.0132  1.0000  -1.9639   0.0000   0.0000   0.0000   0.3598
  21.500   0.9952   0.30797   0.30620  -0.1350  0.0131  1.0000  -1.9659   0.0000   0.0000   0.0000   0.3602
  21.600   0.9944   0.30988   0.30812  -0.1355  0.0129  1.0000  -1.9683   0.0000   0.0000   0.0000   0.3606
  21.700   0.9933   0.31172   0.30997  -0.1359  0.0128  1.0000  -1.9708   0.0000   0.0000   0.0000   0.3611
  21.800   0.9919   0.31347   0.31172  -0.1363  0.0126  1.0000  -1.9731   0.0000   0.0000   0.0000   0.3615
  21.900   0.9900   0.31510   0.31336  -0.1366  0.0125  1.0000  -1.9749   0.0000   0.0000   0.0000   0.3619
  22.000   0.9875   0.31658   0.31485  -0.1368  0.0124  1.0000  -1.9755   0.0000   0.0000   0.0000   0.3624
  22.100   0.9336   0.30734   0.30570  -0.1318  0.0124  1.0000  -1.8014   0.0000   0.0000   0.0000   0.3658
  22.200   0.9270   0.30693   0.30530  -0.1315  0.0123  1.0000  -1.7888   0.0000   0.0000   0.0000   0.3665
  22.300   0.9219   0.30676   0.30514  -0.1314  0.0122  1.0000  -1.7821   0.0000   0.0000   0.0000   0.3670
  22.400   0.9178   0.30672   0.30511  -0.1313  0.0120  1.0000  -1.7790   0.0000   0.0000   0.0000   0.3675
  22.500   0.9142   0.30674   0.30515  -0.1313  0.0119  1.0000  -1.7786   0.0000   0.0000   0.0000   0.3679
  22.600   0.9110   0.30680   0.30523  -0.1313  0.0118  1.0000  -1.7803   0.0000   0.0000   0.0000   0.3683
  22.700   0.9082   0.30691   0.30534  -0.1313  0.0117  1.0000  -1.7839   0.0000   0.0000   0.0000   0.3687
  22.800   0.9054   0.30709   0.30553  -0.1314  0.0116  1.0000  -1.7846   0.0000   0.0000   0.0000   0.3691
  22.900   0.9025   0.30733   0.30578  -0.1315  0.0115  1.0000  -1.7810   0.0000   0.0000   0.0000   0.3695
  23.000   0.8996   0.30760   0.30606  -0.1316  0.0114  1.0000  -1.7763   0.0000   0.0000   0.0000   0.3700
  23.100   0.8964   0.30790   0.30637  -0.1316  0.0112  1.0000  -1.7679   0.0000   0.0000   0.0000   0.3705
  23.200   0.8923   0.30827   0.30675  -0.1317  0.0110  1.0000  -1.7452   0.0000   0.0000   0.0000   0.3712
  23.300   0.8689   0.31074   0.30920  -0.1312  0.0104  1.0000  -1.4154   0.0000   0.0000   0.0000   0.3753
  23.400   0.8671   0.31136   0.30983  -0.1314  0.0104  1.0000  -1.4003   0.0000   0.0000   0.0000   0.3758
  23.500   0.8654   0.31199   0.31047  -0.1317  0.0104  1.0000  -1.3856   0.0000   0.0000   0.0000   0.3763
  23.600   0.8639   0.31263   0.31112  -0.1320  0.0104  1.0000  -1.3715   0.0000   0.0000   0.0000   0.3769
  23.700   0.8624   0.31327   0.31177  -0.1323  0.0103  1.0000  -1.3577   0.0000   0.0000   0.0000   0.3774
  23.800   0.8610   0.31393   0.31243  -0.1326  0.0103  1.0000  -1.3443   0.0000   0.0000   0.0000   0.3778
  23.900   0.8596   0.31458   0.31309  -0.1329  0.0103  1.0000  -1.3313   0.0000   0.0000   0.0000   0.3783
  24.000   0.8584   0.31525   0.31376  -0.1332  0.0103  1.0000  -1.3187   0.0000   0.0000   0.0000   0.3788
  24.100   0.8572   0.31592   0.31444  -0.1335  0.0103  1.0000  -1.3064   0.0000   0.0000   0.0000   0.3793
  24.200   0.8560   0.31659   0.31512  -0.1338  0.0103  1.0000  -1.2945   0.0000   0.0000   0.0000   0.3797
  24.300   0.8549   0.31726   0.31580  -0.1342  0.0103  1.0000  -1.2828   0.0000   0.0000   0.0000   0.3802
  24.400   0.8539   0.31794   0.31649  -0.1345  0.0103  1.0000  -1.2714   0.0000   0.0000   0.0000   0.3806
  24.500   0.8529   0.31863   0.31717  -0.1348  0.0103  1.0000  -1.2603   0.0000   0.0000   0.0000   0.3811
  24.600   0.8520   0.31931   0.31787  -0.1351  0.0103  1.0000  -1.2495   0.0000   0.0000   0.0000   0.3815
  24.700   0.8511   0.32000   0.31856  -0.1355  0.0103  1.0000  -1.2390   0.0000   0.0000   0.0000   0.3820
  24.800   0.8503   0.32070   0.31926  -0.1358  0.0103  1.0000  -1.2287   0.0000   0.0000   0.0000   0.3824
  24.900   0.8495   0.32139   0.31996  -0.1362  0.0103  1.0000  -1.2185   0.0000   0.0000   0.0000   0.3828
  25.000   0.8487   0.32209   0.32066  -0.1365  0.0103  1.0000  -1.2086   0.0000   0.0000   0.0000   0.3833
  25.100   0.8480   0.32279   0.32137  -0.1369  0.0103  1.0000  -1.1988   0.0000   0.0000   0.0000   0.3837
  25.200   0.8473   0.32348   0.32207  -0.1373  0.0103  1.0000  -1.1892   0.0000   0.0000   0.0000   0.3841
  25.300   0.8467   0.32418   0.32278  -0.1377  0.0103  1.0000  -1.1798   0.0000   0.0000   0.0000   0.3846
  25.400   0.8460   0.32489   0.32349  -0.1381  0.0103  1.0000  -1.1707   0.0000   0.0000   0.0000   0.3850
  25.500   0.8455   0.32559   0.32419  -0.1384  0.0103  1.0000  -1.1619   0.0000   0.0000   0.0000   0.3854
  25.600   0.8449   0.32629   0.32490  -0.1388  0.0103  1.0000  -1.1534   0.0000   0.0000   0.0000   0.3858
  25.700   0.8444   0.32699   0.32561  -0.1392  0.0102  1.0000  -1.1453   0.0000   0.0000   0.0000   0.3863
  25.800   0.8440   0.32770   0.32632  -0.1396  0.0102  1.0000  -1.1374   0.0000   0.0000   0.0000   0.3867
  25.900   0.8435   0.32840   0.32703  -0.1400  0.0102  1.0000  -1.1300   0.0000   0.0000   0.0000   0.3871
  26.000   0.8431   0.32910   0.32773  -0.1405  0.0102  1.0000  -1.1228   0.0000   0.0000   0.0000   0.3875
  26.100   0.8428   0.32980   0.32844  -0.1409  0.0102  1.0000  -1.1160   0.0000   0.0000   0.0000   0.3879
  26.200   0.8425   0.33051   0.32915  -0.1413  0.0102  1.0000  -1.1097   0.0000   0.0000   0.0000   0.3883
  26.300   0.8422   0.33121   0.32986  -0.1417  0.0101  1.0000  -1.1036   0.0000   0.0000   0.0000   0.3887
  26.400   0.8419   0.33192   0.33057  -0.1421  0.0101  1.0000  -1.0972   0.0000   0.0000   0.0000   0.3890
  26.500   0.8416   0.33263   0.33129  -0.1425  0.0101  1.0000  -1.0909   0.0000   0.0000   0.0000   0.3894
  26.600   0.8412   0.33334   0.33201  -0.1429  0.0101  1.0000  -1.0845   0.0000   0.0000   0.0000   0.3898
  26.700   0.8410   0.33405   0.33272  -0.1433  0.0101  1.0000  -1.0783   0.0000   0.0000   0.0000   0.3902
  26.800   0.8407   0.33476   0.33344  -0.1437  0.0101  1.0000  -1.0722   0.0000   0.0000   0.0000   0.3905
  26.900   0.8405   0.33548   0.33416  -0.1441  0.0100  1.0000  -1.0663   0.0000   0.0000   0.0000   0.3909
  27.000   0.8402   0.33619   0.33488  -0.1445  0.0100  1.0000  -1.0606   0.0000   0.0000   0.0000   0.3912
  27.100   0.8400   0.33691   0.33560  -0.1450  0.0100  1.0000  -1.0551   0.0000   0.0000   0.0000   0.3916
  27.200   0.8399   0.33762   0.33632  -0.1454  0.0100  1.0000  -1.0498   0.0000   0.0000   0.0000   0.3919


