xflr5 v6.61

 Calculated polar for: S3010-103-84

 1 1 Reynolds number fixed          Mach number fixed         

 xtrf =   1.000 (top)        1.000 (bottom)
 Mach =   0.000     Re =     0.300 e 6     Ncrit =   9.000

  alpha     CL        CD       CDp       Cm    Top Xtr Bot Xtr   Cpmin    Chinge    XCp    
 ------- -------- --------- --------- -------- ------- ------- -------- --------- ---------
 -10.000  -0.4177   0.11350   0.11046  -0.0042  1.0000  0.0321  -1.4383   0.0000   0.0000   0.0000   0.2331
  -9.900  -0.4156   0.11213   0.10910  -0.0049  1.0000  0.0325  -1.4430   0.0000   0.0000   0.0000   0.2314
  -9.800  -0.4136   0.11075   0.10772  -0.0056  1.0000  0.0329  -1.4483   0.0000   0.0000   0.0000   0.2297
  -9.700  -0.4116   0.10936   0.10635  -0.0063  1.0000  0.0333  -1.4543   0.0000   0.0000   0.0000   0.2279
  -9.600  -0.4097   0.10797   0.10496  -0.0071  1.0000  0.0337  -1.4611   0.0000   0.0000   0.0000   0.2260
  -9.500  -0.4078   0.10657   0.10358  -0.0079  1.0000  0.0341  -1.4687   0.0000   0.0000   0.0000   0.2241
  -9.400  -0.4059   0.10518   0.10219  -0.0087  1.0000  0.0345  -1.4772   0.0000   0.0000   0.0000   0.2221
  -9.300  -0.4041   0.10378   0.10080  -0.0095  1.0000  0.0349  -1.4868   0.0000   0.0000   0.0000   0.2200
  -9.200  -0.4023   0.10237   0.09941  -0.0104  1.0000  0.0354  -1.4975   0.0000   0.0000   0.0000   0.2178
  -9.100  -0.4006   0.10098   0.09802  -0.0113  1.0000  0.0359  -1.5096   0.0000   0.0000   0.0000   0.2155
  -9.000  -0.3989   0.09960   0.09665  -0.0122  1.0000  0.0364  -1.5229   0.0000   0.0000   0.0000   0.2130
  -8.900  -0.3973   0.09824   0.09530  -0.0132  1.0000  0.0369  -1.5378   0.0000   0.0000   0.0000   0.2104
  -8.800  -0.3954   0.09694   0.09401  -0.0143  1.0000  0.0374  -1.5526   0.0000   0.0000   0.0000   0.2076
  -8.700  -0.3935   0.09570   0.09279  -0.0154  1.0000  0.0380  -1.5680   0.0000   0.0000   0.0000   0.2046
  -8.600  -0.3910   0.09457   0.09167  -0.0166  1.0000  0.0385  -1.5808   0.0000   0.0000   0.0000   0.2014
  -8.500  -0.3874   0.09360   0.09071  -0.0177  1.0000  0.0391  -1.5844   0.0000   0.0000   0.0000   0.1983
  -8.400  -0.3841   0.09261   0.08973  -0.0188  1.0000  0.0395  -1.5879   0.0000   0.0000   0.0000   0.1951
  -8.300  -0.3813   0.09150   0.08863  -0.0199  1.0000  0.0397  -1.5934   0.0000   0.0000   0.0000   0.1919
  -8.200  -0.3790   0.09027   0.08742  -0.0209  1.0000  0.0399  -1.6013   0.0000   0.0000   0.0000   0.1888
  -8.100  -0.3770   0.08896   0.08613  -0.0220  1.0000  0.0400  -1.6111   0.0000   0.0000   0.0000   0.1857
  -8.000  -0.3753   0.08759   0.08477  -0.0232  1.0000  0.0401  -1.6225   0.0000   0.0000   0.0000   0.1825
  -7.900  -0.3737   0.08615   0.08335  -0.0243  1.0000  0.0402  -1.6354   0.0000   0.0000   0.0000   0.1792
  -7.800  -0.3724   0.08466   0.08188  -0.0256  1.0000  0.0402  -1.6498   0.0000   0.0000   0.0000   0.1757
  -7.700  -0.3714   0.08314   0.08037  -0.0269  1.0000  0.0403  -1.6660   0.0000   0.0000   0.0000   0.1721
  -7.600  -0.3708   0.08156   0.07881  -0.0283  1.0000  0.0403  -1.6841   0.0000   0.0000   0.0000   0.1683
  -7.500  -0.3705   0.07993   0.07720  -0.0298  1.0000  0.0403  -1.7048   0.0000   0.0000   0.0000   0.1641
  -7.400  -0.3700   0.07814   0.07543  -0.0319  1.0000  0.0404  -1.7290   0.0000   0.0000   0.0000   0.1586
  -7.300  -0.3681   0.07600   0.07330  -0.0348  1.0000  0.0404  -1.7587   0.0000   0.0000   0.0000   0.1503
  -7.200  -0.3659   0.07372   0.07101  -0.0378  1.0000  0.0404  -1.7922   0.0000   0.0000   0.0000   0.1417
  -7.100  -0.3640   0.07160   0.06887  -0.0400  1.0000  0.0405  -1.8236   0.0000   0.0000   0.0000   0.1350
  -7.000  -0.3625   0.06968   0.06693  -0.0418  1.0000  0.0405  -1.8509   0.0000   0.0000   0.0000   0.1298
  -6.900  -0.3619   0.06796   0.06520  -0.0430  1.0000  0.0405  -1.8748   0.0000   0.0000   0.0000   0.1262
  -6.800  -0.3635   0.06661   0.06383  -0.0434  1.0000  0.0405  -1.8952   0.0000   0.0000   0.0000   0.1257
  -6.700  -0.3687   0.06574   0.06296  -0.0427  0.9997  0.0405  -1.9129   0.0000   0.0000   0.0000   0.1295
  -6.600  -0.3777   0.05489   0.05192  -0.0522  0.9910  0.0421  -2.2009   0.0000   0.0000   0.0000   0.1070
  -6.500  -0.3711   0.05116   0.04814  -0.0554  0.9880  0.0433  -2.2184   0.0000   0.0000   0.0000   0.0957
  -6.400  -0.3612   0.04917   0.04611  -0.0574  0.9846  0.0441  -2.1887   0.0000   0.0000   0.0000   0.0860
  -6.300  -0.3504   0.04772   0.04465  -0.0589  0.9808  0.0448  -2.1432   0.0000   0.0000   0.0000   0.0769
  -6.200  -0.3385   0.04649   0.04340  -0.0603  0.9774  0.0456  -2.0899   0.0000   0.0000   0.0000   0.0670
  -6.100  -0.3260   0.04520   0.04209  -0.0619  0.9743  0.0464  -2.0403   0.0000   0.0000   0.0000   0.0551
  -6.000  -0.3130   0.04385   0.04069  -0.0636  0.9715  0.0473  -1.9955   0.0000   0.0000   0.0000   0.0416
  -5.900  -0.3034   0.04263   0.03943  -0.0646  0.9656  0.0482  -1.9626   0.0000   0.0000   0.0000   0.0321
  -5.800  -0.2931   0.04136   0.03809  -0.0656  0.9603  0.0492  -1.9321   0.0000   0.0000   0.0000   0.0209
  -5.700  -0.2822   0.04003   0.03670  -0.0668  0.9556  0.0504  -1.9040   0.0000   0.0000   0.0000   0.0080
  -5.600  -0.2712   0.03871   0.03529  -0.0679  0.9515  0.0517  -1.8790   0.0000   0.0000   0.0000  -0.0058
  -5.500  -0.2624   0.03755   0.03404  -0.0683  0.9461  0.0531  -1.8592   0.0000   0.0000   0.0000  -0.0161
  -5.400  -0.2545   0.03650   0.03290  -0.0684  0.9397  0.0545  -1.8417   0.0000   0.0000   0.0000  -0.0245
  -5.300  -0.2459   0.03552   0.03182  -0.0685  0.9339  0.0562  -1.8230   0.0000   0.0000   0.0000  -0.0343
  -5.200  -0.2365   0.03474   0.03094  -0.0684  0.9286  0.0581  -1.8009   0.0000   0.0000   0.0000  -0.0451
  -5.100  -0.2264   0.03441   0.03051  -0.0681  0.9238  0.0601  -1.7695   0.0000   0.0000   0.0000  -0.0568
  -5.000  -0.2124   0.03633   0.03237  -0.0671  0.9185  0.0629  -1.6867   0.0000   0.0000   0.0000  -0.0719
  -4.900  -0.2024   0.03673   0.03268  -0.0665  0.9124  0.0635  -1.6429   0.0000   0.0000   0.0000  -0.0847
  -4.800  -0.1944   0.03603   0.03188  -0.0661  0.9065  0.0637  -1.6222   0.0000   0.0000   0.0000  -0.0966
  -4.700  -0.1865   0.03514   0.03088  -0.0657  0.9010  0.0638  -1.6049   0.0000   0.0000   0.0000  -0.1090
  -4.300  -0.1599   0.02049   0.01493  -0.0651  0.8832  0.0346  -2.0234   0.0000   0.0000   0.0000  -0.1655
  -4.200  -0.1500   0.01813   0.01220  -0.0644  0.8789  0.0294  -2.1334   0.0000   0.0000   0.0000  -0.1881
  -4.100  -0.1392   0.01677   0.01053  -0.0636  0.8746  0.0260  -2.1989   0.0000   0.0000   0.0000  -0.2162
  -4.000  -0.1287   0.01641   0.01009  -0.0631  0.8702  0.0249  -2.1641   0.0000   0.0000   0.0000  -0.2503
  -3.900  -0.1183   0.01621   0.00983  -0.0627  0.8659  0.0242  -2.1120   0.0000   0.0000   0.0000  -0.2901
  -3.800  -0.1080   0.01606   0.00963  -0.0622  0.8616  0.0236  -2.0548   0.0000   0.0000   0.0000  -0.3373
  -3.700  -0.0976   0.01593   0.00945  -0.0618  0.8572  0.0232  -1.9956   0.0000   0.0000   0.0000  -0.3951
  -3.600  -0.0868   0.01580   0.00929  -0.0616  0.8532  0.0228  -1.9349   0.0000   0.0000   0.0000  -0.4719
  -3.400  -0.0659   0.01460   0.00794  -0.0610  0.8451  0.0220  -1.8739   0.0000   0.0000   0.0000  -0.6913
  -3.300  -0.0558   0.01392   0.00719  -0.0606  0.8405  0.0218  -1.8506   0.0000   0.0000   0.0000  -0.8539
  -3.200  -0.0457   0.01341   0.00660  -0.0602  0.8357  0.0216  -1.8164   0.0000   0.0000   0.0000  -1.0875
  -3.100  -0.0357   0.01301   0.00598  -0.0598  0.8309  0.0212  -1.7615   0.0000   0.0000   0.0000  -1.4520
  -3.000  -0.0256   0.01264   0.00554  -0.0594  0.8261  0.0210  -1.7220   0.0000   0.0000   0.0000  -2.1003
  -2.900  -0.0155   0.01233   0.00514  -0.0590  0.8213  0.0209  -1.6792   0.0000   0.0000   0.0000  -3.6015
  -2.800  -0.0052   0.01208   0.00481  -0.0586  0.8160  0.0209  -1.6333   0.0000   0.0000   0.0000  -11.1714
  -2.700   0.0057   0.01183   0.00451  -0.0584  0.8123  0.0208  -1.5838   0.0000   0.0000   0.0000  10.5656
  -2.600   0.0168   0.01160   0.00423  -0.0583  0.8084  0.0209  -1.5337   0.0000   0.0000   0.0000   3.7716
  -2.500   0.0278   0.01142   0.00399  -0.0581  0.8041  0.0209  -1.4829   0.0000   0.0000   0.0000   2.3647
  -2.400   0.0389   0.01126   0.00377  -0.0580  0.7997  0.0211  -1.4311   0.0000   0.0000   0.0000   1.7586
  -2.300   0.0498   0.01113   0.00357  -0.0578  0.7951  0.0213  -1.3785   0.0000   0.0000   0.0000   1.4209
  -2.200   0.0608   0.01102   0.00339  -0.0575  0.7905  0.0217  -1.3257   0.0000   0.0000   0.0000   1.2056
  -2.100   0.0717   0.01093   0.00322  -0.0573  0.7860  0.0222  -1.2732   0.0000   0.0000   0.0000   1.0562
  -2.000   0.0827   0.01082   0.00304  -0.0570  0.7814  0.0255  -1.2376   0.0000   0.0000   0.0000   0.9450
  -1.900   0.0935   0.01071   0.00292  -0.0567  0.7763  0.0349  -1.1912   0.0000   0.0000   0.0000   0.8616
  -1.800   0.1040   0.01040   0.00281  -0.0567  0.7715  0.0825  -1.1369   0.0000   0.0000   0.0000   0.7991
  -1.700   0.1143   0.00998   0.00274  -0.0568  0.7678  0.1594  -1.0774   0.0000   0.0000   0.0000   0.7499
  -1.600   0.1246   0.00964   0.00270  -0.0568  0.7634  0.2268  -1.0142   0.0000   0.0000   0.0000   0.7084
  -1.500   0.1353   0.00946   0.00266  -0.0567  0.7584  0.2651  -0.9482   0.0000   0.0000   0.0000   0.6715
  -1.400   0.1459   0.00930   0.00264  -0.0566  0.7531  0.3049  -0.8817   0.0000   0.0000   0.0000   0.6400
  -1.300   0.1564   0.00914   0.00261  -0.0565  0.7478  0.3454  -0.8155   0.0000   0.0000   0.0000   0.6127
  -1.200   0.1667   0.00899   0.00258  -0.0563  0.7426  0.3879  -0.7572   0.0000   0.0000   0.0000   0.5890
  -1.100   0.1770   0.00885   0.00257  -0.0562  0.7375  0.4278  -0.7130   0.0000   0.0000   0.0000   0.5679
  -1.000   0.1875   0.00877   0.00256  -0.0560  0.7321  0.4616  -0.6697   0.0000   0.0000   0.0000   0.5490
  -0.900   0.1980   0.00870   0.00258  -0.0558  0.7267  0.4971  -0.6272   0.0000   0.0000   0.0000   0.5321
  -0.800   0.2085   0.00855   0.00259  -0.0557  0.7233  0.5360  -0.5857   0.0000   0.0000   0.0000   0.5169
  -0.700   0.2189   0.00842   0.00260  -0.0555  0.7191  0.5738  -0.5623   0.0000   0.0000   0.0000   0.5031
  -0.600   0.2287   0.00826   0.00262  -0.0551  0.7142  0.6255  -0.5724   0.0000   0.0000   0.0000   0.4905
  -0.500   0.2371   0.00804   0.00267  -0.0543  0.7090  0.6991  -0.5818   0.0000   0.0000   0.0000   0.4786
  -0.400   0.2442   0.00783   0.00272  -0.0531  0.7036  0.7725  -0.5905   0.0000   0.0000   0.0000   0.4668
  -0.300   0.2500   0.00767   0.00275  -0.0515  0.6983  0.8422  -0.5985   0.0000   0.0000   0.0000   0.4550
  -0.200   0.2572   0.00756   0.00275  -0.0499  0.6928  0.9072  -0.6074   0.0000   0.0000   0.0000   0.4431
  -0.100   0.2807   0.00748   0.00268  -0.0519  0.6860  0.9739  -0.6259   0.0000   0.0000   0.0000   0.4339
   0.000   0.3033   0.00749   0.00263  -0.0543  0.6795  0.9974  -0.6437   0.0000   0.0000   0.0000   0.4277
   0.100   0.3154   0.00749   0.00262  -0.0545  0.6761  1.0000  -0.6567   0.0000   0.0000   0.0000   0.4214
   0.200   0.3260   0.00750   0.00261  -0.0544  0.6719  1.0000  -0.6689   0.0000   0.0000   0.0000   0.4154
   0.300   0.3367   0.00752   0.00261  -0.0543  0.6672  1.0000  -0.6811   0.0000   0.0000   0.0000   0.4097
   0.400   0.3473   0.00754   0.00261  -0.0542  0.6619  1.0000  -0.6934   0.0000   0.0000   0.0000   0.4043
   0.500   0.3579   0.00757   0.00262  -0.0540  0.6562  1.0000  -0.7058   0.0000   0.0000   0.0000   0.3991
   0.600   0.3685   0.00761   0.00259  -0.0538  0.6503  1.0000  -0.7182   0.0000   0.0000   0.0000   0.3943
   0.700   0.3790   0.00766   0.00256  -0.0537  0.6440  1.0000  -0.7306   0.0000   0.0000   0.0000   0.3897
   0.800   0.3895   0.00773   0.00255  -0.0535  0.6369  1.0000  -0.7429   0.0000   0.0000   0.0000   0.3853
   0.900   0.4002   0.00779   0.00256  -0.0534  0.6304  1.0000  -0.7555   0.0000   0.0000   0.0000   0.3813
   1.000   0.4112   0.00780   0.00257  -0.0533  0.6266  1.0000  -0.7682   0.0000   0.0000   0.0000   0.3775
   1.100   0.4222   0.00782   0.00257  -0.0533  0.6220  1.0000  -0.7811   0.0000   0.0000   0.0000   0.3739
   1.200   0.4332   0.00785   0.00258  -0.0532  0.6169  1.0000  -0.7939   0.0000   0.0000   0.0000   0.3705
   1.300   0.4441   0.00788   0.00258  -0.0531  0.6113  1.0000  -0.8074   0.0000   0.0000   0.0000   0.3672
   1.400   0.4549   0.00792   0.00257  -0.0530  0.6054  1.0000  -0.8222   0.0000   0.0000   0.0000   0.3640
   1.500   0.4656   0.00798   0.00256  -0.0529  0.5990  1.0000  -0.8371   0.0000   0.0000   0.0000   0.3609
   1.600   0.4762   0.00805   0.00256  -0.0527  0.5921  1.0000  -0.8520   0.0000   0.0000   0.0000   0.3580
   1.700   0.4868   0.00815   0.00258  -0.0526  0.5840  1.0000  -0.8668   0.0000   0.0000   0.0000   0.3552
   1.800   0.4979   0.00818   0.00261  -0.0526  0.5794  1.0000  -0.8820   0.0000   0.0000   0.0000   0.3527
   1.900   0.5090   0.00820   0.00263  -0.0525  0.5752  1.0000  -0.8973   0.0000   0.0000   0.0000   0.3502
   2.000   0.5200   0.00823   0.00265  -0.0525  0.5702  1.0000  -0.9126   0.0000   0.0000   0.0000   0.3479
   2.100   0.5310   0.00827   0.00267  -0.0524  0.5650  1.0000  -0.9280   0.0000   0.0000   0.0000   0.3456
   2.200   0.5420   0.00832   0.00268  -0.0524  0.5594  1.0000  -0.9440   0.0000   0.0000   0.0000   0.3434
   2.300   0.5528   0.00838   0.00270  -0.0523  0.5536  1.0000  -0.9620   0.0000   0.0000   0.0000   0.3412
   2.400   0.5636   0.00845   0.00272  -0.0522  0.5476  1.0000  -0.9799   0.0000   0.0000   0.0000   0.3392
   2.500   0.5742   0.00854   0.00274  -0.0520  0.5409  1.0000  -0.9979   0.0000   0.0000   0.0000   0.3372
   2.600   0.5849   0.00866   0.00280  -0.0519  0.5329  1.0000  -1.0158   0.0000   0.0000   0.0000   0.3353
   2.700   0.5960   0.00869   0.00284  -0.0519  0.5293  1.0000  -1.0342   0.0000   0.0000   0.0000   0.3335
   2.800   0.6071   0.00871   0.00287  -0.0519  0.5251  1.0000  -1.0528   0.0000   0.0000   0.0000   0.3318
   2.900   0.6182   0.00875   0.00291  -0.0519  0.5199  1.0000  -1.0714   0.0000   0.0000   0.0000   0.3301
   3.000   0.6291   0.00880   0.00294  -0.0518  0.5139  1.0000  -1.0899   0.0000   0.0000   0.0000   0.3284
   3.100   0.6399   0.00886   0.00296  -0.0517  0.5076  1.0000  -1.1085   0.0000   0.0000   0.0000   0.3268
   3.200   0.6506   0.00894   0.00299  -0.0516  0.5012  1.0000  -1.1280   0.0000   0.0000   0.0000   0.3253
   3.300   0.6612   0.00903   0.00303  -0.0515  0.4946  1.0000  -1.1498   0.0000   0.0000   0.0000   0.3237
   3.400   0.6718   0.00915   0.00309  -0.0514  0.4872  1.0000  -1.1716   0.0000   0.0000   0.0000   0.3223
   3.500   0.6826   0.00925   0.00316  -0.0513  0.4811  1.0000  -1.1938   0.0000   0.0000   0.0000   0.3209
   3.600   0.6937   0.00928   0.00321  -0.0513  0.4777  1.0000  -1.2165   0.0000   0.0000   0.0000   0.3196
   3.700   0.7048   0.00931   0.00326  -0.0513  0.4731  1.0000  -1.2392   0.0000   0.0000   0.0000   0.3183
   3.800   0.7157   0.00937   0.00330  -0.0512  0.4675  1.0000  -1.2619   0.0000   0.0000   0.0000   0.3170
   3.900   0.7265   0.00943   0.00341  -0.0512  0.4617  1.0000  -1.2851   0.0000   0.0000   0.0000   0.3157
   4.000   0.7372   0.00951   0.00345  -0.0511  0.4552  1.0000  -1.3078   0.0000   0.0000   0.0000   0.3145
   4.100   0.7477   0.00961   0.00349  -0.0510  0.4482  1.0000  -1.3304   0.0000   0.0000   0.0000   0.3133
   4.200   0.7581   0.00973   0.00355  -0.0509  0.4406  1.0000  -1.3528   0.0000   0.0000   0.0000   0.3121
   4.300   0.7686   0.00988   0.00365  -0.0508  0.4326  1.0000  -1.3752   0.0000   0.0000   0.0000   0.3110
   4.400   0.7797   0.00991   0.00371  -0.0507  0.4297  1.0000  -1.3986   0.0000   0.0000   0.0000   0.3099
   4.500   0.7907   0.00995   0.00377  -0.0507  0.4259  1.0000  -1.4248   0.0000   0.0000   0.0000   0.3089
   4.600   0.8016   0.01001   0.00383  -0.0507  0.4210  1.0000  -1.4532   0.0000   0.0000   0.0000   0.3079
   4.700   0.8123   0.01008   0.00389  -0.0506  0.4151  1.0000  -1.4816   0.0000   0.0000   0.0000   0.3069
   4.800   0.8229   0.01018   0.00395  -0.0505  0.4084  1.0000  -1.5099   0.0000   0.0000   0.0000   0.3058
   4.900   0.8332   0.01029   0.00401  -0.0504  0.4010  1.0000  -1.5381   0.0000   0.0000   0.0000   0.3048
   5.000   0.8434   0.01044   0.00408  -0.0503  0.3923  1.0000  -1.5661   0.0000   0.0000   0.0000   0.3038
   5.100   0.8536   0.01059   0.00419  -0.0502  0.3838  1.0000  -1.5992   0.0000   0.0000   0.0000   0.3029
   5.200   0.8646   0.01063   0.00426  -0.0501  0.3803  1.0000  -1.6354   0.0000   0.0000   0.0000   0.3020
   5.300   0.8755   0.01069   0.00434  -0.0501  0.3756  1.0000  -1.6714   0.0000   0.0000   0.0000   0.3012
   5.400   0.8862   0.01077   0.00442  -0.0500  0.3701  1.0000  -1.7073   0.0000   0.0000   0.0000   0.3003
   5.500   0.8967   0.01087   0.00450  -0.0499  0.3639  1.0000  -1.7432   0.0000   0.0000   0.0000   0.2994
   5.600   0.9070   0.01099   0.00458  -0.0498  0.3571  1.0000  -1.7789   0.0000   0.0000   0.0000   0.2986
   5.700   0.9170   0.01114   0.00467  -0.0497  0.3496  1.0000  -1.8143   0.0000   0.0000   0.0000   0.2977
   5.800   0.9269   0.01133   0.00479  -0.0495  0.3403  1.0000  -1.8493   0.0000   0.0000   0.0000   0.2968
   5.900   0.9375   0.01142   0.00490  -0.0495  0.3352  1.0000  -1.8861   0.0000   0.0000   0.0000   0.2961
   6.000   0.9483   0.01148   0.00499  -0.0494  0.3305  1.0000  -1.9235   0.0000   0.0000   0.0000   0.2953
   6.100   0.9588   0.01158   0.00508  -0.0494  0.3243  1.0000  -1.9607   0.0000   0.0000   0.0000   0.2945
   6.200   0.9690   0.01170   0.00517  -0.0493  0.3170  1.0000  -1.9975   0.0000   0.0000   0.0000   0.2938
   6.300   0.9789   0.01186   0.00527  -0.0491  0.3091  1.0000  -2.0339   0.0000   0.0000   0.0000   0.2930
   6.400   0.9885   0.01205   0.00540  -0.0490  0.3003  1.0000  -2.0698   0.0000   0.0000   0.0000   0.2922
   6.500   0.9983   0.01225   0.00555  -0.0488  0.2919  1.0000  -2.1059   0.0000   0.0000   0.0000   0.2915
   6.600   1.0091   0.01232   0.00566  -0.0488  0.2885  1.0000  -2.1444   0.0000   0.0000   0.0000   0.2908
   6.700   1.0196   0.01241   0.00578  -0.0487  0.2838  1.0000  -2.1826   0.0000   0.0000   0.0000   0.2901
   6.800   1.0298   0.01254   0.00590  -0.0486  0.2780  1.0000  -2.2204   0.0000   0.0000   0.0000   0.2894
   6.900   1.0397   0.01269   0.00603  -0.0485  0.2715  1.0000  -2.2579   0.0000   0.0000   0.0000   0.2887
   7.000   1.0492   0.01289   0.00617  -0.0483  0.2640  1.0000  -2.2947   0.0000   0.0000   0.0000   0.2880
   7.100   1.0583   0.01314   0.00634  -0.0481  0.2545  1.0000  -2.3331   0.0000   0.0000   0.0000   0.2873
   7.200   1.0683   0.01330   0.00650  -0.0479  0.2479  1.0000  -2.3811   0.0000   0.0000   0.0000   0.2866
   7.300   1.0787   0.01338   0.00660  -0.0479  0.2429  1.0000  -2.4313   0.0000   0.0000   0.0000   0.2860
   7.400   1.0884   0.01357   0.00705  -0.0477  0.2352  1.0000  -2.4913   0.0000   0.0000   0.0000   0.2853
   7.500   1.0978   0.01378   0.00723  -0.0475  0.2281  1.0000  -2.5433   0.0000   0.0000   0.0000   0.2846
   7.600   1.1068   0.01403   0.00742  -0.0473  0.2204  1.0000  -2.5927   0.0000   0.0000   0.0000   0.2840
   7.700   1.1154   0.01433   0.00768  -0.0470  0.2109  1.0000  -2.6399   0.0000   0.0000   0.0000   0.2833
   7.800   1.1255   0.01445   0.00784  -0.0469  0.2070  1.0000  -2.6920   0.0000   0.0000   0.0000   0.2827
   7.900   1.1357   0.01457   0.00799  -0.0468  0.2027  1.0000  -2.7443   0.0000   0.0000   0.0000   0.2821
   8.000   1.1454   0.01473   0.00815  -0.0467  0.1970  1.0000  -2.7987   0.0000   0.0000   0.0000   0.2815
   8.100   1.1545   0.01495   0.00834  -0.0465  0.1905  1.0000  -2.8924   0.0000   0.0000   0.0000   0.2808
   8.200   1.1629   0.01523   0.00856  -0.0462  0.1831  1.0000  -2.9838   0.0000   0.0000   0.0000   0.2802
   8.300   1.1709   0.01559   0.00885  -0.0459  0.1739  1.0000  -3.0720   0.0000   0.0000   0.0000   0.2795
   8.400   1.1806   0.01574   0.00903  -0.0458  0.1700  1.0000  -3.1716   0.0000   0.0000   0.0000   0.2789
   8.500   1.1906   0.01586   0.00920  -0.0456  0.1665  1.0000  -3.2735   0.0000   0.0000   0.0000   0.2783
   8.600   1.2000   0.01604   0.00939  -0.0455  0.1620  1.0000  -3.3738   0.0000   0.0000   0.0000   0.2778
   8.700   1.2090   0.01626   0.00960  -0.0453  0.1568  1.0000  -3.4724   0.0000   0.0000   0.0000   0.2772
   8.800   1.2173   0.01655   0.00984  -0.0450  0.1513  1.0000  -3.5684   0.0000   0.0000   0.0000   0.2765
   8.900   1.2249   0.01690   0.01015  -0.0446  0.1446  1.0000  -3.6606   0.0000   0.0000   0.0000   0.2759
   9.000   1.2321   0.01731   0.01053  -0.0442  0.1376  1.0000  -3.7498   0.0000   0.0000   0.0000   0.2752
   9.100   1.2419   0.01743   0.01070  -0.0440  0.1355  1.0000  -3.8573   0.0000   0.0000   0.0000   0.2746
   9.200   1.2513   0.01759   0.01090  -0.0439  0.1325  1.0000  -3.9634   0.0000   0.0000   0.0000   0.2741
   9.300   1.2603   0.01779   0.01113  -0.0436  0.1287  1.0000  -4.0673   0.0000   0.0000   0.0000   0.2735
   9.400   1.2686   0.01805   0.01137  -0.0434  0.1245  1.0000  -4.1691   0.0000   0.0000   0.0000   0.2729
   9.500   1.2761   0.01837   0.01166  -0.0430  0.1199  1.0000  -4.2670   0.0000   0.0000   0.0000   0.2723
   9.600   1.2826   0.01879   0.01203  -0.0425  0.1143  1.0000  -4.3588   0.0000   0.0000   0.0000   0.2716
   9.700   1.2873   0.01941   0.01261  -0.0418  0.1070  1.0000  -4.4360   0.0000   0.0000   0.0000   0.2708
   9.800   1.2971   0.01949   0.01274  -0.0417  0.1054  1.0000  -4.5517   0.0000   0.0000   0.0000   0.2703
   9.900   1.3064   0.01961   0.01291  -0.0416  0.1028  1.0000  -4.6657   0.0000   0.0000   0.0000   0.2698
  10.000   1.3151   0.01979   0.01310  -0.0413  0.0991  1.0000  -4.7767   0.0000   0.0000   0.0000   0.2693
  10.100   1.3228   0.02005   0.01333  -0.0410  0.0949  1.0000  -4.8831   0.0000   0.0000   0.0000   0.2687
  10.200   1.3294   0.02039   0.01362  -0.0406  0.0903  1.0000  -4.9835   0.0000   0.0000   0.0000   0.2681
  10.300   1.3346   0.02086   0.01404  -0.0401  0.0850  1.0000  -5.0730   0.0000   0.0000   0.0000   0.2674
  10.400   1.3383   0.02144   0.01461  -0.0393  0.0797  1.0000  -5.1510   0.0000   0.0000   0.0000   0.2666
  10.500   1.3477   0.02153   0.01474  -0.0391  0.0784  1.0000  -5.2719   0.0000   0.0000   0.0000   0.2661
  10.600   1.3580   0.02152   0.01484  -0.0392  0.0756  1.0000  -5.3905   0.0000   0.0000   0.0000   0.2658
  10.700   1.3656   0.02175   0.01508  -0.0389  0.0730  1.0000  -5.4969   0.0000   0.0000   0.0000   0.2652
  10.800   1.3723   0.02204   0.01537  -0.0384  0.0704  1.0000  -5.6000   0.0000   0.0000   0.0000   0.2646
  10.900   1.3784   0.02238   0.01569  -0.0380  0.0678  1.0000  -5.6998   0.0000   0.0000   0.0000   0.2640
  11.000   1.3839   0.02276   0.01605  -0.0374  0.0652  1.0000  -5.7958   0.0000   0.0000   0.0000   0.2633
  11.100   1.3883   0.02317   0.01645  -0.0367  0.0624  1.0000  -5.8853   0.0000   0.0000   0.0000   0.2626
  11.200   1.3912   0.02363   0.01692  -0.0358  0.0596  1.0000  -5.9643   0.0000   0.0000   0.0000   0.2617
  11.300   1.3927   0.02417   0.01749  -0.0348  0.0569  1.0000  -6.0323   0.0000   0.0000   0.0000   0.2608
  11.400   1.3987   0.02443   0.01777  -0.0343  0.0559  1.0000  -6.1352   0.0000   0.0000   0.0000   0.2601
  11.500   1.4053   0.02465   0.01804  -0.0338  0.0550  1.0000  -6.2433   0.0000   0.0000   0.0000   0.2595
  11.600   1.4113   0.02492   0.01835  -0.0333  0.0537  1.0000  -6.3473   0.0000   0.0000   0.0000   0.2589
  11.700   1.4166   0.02523   0.01870  -0.0328  0.0523  1.0000  -6.4465   0.0000   0.0000   0.0000   0.2583
  11.800   1.4213   0.02558   0.01908  -0.0323  0.0506  1.0000  -6.5414   0.0000   0.0000   0.0000   0.2576
  11.900   1.4254   0.02599   0.01950  -0.0317  0.0488  1.0000  -6.6321   0.0000   0.0000   0.0000   0.2570
  12.000   1.4287   0.02645   0.01996  -0.0311  0.0467  1.0000  -6.7176   0.0000   0.0000   0.0000   0.2564
  12.100   1.4313   0.02698   0.02047  -0.0305  0.0445  1.0000  -6.7971   0.0000   0.0000   0.0000   0.2557
  12.200   1.4332   0.02758   0.02105  -0.0299  0.0418  1.0000  -6.8708   0.0000   0.0000   0.0000   0.2551
  12.300   1.4339   0.02828   0.02176  -0.0292  0.0387  1.0000  -6.9315   0.0000   0.0000   0.0000   0.2544
  12.400   1.4372   0.02880   0.02230  -0.0287  0.0364  1.0000  -7.0089   0.0000   0.0000   0.0000   0.2539
  12.500   1.4415   0.02924   0.02277  -0.0283  0.0328  1.0000  -7.0892   0.0000   0.0000   0.0000   0.2534
  12.600   1.4389   0.03028   0.02371  -0.0277  0.0266  1.0000  -7.1131   0.0000   0.0000   0.0000   0.2528
  12.700   1.4331   0.03166   0.02504  -0.0269  0.0198  1.0000  -7.0892   0.0000   0.0000   0.0000   0.2521
  12.800   1.4275   0.03308   0.02642  -0.0263  0.0162  1.0000  -7.0651   0.0000   0.0000   0.0000   0.2516
  12.900   1.4205   0.03468   0.02801  -0.0257  0.0138  1.0000  -7.0281   0.0000   0.0000   0.0000   0.2511
  13.000   1.4116   0.03653   0.02995  -0.0252  0.0121  1.0000  -6.9566   0.0000   0.0000   0.0000   0.2506
  13.100   1.4031   0.03838   0.03192  -0.0249  0.0113  1.0000  -6.9022   0.0000   0.0000   0.0000   0.2503
  13.200   1.3954   0.04025   0.03391  -0.0247  0.0109  1.0000  -6.8617   0.0000   0.0000   0.0000   0.2501
  13.300   1.3878   0.04218   0.03596  -0.0248  0.0106  1.0000  -6.8291   0.0000   0.0000   0.0000   0.2500
  13.400   1.3805   0.04414   0.03802  -0.0249  0.0104  1.0000  -6.7993   0.0000   0.0000   0.0000   0.2500
  13.500   1.3766   0.04577   0.03970  -0.0251  0.0103  1.0000  -6.8083   0.0000   0.0000   0.0000   0.2500
  13.600   1.3739   0.04727   0.04127  -0.0253  0.0103  1.0000  -6.8285   0.0000   0.0000   0.0000   0.2500
  13.700   1.3712   0.04878   0.04285  -0.0255  0.0102  1.0000  -6.8485   0.0000   0.0000   0.0000   0.2500
  13.800   1.3680   0.05040   0.04454  -0.0258  0.0102  1.0000  -6.8635   0.0000   0.0000   0.0000   0.2500
  13.900   1.3642   0.05212   0.04633  -0.0262  0.0102  1.0000  -6.8748   0.0000   0.0000   0.0000   0.2502
  14.000   1.3608   0.05379   0.04807  -0.0266  0.0101  1.0000  -6.8873   0.0000   0.0000   0.0000   0.2503
  14.100   1.3573   0.05548   0.04982  -0.0269  0.0101  1.0000  -6.8993   0.0000   0.0000   0.0000   0.2504
  14.200   1.3531   0.05732   0.05173  -0.0274  0.0101  1.0000  -6.9049   0.0000   0.0000   0.0000   0.2506
  14.300   1.3487   0.05919   0.05368  -0.0280  0.0100  1.0000  -6.9090   0.0000   0.0000   0.0000   0.2509
  14.400   1.3444   0.06099   0.05554  -0.0285  0.0100  1.0000  -6.9137   0.0000   0.0000   0.0000   0.2511
  14.500   1.3401   0.06278   0.05740  -0.0289  0.0100  1.0000  -6.9176   0.0000   0.0000   0.0000   0.2514
  14.600   1.3352   0.06474   0.05943  -0.0296  0.0100  1.0000  -6.9169   0.0000   0.0000   0.0000   0.2517
  14.700   1.3303   0.06681   0.06157  -0.0303  0.0100  1.0000  -6.9139   0.0000   0.0000   0.0000   0.2521
  14.800   1.3259   0.06881   0.06363  -0.0310  0.0099  1.0000  -6.9144   0.0000   0.0000   0.0000   0.2525
  14.900   1.3218   0.07079   0.06568  -0.0316  0.0099  1.0000  -6.9156   0.0000   0.0000   0.0000   0.2529
  15.000   1.3177   0.07282   0.06778  -0.0323  0.0099  1.0000  -6.9158   0.0000   0.0000   0.0000   0.2533
  15.100   1.3127   0.07510   0.07013  -0.0333  0.0099  1.0000  -6.9077   0.0000   0.0000   0.0000   0.2539
  15.200   1.3080   0.07734   0.07244  -0.0342  0.0099  1.0000  -6.9012   0.0000   0.0000   0.0000   0.2545
  15.300   1.3037   0.07950   0.07466  -0.0350  0.0099  1.0000  -6.8972   0.0000   0.0000   0.0000   0.2550
  15.400   1.2996   0.08165   0.07687  -0.0359  0.0099  1.0000  -6.8935   0.0000   0.0000   0.0000   0.2556
  15.500   1.2955   0.08381   0.07910  -0.0367  0.0099  1.0000  -6.8887   0.0000   0.0000   0.0000   0.2561
  15.600   1.2906   0.08617   0.08153  -0.0378  0.0099  1.0000  -6.8769   0.0000   0.0000   0.0000   0.2569
  15.700   1.2855   0.08861   0.08404  -0.0389  0.0098  1.0000  -6.8620   0.0000   0.0000   0.0000   0.2577
  15.800   1.2810   0.09092   0.08642  -0.0399  0.0098  1.0000  -6.8508   0.0000   0.0000   0.0000   0.2584
  15.900   1.2767   0.09319   0.08875  -0.0409  0.0098  1.0000  -6.8402   0.0000   0.0000   0.0000   0.2591
  16.000   1.2723   0.09548   0.09111  -0.0420  0.0098  1.0000  -6.8274   0.0000   0.0000   0.0000   0.2598
  16.100   1.2678   0.09783   0.09353  -0.0431  0.0098  1.0000  -6.8126   0.0000   0.0000   0.0000   0.2606
  16.200   1.2621   0.10047   0.09624  -0.0444  0.0098  1.0000  -6.7868   0.0000   0.0000   0.0000   0.2617
  16.300   1.2566   0.10307   0.09891  -0.0458  0.0098  1.0000  -6.7612   0.0000   0.0000   0.0000   0.2627
  16.400   1.2516   0.10555   0.10146  -0.0471  0.0098  1.0000  -6.7385   0.0000   0.0000   0.0000   0.2637
  16.500   1.2467   0.10802   0.10399  -0.0484  0.0099  1.0000  -6.7153   0.0000   0.0000   0.0000   0.2647
  16.600   1.2417   0.11052   0.10656  -0.0497  0.0099  1.0000  -6.6893   0.0000   0.0000   0.0000   0.2658
  16.700   1.2362   0.11316   0.10927  -0.0512  0.0099  1.0000  -6.6570   0.0000   0.0000   0.0000   0.2670
  16.800   1.2296   0.11609   0.11227  -0.0529  0.0099  1.0000  -6.6140   0.0000   0.0000   0.0000   0.2685
  16.900   1.2239   0.11884   0.11509  -0.0545  0.0099  1.0000  -6.5757   0.0000   0.0000   0.0000   0.2698
  17.000   1.2183   0.12150   0.11782  -0.0561  0.0099  1.0000  -6.5375   0.0000   0.0000   0.0000   0.2712
  17.100   1.2125   0.12406   0.12044  -0.0577  0.0099  1.0000  -6.4965   0.0000   0.0000   0.0000   0.2725
  17.200   1.2064   0.12674   0.12319  -0.0594  0.0099  1.0000  -6.4495   0.0000   0.0000   0.0000   0.2741
  17.300   1.1991   0.12985   0.12636  -0.0615  0.0099  1.0000  -6.3875   0.0000   0.0000   0.0000   0.2760
  17.400   1.1925   0.13281   0.12939  -0.0634  0.0099  1.0000  -6.3306   0.0000   0.0000   0.0000   0.2777
  17.500   1.1861   0.13579   0.13244  -0.0653  0.0100  1.0000  -6.2724   0.0000   0.0000   0.0000   0.2795
  17.600   1.1795   0.13895   0.13566  -0.0673  0.0100  1.0000  -6.2089   0.0000   0.0000   0.0000   0.2814
  17.700   1.1715   0.14261   0.13939  -0.0696  0.0100  1.0000  -6.1272   0.0000   0.0000   0.0000   0.2836
  17.800   1.1635   0.14637   0.14321  -0.0720  0.0100  1.0000  -6.0408   0.0000   0.0000   0.0000   0.2860
  17.900   1.1559   0.15009   0.14699  -0.0742  0.0100  1.0000  -5.9554   0.0000   0.0000   0.0000   0.2883
  18.000   1.1480   0.15405   0.15101  -0.0766  0.0101  1.0000  -5.8605   0.0000   0.0000   0.0000   0.2907
  18.100   1.1378   0.15880   0.15583  -0.0794  0.0101  1.0000  -5.7338   0.0000   0.0000   0.0000   0.2938
  18.200   1.1282   0.16353   0.16062  -0.0822  0.0101  1.0000  -5.6056   0.0000   0.0000   0.0000   0.2968
  18.300   1.1181   0.16854   0.16569  -0.0850  0.0102  1.0000  -5.4635   0.0000   0.0000   0.0000   0.3000
  18.400   1.1042   0.17499   0.17220  -0.0885  0.0102  1.0000  -5.2584   0.0000   0.0000   0.0000   0.3043
  18.500   1.0896   0.18195   0.17922  -0.0920  0.0103  1.0000  -5.0236   0.0000   0.0000   0.0000   0.3088
  18.700   1.0604   0.19710   0.19447  -0.0991  0.0105  1.0000  -4.4992   0.0000   0.0000   0.0000   0.3183
  18.800   1.0553   0.20157   0.19895  -0.1010  0.0105  1.0000  -4.3908   0.0000   0.0000   0.0000   0.3207
  18.900   1.0496   0.20640   0.20380  -0.1030  0.0107  1.0000  -4.2647   0.0000   0.0000   0.0000   0.3232
  19.000   1.0452   0.21084   0.20825  -0.1048  0.0108  1.0000  -4.1535   0.0000   0.0000   0.0000   0.3253
  19.100   1.0414   0.21512   0.21253  -0.1064  0.0109  1.0000  -4.0482   0.0000   0.0000   0.0000   0.3272
  19.200   1.0377   0.21950   0.21691  -0.1080  0.0110  1.0000  -3.9357   0.0000   0.0000   0.0000   0.3292
  19.300   1.0343   0.22382   0.22124  -0.1095  0.0112  1.0000  -3.8226   0.0000   0.0000   0.0000   0.3310
  19.400   1.0310   0.22826   0.22567  -0.1110  0.0115  1.0000  -3.6999   0.0000   0.0000   0.0000   0.3328
  19.500   0.9920   0.25434   0.25160  -0.1171  0.0161  1.0000  -2.4297   0.0000   0.0000   0.0000   0.3450
  19.600   0.9903   0.25832   0.25558  -0.1181  0.0171  1.0000  -2.3371   0.0000   0.0000   0.0000   0.3462
  19.700   0.9895   0.26165   0.25891  -0.1190  0.0180  1.0000  -2.2785   0.0000   0.0000   0.0000   0.3471
  19.800   0.9889   0.26467   0.26194  -0.1196  0.0190  1.0000  -2.2377   0.0000   0.0000   0.0000   0.3477
  20.100   0.9938   0.27078   0.26817  -0.1197  0.0224  1.0000  -2.2513   0.0000   0.0000   0.0000   0.3466
  20.200   0.9962   0.27260   0.26999  -0.1204  0.0226  1.0000  -2.2532   0.0000   0.0000   0.0000   0.3469
  20.300   0.9968   0.27511   0.27251  -0.1212  0.0228  1.0000  -2.2338   0.0000   0.0000   0.0000   0.3475
  20.400   0.9969   0.27777   0.27518  -0.1220  0.0228  1.0000  -2.2126   0.0000   0.0000   0.0000   0.3481
  20.500   0.9966   0.28050   0.27791  -0.1226  0.0227  1.0000  -2.1920   0.0000   0.0000   0.0000   0.3487
  20.600   0.9957   0.28342   0.28083  -0.1233  0.0225  1.0000  -2.1675   0.0000   0.0000   0.0000   0.3494
  21.000   0.9778   0.30064   0.29804  -0.1264  0.0217  1.0000  -1.8708   0.0000   0.0000   0.0000   0.3548
  21.100   0.9767   0.30303   0.30043  -0.1269  0.0216  1.0000  -1.8527   0.0000   0.0000   0.0000   0.3554
  21.200   0.9753   0.30535   0.30276  -0.1274  0.0216  1.0000  -1.8342   0.0000   0.0000   0.0000   0.3559
  21.300   0.9736   0.30758   0.30501  -0.1278  0.0216  1.0000  -1.8154   0.0000   0.0000   0.0000   0.3565
  21.400   0.9715   0.30972   0.30715  -0.1282  0.0216  1.0000  -1.7959   0.0000   0.0000   0.0000   0.3571
  21.500   0.9688   0.31173   0.30917  -0.1286  0.0216  1.0000  -1.7753   0.0000   0.0000   0.0000   0.3578
  21.600   0.9654   0.31354   0.31099  -0.1288  0.0216  1.0000  -1.7532   0.0000   0.0000   0.0000   0.3584
  21.700   0.9217   0.30603   0.30358  -0.1245  0.0216  1.0000  -1.6319   0.0000   0.0000   0.0000   0.3607
  21.800   0.9120   0.30532   0.30289  -0.1239  0.0216  1.0000  -1.5953   0.0000   0.0000   0.0000   0.3616
  21.900   0.9050   0.30516   0.30275  -0.1237  0.0216  1.0000  -1.5659   0.0000   0.0000   0.0000   0.3624
  22.000   0.8994   0.30525   0.30286  -0.1236  0.0216  1.0000  -1.5401   0.0000   0.0000   0.0000   0.3631
  22.100   0.8947   0.30547   0.30310  -0.1236  0.0216  1.0000  -1.5167   0.0000   0.0000   0.0000   0.3638
  22.200   0.8905   0.30578   0.30342  -0.1237  0.0216  1.0000  -1.4950   0.0000   0.0000   0.0000   0.3645
  22.300   0.8867   0.30616   0.30382  -0.1238  0.0216  1.0000  -1.4746   0.0000   0.0000   0.0000   0.3651
  22.400   0.8833   0.30658   0.30425  -0.1239  0.0216  1.0000  -1.4553   0.0000   0.0000   0.0000   0.3657
  22.500   0.8802   0.30704   0.30472  -0.1240  0.0216  1.0000  -1.4371   0.0000   0.0000   0.0000   0.3664
  22.600   0.8774   0.30753   0.30522  -0.1242  0.0215  1.0000  -1.4196   0.0000   0.0000   0.0000   0.3670
  22.700   0.8748   0.30803   0.30574  -0.1244  0.0215  1.0000  -1.4028   0.0000   0.0000   0.0000   0.3676
  22.800   0.8723   0.30856   0.30627  -0.1247  0.0215  1.0000  -1.3867   0.0000   0.0000   0.0000   0.3681
  22.900   0.8700   0.30910   0.30682  -0.1249  0.0215  1.0000  -1.3712   0.0000   0.0000   0.0000   0.3687
  23.000   0.8679   0.30965   0.30739  -0.1252  0.0215  1.0000  -1.3562   0.0000   0.0000   0.0000   0.3693
  23.100   0.8659   0.31022   0.30797  -0.1254  0.0215  1.0000  -1.3418   0.0000   0.0000   0.0000   0.3698
  23.200   0.8640   0.31080   0.30856  -0.1257  0.0215  1.0000  -1.3279   0.0000   0.0000   0.0000   0.3704
  23.300   0.8623   0.31138   0.30915  -0.1260  0.0215  1.0000  -1.3145   0.0000   0.0000   0.0000   0.3709
  23.400   0.8606   0.31197   0.30975  -0.1263  0.0214  1.0000  -1.3015   0.0000   0.0000   0.0000   0.3715
  23.500   0.8591   0.31257   0.31036  -0.1266  0.0214  1.0000  -1.2889   0.0000   0.0000   0.0000   0.3720
  23.600   0.8576   0.31318   0.31097  -0.1270  0.0214  1.0000  -1.2767   0.0000   0.0000   0.0000   0.3725
  23.700   0.8562   0.31377   0.31158  -0.1273  0.0214  1.0000  -1.2645   0.0000   0.0000   0.0000   0.3731
  23.800   0.8549   0.31437   0.31219  -0.1277  0.0214  1.0000  -1.2528   0.0000   0.0000   0.0000   0.3736
  23.900   0.8537   0.31498   0.31280  -0.1280  0.0213  1.0000  -1.2413   0.0000   0.0000   0.0000   0.3741
  24.000   0.8525   0.31558   0.31342  -0.1284  0.0213  1.0000  -1.2302   0.0000   0.0000   0.0000   0.3746
  24.100   0.8514   0.31619   0.31403  -0.1288  0.0213  1.0000  -1.2194   0.0000   0.0000   0.0000   0.3751
  24.200   0.8504   0.31680   0.31465  -0.1291  0.0212  1.0000  -1.2090   0.0000   0.0000   0.0000   0.3757
  24.300   0.8494   0.31740   0.31526  -0.1295  0.0212  1.0000  -1.1985   0.0000   0.0000   0.0000   0.3762
  24.400   0.8485   0.31800   0.31587  -0.1299  0.0212  1.0000  -1.1879   0.0000   0.0000   0.0000   0.3767
  24.500   0.8476   0.31861   0.31649  -0.1304  0.0211  1.0000  -1.1775   0.0000   0.0000   0.0000   0.3772
  24.600   0.8465   0.31921   0.31710  -0.1309  0.0210  1.0000  -1.1644   0.0000   0.0000   0.0000   0.3779
  24.700   0.8456   0.31982   0.31772  -0.1314  0.0210  1.0000  -1.1514   0.0000   0.0000   0.0000   0.3785
  24.800   0.8447   0.32046   0.31836  -0.1319  0.0209  1.0000  -1.1383   0.0000   0.0000   0.0000   0.3792
  24.900   0.8440   0.32112   0.31903  -0.1324  0.0208  1.0000  -1.1249   0.0000   0.0000   0.0000   0.3798
  25.000   0.8435   0.32182   0.31974  -0.1330  0.0206  1.0000  -1.1111   0.0000   0.0000   0.0000   0.3805
  25.100   0.8432   0.32260   0.32052  -0.1337  0.0204  1.0000  -1.0964   0.0000   0.0000   0.0000   0.3812
  25.200   0.8430   0.32345   0.32138  -0.1343  0.0201  1.0000  -1.0807   0.0000   0.0000   0.0000   0.3819
  25.300   0.8430   0.32436   0.32229  -0.1349  0.0197  1.0000  -1.0654   0.0000   0.0000   0.0000   0.3825
  25.400   0.8428   0.32523   0.32318  -0.1355  0.0192  1.0000  -1.0520   0.0000   0.0000   0.0000   0.3830
  25.500   0.8425   0.32606   0.32401  -0.1359  0.0188  1.0000  -1.0410   0.0000   0.0000   0.0000   0.3835
  25.600   0.8422   0.32683   0.32480  -0.1364  0.0184  1.0000  -1.0318   0.0000   0.0000   0.0000   0.3839
  25.700   0.8418   0.32758   0.32555  -0.1368  0.0181  1.0000  -1.0239   0.0000   0.0000   0.0000   0.3844
  25.800   0.8415   0.32831   0.32629  -0.1372  0.0177  1.0000  -1.0170   0.0000   0.0000   0.0000   0.3848
  25.900   0.8411   0.32902   0.32701  -0.1376  0.0174  1.0000  -1.0109   0.0000   0.0000   0.0000   0.3851
  26.000   0.8407   0.32973   0.32772  -0.1380  0.0171  1.0000  -1.0054   0.0000   0.0000   0.0000   0.3855
  26.100   0.8404   0.33042   0.32842  -0.1384  0.0168  1.0000  -1.0004   0.0000   0.0000   0.0000   0.3859
  26.200   0.8400   0.33111   0.32912  -0.1388  0.0165  1.0000  -0.9960   0.0000   0.0000   0.0000   0.3863
  26.300   0.8397   0.33179   0.32981  -0.1391  0.0163  1.0000  -0.9919   0.0000   0.0000   0.0000   0.3866
  26.400   0.8394   0.33247   0.33050  -0.1395  0.0160  1.0000  -0.9882   0.0000   0.0000   0.0000   0.3870
  26.500   0.8391   0.33315   0.33118  -0.1399  0.0158  1.0000  -0.9849   0.0000   0.0000   0.0000   0.3873
  26.600   0.8388   0.33382   0.33186  -0.1403  0.0155  1.0000  -0.9819   0.0000   0.0000   0.0000   0.3876
  26.700   0.8386   0.33449   0.33254  -0.1407  0.0153  1.0000  -0.9793   0.0000   0.0000   0.0000   0.3880
  26.800   0.8383   0.33515   0.33321  -0.1411  0.0151  1.0000  -0.9770   0.0000   0.0000   0.0000   0.3883
  26.900   0.8381   0.33581   0.33388  -0.1415  0.0149  1.0000  -0.9755   0.0000   0.0000   0.0000   0.3886
  27.000   0.8379   0.33645   0.33452  -0.1418  0.0146  1.0000  -0.9753   0.0000   0.0000   0.0000   0.3889
  27.100   0.8378   0.33707   0.33515  -0.1422  0.0143  1.0000  -0.9769   0.0000   0.0000   0.0000   0.3892
  27.200   0.8377   0.33766   0.33575  -0.1426  0.0140  1.0000  -0.9808   0.0000   0.0000   0.0000   0.3895
  27.300   0.8377   0.33821   0.33631  -0.1430  0.0136  1.0000  -0.9877   0.0000   0.0000   0.0000   0.3897
  27.400   0.8377   0.33871   0.33681  -0.1434  0.0132  1.0000  -0.9983   0.0000   0.0000   0.0000   0.3899
  27.500   0.8378   0.33913   0.33725  -0.1437  0.0128  1.0000  -1.0134   0.0000   0.0000   0.0000   0.3901
  27.600   0.8380   0.33948   0.33761  -0.1440  0.0125  1.0000  -1.0333   0.0000   0.0000   0.0000   0.3902
  27.700   0.8383   0.33975   0.33788  -0.1443  0.0121  1.0000  -1.0583   0.0000   0.0000   0.0000   0.3902
  27.800   0.8386   0.33992   0.33807  -0.1446  0.0118  1.0000  -1.0884   0.0000   0.0000   0.0000   0.3901
  27.900   0.8389   0.34002   0.33818  -0.1447  0.0115  1.0000  -1.1232   0.0000   0.0000   0.0000   0.3900
  28.000   0.8393   0.34007   0.33824  -0.1448  0.0112  1.0000  -1.1622   0.0000   0.0000   0.0000   0.3896
  28.100   0.8396   0.34020   0.33838  -0.1446  0.0109  1.0000  -1.2042   0.0000   0.0000   0.0000   0.3890
  28.200   0.8331   0.34297   0.34113  -0.1441  0.0104  1.0000  -1.0864   0.0000   0.0000   0.0000   0.3901
  28.300   0.8328   0.34370   0.34186  -0.1446  0.0103  1.0000  -1.0790   0.0000   0.0000   0.0000   0.3905
  28.400   0.8325   0.34442   0.34259  -0.1450  0.0103  1.0000  -1.0793   0.0000   0.0000   0.0000   0.3909
  28.500   0.8322   0.34513   0.34335  -0.1455  0.0103  1.0000  -1.0782   0.0000   0.0000   0.0000   0.3913
  28.600   0.8319   0.34585   0.34409  -0.1459  0.0103  1.0000  -1.0781   0.0000   0.0000   0.0000   0.3917
  28.700   0.8315   0.34658   0.34482  -0.1464  0.0103  1.0000  -1.0784   0.0000   0.0000   0.0000   0.3921
  28.800   0.8312   0.34731   0.34555  -0.1468  0.0103  1.0000  -1.0777   0.0000   0.0000   0.0000   0.3926
  28.900   0.8309   0.34805   0.34630  -0.1473  0.0103  1.0000  -1.0752   0.0000   0.0000   0.0000   0.3930
  29.000   0.8306   0.34880   0.34705  -0.1478  0.0102  1.0000  -1.0702   0.0000   0.0000   0.0000   0.3934
  29.100   0.8303   0.34956   0.34782  -0.1483  0.0102  1.0000  -1.0612   0.0000   0.0000   0.0000   0.3939
  29.200   0.8300   0.35035   0.34862  -0.1487  0.0102  1.0000  -1.0488   0.0000   0.0000   0.0000   0.3944
  29.300   0.8297   0.35117   0.34944  -0.1492  0.0101  1.0000  -1.0332   0.0000   0.0000   0.0000   0.3948
  29.400   0.8295   0.35201   0.35028  -0.1497  0.0101  1.0000  -1.0160   0.0000   0.0000   0.0000   0.3953
  29.500   0.8292   0.35287   0.35115  -0.1502  0.0100  1.0000  -0.9976   0.0000   0.0000   0.0000   0.3957
  29.600   0.8290   0.35376   0.35204  -0.1507  0.0100  1.0000  -0.9787   0.0000   0.0000   0.0000   0.3962
  29.700   0.8288   0.35466   0.35295  -0.1512  0.0099  1.0000  -0.9619   0.0000   0.0000   0.0000   0.3967
  29.800   0.8288   0.35559   0.35387  -0.1518  0.0098  1.0000  -0.9520   0.0000   0.0000   0.0000   0.3972
  29.900   0.8290   0.35656   0.35485  -0.1524  0.0097  1.0000  -0.9416   0.0000   0.0000   0.0000   0.3976
  30.000   0.8294   0.35764   0.35593  -0.1530  0.0095  1.0000  -0.9291   0.0000   0.0000   0.0000   0.3981


