xflr5 v6.61

 Calculated polar for: S3010-103-84

 1 1 Reynolds number fixed          Mach number fixed         

 xtrf =   1.000 (top)        1.000 (bottom)
 Mach =   0.000     Re =     0.500 e 6     Ncrit =   9.000

  alpha     CL        CD       CDp       Cm    Top Xtr Bot Xtr   Cpmin    Chinge    XCp    
 ------- -------- --------- --------- -------- ------- ------- -------- --------- ---------
 -10.000  -0.4111   0.11405   0.11166  -0.0062  1.0000  0.0221  -1.5890   0.0000   0.0000   0.0000   0.2277
  -9.900  -0.4088   0.11260   0.11022  -0.0070  1.0000  0.0221  -1.5961   0.0000   0.0000   0.0000   0.2259
  -9.800  -0.4066   0.11115   0.10877  -0.0077  1.0000  0.0222  -1.6037   0.0000   0.0000   0.0000   0.2240
  -9.700  -0.4043   0.10969   0.10732  -0.0084  1.0000  0.0222  -1.6115   0.0000   0.0000   0.0000   0.2222
  -9.600  -0.4021   0.10822   0.10586  -0.0092  1.0000  0.0222  -1.6197   0.0000   0.0000   0.0000   0.2203
  -9.500  -0.4000   0.10675   0.10439  -0.0099  1.0000  0.0222  -1.6283   0.0000   0.0000   0.0000   0.2183
  -9.400  -0.3979   0.10527   0.10292  -0.0107  1.0000  0.0222  -1.6373   0.0000   0.0000   0.0000   0.2163
  -9.300  -0.3958   0.10379   0.10144  -0.0114  1.0000  0.0222  -1.6467   0.0000   0.0000   0.0000   0.2143
  -9.200  -0.3938   0.10230   0.09996  -0.0122  1.0000  0.0222  -1.6565   0.0000   0.0000   0.0000   0.2123
  -9.100  -0.3919   0.10081   0.09848  -0.0130  1.0000  0.0222  -1.6667   0.0000   0.0000   0.0000   0.2102
  -9.000  -0.3901   0.09932   0.09700  -0.0138  1.0000  0.0223  -1.6775   0.0000   0.0000   0.0000   0.2080
  -8.900  -0.3883   0.09782   0.09551  -0.0146  1.0000  0.0223  -1.6888   0.0000   0.0000   0.0000   0.2059
  -8.800  -0.3866   0.09633   0.09402  -0.0154  1.0000  0.0223  -1.7006   0.0000   0.0000   0.0000   0.2037
  -8.700  -0.3850   0.09482   0.09252  -0.0162  1.0000  0.0223  -1.7129   0.0000   0.0000   0.0000   0.2015
  -8.600  -0.3833   0.09328   0.09100  -0.0171  1.0000  0.0223  -1.7258   0.0000   0.0000   0.0000   0.1991
  -8.500  -0.3816   0.09172   0.08945  -0.0180  1.0000  0.0223  -1.7394   0.0000   0.0000   0.0000   0.1966
  -8.400  -0.3800   0.09015   0.08789  -0.0189  1.0000  0.0223  -1.7536   0.0000   0.0000   0.0000   0.1940
  -8.300  -0.3785   0.08857   0.08631  -0.0199  1.0000  0.0223  -1.7686   0.0000   0.0000   0.0000   0.1913
  -8.200  -0.3771   0.08698   0.08473  -0.0208  1.0000  0.0223  -1.7845   0.0000   0.0000   0.0000   0.1885
  -8.100  -0.3758   0.08537   0.08313  -0.0219  1.0000  0.0223  -1.8014   0.0000   0.0000   0.0000   0.1857
  -8.000  -0.3747   0.08374   0.08151  -0.0229  1.0000  0.0223  -1.8194   0.0000   0.0000   0.0000   0.1828
  -7.900  -0.3736   0.08208   0.07987  -0.0240  1.0000  0.0224  -1.8386   0.0000   0.0000   0.0000   0.1797
  -7.800  -0.3960   0.07500   0.07285  -0.0286  1.0000  0.0230  -2.1483   0.0000   0.0000   0.0000   0.1720
  -7.700  -0.4061   0.07122   0.06910  -0.0314  1.0000  0.0233  -2.2787   0.0000   0.0000   0.0000   0.1669
  -7.600  -0.4105   0.06810   0.06600  -0.0348  1.0000  0.0236  -2.3601   0.0000   0.0000   0.0000   0.1596
  -7.500  -0.4117   0.06450   0.06239  -0.0395  1.0000  0.0238  -2.4422   0.0000   0.0000   0.0000   0.1487
  -7.400  -0.4123   0.06123   0.05909  -0.0430  1.0000  0.0240  -2.5104   0.0000   0.0000   0.0000   0.1404
  -7.300  -0.4123   0.05873   0.05657  -0.0451  1.0000  0.0243  -2.5485   0.0000   0.0000   0.0000   0.1352
  -7.200  -0.4121   0.05676   0.05458  -0.0466  1.0000  0.0246  -2.5667   0.0000   0.0000   0.0000   0.1317
  -7.100  -0.4031   0.05446   0.05224  -0.0498  0.9900  0.0250  -2.5509   0.0000   0.0000   0.0000   0.1212
  -7.000  -0.3936   0.05249   0.05022  -0.0526  0.9830  0.0255  -2.5236   0.0000   0.0000   0.0000   0.1110
  -6.900  -0.3832   0.05124   0.04894  -0.0544  0.9769  0.0260  -2.4648   0.0000   0.0000   0.0000   0.1027
  -6.800  -0.3723   0.05004   0.04772  -0.0563  0.9716  0.0265  -2.4038   0.0000   0.0000   0.0000   0.0936
  -6.700  -0.3639   0.04881   0.04646  -0.0576  0.9638  0.0270  -2.3593   0.0000   0.0000   0.0000   0.0865
  -6.600  -0.3556   0.04753   0.04512  -0.0588  0.9562  0.0275  -2.3211   0.0000   0.0000   0.0000   0.0793
  -6.500  -0.3482   0.04624   0.04377  -0.0599  0.9491  0.0281  -2.2897   0.0000   0.0000   0.0000   0.0728
  -6.400  -0.3430   0.04503   0.04251  -0.0603  0.9411  0.0287  -2.2671   0.0000   0.0000   0.0000   0.0690
  -6.300  -0.3376   0.04381   0.04123  -0.0606  0.9335  0.0293  -2.2462   0.0000   0.0000   0.0000   0.0652
  -6.200  -0.3322   0.04260   0.03994  -0.0609  0.9267  0.0300  -2.2273   0.0000   0.0000   0.0000   0.0615
  -6.100  -0.3264   0.04138   0.03864  -0.0611  0.9207  0.0308  -2.2095   0.0000   0.0000   0.0000   0.0576
  -6.000  -0.3200   0.04014   0.03732  -0.0614  0.9149  0.0317  -2.1924   0.0000   0.0000   0.0000   0.0529
  -5.900  -0.3134   0.03893   0.03604  -0.0616  0.9088  0.0328  -2.1761   0.0000   0.0000   0.0000   0.0483
  -5.800  -0.3065   0.03782   0.03484  -0.0616  0.9028  0.0340  -2.1593   0.0000   0.0000   0.0000   0.0438
  -5.500  -0.2813   0.03542   0.03216  -0.0612  0.8871  0.0376  -2.0866   0.0000   0.0000   0.0000   0.0271
  -5.400  -0.2702   0.03546   0.03215  -0.0608  0.8824  0.0388  -2.0322   0.0000   0.0000   0.0000   0.0192
  -5.300  -0.2579   0.03630   0.03294  -0.0603  0.8772  0.0399  -1.9540   0.0000   0.0000   0.0000   0.0105
  -5.200  -0.2482   0.03617   0.03273  -0.0600  0.8720  0.0402  -1.9094   0.0000   0.0000   0.0000   0.0024
  -5.100  -0.2397   0.03547   0.03192  -0.0599  0.8670  0.0404  -1.8828   0.0000   0.0000   0.0000  -0.0057
  -5.000  -0.2314   0.03459   0.03092  -0.0598  0.8622  0.0404  -1.8611   0.0000   0.0000   0.0000  -0.0141
  -4.900  -0.2231   0.03364   0.02985  -0.0597  0.8572  0.0405  -1.8410   0.0000   0.0000   0.0000  -0.0234
  -4.800  -0.2275   0.02548   0.02118  -0.0614  0.8533  0.0441  -2.0441   0.0000   0.0000   0.0000  -0.0259
  -4.700  -0.2183   0.02449   0.02015  -0.0614  0.8502  0.0452  -2.0001   0.0000   0.0000   0.0000  -0.0377
  -4.600  -0.2086   0.02375   0.01937  -0.0614  0.8465  0.0463  -1.9515   0.0000   0.0000   0.0000  -0.0509
  -4.500  -0.1987   0.02310   0.01870  -0.0614  0.8424  0.0473  -1.9018   0.0000   0.0000   0.0000  -0.0653
  -4.400  -0.1888   0.02251   0.01806  -0.0612  0.8382  0.0483  -1.8524   0.0000   0.0000   0.0000  -0.0811
  -4.300  -0.1788   0.02193   0.01744  -0.0611  0.8338  0.0494  -1.8053   0.0000   0.0000   0.0000  -0.0986
  -4.200  -0.1688   0.02137   0.01681  -0.0609  0.8293  0.0506  -1.7605   0.0000   0.0000   0.0000  -0.1180
  -4.100  -0.1587   0.02082   0.01619  -0.0607  0.8246  0.0519  -1.7177   0.0000   0.0000   0.0000  -0.1398
  -4.000  -0.1485   0.02029   0.01557  -0.0605  0.8193  0.0532  -1.6766   0.0000   0.0000   0.0000  -0.1648
  -3.900  -0.1379   0.01977   0.01497  -0.0603  0.8145  0.0547  -1.6364   0.0000   0.0000   0.0000  -0.1952
  -3.800  -0.1234   0.01434   0.00858  -0.0582  0.8127  0.0262  -2.0646   0.0000   0.0000   0.0000  -0.2314
  -3.700  -0.1113   0.01444   0.00864  -0.0580  0.8092  0.0240  -2.0057   0.0000   0.0000   0.0000  -0.2809
  -3.600  -0.0996   0.01472   0.00894  -0.0578  0.8049  0.0231  -1.9214   0.0000   0.0000   0.0000  -0.3417
  -3.500  -0.0894   0.01321   0.00729  -0.0574  0.8007  0.0208  -1.9718   0.0000   0.0000   0.0000  -0.4038
  -3.400  -0.0789   0.01244   0.00641  -0.0570  0.7963  0.0201  -1.9619   0.0000   0.0000   0.0000  -0.4860
  -3.300  -0.0683   0.01187   0.00575  -0.0567  0.7918  0.0195  -1.9379   0.0000   0.0000   0.0000  -0.5947
  -3.200  -0.0577   0.01142   0.00521  -0.0564  0.7874  0.0190  -1.9053   0.0000   0.0000   0.0000  -0.7442
  -3.100  -0.0470   0.01107   0.00476  -0.0561  0.7827  0.0186  -1.8643   0.0000   0.0000   0.0000  -0.9628
  -3.000  -0.0362   0.01085   0.00437  -0.0559  0.7776  0.0182  -1.8183   0.0000   0.0000   0.0000  -1.3170
  -2.900  -0.0253   0.01057   0.00400  -0.0557  0.7723  0.0178  -1.7768   0.0000   0.0000   0.0000  -1.9820
  -2.800  -0.0141   0.01029   0.00367  -0.0556  0.7699  0.0174  -1.7310   0.0000   0.0000   0.0000  -3.7583
  -2.700  -0.0028   0.01006   0.00339  -0.0555  0.7668  0.0172  -1.6817   0.0000   0.0000   0.0000  -20.1862
  -2.600   0.0086   0.00987   0.00314  -0.0554  0.7633  0.0169  -1.6295   0.0000   0.0000   0.0000   6.7841
  -2.500   0.0199   0.00972   0.00293  -0.0552  0.7592  0.0168  -1.5746   0.0000   0.0000   0.0000   3.0587
  -2.400   0.0312   0.00959   0.00275  -0.0551  0.7547  0.0167  -1.5175   0.0000   0.0000   0.0000   2.0372
  -2.300   0.0424   0.00949   0.00259  -0.0550  0.7497  0.0166  -1.4580   0.0000   0.0000   0.0000   1.5599
  -2.200   0.0536   0.00941   0.00244  -0.0548  0.7445  0.0166  -1.3960   0.0000   0.0000   0.0000   1.2834
  -2.100   0.0647   0.00936   0.00232  -0.0546  0.7388  0.0168  -1.3319   0.0000   0.0000   0.0000   1.1030
  -2.000   0.0757   0.00932   0.00220  -0.0545  0.7323  0.0170  -1.2660   0.0000   0.0000   0.0000   0.9757
  -1.900   0.0870   0.00929   0.00211  -0.0544  0.7266  0.0174  -1.2027   0.0000   0.0000   0.0000   0.8801
  -1.800   0.0985   0.00922   0.00202  -0.0544  0.7237  0.0180  -1.1410   0.0000   0.0000   0.0000   0.8057
  -1.700   0.1100   0.00916   0.00195  -0.0543  0.7203  0.0189  -1.0801   0.0000   0.0000   0.0000   0.7470
  -1.600   0.1214   0.00911   0.00189  -0.0543  0.7164  0.0204  -1.0195   0.0000   0.0000   0.0000   0.6995
  -1.500   0.1327   0.00906   0.00184  -0.0542  0.7121  0.0223  -0.9573   0.0000   0.0000   0.0000   0.6604
  -1.400   0.1434   0.00869   0.00174  -0.0542  0.7073  0.0848  -0.8969   0.0000   0.0000   0.0000   0.6299
  -1.300   0.1542   0.00851   0.00169  -0.0542  0.7021  0.1222  -0.8321   0.0000   0.0000   0.0000   0.6028
  -1.200   0.1650   0.00837   0.00166  -0.0542  0.6964  0.1574  -0.7665   0.0000   0.0000   0.0000   0.5793
  -1.100   0.1757   0.00823   0.00163  -0.0542  0.6899  0.1930  -0.7038   0.0000   0.0000   0.0000   0.5588
  -1.000   0.1864   0.00812   0.00161  -0.0541  0.6823  0.2302  -0.6594   0.0000   0.0000   0.0000   0.5407
  -0.900   0.1975   0.00798   0.00161  -0.0542  0.6783  0.2671  -0.6158   0.0000   0.0000   0.0000   0.5244
  -0.800   0.2086   0.00785   0.00160  -0.0542  0.6749  0.3010  -0.5731   0.0000   0.0000   0.0000   0.5096
  -0.700   0.2197   0.00772   0.00159  -0.0542  0.6710  0.3362  -0.5645   0.0000   0.0000   0.0000   0.4965
  -0.600   0.2307   0.00761   0.00159  -0.0542  0.6666  0.3671  -0.5752   0.0000   0.0000   0.0000   0.4845
  -0.500   0.2418   0.00754   0.00158  -0.0542  0.6618  0.3951  -0.5860   0.0000   0.0000   0.0000   0.4735
  -0.400   0.2526   0.00742   0.00158  -0.0542  0.6567  0.4331  -0.5967   0.0000   0.0000   0.0000   0.4635
  -0.300   0.2634   0.00733   0.00158  -0.0541  0.6513  0.4699  -0.6073   0.0000   0.0000   0.0000   0.4544
  -0.200   0.2741   0.00725   0.00159  -0.0540  0.6454  0.5078  -0.6180   0.0000   0.0000   0.0000   0.4459
  -0.100   0.2846   0.00715   0.00160  -0.0539  0.6385  0.5517  -0.6285   0.0000   0.0000   0.0000   0.4380
   0.000   0.2944   0.00699   0.00165  -0.0536  0.6313  0.6209  -0.6387   0.0000   0.0000   0.0000   0.4307
   0.100   0.3034   0.00672   0.00171  -0.0531  0.6287  0.7125  -0.6496   0.0000   0.0000   0.0000   0.4235
   0.200   0.3107   0.00647   0.00178  -0.0520  0.6252  0.8034  -0.6599   0.0000   0.0000   0.0000   0.4158
   0.300   0.3160   0.00628   0.00183  -0.0503  0.6210  0.8813  -0.6690   0.0000   0.0000   0.0000   0.4074
   0.400   0.3268   0.00616   0.00183  -0.0497  0.6158  0.9526  -0.6818   0.0000   0.0000   0.0000   0.4002
   0.500   0.3442   0.00616   0.00182  -0.0509  0.6094  0.9740  -0.6988   0.0000   0.0000   0.0000   0.3959
   0.600   0.3618   0.00617   0.00179  -0.0522  0.6029  0.9898  -0.7158   0.0000   0.0000   0.0000   0.3923
   0.700   0.3767   0.00621   0.00177  -0.0530  0.5961  1.0000  -0.7311   0.0000   0.0000   0.0000   0.3886
   0.800   0.3874   0.00628   0.00177  -0.0529  0.5884  1.0000  -0.7436   0.0000   0.0000   0.0000   0.3844
   0.900   0.3982   0.00633   0.00178  -0.0528  0.5814  1.0000  -0.7562   0.0000   0.0000   0.0000   0.3804
   1.000   0.4094   0.00635   0.00178  -0.0528  0.5783  1.0000  -0.7692   0.0000   0.0000   0.0000   0.3766
   1.100   0.4205   0.00637   0.00178  -0.0527  0.5741  1.0000  -0.7821   0.0000   0.0000   0.0000   0.3730
   1.200   0.4315   0.00639   0.00178  -0.0527  0.5690  1.0000  -0.7951   0.0000   0.0000   0.0000   0.3696
   1.300   0.4425   0.00643   0.00178  -0.0526  0.5632  1.0000  -0.8085   0.0000   0.0000   0.0000   0.3664
   1.400   0.4535   0.00648   0.00179  -0.0526  0.5573  1.0000  -0.8235   0.0000   0.0000   0.0000   0.3633
   1.500   0.4644   0.00653   0.00179  -0.0525  0.5513  1.0000  -0.8385   0.0000   0.0000   0.0000   0.3603
   1.600   0.4752   0.00660   0.00180  -0.0524  0.5446  1.0000  -0.8535   0.0000   0.0000   0.0000   0.3575
   1.700   0.4861   0.00667   0.00182  -0.0524  0.5367  1.0000  -0.8685   0.0000   0.0000   0.0000   0.3548
   1.800   0.4971   0.00673   0.00185  -0.0523  0.5312  1.0000  -0.8837   0.0000   0.0000   0.0000   0.3523
   1.900   0.5084   0.00675   0.00187  -0.0523  0.5286  1.0000  -0.8992   0.0000   0.0000   0.0000   0.3499
   2.000   0.5196   0.00678   0.00189  -0.0523  0.5251  1.0000  -0.9147   0.0000   0.0000   0.0000   0.3476
   2.100   0.5308   0.00681   0.00190  -0.0523  0.5207  1.0000  -0.9303   0.0000   0.0000   0.0000   0.3453
   2.200   0.5419   0.00685   0.00192  -0.0523  0.5153  1.0000  -0.9467   0.0000   0.0000   0.0000   0.3432
   2.300   0.5529   0.00691   0.00194  -0.0522  0.5091  1.0000  -0.9648   0.0000   0.0000   0.0000   0.3411
   2.400   0.5637   0.00698   0.00196  -0.0522  0.5022  1.0000  -0.9829   0.0000   0.0000   0.0000   0.3391
   2.500   0.5745   0.00706   0.00198  -0.0521  0.4943  1.0000  -1.0010   0.0000   0.0000   0.0000   0.3371
   2.600   0.5853   0.00715   0.00202  -0.0520  0.4853  1.0000  -1.0191   0.0000   0.0000   0.0000   0.3353
   2.700   0.5964   0.00720   0.00206  -0.0520  0.4808  1.0000  -1.0376   0.0000   0.0000   0.0000   0.3335
   2.800   0.6077   0.00723   0.00209  -0.0520  0.4781  1.0000  -1.0563   0.0000   0.0000   0.0000   0.3318
   2.900   0.6189   0.00727   0.00212  -0.0520  0.4746  1.0000  -1.0751   0.0000   0.0000   0.0000   0.3302
   3.000   0.6301   0.00731   0.00215  -0.0520  0.4702  1.0000  -1.0939   0.0000   0.0000   0.0000   0.3286
   3.100   0.6411   0.00736   0.00218  -0.0520  0.4648  1.0000  -1.1127   0.0000   0.0000   0.0000   0.3270
   3.200   0.6520   0.00743   0.00221  -0.0519  0.4585  1.0000  -1.1331   0.0000   0.0000   0.0000   0.3255
   3.300   0.6628   0.00751   0.00224  -0.0518  0.4513  1.0000  -1.1552   0.0000   0.0000   0.0000   0.3240
   3.400   0.6735   0.00761   0.00229  -0.0518  0.4428  1.0000  -1.1773   0.0000   0.0000   0.0000   0.3226
   3.500   0.6842   0.00772   0.00235  -0.0517  0.4335  1.0000  -1.1993   0.0000   0.0000   0.0000   0.3212
   3.600   0.6954   0.00776   0.00239  -0.0517  0.4306  1.0000  -1.2223   0.0000   0.0000   0.0000   0.3199
   3.700   0.7066   0.00779   0.00243  -0.0517  0.4277  1.0000  -1.2453   0.0000   0.0000   0.0000   0.3186
   3.800   0.7178   0.00784   0.00253  -0.0517  0.4239  1.0000  -1.2686   0.0000   0.0000   0.0000   0.3174
   3.900   0.7288   0.00789   0.00256  -0.0517  0.4196  1.0000  -1.2918   0.0000   0.0000   0.0000   0.3162
   4.000   0.7398   0.00795   0.00260  -0.0517  0.4144  1.0000  -1.3149   0.0000   0.0000   0.0000   0.3150
   4.100   0.7507   0.00803   0.00265  -0.0516  0.4086  1.0000  -1.3379   0.0000   0.0000   0.0000   0.3139
   4.200   0.7613   0.00813   0.00270  -0.0516  0.4016  1.0000  -1.3608   0.0000   0.0000   0.0000   0.3127
   4.300   0.7719   0.00824   0.00276  -0.0515  0.3928  1.0000  -1.3835   0.0000   0.0000   0.0000   0.3116
   4.400   0.7825   0.00836   0.00283  -0.0514  0.3840  1.0000  -1.4064   0.0000   0.0000   0.0000   0.3105
   4.500   0.7937   0.00839   0.00288  -0.0514  0.3812  1.0000  -1.4343   0.0000   0.0000   0.0000   0.3095
   4.600   0.8048   0.00844   0.00292  -0.0514  0.3771  1.0000  -1.4631   0.0000   0.0000   0.0000   0.3085
   4.700   0.8157   0.00850   0.00298  -0.0514  0.3720  1.0000  -1.4919   0.0000   0.0000   0.0000   0.3075
   4.800   0.8266   0.00858   0.00303  -0.0514  0.3664  1.0000  -1.5207   0.0000   0.0000   0.0000   0.3066
   4.900   0.8373   0.00868   0.00309  -0.0513  0.3601  1.0000  -1.5494   0.0000   0.0000   0.0000   0.3056
   5.000   0.8478   0.00879   0.00316  -0.0512  0.3530  1.0000  -1.5780   0.0000   0.0000   0.0000   0.3047
   5.100   0.8582   0.00892   0.00324  -0.0512  0.3445  1.0000  -1.6117   0.0000   0.0000   0.0000   0.3037
   5.200   0.8688   0.00903   0.00333  -0.0511  0.3369  1.0000  -1.6471   0.0000   0.0000   0.0000   0.3028
   5.300   0.8799   0.00908   0.00339  -0.0511  0.3339  1.0000  -1.6837   0.0000   0.0000   0.0000   0.3020
   5.400   0.8908   0.00915   0.00345  -0.0511  0.3293  1.0000  -1.7203   0.0000   0.0000   0.0000   0.3011
   5.500   0.9015   0.00924   0.00352  -0.0510  0.3229  1.0000  -1.7567   0.0000   0.0000   0.0000   0.3003
   5.600   0.9120   0.00935   0.00359  -0.0510  0.3154  1.0000  -1.7930   0.0000   0.0000   0.0000   0.2995
   5.700   0.9223   0.00950   0.00367  -0.0509  0.3070  1.0000  -1.8290   0.0000   0.0000   0.0000   0.2986
   5.800   0.9325   0.00965   0.00378  -0.0508  0.2972  1.0000  -1.8650   0.0000   0.0000   0.0000   0.2978
   5.900   0.9431   0.00976   0.00387  -0.0507  0.2910  1.0000  -1.9020   0.0000   0.0000   0.0000   0.2971
   6.000   0.9539   0.00983   0.00395  -0.0507  0.2869  1.0000  -1.9398   0.0000   0.0000   0.0000   0.2963
   6.100   0.9645   0.00993   0.00403  -0.0507  0.2804  1.0000  -1.9773   0.0000   0.0000   0.0000   0.2956
   6.200   0.9747   0.01007   0.00412  -0.0506  0.2720  1.0000  -2.0144   0.0000   0.0000   0.0000   0.2948
   6.300   0.9845   0.01026   0.00423  -0.0505  0.2615  1.0000  -2.0510   0.0000   0.0000   0.0000   0.2941
   6.400   0.9944   0.01045   0.00436  -0.0504  0.2494  1.0000  -2.0876   0.0000   0.0000   0.0000   0.2933
   6.500   1.0051   0.01054   0.00444  -0.0503  0.2444  1.0000  -2.1263   0.0000   0.0000   0.0000   0.2926
   6.600   1.0153   0.01068   0.00454  -0.0502  0.2358  1.0000  -2.1642   0.0000   0.0000   0.0000   0.2919
   6.700   1.0248   0.01090   0.00466  -0.0501  0.2241  1.0000  -2.2012   0.0000   0.0000   0.0000   0.2912
   6.800   1.0342   0.01114   0.00482  -0.0500  0.2093  1.0000  -2.2378   0.0000   0.0000   0.0000   0.2905
   6.900   1.0446   0.01126   0.00492  -0.0499  0.2026  1.0000  -2.2767   0.0000   0.0000   0.0000   0.2899
   7.000   1.0542   0.01147   0.00505  -0.0498  0.1922  1.0000  -2.3196   0.0000   0.0000   0.0000   0.2892
   7.100   1.0634   0.01173   0.00520  -0.0496  0.1803  1.0000  -2.3663   0.0000   0.0000   0.0000   0.2885
   7.200   1.0732   0.01191   0.00535  -0.0495  0.1710  1.0000  -2.4146   0.0000   0.0000   0.0000   0.2878
   7.300   1.0835   0.01204   0.00547  -0.0494  0.1665  1.0000  -2.4645   0.0000   0.0000   0.0000   0.2872
   7.400   1.0973   0.01176   0.00574  -0.0495  0.1972  1.0000  -2.5337   0.0000   0.0000   0.0000   0.2866
   7.500   1.1071   0.01194   0.00589  -0.0494  0.1909  1.0000  -2.5856   0.0000   0.0000   0.0000   0.2860
   7.600   1.1166   0.01215   0.00605  -0.0493  0.1838  1.0000  -2.6363   0.0000   0.0000   0.0000   0.2853
   7.700   1.1261   0.01237   0.00624  -0.0491  0.1755  1.0000  -2.6864   0.0000   0.0000   0.0000   0.2847
   7.800   1.1362   0.01251   0.00639  -0.0490  0.1711  1.0000  -2.7382   0.0000   0.0000   0.0000   0.2841
   7.900   1.1465   0.01262   0.00652  -0.0489  0.1685  1.0000  -2.7911   0.0000   0.0000   0.0000   0.2835
   8.000   1.1566   0.01275   0.00666  -0.0488  0.1647  1.0000  -2.8834   0.0000   0.0000   0.0000   0.2829
   8.100   1.1664   0.01292   0.00682  -0.0487  0.1599  1.0000  -2.9816   0.0000   0.0000   0.0000   0.2823
   8.200   1.1758   0.01313   0.00698  -0.0485  0.1543  1.0000  -3.0791   0.0000   0.0000   0.0000   0.2817
   8.300   1.1850   0.01336   0.00717  -0.0484  0.1478  1.0000  -3.1761   0.0000   0.0000   0.0000   0.2811
   8.400   1.1940   0.01361   0.00739  -0.0481  0.1401  1.0000  -3.2729   0.0000   0.0000   0.0000   0.2804
   8.500   1.2039   0.01376   0.00756  -0.0480  0.1368  1.0000  -3.3756   0.0000   0.0000   0.0000   0.2799
   8.600   1.2139   0.01388   0.00771  -0.0479  0.1345  1.0000  -3.4809   0.0000   0.0000   0.0000   0.2793
   8.700   1.2236   0.01404   0.00787  -0.0478  0.1311  1.0000  -3.5856   0.0000   0.0000   0.0000   0.2788
   8.800   1.2329   0.01424   0.00805  -0.0476  0.1265  1.0000  -3.6892   0.0000   0.0000   0.0000   0.2782
   8.900   1.2417   0.01450   0.00825  -0.0474  0.1208  1.0000  -3.7906   0.0000   0.0000   0.0000   0.2776
   9.000   1.2501   0.01480   0.00849  -0.0471  0.1131  1.0000  -3.8908   0.0000   0.0000   0.0000   0.2770
   9.100   1.2588   0.01505   0.00873  -0.0469  0.1066  1.0000  -3.9932   0.0000   0.0000   0.0000   0.2764
   9.200   1.2687   0.01517   0.00887  -0.0468  0.1043  1.0000  -4.1053   0.0000   0.0000   0.0000   0.2759
   9.300   1.2779   0.01535   0.00905  -0.0466  0.1005  1.0000  -4.2146   0.0000   0.0000   0.0000   0.2753
   9.400   1.2865   0.01560   0.00926  -0.0464  0.0956  1.0000  -4.3213   0.0000   0.0000   0.0000   0.2748
   9.500   1.2946   0.01591   0.00950  -0.0461  0.0902  1.0000  -4.4251   0.0000   0.0000   0.0000   0.2742
   9.600   1.3026   0.01621   0.00976  -0.0458  0.0842  1.0000  -4.5290   0.0000   0.0000   0.0000   0.2736
   9.700   1.3110   0.01647   0.01003  -0.0455  0.0797  1.0000  -4.6349   0.0000   0.0000   0.0000   0.2730
   9.800   1.3205   0.01661   0.01020  -0.0454  0.0785  1.0000  -4.7504   0.0000   0.0000   0.0000   0.2725
   9.900   1.3296   0.01679   0.01039  -0.0452  0.0767  1.0000  -4.8645   0.0000   0.0000   0.0000   0.2719
  10.000   1.3383   0.01700   0.01061  -0.0449  0.0743  1.0000  -4.9772   0.0000   0.0000   0.0000   0.2714
  10.100   1.3466   0.01724   0.01084  -0.0447  0.0715  1.0000  -5.0884   0.0000   0.0000   0.0000   0.2708
  10.200   1.3545   0.01752   0.01110  -0.0443  0.0684  1.0000  -5.1976   0.0000   0.0000   0.0000   0.2702
  10.300   1.3619   0.01784   0.01138  -0.0440  0.0650  1.0000  -5.3046   0.0000   0.0000   0.0000   0.2696
  10.400   1.3692   0.01816   0.01168  -0.0436  0.0610  1.0000  -5.4109   0.0000   0.0000   0.0000   0.2690
  10.500   1.3774   0.01838   0.01194  -0.0434  0.0558  1.0000  -5.5119   0.0000   0.0000   0.0000   0.2685
  10.600   1.3860   0.01857   0.01214  -0.0431  0.0545  1.0000  -5.6279   0.0000   0.0000   0.0000   0.2680
  10.700   1.3942   0.01878   0.01237  -0.0428  0.0528  1.0000  -5.7424   0.0000   0.0000   0.0000   0.2674
  10.800   1.4019   0.01903   0.01261  -0.0425  0.0508  1.0000  -5.8554   0.0000   0.0000   0.0000   0.2669
  10.900   1.4092   0.01931   0.01288  -0.0421  0.0484  1.0000  -5.9660   0.0000   0.0000   0.0000   0.2663
  11.000   1.4159   0.01964   0.01319  -0.0417  0.0457  1.0000  -6.0727   0.0000   0.0000   0.0000   0.2657
  11.100   1.4221   0.02000   0.01352  -0.0412  0.0427  1.0000  -6.1769   0.0000   0.0000   0.0000   0.2650
  11.200   1.4284   0.02033   0.01385  -0.0407  0.0395  1.0000  -6.2814   0.0000   0.0000   0.0000   0.2644
  11.300   1.4350   0.02063   0.01416  -0.0403  0.0370  1.0000  -6.3873   0.0000   0.0000   0.0000   0.2638
  11.400   1.4424   0.02086   0.01441  -0.0399  0.0360  1.0000  -6.4999   0.0000   0.0000   0.0000   0.2632
  11.500   1.4488   0.02115   0.01470  -0.0394  0.0340  1.0000  -6.6049   0.0000   0.0000   0.0000   0.2626
  11.600   1.4532   0.02157   0.01508  -0.0387  0.0300  1.0000  -6.6934   0.0000   0.0000   0.0000   0.2619
  11.700   1.4527   0.02225   0.01565  -0.0375  0.0228  1.0000  -6.7440   0.0000   0.0000   0.0000   0.2609
  11.800   1.4491   0.02310   0.01641  -0.0359  0.0154  1.0000  -6.7581   0.0000   0.0000   0.0000   0.2597
  11.900   1.4434   0.02413   0.01742  -0.0341  0.0094  1.0000  -6.7116   0.0000   0.0000   0.0000   0.2584
  12.000   1.4441   0.02475   0.01808  -0.0330  0.0087  1.0000  -6.7452   0.0000   0.0000   0.0000   0.2575
  12.100   1.4454   0.02535   0.01874  -0.0321  0.0083  1.0000  -6.7903   0.0000   0.0000   0.0000   0.2567
  12.200   1.4468   0.02596   0.01940  -0.0313  0.0080  1.0000  -6.8397   0.0000   0.0000   0.0000   0.2559
  12.300   1.4483   0.02659   0.02009  -0.0306  0.0078  1.0000  -6.8915   0.0000   0.0000   0.0000   0.2552
  12.400   1.4493   0.02726   0.02082  -0.0298  0.0076  1.0000  -6.9422   0.0000   0.0000   0.0000   0.2545
  12.500   1.4501   0.02795   0.02158  -0.0291  0.0075  1.0000  -6.9927   0.0000   0.0000   0.0000   0.2538
  12.600   1.4510   0.02867   0.02237  -0.0285  0.0074  1.0000  -7.0438   0.0000   0.0000   0.0000   0.2532
  12.700   1.4514   0.02946   0.02322  -0.0279  0.0073  1.0000  -7.0920   0.0000   0.0000   0.0000   0.2526
  12.800   1.4517   0.03028   0.02411  -0.0274  0.0073  1.0000  -7.1397   0.0000   0.0000   0.0000   0.2520
  12.900   1.4519   0.03113   0.02502  -0.0269  0.0072  1.0000  -7.1873   0.0000   0.0000   0.0000   0.2515
  13.000   1.4515   0.03206   0.02602  -0.0265  0.0072  1.0000  -7.2302   0.0000   0.0000   0.0000   0.2511
  13.100   1.4510   0.03303   0.02706  -0.0262  0.0071  1.0000  -7.2723   0.0000   0.0000   0.0000   0.2506
  13.200   1.4505   0.03403   0.02812  -0.0258  0.0071  1.0000  -7.3140   0.0000   0.0000   0.0000   0.2502
  13.300   1.4490   0.03512   0.02929  -0.0255  0.0071  1.0000  -7.3490   0.0000   0.0000   0.0000   0.2498
  13.400   1.4472   0.03626   0.03049  -0.0253  0.0070  1.0000  -7.3818   0.0000   0.0000   0.0000   0.2495
  13.500   1.4455   0.03743   0.03172  -0.0251  0.0070  1.0000  -7.4151   0.0000   0.0000   0.0000   0.2492
  13.600   1.4433   0.03870   0.03307  -0.0250  0.0070  1.0000  -7.4438   0.0000   0.0000   0.0000   0.2489
  13.700   1.4407   0.04006   0.03449  -0.0250  0.0070  1.0000  -7.4695   0.0000   0.0000   0.0000   0.2488
  13.800   1.4384   0.04142   0.03592  -0.0250  0.0070  1.0000  -7.4964   0.0000   0.0000   0.0000   0.2486
  13.900   1.4357   0.04286   0.03743  -0.0251  0.0070  1.0000  -7.5200   0.0000   0.0000   0.0000   0.2485
  14.000   1.4321   0.04445   0.03909  -0.0253  0.0070  1.0000  -7.5368   0.0000   0.0000   0.0000   0.2484
  14.100   1.4290   0.04601   0.04072  -0.0255  0.0070  1.0000  -7.5557   0.0000   0.0000   0.0000   0.2484
  14.200   1.4259   0.04758   0.04236  -0.0257  0.0070  1.0000  -7.5741   0.0000   0.0000   0.0000   0.2484
  14.300   1.4215   0.04937   0.04422  -0.0261  0.0070  1.0000  -7.5836   0.0000   0.0000   0.0000   0.2485
  14.400   1.4174   0.05114   0.04606  -0.0265  0.0070  1.0000  -7.5936   0.0000   0.0000   0.0000   0.2487
  14.500   1.4135   0.05287   0.04785  -0.0269  0.0070  1.0000  -7.6051   0.0000   0.0000   0.0000   0.2488
  14.600   1.4093   0.05468   0.04973  -0.0274  0.0070  1.0000  -7.6131   0.0000   0.0000   0.0000   0.2489
  14.700   1.4039   0.05671   0.05183  -0.0280  0.0070  1.0000  -7.6125   0.0000   0.0000   0.0000   0.2493
  14.800   1.3993   0.05862   0.05381  -0.0286  0.0070  1.0000  -7.6161   0.0000   0.0000   0.0000   0.2495
  14.900   1.3946   0.06049   0.05574  -0.0291  0.0070  1.0000  -7.6194   0.0000   0.0000   0.0000   0.2498
  15.000   1.3892   0.06247   0.05779  -0.0297  0.0070  1.0000  -7.6169   0.0000   0.0000   0.0000   0.2501
  15.100   1.3831   0.06468   0.06007  -0.0305  0.0071  1.0000  -7.6077   0.0000   0.0000   0.0000   0.2506
  15.200   1.3780   0.06676   0.06221  -0.0312  0.0071  1.0000  -7.6049   0.0000   0.0000   0.0000   0.2510
  15.300   1.3733   0.06881   0.06433  -0.0319  0.0071  1.0000  -7.6035   0.0000   0.0000   0.0000   0.2513
  15.400   1.3684   0.07095   0.06653  -0.0327  0.0071  1.0000  -7.5999   0.0000   0.0000   0.0000   0.2518
  15.500   1.3622   0.07345   0.06910  -0.0338  0.0071  1.0000  -7.5848   0.0000   0.0000   0.0000   0.2525
  15.600   1.3569   0.07577   0.07149  -0.0348  0.0071  1.0000  -7.5759   0.0000   0.0000   0.0000   0.2531
  15.700   1.3521   0.07801   0.07379  -0.0356  0.0071  1.0000  -7.5698   0.0000   0.0000   0.0000   0.2536
  15.800   1.3474   0.08026   0.07611  -0.0365  0.0072  1.0000  -7.5631   0.0000   0.0000   0.0000   0.2542
  15.900   1.3421   0.08268   0.07859  -0.0376  0.0072  1.0000  -7.5504   0.0000   0.0000   0.0000   0.2548
  16.000   1.3357   0.08538   0.08136  -0.0389  0.0072  1.0000  -7.5284   0.0000   0.0000   0.0000   0.2558
  16.100   1.3305   0.08782   0.08387  -0.0400  0.0072  1.0000  -7.5141   0.0000   0.0000   0.0000   0.2565
  16.200   1.3256   0.09019   0.08630  -0.0410  0.0072  1.0000  -7.5014   0.0000   0.0000   0.0000   0.2572
  16.300   1.3208   0.09256   0.08873  -0.0421  0.0073  1.0000  -7.4882   0.0000   0.0000   0.0000   0.2579
  16.400   1.3157   0.09501   0.09125  -0.0432  0.0073  1.0000  -7.4715   0.0000   0.0000   0.0000   0.2587
  16.500   1.3089   0.09790   0.09420  -0.0447  0.0073  1.0000  -7.4392   0.0000   0.0000   0.0000   0.2599
  16.600   1.3032   0.10052   0.09689  -0.0461  0.0073  1.0000  -7.4150   0.0000   0.0000   0.0000   0.2608
  16.700   1.2982   0.10301   0.09944  -0.0473  0.0073  1.0000  -7.3943   0.0000   0.0000   0.0000   0.2617
  16.800   1.2931   0.10548   0.10197  -0.0485  0.0074  1.0000  -7.3727   0.0000   0.0000   0.0000   0.2626
  16.900   1.2879   0.10799   0.10455  -0.0498  0.0074  1.0000  -7.3481   0.0000   0.0000   0.0000   0.2636
  17.000   1.2816   0.11082   0.10745  -0.0514  0.0074  1.0000  -7.3122   0.0000   0.0000   0.0000   0.2649
  17.100   1.2749   0.11376   0.11045  -0.0531  0.0074  1.0000  -7.2716   0.0000   0.0000   0.0000   0.2662
  17.200   1.2693   0.11642   0.11317  -0.0546  0.0074  1.0000  -7.2385   0.0000   0.0000   0.0000   0.2674
  17.300   1.2639   0.11902   0.11583  -0.0560  0.0075  1.0000  -7.2056   0.0000   0.0000   0.0000   0.2686
  17.400   1.2585   0.12165   0.11853  -0.0576  0.0075  1.0000  -7.1705   0.0000   0.0000   0.0000   0.2698
  17.500   1.2525   0.12440   0.12134  -0.0592  0.0075  1.0000  -7.1290   0.0000   0.0000   0.0000   0.2712
  17.600   1.2449   0.12744   0.12444  -0.0612  0.0075  1.0000  -7.0700   0.0000   0.0000   0.0000   0.2729
  17.700   1.2387   0.13009   0.12715  -0.0630  0.0076  1.0000  -7.0222   0.0000   0.0000   0.0000   0.2744
  17.800   1.2330   0.13271   0.12983  -0.0646  0.0076  1.0000  -6.9764   0.0000   0.0000   0.0000   0.2759
  17.900   1.2272   0.13544   0.13262  -0.0664  0.0076  1.0000  -6.9272   0.0000   0.0000   0.0000   0.2774
  18.000   1.2209   0.13839   0.13563  -0.0683  0.0076  1.0000  -6.8705   0.0000   0.0000   0.0000   0.2791
  18.100   1.2126   0.14200   0.13929  -0.0706  0.0077  1.0000  -6.7909   0.0000   0.0000   0.0000   0.2813
  18.200   1.2060   0.14525   0.14261  -0.0727  0.0077  1.0000  -6.7247   0.0000   0.0000   0.0000   0.2832
  18.300   1.1996   0.14850   0.14591  -0.0746  0.0077  1.0000  -6.6584   0.0000   0.0000   0.0000   0.2850
  18.400   1.1929   0.15193   0.14940  -0.0767  0.0077  1.0000  -6.5851   0.0000   0.0000   0.0000   0.2870
  18.500   1.1842   0.15603   0.15356  -0.0792  0.0078  1.0000  -6.4864   0.0000   0.0000   0.0000   0.2896
  18.600   1.1762   0.16013   0.15771  -0.0817  0.0078  1.0000  -6.3884   0.0000   0.0000   0.0000   0.2920
  18.700   1.1688   0.16407   0.16170  -0.0839  0.0078  1.0000  -6.2949   0.0000   0.0000   0.0000   0.2944
  18.800   1.1609   0.16826   0.16595  -0.0863  0.0079  1.0000  -6.1902   0.0000   0.0000   0.0000   0.2969
  18.900   1.1501   0.17357   0.17131  -0.0893  0.0079  1.0000  -6.0411   0.0000   0.0000   0.0000   0.3002
  19.000   1.1404   0.17865   0.17645  -0.0920  0.0079  1.0000  -5.8978   0.0000   0.0000   0.0000   0.3033
  19.100   1.1303   0.18400   0.18185  -0.0948  0.0080  1.0000  -5.7398   0.0000   0.0000   0.0000   0.3065
  19.200   1.1152   0.19137   0.18927  -0.0985  0.0080  1.0000  -5.4922   0.0000   0.0000   0.0000   0.3111
  19.300   1.1005   0.19890   0.19685  -0.1020  0.0081  1.0000  -5.2261   0.0000   0.0000   0.0000   0.3158
  19.400   1.0700   0.21321   0.21121  -0.1079  0.0083  1.0000  -4.6113   0.0000   0.0000   0.0000   0.3247
  19.500   1.0275   0.23527   0.23324  -0.1150  0.0090  1.0000  -3.5238   0.0000   0.0000   0.0000   0.3372
  19.600   1.0167   0.24359   0.24154  -0.1174  0.0094  1.0000  -3.1872   0.0000   0.0000   0.0000   0.3411
  19.800   0.9812   0.27196   0.26985  -0.1216  0.0214  1.0000  -1.9708   0.0000   0.0000   0.0000   0.3510
  19.900   0.9817   0.27458   0.27247  -0.1224  0.0214  1.0000  -1.9544   0.0000   0.0000   0.0000   0.3516
  20.000   0.9821   0.27717   0.27507  -0.1232  0.0213  1.0000  -1.9386   0.0000   0.0000   0.0000   0.3522
  20.100   0.9826   0.27973   0.27763  -0.1239  0.0213  1.0000  -1.9235   0.0000   0.0000   0.0000   0.3528
  20.200   0.9830   0.28226   0.28016  -0.1247  0.0213  1.0000  -1.9092   0.0000   0.0000   0.0000   0.3534
  20.300   0.9833   0.28474   0.28265  -0.1254  0.0212  1.0000  -1.8957   0.0000   0.0000   0.0000   0.3540
  20.400   0.9837   0.28718   0.28509  -0.1262  0.0212  1.0000  -1.8831   0.0000   0.0000   0.0000   0.3546
  20.500   0.9841   0.28956   0.28747  -0.1269  0.0211  1.0000  -1.8717   0.0000   0.0000   0.0000   0.3551
  20.600   0.9845   0.29185   0.28977  -0.1276  0.0211  1.0000  -1.8619   0.0000   0.0000   0.0000   0.3557
  20.700   0.9850   0.29403   0.29195  -0.1283  0.0209  1.0000  -1.8545   0.0000   0.0000   0.0000   0.3562
  20.800   0.9867   0.29572   0.29370  -0.1291  0.0206  1.0000  -1.8512   0.0000   0.0000   0.0000   0.3567
  20.900   0.9881   0.29759   0.29557  -0.1302  0.0198  1.0000  -1.8407   0.0000   0.0000   0.0000   0.3575
  21.000   0.9880   0.30008   0.29807  -0.1312  0.0190  1.0000  -1.8141   0.0000   0.0000   0.0000   0.3584
  21.100   0.9875   0.30258   0.30057  -0.1320  0.0184  1.0000  -1.7919   0.0000   0.0000   0.0000   0.3592
  21.200   0.9868   0.30500   0.30300  -0.1327  0.0179  1.0000  -1.7731   0.0000   0.0000   0.0000   0.3599
  21.300   0.9858   0.30734   0.30534  -0.1333  0.0175  1.0000  -1.7567   0.0000   0.0000   0.0000   0.3605
  21.400   0.9845   0.30959   0.30760  -0.1339  0.0171  1.0000  -1.7417   0.0000   0.0000   0.0000   0.3612
  21.500   0.9830   0.31175   0.30976  -0.1344  0.0167  1.0000  -1.7275   0.0000   0.0000   0.0000   0.3618
  21.600   0.9810   0.31379   0.31181  -0.1349  0.0164  1.0000  -1.7137   0.0000   0.0000   0.0000   0.3624
  21.700   0.9785   0.31569   0.31372  -0.1352  0.0161  1.0000  -1.6997   0.0000   0.0000   0.0000   0.3630
  21.800   0.9753   0.31740   0.31545  -0.1355  0.0158  1.0000  -1.6847   0.0000   0.0000   0.0000   0.3637
  21.900   0.9251   0.30858   0.30671  -0.1306  0.0159  1.0000  -1.5413   0.0000   0.0000   0.0000   0.3667
  22.000   0.9174   0.30820   0.30634  -0.1303  0.0156  1.0000  -1.5154   0.0000   0.0000   0.0000   0.3676
  22.100   0.9115   0.30814   0.30630  -0.1302  0.0154  1.0000  -1.4953   0.0000   0.0000   0.0000   0.3683
  22.200   0.9067   0.30824   0.30641  -0.1302  0.0151  1.0000  -1.4787   0.0000   0.0000   0.0000   0.3690
  22.300   0.9025   0.30842   0.30661  -0.1302  0.0149  1.0000  -1.4646   0.0000   0.0000   0.0000   0.3697
  22.400   0.8988   0.30866   0.30686  -0.1303  0.0146  1.0000  -1.4526   0.0000   0.0000   0.0000   0.3703
  22.500   0.8955   0.30895   0.30716  -0.1304  0.0144  1.0000  -1.4425   0.0000   0.0000   0.0000   0.3709
  22.600   0.8926   0.30927   0.30749  -0.1305  0.0142  1.0000  -1.4341   0.0000   0.0000   0.0000   0.3714
  22.700   0.8900   0.30962   0.30785  -0.1307  0.0140  1.0000  -1.4270   0.0000   0.0000   0.0000   0.3719
  22.800   0.8876   0.30999   0.30823  -0.1309  0.0138  1.0000  -1.4214   0.0000   0.0000   0.0000   0.3724
  22.900   0.8854   0.31038   0.30863  -0.1311  0.0136  1.0000  -1.4169   0.0000   0.0000   0.0000   0.3729
  23.000   0.8834   0.31077   0.30903  -0.1313  0.0134  1.0000  -1.4137   0.0000   0.0000   0.0000   0.3733
  23.100   0.8815   0.31117   0.30944  -0.1315  0.0133  1.0000  -1.4116   0.0000   0.0000   0.0000   0.3738
  23.200   0.8798   0.31158   0.30986  -0.1317  0.0131  1.0000  -1.4107   0.0000   0.0000   0.0000   0.3742
  23.300   0.8783   0.31199   0.31028  -0.1319  0.0129  1.0000  -1.4107   0.0000   0.0000   0.0000   0.3746
  23.400   0.8768   0.31240   0.31070  -0.1322  0.0128  1.0000  -1.4119   0.0000   0.0000   0.0000   0.3750
  23.500   0.8755   0.31281   0.31111  -0.1324  0.0126  1.0000  -1.4140   0.0000   0.0000   0.0000   0.3753
  23.600   0.8743   0.31322   0.31153  -0.1326  0.0125  1.0000  -1.4171   0.0000   0.0000   0.0000   0.3756
  23.700   0.8732   0.31363   0.31195  -0.1329  0.0124  1.0000  -1.4213   0.0000   0.0000   0.0000   0.3760
  23.800   0.8722   0.31403   0.31235  -0.1331  0.0122  1.0000  -1.4263   0.0000   0.0000   0.0000   0.3763
  23.900   0.8712   0.31442   0.31276  -0.1334  0.0121  1.0000  -1.4323   0.0000   0.0000   0.0000   0.3765
  24.000   0.8704   0.31481   0.31316  -0.1336  0.0120  1.0000  -1.4392   0.0000   0.0000   0.0000   0.3768
  24.100   0.8696   0.31520   0.31355  -0.1338  0.0119  1.0000  -1.4470   0.0000   0.0000   0.0000   0.3770
  24.200   0.8688   0.31558   0.31394  -0.1340  0.0118  1.0000  -1.4555   0.0000   0.0000   0.0000   0.3772
  24.300   0.8681   0.31595   0.31432  -0.1343  0.0117  1.0000  -1.4649   0.0000   0.0000   0.0000   0.3774
  24.400   0.8675   0.31631   0.31469  -0.1345  0.0116  1.0000  -1.4749   0.0000   0.0000   0.0000   0.3776
  24.500   0.8669   0.31668   0.31507  -0.1346  0.0115  1.0000  -1.4853   0.0000   0.0000   0.0000   0.3777
  24.600   0.8663   0.31704   0.31544  -0.1348  0.0113  1.0000  -1.4961   0.0000   0.0000   0.0000   0.3779
  24.700   0.8654   0.31747   0.31587  -0.1350  0.0112  1.0000  -1.5013   0.0000   0.0000   0.0000   0.3781
  24.800   0.8640   0.31797   0.31639  -0.1352  0.0111  1.0000  -1.4984   0.0000   0.0000   0.0000   0.3784
  24.900   0.8614   0.31862   0.31704  -0.1353  0.0109  1.0000  -1.4779   0.0000   0.0000   0.0000   0.3789
  25.100   0.8476   0.32205   0.32045  -0.1354  0.0104  1.0000  -1.2413   0.0000   0.0000   0.0000   0.3820
  25.200   0.8469   0.32275   0.32117  -0.1358  0.0104  1.0000  -1.2314   0.0000   0.0000   0.0000   0.3824
  25.300   0.8462   0.32346   0.32188  -0.1362  0.0104  1.0000  -1.2216   0.0000   0.0000   0.0000   0.3828
  25.400   0.8455   0.32417   0.32260  -0.1365  0.0104  1.0000  -1.2121   0.0000   0.0000   0.0000   0.3832
  25.500   0.8449   0.32489   0.32332  -0.1369  0.0103  1.0000  -1.2028   0.0000   0.0000   0.0000   0.3836
  25.600   0.8443   0.32560   0.32404  -0.1372  0.0103  1.0000  -1.1936   0.0000   0.0000   0.0000   0.3840
  25.700   0.8437   0.32632   0.32476  -0.1376  0.0103  1.0000  -1.1846   0.0000   0.0000   0.0000   0.3844
  25.800   0.8432   0.32703   0.32548  -0.1380  0.0103  1.0000  -1.1757   0.0000   0.0000   0.0000   0.3848
  25.900   0.8427   0.32774   0.32620  -0.1384  0.0103  1.0000  -1.1669   0.0000   0.0000   0.0000   0.3853
  26.000   0.8421   0.32846   0.32692  -0.1388  0.0103  1.0000  -1.1580   0.0000   0.0000   0.0000   0.3857
  26.100   0.8416   0.32917   0.32764  -0.1392  0.0103  1.0000  -1.1490   0.0000   0.0000   0.0000   0.3861
  26.200   0.8411   0.32988   0.32835  -0.1396  0.0103  1.0000  -1.1402   0.0000   0.0000   0.0000   0.3865
  26.300   0.8407   0.33058   0.32907  -0.1400  0.0103  1.0000  -1.1316   0.0000   0.0000   0.0000   0.3870
  26.400   0.8403   0.33129   0.32978  -0.1404  0.0103  1.0000  -1.1232   0.0000   0.0000   0.0000   0.3874
  26.500   0.8399   0.33200   0.33049  -0.1409  0.0103  1.0000  -1.1151   0.0000   0.0000   0.0000   0.3878
  26.600   0.8395   0.33271   0.33121  -0.1413  0.0103  1.0000  -1.1074   0.0000   0.0000   0.0000   0.3883
  26.700   0.8392   0.33341   0.33192  -0.1417  0.0102  1.0000  -1.1001   0.0000   0.0000   0.0000   0.3887
  26.800   0.8389   0.33412   0.33263  -0.1422  0.0102  1.0000  -1.0930   0.0000   0.0000   0.0000   0.3891
  26.900   0.8386   0.33483   0.33335  -0.1426  0.0102  1.0000  -1.0863   0.0000   0.0000   0.0000   0.3895
  27.000   0.8383   0.33554   0.33407  -0.1430  0.0102  1.0000  -1.0797   0.0000   0.0000   0.0000   0.3898
  27.100   0.8380   0.33626   0.33479  -0.1434  0.0102  1.0000  -1.0731   0.0000   0.0000   0.0000   0.3902
  27.200   0.8378   0.33698   0.33551  -0.1438  0.0102  1.0000  -1.0665   0.0000   0.0000   0.0000   0.3906
  27.300   0.8375   0.33770   0.33624  -0.1443  0.0102  1.0000  -1.0599   0.0000   0.0000   0.0000   0.3909
  27.400   0.8373   0.33842   0.33696  -0.1447  0.0101  1.0000  -1.0534   0.0000   0.0000   0.0000   0.3913
  27.500   0.8370   0.33914   0.33769  -0.1451  0.0101  1.0000  -1.0471   0.0000   0.0000   0.0000   0.3917
  27.600   0.8368   0.33986   0.33842  -0.1455  0.0101  1.0000  -1.0409   0.0000   0.0000   0.0000   0.3920
  27.700   0.8366   0.34058   0.33915  -0.1459  0.0101  1.0000  -1.0350   0.0000   0.0000   0.0000   0.3924
  27.800   0.8364   0.34130   0.33988  -0.1464  0.0101  1.0000  -1.0291   0.0000   0.0000   0.0000   0.3928
  27.900   0.8363   0.34203   0.34061  -0.1468  0.0101  1.0000  -1.0235   0.0000   0.0000   0.0000   0.3931
  28.000   0.8361   0.34276   0.34134  -0.1472  0.0101  1.0000  -1.0181   0.0000   0.0000   0.0000   0.3935
  28.100   0.8360   0.34349   0.34207  -0.1476  0.0100  1.0000  -1.0235   0.0000   0.0000   0.0000   0.3938
  28.200   0.8359   0.34422   0.34281  -0.1481  0.0100  1.0000  -1.0300   0.0000   0.0000   0.0000   0.3942


