xflr5 v6.61

 Calculated polar for: S3021-095-84

 1 1 Reynolds number fixed          Mach number fixed         

 xtrf =   1.000 (top)        1.000 (bottom)
 Mach =   0.000     Re =     0.688 e 6     Ncrit =   9.000

  alpha     CL        CD       CDp       Cm    Top Xtr Bot Xtr   Cpmin    Chinge    XCp    
 ------- -------- --------- --------- -------- ------- ------- -------- --------- ---------
 -10.000  -0.3902   0.10873   0.10667  -0.0185  1.0000  0.0098  -1.7527   0.0000   0.0000   0.0000   0.1957
  -9.900  -0.3882   0.10735   0.10529  -0.0191  1.0000  0.0098  -1.7625   0.0000   0.0000   0.0000   0.1940
  -9.800  -0.4048   0.10108   0.09907  -0.0211  1.0000  0.0104  -2.1589   0.0000   0.0000   0.0000   0.1909
  -9.700  -0.4073   0.09882   0.09681  -0.0219  1.0000  0.0106  -2.2308   0.0000   0.0000   0.0000   0.1893
  -9.600  -0.4078   0.09712   0.09512  -0.0226  1.0000  0.0108  -2.2560   0.0000   0.0000   0.0000   0.1880
  -9.500  -0.4074   0.09566   0.09366  -0.0231  1.0000  0.0110  -2.2625   0.0000   0.0000   0.0000   0.1867
  -9.400  -0.4066   0.09432   0.09233  -0.0236  1.0000  0.0111  -2.2601   0.0000   0.0000   0.0000   0.1854
  -9.300  -0.4056   0.09304   0.09106  -0.0241  1.0000  0.0113  -2.2535   0.0000   0.0000   0.0000   0.1841
  -9.200  -0.4045   0.09180   0.08983  -0.0246  1.0000  0.0114  -2.2454   0.0000   0.0000   0.0000   0.1829
  -9.100  -0.4034   0.09056   0.08860  -0.0251  1.0000  0.0116  -2.2369   0.0000   0.0000   0.0000   0.1815
  -9.000  -0.4021   0.08931   0.08735  -0.0257  1.0000  0.0117  -2.2288   0.0000   0.0000   0.0000   0.1801
  -8.900  -0.4008   0.08807   0.08612  -0.0262  1.0000  0.0118  -2.2202   0.0000   0.0000   0.0000   0.1786
  -8.800  -0.3991   0.08692   0.08498  -0.0266  1.0000  0.0119  -2.2036   0.0000   0.0000   0.0000   0.1774
  -8.700  -0.3977   0.08575   0.08381  -0.0271  1.0000  0.0121  -2.1907   0.0000   0.0000   0.0000   0.1760
  -8.600  -0.3964   0.08455   0.08262  -0.0276  1.0000  0.0122  -2.1814   0.0000   0.0000   0.0000   0.1747
  -8.500  -0.3954   0.08333   0.08141  -0.0281  1.0000  0.0123  -2.1755   0.0000   0.0000   0.0000   0.1733
  -8.400  -0.3946   0.08209   0.08018  -0.0286  1.0000  0.0124  -2.1729   0.0000   0.0000   0.0000   0.1720
  -8.300  -0.3941   0.08083   0.07894  -0.0292  1.0000  0.0125  -2.1733   0.0000   0.0000   0.0000   0.1706
  -8.200  -0.3938   0.07955   0.07767  -0.0297  1.0000  0.0125  -2.1765   0.0000   0.0000   0.0000   0.1692
  -8.100  -0.3938   0.07825   0.07638  -0.0303  1.0000  0.0126  -2.1826   0.0000   0.0000   0.0000   0.1679
  -8.000  -0.3943   0.07694   0.07508  -0.0309  1.0000  0.0127  -2.1920   0.0000   0.0000   0.0000   0.1667
  -7.900  -0.3954   0.07564   0.07380  -0.0314  1.0000  0.0127  -2.2044   0.0000   0.0000   0.0000   0.1657
  -7.800  -0.3974   0.07435   0.07252  -0.0318  1.0000  0.0128  -2.2206   0.0000   0.0000   0.0000   0.1651
  -7.700  -0.4008   0.07310   0.07129  -0.0322  1.0000  0.0128  -2.2422   0.0000   0.0000   0.0000   0.1651
  -7.600  -0.4050   0.07182   0.07003  -0.0325  1.0000  0.0128  -2.2687   0.0000   0.0000   0.0000   0.1652
  -7.500  -0.4068   0.07030   0.06853  -0.0336  1.0000  0.0129  -2.2922   0.0000   0.0000   0.0000   0.1631
  -7.400  -0.4081   0.06874   0.06697  -0.0347  1.0000  0.0129  -2.3158   0.0000   0.0000   0.0000   0.1608
  -7.300  -0.4096   0.06718   0.06542  -0.0356  1.0000  0.0129  -2.3401   0.0000   0.0000   0.0000   0.1590
  -7.200  -0.4113   0.06564   0.06389  -0.0364  1.0000  0.0130  -2.3648   0.0000   0.0000   0.0000   0.1576
  -7.100  -0.4135   0.06416   0.06241  -0.0368  1.0000  0.0130  -2.3898   0.0000   0.0000   0.0000   0.1570
  -7.000  -0.4048   0.06172   0.05995  -0.0403  0.9983  0.0132  -2.3993   0.0000   0.0000   0.0000   0.1465
  -6.900  -0.3942   0.05914   0.05733  -0.0442  0.9959  0.0133  -2.4067   0.0000   0.0000   0.0000   0.1340
  -6.800  -0.3838   0.05662   0.05477  -0.0477  0.9933  0.0135  -2.4143   0.0000   0.0000   0.0000   0.1219
  -6.700  -0.3728   0.05411   0.05222  -0.0510  0.9908  0.0137  -2.4206   0.0000   0.0000   0.0000   0.1092
  -6.600  -0.3613   0.05163   0.04968  -0.0543  0.9888  0.0140  -2.4251   0.0000   0.0000   0.0000   0.0958
  -6.500  -0.3492   0.04920   0.04719  -0.0573  0.9872  0.0143  -2.4274   0.0000   0.0000   0.0000   0.0817
  -6.400  -0.3392   0.04703   0.04496  -0.0595  0.9839  0.0145  -2.4298   0.0000   0.0000   0.0000   0.0704
  -6.300  -0.3290   0.04494   0.04280  -0.0615  0.9800  0.0148  -2.4301   0.0000   0.0000   0.0000   0.0589
  -6.200  -0.3181   0.04289   0.04068  -0.0634  0.9763  0.0152  -2.4276   0.0000   0.0000   0.0000   0.0463
  -6.100  -0.3063   0.04087   0.03857  -0.0653  0.9732  0.0156  -2.4224   0.0000   0.0000   0.0000   0.0322
  -6.000  -0.2958   0.03907   0.03668  -0.0667  0.9688  0.0160  -2.4162   0.0000   0.0000   0.0000   0.0201
  -5.900  -0.2877   0.03752   0.03505  -0.0672  0.9615  0.0164  -2.4102   0.0000   0.0000   0.0000   0.0117
  -5.800  -0.2775   0.03592   0.03335  -0.0681  0.9553  0.0169  -2.4005   0.0000   0.0000   0.0000  -0.0001
  -5.700  -0.2669   0.03441   0.03174  -0.0689  0.9496  0.0175  -2.3872   0.0000   0.0000   0.0000  -0.0131
  -5.600  -0.2594   0.03320   0.03044  -0.0688  0.9403  0.0181  -2.3748   0.0000   0.0000   0.0000  -0.0202
  -5.500  -0.2504   0.03204   0.02918  -0.0689  0.9313  0.0188  -2.3568   0.0000   0.0000   0.0000  -0.0301
  -5.400  -0.2410   0.03106   0.02810  -0.0689  0.9230  0.0195  -2.3312   0.0000   0.0000   0.0000  -0.0409
  -5.300  -0.2321   0.03036   0.02732  -0.0686  0.9139  0.0203  -2.2964   0.0000   0.0000   0.0000  -0.0506
  -5.200  -0.2220   0.03009   0.02698  -0.0682  0.9047  0.0212  -2.2397   0.0000   0.0000   0.0000  -0.0627
  -5.100  -0.2089   0.03096   0.02782  -0.0678  0.8963  0.0223  -2.1252   0.0000   0.0000   0.0000  -0.0800
  -5.000  -0.1976   0.03138   0.02817  -0.0674  0.8883  0.0228  -2.0404   0.0000   0.0000   0.0000  -0.0969
  -4.900  -0.1890   0.03082   0.02751  -0.0671  0.8797  0.0229  -2.0046   0.0000   0.0000   0.0000  -0.1110
  -4.600  -0.1646   0.02848   0.02480  -0.0661  0.8549  0.0231  -1.9291   0.0000   0.0000   0.0000  -0.1580
  -4.500  -0.1698   0.02154   0.01733  -0.0656  0.8483  0.0257  -2.2018   0.0000   0.0000   0.0000  -0.1428
  -4.400  -0.1614   0.02079   0.01652  -0.0654  0.8412  0.0267  -2.1394   0.0000   0.0000   0.0000  -0.1619
  -4.300  -0.1524   0.02034   0.01602  -0.0652  0.8336  0.0277  -2.0663   0.0000   0.0000   0.0000  -0.1846
  -4.200  -0.1433   0.02001   0.01564  -0.0650  0.8256  0.0287  -1.9901   0.0000   0.0000   0.0000  -0.2106
  -4.100  -0.1337   0.01970   0.01528  -0.0649  0.8183  0.0299  -1.9156   0.0000   0.0000   0.0000  -0.2420
  -4.000  -0.1238   0.01936   0.01491  -0.0647  0.8134  0.0312  -1.8453   0.0000   0.0000   0.0000  -0.2801
  -3.900  -0.1139   0.01902   0.01452  -0.0646  0.8077  0.0328  -1.7802   0.0000   0.0000   0.0000  -0.3248
  -3.800  -0.1038   0.01869   0.01410  -0.0643  0.8017  0.0344  -1.7196   0.0000   0.0000   0.0000  -0.3782
  -3.700  -0.0939   0.01796   0.01311  -0.0640  0.7958  0.0344  -1.6996   0.0000   0.0000   0.0000  -0.4399
  -3.600  -0.0833   0.01799   0.01310  -0.0638  0.7896  0.0371  -1.6269   0.0000   0.0000   0.0000  -0.5249
  -3.500  -0.0710   0.01896   0.01408  -0.0636  0.7826  0.0403  -1.5232   0.0000   0.0000   0.0000  -0.6564
  -3.400  -0.0573   0.02068   0.01582  -0.0634  0.7766  0.0416  -1.4053   0.0000   0.0000   0.0000  -0.8688
  -3.300  -0.0546   0.01604   0.01085  -0.0631  0.7742  0.0473  -1.4925   0.0000   0.0000   0.0000  -0.9200
  -2.800  -0.0037   0.01465   0.00937  -0.0627  0.7531  0.0717  -1.1820   0.0000   0.0000   0.0000  -16.6280
  -2.700   0.0062   0.01429   0.00901  -0.0626  0.7479  0.0755  -1.1283   0.0000   0.0000   0.0000  10.5084
  -2.600   0.0164   0.01404   0.00873  -0.0624  0.7418  0.0790  -1.0780   0.0000   0.0000   0.0000   4.0877
  -2.200   0.0641   0.00995   0.00375  -0.0589  0.7272  0.0265  -1.3051   0.0000   0.0000   0.0000   1.1748
  -2.100   0.0759   0.01007   0.00387  -0.0588  0.7238  0.0244  -1.2372   0.0000   0.0000   0.0000   1.0300
  -2.000   0.0861   0.00961   0.00334  -0.0584  0.7203  0.0219  -1.2329   0.0000   0.0000   0.0000   0.9318
  -1.900   0.0963   0.00919   0.00284  -0.0579  0.7166  0.0205  -1.2228   0.0000   0.0000   0.0000   0.8551
  -1.800   0.1069   0.00895   0.00250  -0.0576  0.7128  0.0193  -1.1963   0.0000   0.0000   0.0000   0.7919
  -1.700   0.1177   0.00878   0.00225  -0.0574  0.7089  0.0183  -1.1620   0.0000   0.0000   0.0000   0.7400
  -1.600   0.1285   0.00866   0.00205  -0.0571  0.7046  0.0175  -1.1230   0.0000   0.0000   0.0000   0.6967
  -1.500   0.1393   0.00857   0.00189  -0.0569  0.6997  0.0168  -1.0798   0.0000   0.0000   0.0000   0.6603
  -1.400   0.1501   0.00852   0.00177  -0.0567  0.6940  0.0163  -1.0313   0.0000   0.0000   0.0000   0.6293
  -1.300   0.1610   0.00849   0.00167  -0.0566  0.6877  0.0159  -0.9774   0.0000   0.0000   0.0000   0.6026
  -1.200   0.1722   0.00844   0.00158  -0.0565  0.6846  0.0155  -0.9199   0.0000   0.0000   0.0000   0.5791
  -1.100   0.1834   0.00838   0.00149  -0.0565  0.6827  0.0152  -0.8610   0.0000   0.0000   0.0000   0.5585
  -1.000   0.1946   0.00834   0.00142  -0.0564  0.6804  0.0150  -0.8017   0.0000   0.0000   0.0000   0.5402
  -0.900   0.2057   0.00830   0.00135  -0.0564  0.6775  0.0149  -0.7426   0.0000   0.0000   0.0000   0.5240
  -0.800   0.2169   0.00827   0.00130  -0.0563  0.6743  0.0149  -0.6838   0.0000   0.0000   0.0000   0.5095
  -0.700   0.2280   0.00825   0.00124  -0.0562  0.6707  0.0149  -0.6256   0.0000   0.0000   0.0000   0.4964
  -0.600   0.2390   0.00824   0.00120  -0.0561  0.6667  0.0151  -0.5679   0.0000   0.0000   0.0000   0.4845
  -0.500   0.2500   0.00822   0.00115  -0.0561  0.6623  0.0155  -0.5320   0.0000   0.0000   0.0000   0.4737
  -0.400   0.2609   0.00822   0.00111  -0.0560  0.6576  0.0161  -0.5411   0.0000   0.0000   0.0000   0.4639
  -0.300   0.2717   0.00822   0.00108  -0.0559  0.6526  0.0172  -0.5501   0.0000   0.0000   0.0000   0.4548
  -0.200   0.2826   0.00823   0.00107  -0.0558  0.6473  0.0192  -0.5601   0.0000   0.0000   0.0000   0.4465
  -0.100   0.2935   0.00825   0.00110  -0.0557  0.6418  0.0210  -0.5704   0.0000   0.0000   0.0000   0.4388
   0.000   0.3045   0.00825   0.00113  -0.0557  0.6370  0.0230  -0.5808   0.0000   0.0000   0.0000   0.4317
   0.100   0.3139   0.00776   0.00110  -0.0555  0.6357  0.1590  -0.5901   0.0000   0.0000   0.0000   0.4258
   0.200   0.3239   0.00747   0.00111  -0.0555  0.6340  0.2443  -0.5999   0.0000   0.0000   0.0000   0.4201
   0.300   0.3332   0.00710   0.00114  -0.0554  0.6317  0.3643  -0.6094   0.0000   0.0000   0.0000   0.4148
   0.400   0.3330   0.00585   0.00129  -0.0534  0.6294  0.7737  -0.6136   0.0000   0.0000   0.0000   0.4088
   0.500   0.3392   0.00556   0.00136  -0.0519  0.6264  0.8887  -0.6217   0.0000   0.0000   0.0000   0.4016
   0.600   0.4108   0.00553   0.00140  -0.0647  0.6205  0.9993  -0.6686   0.0000   0.0000   0.0000   0.4059
   0.700   0.4234   0.00555   0.00139  -0.0650  0.6168  1.0000  -0.6818   0.0000   0.0000   0.0000   0.4019
   0.800   0.4334   0.00557   0.00139  -0.0648  0.6129  1.0000  -0.6935   0.0000   0.0000   0.0000   0.3978
   0.900   0.4434   0.00561   0.00138  -0.0646  0.6086  1.0000  -0.7052   0.0000   0.0000   0.0000   0.3938
   1.000   0.4533   0.00564   0.00138  -0.0643  0.6036  1.0000  -0.7169   0.0000   0.0000   0.0000   0.3900
   1.100   0.4632   0.00569   0.00138  -0.0640  0.5975  1.0000  -0.7285   0.0000   0.0000   0.0000   0.3863
   1.200   0.4731   0.00575   0.00140  -0.0638  0.5907  1.0000  -0.7402   0.0000   0.0000   0.0000   0.3828
   1.300   0.4833   0.00577   0.00140  -0.0636  0.5871  1.0000  -0.7522   0.0000   0.0000   0.0000   0.3795
   1.400   0.4937   0.00577   0.00141  -0.0634  0.5853  1.0000  -0.7643   0.0000   0.0000   0.0000   0.3763
   1.500   0.5040   0.00578   0.00141  -0.0633  0.5830  1.0000  -0.7777   0.0000   0.0000   0.0000   0.3733
   1.600   0.5143   0.00579   0.00142  -0.0631  0.5803  1.0000  -0.7918   0.0000   0.0000   0.0000   0.3703
   1.700   0.5246   0.00581   0.00143  -0.0629  0.5773  1.0000  -0.8058   0.0000   0.0000   0.0000   0.3675
   1.800   0.5348   0.00583   0.00144  -0.0627  0.5738  1.0000  -0.8199   0.0000   0.0000   0.0000   0.3648
   1.900   0.5450   0.00586   0.00145  -0.0625  0.5698  1.0000  -0.8340   0.0000   0.0000   0.0000   0.3621
   2.000   0.5551   0.00590   0.00146  -0.0623  0.5651  1.0000  -0.8480   0.0000   0.0000   0.0000   0.3596
   2.100   0.5650   0.00594   0.00147  -0.0620  0.5596  1.0000  -0.8620   0.0000   0.0000   0.0000   0.3571
   2.200   0.5748   0.00600   0.00148  -0.0618  0.5532  1.0000  -0.8759   0.0000   0.0000   0.0000   0.3547
   2.300   0.5845   0.00606   0.00150  -0.0615  0.5456  1.0000  -0.8914   0.0000   0.0000   0.0000   0.3523
   2.400   0.5944   0.00613   0.00153  -0.0612  0.5383  1.0000  -0.9078   0.0000   0.0000   0.0000   0.3501
   2.500   0.6048   0.00614   0.00155  -0.0611  0.5366  1.0000  -0.9248   0.0000   0.0000   0.0000   0.3480
   2.600   0.6152   0.00615   0.00157  -0.0609  0.5345  1.0000  -0.9419   0.0000   0.0000   0.0000   0.3459
   2.700   0.6255   0.00617   0.00159  -0.0608  0.5318  1.0000  -0.9590   0.0000   0.0000   0.0000   0.3439
   2.800   0.6358   0.00620   0.00161  -0.0606  0.5281  1.0000  -0.9761   0.0000   0.0000   0.0000   0.3420
   2.900   0.6460   0.00623   0.00163  -0.0604  0.5233  1.0000  -0.9932   0.0000   0.0000   0.0000   0.3401
   3.000   0.6560   0.00628   0.00166  -0.0602  0.5175  1.0000  -1.0102   0.0000   0.0000   0.0000   0.3383
   3.100   0.6658   0.00634   0.00168  -0.0599  0.5108  1.0000  -1.0296   0.0000   0.0000   0.0000   0.3364
   3.200   0.6755   0.00641   0.00170  -0.0596  0.5030  1.0000  -1.0494   0.0000   0.0000   0.0000   0.3346
   3.300   0.6851   0.00649   0.00174  -0.0593  0.4944  1.0000  -1.0693   0.0000   0.0000   0.0000   0.3329
   3.400   0.6951   0.00654   0.00178  -0.0591  0.4883  1.0000  -1.0897   0.0000   0.0000   0.0000   0.3312
   3.500   0.7055   0.00657   0.00181  -0.0589  0.4861  1.0000  -1.1106   0.0000   0.0000   0.0000   0.3297
   3.600   0.7159   0.00660   0.00184  -0.0588  0.4829  1.0000  -1.1315   0.0000   0.0000   0.0000   0.3282
   3.700   0.7228   0.00684   0.00191  -0.0580  0.4427  1.0000  -1.1494   0.0000   0.0000   0.0000   0.3263
   3.800   0.7230   0.00772   0.00207  -0.0563  0.3171  1.0000  -1.1600   0.0000   0.0000   0.0000   0.3238
   3.900   0.7295   0.00810   0.00220  -0.0556  0.2733  1.0000  -1.1770   0.0000   0.0000   0.0000   0.3220
   4.000   0.7371   0.00840   0.00233  -0.0551  0.2411  1.0000  -1.1951   0.0000   0.0000   0.0000   0.3205
   4.100   0.7446   0.00872   0.00246  -0.0546  0.2104  1.0000  -1.2171   0.0000   0.0000   0.0000   0.3189
   4.200   0.7519   0.00906   0.00260  -0.0540  0.1792  1.0000  -1.2390   0.0000   0.0000   0.0000   0.3174
   4.300   0.7597   0.00935   0.00275  -0.0535  0.1537  1.0000  -1.2616   0.0000   0.0000   0.0000   0.3159
   4.400   0.7676   0.00964   0.00288  -0.0531  0.1284  1.0000  -1.2847   0.0000   0.0000   0.0000   0.3145
   4.500   0.7755   0.00994   0.00303  -0.0526  0.1051  1.0000  -1.3077   0.0000   0.0000   0.0000   0.3131
   4.600   0.7814   0.01045   0.00330  -0.0518  0.0663  1.0000  -1.3291   0.0000   0.0000   0.0000   0.3115
   4.700   0.7855   0.01117   0.00373  -0.0508  0.0113  1.0000  -1.3370   0.0000   0.0000   0.0000   0.3098
   4.800   0.7955   0.01126   0.00378  -0.0506  0.0107  1.0000  -1.3760   0.0000   0.0000   0.0000   0.3086
   4.900   0.8054   0.01135   0.00383  -0.0504  0.0101  1.0000  -1.4177   0.0000   0.0000   0.0000   0.3075
   5.000   0.8152   0.01146   0.00390  -0.0502  0.0095  1.0000  -1.4559   0.0000   0.0000   0.0000   0.3064
   5.100   0.8250   0.01157   0.00397  -0.0500  0.0088  1.0000  -1.4906   0.0000   0.0000   0.0000   0.3053
   5.200   0.8354   0.01161   0.00402  -0.0499  0.0078  1.0000  -1.5210   0.0000   0.0000   0.0000   0.3043
   5.300   0.8456   0.01168   0.00410  -0.0497  0.0072  1.0000  -1.5487   0.0000   0.0000   0.0000   0.3033
   5.400   0.8555   0.01177   0.00420  -0.0495  0.0068  1.0000  -1.6001   0.0000   0.0000   0.0000   0.3023
   5.500   0.8654   0.01187   0.00431  -0.0493  0.0065  1.0000  -1.6807   0.0000   0.0000   0.0000   0.3013
   5.600   0.8753   0.01198   0.00442  -0.0491  0.0063  1.0000  -1.7627   0.0000   0.0000   0.0000   0.3003
   5.700   0.8852   0.01208   0.00453  -0.0489  0.0062  1.0000  -1.8460   0.0000   0.0000   0.0000   0.2993
   5.800   0.8950   0.01219   0.00465  -0.0487  0.0060  1.0000  -1.9304   0.0000   0.0000   0.0000   0.2984
   5.900   0.9049   0.01230   0.00476  -0.0485  0.0060  1.0000  -2.0160   0.0000   0.0000   0.0000   0.2975
   6.000   0.9147   0.01241   0.00489  -0.0483  0.0059  1.0000  -2.1026   0.0000   0.0000   0.0000   0.2966
   6.100   0.9246   0.01252   0.00502  -0.0481  0.0059  1.0000  -2.1904   0.0000   0.0000   0.0000   0.2957
   6.200   0.9344   0.01263   0.00515  -0.0479  0.0059  1.0000  -2.2792   0.0000   0.0000   0.0000   0.2948
   6.300   0.9442   0.01275   0.00529  -0.0476  0.0059  1.0000  -2.3688   0.0000   0.0000   0.0000   0.2939
   6.400   0.9539   0.01287   0.00544  -0.0474  0.0060  1.0000  -2.4594   0.0000   0.0000   0.0000   0.2930
   6.500   0.9636   0.01300   0.00559  -0.0472  0.0060  1.0000  -2.5506   0.0000   0.0000   0.0000   0.2922
   6.600   0.9733   0.01313   0.00575  -0.0469  0.0061  1.0000  -2.6425   0.0000   0.0000   0.0000   0.2913
   6.700   0.9829   0.01327   0.00593  -0.0467  0.0062  1.0000  -2.7347   0.0000   0.0000   0.0000   0.2905
   6.800   0.9924   0.01341   0.00611  -0.0464  0.0063  1.0000  -2.8272   0.0000   0.0000   0.0000   0.2896
   6.900   1.0018   0.01357   0.00630  -0.0461  0.0065  1.0000  -2.9197   0.0000   0.0000   0.0000   0.2888
   7.000   1.0111   0.01374   0.00651  -0.0458  0.0066  1.0000  -3.0118   0.0000   0.0000   0.0000   0.2879
   7.100   1.0203   0.01392   0.00673  -0.0455  0.0068  1.0000  -3.1030   0.0000   0.0000   0.0000   0.2871
   7.200   1.0293   0.01412   0.00697  -0.0451  0.0070  1.0000  -3.1921   0.0000   0.0000   0.0000   0.2862
   7.300   1.0383   0.01433   0.00723  -0.0448  0.0072  1.0000  -3.2781   0.0000   0.0000   0.0000   0.2854
   7.400   1.0471   0.01455   0.00751  -0.0444  0.0075  1.0000  -3.3588   0.0000   0.0000   0.0000   0.2845
   7.500   1.0558   0.01480   0.00781  -0.0439  0.0078  1.0000  -3.4315   0.0000   0.0000   0.0000   0.2836
   7.600   1.0641   0.01508   0.00814  -0.0433  0.0082  1.0000  -3.4968   0.0000   0.0000   0.0000   0.2826
   7.700   1.0731   0.01526   0.00855  -0.0430  0.0081  1.0000  -3.5666   0.0000   0.0000   0.0000   0.2819
   7.800   1.0813   0.01552   0.00889  -0.0425  0.0083  1.0000  -3.6329   0.0000   0.0000   0.0000   0.2810
   7.900   1.0890   0.01585   0.00929  -0.0419  0.0086  1.0000  -3.6957   0.0000   0.0000   0.0000   0.2800
   8.000   1.0961   0.01623   0.00975  -0.0412  0.0089  1.0000  -3.7539   0.0000   0.0000   0.0000   0.2790
   8.100   1.1025   0.01667   0.01028  -0.0404  0.0093  1.0000  -3.8087   0.0000   0.0000   0.0000   0.2779
   8.200   1.1081   0.01718   0.01088  -0.0394  0.0097  1.0000  -3.8537   0.0000   0.0000   0.0000   0.2767
   8.300   1.1127   0.01777   0.01157  -0.0383  0.0101  1.0000  -3.8873   0.0000   0.0000   0.0000   0.2754
   8.400   1.1158   0.01851   0.01241  -0.0370  0.0106  1.0000  -3.9058   0.0000   0.0000   0.0000   0.2740
   8.500   1.1164   0.01951   0.01352  -0.0353  0.0110  1.0000  -3.8962   0.0000   0.0000   0.0000   0.2723
   8.600   1.1162   0.02070   0.01482  -0.0335  0.0120  1.0000  -3.8622   0.0000   0.0000   0.0000   0.2706
   8.700   1.1285   0.02045   0.01455  -0.0335  0.0127  1.0000  -3.9928   0.0000   0.0000   0.0000   0.2701
   8.800   1.1388   0.02045   0.01455  -0.0333  0.0137  1.0000  -4.0982   0.0000   0.0000   0.0000   0.2695
   8.900   1.1397   0.02324   0.01775  -0.0304  0.0212  1.0000  -3.8586   0.0000   0.0000   0.0000   0.2669
  15.200   0.8804   0.16772   0.16579  -0.0639  0.0234  1.0000  -2.3009   0.0000   0.0000   0.0000   0.3062
  15.300   0.8805   0.17029   0.16836  -0.0651  0.0234  1.0000  -2.2690   0.0000   0.0000   0.0000   0.3076
  15.400   0.8808   0.17278   0.17084  -0.0664  0.0234  1.0000  -2.2408   0.0000   0.0000   0.0000   0.3089
  15.500   0.8814   0.17518   0.17324  -0.0675  0.0234  1.0000  -2.2164   0.0000   0.0000   0.0000   0.3101
  15.600   0.8823   0.17749   0.17554  -0.0687  0.0233  1.0000  -2.1965   0.0000   0.0000   0.0000   0.3112
  15.700   0.8836   0.17964   0.17770  -0.0698  0.0232  1.0000  -2.1831   0.0000   0.0000   0.0000   0.3123
  15.800   0.8859   0.18146   0.17952  -0.0708  0.0231  1.0000  -2.1841   0.0000   0.0000   0.0000   0.3131
  15.900   0.8929   0.18184   0.17990  -0.0714  0.0223  1.0000  -2.2513   0.0000   0.0000   0.0000   0.3129
  16.000   0.8985   0.18288   0.18095  -0.0720  0.0210  1.0000  -2.2909   0.0000   0.0000   0.0000   0.3131
  16.100   0.9007   0.18489   0.18296  -0.0730  0.0201  1.0000  -2.2866   0.0000   0.0000   0.0000   0.3139
  16.200   0.9020   0.18712   0.18518  -0.0741  0.0193  1.0000  -2.2727   0.0000   0.0000   0.0000   0.3149
  16.300   0.9030   0.18936   0.18742  -0.0752  0.0186  1.0000  -2.2589   0.0000   0.0000   0.0000   0.3159
  16.400   0.9041   0.19150   0.18956  -0.0762  0.0179  1.0000  -2.2512   0.0000   0.0000   0.0000   0.3168
  16.500   0.9054   0.19354   0.19161  -0.0772  0.0173  1.0000  -2.2496   0.0000   0.0000   0.0000   0.3177
  16.600   0.9068   0.19549   0.19355  -0.0781  0.0168  1.0000  -2.2541   0.0000   0.0000   0.0000   0.3184
  16.700   0.9084   0.19732   0.19538  -0.0790  0.0163  1.0000  -2.2651   0.0000   0.0000   0.0000   0.3191
  16.800   0.9102   0.19904   0.19710  -0.0798  0.0158  1.0000  -2.2830   0.0000   0.0000   0.0000   0.3197
  16.900   0.9122   0.20063   0.19869  -0.0806  0.0153  1.0000  -2.3087   0.0000   0.0000   0.0000   0.3201
  17.000   0.9143   0.20214   0.20021  -0.0813  0.0149  1.0000  -2.3396   0.0000   0.0000   0.0000   0.3205
  17.100   0.9167   0.20352   0.20159  -0.0819  0.0145  1.0000  -2.3789   0.0000   0.0000   0.0000   0.3208
  17.200   0.9193   0.20475   0.20282  -0.0825  0.0142  1.0000  -2.4277   0.0000   0.0000   0.0000   0.3210
  17.300   0.9222   0.20580   0.20388  -0.0830  0.0138  1.0000  -2.4869   0.0000   0.0000   0.0000   0.3211
  17.400   0.9249   0.20688   0.20496  -0.0835  0.0135  1.0000  -2.5463   0.0000   0.0000   0.0000   0.3212
  17.500   0.9268   0.20836   0.20645  -0.0842  0.0132  1.0000  -2.5845   0.0000   0.0000   0.0000   0.3215
  17.600   0.9283   0.20995   0.20804  -0.0849  0.0129  1.0000  -2.6183   0.0000   0.0000   0.0000   0.3220
  17.700   0.9286   0.21205   0.21014  -0.0858  0.0125  1.0000  -2.6252   0.0000   0.0000   0.0000   0.3227
  17.800   0.9107   0.22324   0.22128  -0.0892  0.0115  1.0000  -2.1514   0.0000   0.0000   0.0000   0.3287
  17.900   0.9121   0.22562   0.22366  -0.0901  0.0115  1.0000  -2.1351   0.0000   0.0000   0.0000   0.3294
  18.000   0.9135   0.22799   0.22603  -0.0910  0.0115  1.0000  -2.1197   0.0000   0.0000   0.0000   0.3301
  18.100   0.9149   0.23035   0.22839  -0.0919  0.0115  1.0000  -2.1052   0.0000   0.0000   0.0000   0.3308
  18.200   0.9163   0.23269   0.23073  -0.0928  0.0115  1.0000  -2.0917   0.0000   0.0000   0.0000   0.3315
  18.300   0.9178   0.23501   0.23306  -0.0937  0.0114  1.0000  -2.0791   0.0000   0.0000   0.0000   0.3322
  18.400   0.9193   0.23732   0.23537  -0.0946  0.0114  1.0000  -2.0677   0.0000   0.0000   0.0000   0.3329
  18.500   0.9209   0.23961   0.23766  -0.0954  0.0114  1.0000  -2.0574   0.0000   0.0000   0.0000   0.3336
  18.600   0.9224   0.24187   0.23992  -0.0963  0.0114  1.0000  -2.0487   0.0000   0.0000   0.0000   0.3342
  18.700   0.9241   0.24409   0.24214  -0.0972  0.0113  1.0000  -2.0420   0.0000   0.0000   0.0000   0.3348
  18.800   0.9258   0.24625   0.24430  -0.0980  0.0113  1.0000  -2.0383   0.0000   0.0000   0.0000   0.3354
  18.900   0.9278   0.24830   0.24635  -0.0988  0.0112  1.0000  -2.0396   0.0000   0.0000   0.0000   0.3359
  19.000   0.9302   0.25014   0.24820  -0.0997  0.0111  1.0000  -2.0507   0.0000   0.0000   0.0000   0.3364
  19.100   0.9334   0.25169   0.24975  -0.1004  0.0108  1.0000  -2.0756   0.0000   0.0000   0.0000   0.3367
  19.200   0.9365   0.25335   0.25141  -0.1012  0.0104  1.0000  -2.0946   0.0000   0.0000   0.0000   0.3370
  19.300   0.9389   0.25536   0.25343  -0.1020  0.0101  1.0000  -2.0969   0.0000   0.0000   0.0000   0.3375
  19.400   0.9405   0.25772   0.25579  -0.1029  0.0097  1.0000  -2.0817   0.0000   0.0000   0.0000   0.3382
  19.500   0.9418   0.26015   0.25822  -0.1038  0.0094  1.0000  -2.0642   0.0000   0.0000   0.0000   0.3388
  19.600   0.9431   0.26258   0.26065  -0.1047  0.0091  1.0000  -2.0480   0.0000   0.0000   0.0000   0.3395
  19.700   0.9443   0.26500   0.26308  -0.1056  0.0089  1.0000  -2.0338   0.0000   0.0000   0.0000   0.3401
  19.800   0.9455   0.26741   0.26548  -0.1064  0.0086  1.0000  -2.0215   0.0000   0.0000   0.0000   0.3408
  19.900   0.9466   0.26979   0.26787  -0.1072  0.0084  1.0000  -2.0109   0.0000   0.0000   0.0000   0.3414
  20.000   0.9476   0.27216   0.27024  -0.1080  0.0082  1.0000  -2.0020   0.0000   0.0000   0.0000   0.3419
  20.100   0.9487   0.27450   0.27259  -0.1088  0.0079  1.0000  -1.9944   0.0000   0.0000   0.0000   0.3425
  20.200   0.9497   0.27684   0.27492  -0.1096  0.0077  1.0000  -1.9881   0.0000   0.0000   0.0000   0.3431
  20.300   0.9506   0.27915   0.27724  -0.1103  0.0075  1.0000  -1.9828   0.0000   0.0000   0.0000   0.3436
  20.400   0.9515   0.28145   0.27955  -0.1111  0.0074  1.0000  -1.9786   0.0000   0.0000   0.0000   0.3442
  20.500   0.9524   0.28374   0.28184  -0.1118  0.0072  1.0000  -1.9753   0.0000   0.0000   0.0000   0.3447
  20.600   0.9532   0.28601   0.28411  -0.1126  0.0070  1.0000  -1.9728   0.0000   0.0000   0.0000   0.3452
  20.700   0.9540   0.28826   0.28637  -0.1133  0.0069  1.0000  -1.9711   0.0000   0.0000   0.0000   0.3458
  20.800   0.9547   0.29050   0.28861  -0.1140  0.0067  1.0000  -1.9702   0.0000   0.0000   0.0000   0.3463
  20.900   0.9553   0.29272   0.29084  -0.1147  0.0066  1.0000  -1.9700   0.0000   0.0000   0.0000   0.3468
  21.000   0.9559   0.29492   0.29304  -0.1154  0.0064  1.0000  -1.9703   0.0000   0.0000   0.0000   0.3473
  21.100   0.9563   0.29710   0.29523  -0.1161  0.0063  1.0000  -1.9712   0.0000   0.0000   0.0000   0.3478
  21.200   0.9567   0.29927   0.29740  -0.1167  0.0062  1.0000  -1.9727   0.0000   0.0000   0.0000   0.3483
  21.300   0.9570   0.30140   0.29954  -0.1174  0.0061  1.0000  -1.9745   0.0000   0.0000   0.0000   0.3488
  21.400   0.9572   0.30352   0.30166  -0.1180  0.0060  1.0000  -1.9768   0.0000   0.0000   0.0000   0.3493
  21.500   0.9572   0.30560   0.30375  -0.1187  0.0059  1.0000  -1.9793   0.0000   0.0000   0.0000   0.3498
  21.600   0.9571   0.30765   0.30581  -0.1193  0.0058  1.0000  -1.9821   0.0000   0.0000   0.0000   0.3503
  21.700   0.9568   0.30966   0.30782  -0.1198  0.0057  1.0000  -1.9850   0.0000   0.0000   0.0000   0.3508
  21.800   0.9563   0.31163   0.30980  -0.1204  0.0056  1.0000  -1.9879   0.0000   0.0000   0.0000   0.3513
  21.900   0.9556   0.31355   0.31172  -0.1209  0.0055  1.0000  -1.9906   0.0000   0.0000   0.0000   0.3518
  22.000   0.9553   0.31503   0.31325  -0.1214  0.0053  1.0000  -2.0259   0.0000   0.0000   0.0000   0.3521
  22.100   0.9542   0.31670   0.31492  -0.1219  0.0052  1.0000  -2.0376   0.0000   0.0000   0.0000   0.3526
  22.200   0.9526   0.31832   0.31656  -0.1223  0.0051  1.0000  -2.0438   0.0000   0.0000   0.0000   0.3531
  22.300   0.9504   0.31984   0.31808  -0.1226  0.0050  1.0000  -2.0466   0.0000   0.0000   0.0000   0.3537
  22.500   0.8916   0.31018   0.30852  -0.1182  0.0052  1.0000  -1.7957   0.0000   0.0000   0.0000   0.3581
  22.600   0.8869   0.31009   0.30845  -0.1182  0.0051  1.0000  -1.7862   0.0000   0.0000   0.0000   0.3588
  22.700   0.8829   0.31013   0.30850  -0.1183  0.0050  1.0000  -1.7799   0.0000   0.0000   0.0000   0.3595
  22.800   0.8795   0.31024   0.30862  -0.1185  0.0050  1.0000  -1.7758   0.0000   0.0000   0.0000   0.3601
  22.900   0.8764   0.31040   0.30879  -0.1186  0.0049  1.0000  -1.7737   0.0000   0.0000   0.0000   0.3606
  23.000   0.8737   0.31061   0.30902  -0.1188  0.0049  1.0000  -1.7733   0.0000   0.0000   0.0000   0.3612
  23.100   0.8712   0.31086   0.30927  -0.1190  0.0048  1.0000  -1.7744   0.0000   0.0000   0.0000   0.3617
  23.200   0.8690   0.31113   0.30955  -0.1192  0.0047  1.0000  -1.7767   0.0000   0.0000   0.0000   0.3622
  23.300   0.8669   0.31142   0.30985  -0.1194  0.0047  1.0000  -1.7802   0.0000   0.0000   0.0000   0.3626
  23.400   0.8650   0.31172   0.31016  -0.1197  0.0046  1.0000  -1.7848   0.0000   0.0000   0.0000   0.3631
  23.500   0.8633   0.31204   0.31048  -0.1199  0.0046  1.0000  -1.7902   0.0000   0.0000   0.0000   0.3635
  23.600   0.8616   0.31239   0.31084  -0.1202  0.0045  1.0000  -1.7935   0.0000   0.0000   0.0000   0.3639
  23.700   0.8598   0.31278   0.31124  -0.1204  0.0045  1.0000  -1.7933   0.0000   0.0000   0.0000   0.3644
  23.800   0.8582   0.31318   0.31166  -0.1207  0.0044  1.0000  -1.7929   0.0000   0.0000   0.0000   0.3649
  23.900   0.8566   0.31360   0.31208  -0.1210  0.0044  1.0000  -1.7917   0.0000   0.0000   0.0000   0.3654
  24.000   0.8549   0.31405   0.31254  -0.1213  0.0043  1.0000  -1.7879   0.0000   0.0000   0.0000   0.3659
  24.100   0.8532   0.31451   0.31301  -0.1216  0.0042  1.0000  -1.7817   0.0000   0.0000   0.0000   0.3663
  24.200   0.8515   0.31499   0.31350  -0.1219  0.0042  1.0000  -1.7713   0.0000   0.0000   0.0000   0.3669
  24.300   0.8495   0.31551   0.31403  -0.1221  0.0041  1.0000  -1.7536   0.0000   0.0000   0.0000   0.3674
  24.400   0.8470   0.31611   0.31463  -0.1224  0.0040  1.0000  -1.7194   0.0000   0.0000   0.0000   0.3680
  24.500   0.8343   0.31810   0.31661  -0.1221  0.0037  1.0000  -1.3841   0.0000   0.0000   0.0000   0.3704
  24.600   0.8335   0.31872   0.31723  -0.1225  0.0037  1.0000  -1.3738   0.0000   0.0000   0.0000   0.3708
  24.700   0.8326   0.31934   0.31786  -0.1229  0.0037  1.0000  -1.3637   0.0000   0.0000   0.0000   0.3713
  24.800   0.8318   0.31996   0.31849  -0.1232  0.0037  1.0000  -1.3539   0.0000   0.0000   0.0000   0.3717
  24.900   0.8311   0.32059   0.31913  -0.1236  0.0037  1.0000  -1.3443   0.0000   0.0000   0.0000   0.3722
  25.000   0.8304   0.32122   0.31976  -0.1239  0.0037  1.0000  -1.3350   0.0000   0.0000   0.0000   0.3726
  25.100   0.8297   0.32186   0.32041  -0.1243  0.0037  1.0000  -1.3258   0.0000   0.0000   0.0000   0.3730
  25.200   0.8291   0.32250   0.32105  -0.1247  0.0037  1.0000  -1.3169   0.0000   0.0000   0.0000   0.3735
  25.300   0.8285   0.32314   0.32170  -0.1251  0.0037  1.0000  -1.3081   0.0000   0.0000   0.0000   0.3739
  25.400   0.8279   0.32378   0.32235  -0.1254  0.0037  1.0000  -1.2994   0.0000   0.0000   0.0000   0.3743
  25.500   0.8273   0.32443   0.32300  -0.1258  0.0036  1.0000  -1.2909   0.0000   0.0000   0.0000   0.3747
  25.600   0.8268   0.32508   0.32366  -0.1262  0.0036  1.0000  -1.2826   0.0000   0.0000   0.0000   0.3751
  25.700   0.8263   0.32573   0.32432  -0.1266  0.0036  1.0000  -1.2745   0.0000   0.0000   0.0000   0.3755
  25.800   0.8258   0.32638   0.32498  -0.1270  0.0036  1.0000  -1.2665   0.0000   0.0000   0.0000   0.3759
  25.900   0.8254   0.32704   0.32564  -0.1274  0.0036  1.0000  -1.2587   0.0000   0.0000   0.0000   0.3763
  26.000   0.8250   0.32769   0.32630  -0.1278  0.0036  1.0000  -1.2510   0.0000   0.0000   0.0000   0.3767
  26.100   0.8246   0.32835   0.32697  -0.1281  0.0036  1.0000  -1.2435   0.0000   0.0000   0.0000   0.3771
  26.200   0.8242   0.32901   0.32763  -0.1285  0.0036  1.0000  -1.2362   0.0000   0.0000   0.0000   0.3775
  26.300   0.8238   0.32968   0.32830  -0.1289  0.0036  1.0000  -1.2290   0.0000   0.0000   0.0000   0.3779
  26.400   0.8234   0.33034   0.32897  -0.1293  0.0036  1.0000  -1.2219   0.0000   0.0000   0.0000   0.3783
  26.500   0.8231   0.33100   0.32964  -0.1297  0.0036  1.0000  -1.2149   0.0000   0.0000   0.0000   0.3787
  26.600   0.8228   0.33167   0.33032  -0.1301  0.0036  1.0000  -1.2080   0.0000   0.0000   0.0000   0.3790
  26.700   0.8225   0.33234   0.33099  -0.1305  0.0036  1.0000  -1.2010   0.0000   0.0000   0.0000   0.3794
  26.800   0.8222   0.33301   0.33167  -0.1309  0.0036  1.0000  -1.1941   0.0000   0.0000   0.0000   0.3798
  26.900   0.8219   0.33369   0.33235  -0.1313  0.0036  1.0000  -1.1872   0.0000   0.0000   0.0000   0.3802
  27.000   0.8217   0.33437   0.33304  -0.1318  0.0036  1.0000  -1.1803   0.0000   0.0000   0.0000   0.3806
  27.100   0.8214   0.33505   0.33372  -0.1322  0.0036  1.0000  -1.1735   0.0000   0.0000   0.0000   0.3810
  27.200   0.8212   0.33573   0.33441  -0.1326  0.0036  1.0000  -1.1667   0.0000   0.0000   0.0000   0.3813
  27.300   0.8210   0.33641   0.33510  -0.1330  0.0036  1.0000  -1.1599   0.0000   0.0000   0.0000   0.3817
  27.400   0.8208   0.33710   0.33579  -0.1334  0.0036  1.0000  -1.1533   0.0000   0.0000   0.0000   0.3821
  27.500   0.8206   0.33778   0.33648  -0.1339  0.0036  1.0000  -1.1468   0.0000   0.0000   0.0000   0.3825
  27.600   0.8204   0.33847   0.33717  -0.1343  0.0036  1.0000  -1.1404   0.0000   0.0000   0.0000   0.3828
  27.700   0.8202   0.33915   0.33786  -0.1347  0.0036  1.0000  -1.1343   0.0000   0.0000   0.0000   0.3832
  27.800   0.8200   0.33983   0.33855  -0.1351  0.0036  1.0000  -1.1283   0.0000   0.0000   0.0000   0.3836
  27.900   0.8199   0.34052   0.33924  -0.1356  0.0036  1.0000  -1.1226   0.0000   0.0000   0.0000   0.3839
  28.000   0.8197   0.34120   0.33993  -0.1360  0.0036  1.0000  -1.1169   0.0000   0.0000   0.0000   0.3843
  28.100   0.8196   0.34188   0.34062  -0.1364  0.0036  1.0000  -1.1113   0.0000   0.0000   0.0000   0.3846
  28.200   0.8194   0.34257   0.34131  -0.1368  0.0036  1.0000  -1.1057   0.0000   0.0000   0.0000   0.3850
  28.300   0.8193   0.34326   0.34200  -0.1372  0.0036  1.0000  -1.1001   0.0000   0.0000   0.0000   0.3853
  28.400   0.8191   0.34395   0.34270  -0.1377  0.0036  1.0000  -1.0945   0.0000   0.0000   0.0000   0.3857
  28.500   0.8190   0.34464   0.34339  -0.1381  0.0036  1.0000  -1.0890   0.0000   0.0000   0.0000   0.3860
  28.600   0.8189   0.34533   0.34409  -0.1385  0.0036  1.0000  -1.0834   0.0000   0.0000   0.0000   0.3864
  28.700   0.8188   0.34603   0.34479  -0.1390  0.0036  1.0000  -1.0778   0.0000   0.0000   0.0000   0.3867


