xflr5 v6.61

 Calculated polar for: S3021-095-84

 1 1 Reynolds number fixed          Mach number fixed         

 xtrf =   1.000 (top)        1.000 (bottom)
 Mach =   0.000     Re =     0.719 e 6     Ncrit =   9.000

  alpha     CL        CD       CDp       Cm    Top Xtr Bot Xtr   Cpmin    Chinge    XCp    
 ------- -------- --------- --------- -------- ------- ------- -------- --------- ---------
  -9.300  -0.3953   0.09452   0.09258  -0.0239  1.0000  0.0103  -2.1753   0.0000   0.0000   0.0000   0.1830
  -9.200  -0.3993   0.09206   0.09013  -0.0249  1.0000  0.0105  -2.2734   0.0000   0.0000   0.0000   0.1813
  -9.100  -0.4010   0.09015   0.08823  -0.0256  1.0000  0.0107  -2.3229   0.0000   0.0000   0.0000   0.1798
  -9.000  -0.4016   0.08847   0.08656  -0.0263  1.0000  0.0108  -2.3503   0.0000   0.0000   0.0000   0.1782
  -8.900  -0.4017   0.08695   0.08504  -0.0270  1.0000  0.0109  -2.3657   0.0000   0.0000   0.0000   0.1767
  -8.800  -0.4015   0.08550   0.08361  -0.0276  1.0000  0.0111  -2.3745   0.0000   0.0000   0.0000   0.1752
  -8.700  -0.4011   0.08412   0.08223  -0.0282  1.0000  0.0112  -2.3798   0.0000   0.0000   0.0000   0.1738
  -8.600  -0.4008   0.08276   0.08088  -0.0288  1.0000  0.0113  -2.3838   0.0000   0.0000   0.0000   0.1723
  -8.500  -0.4005   0.08142   0.07955  -0.0294  1.0000  0.0114  -2.3879   0.0000   0.0000   0.0000   0.1709
  -8.400  -0.4004   0.08008   0.07822  -0.0300  1.0000  0.0115  -2.3928   0.0000   0.0000   0.0000   0.1695
  -8.300  -0.4004   0.07874   0.07689  -0.0306  1.0000  0.0116  -2.3989   0.0000   0.0000   0.0000   0.1680
  -8.200  -0.4007   0.07739   0.07555  -0.0313  1.0000  0.0116  -2.4072   0.0000   0.0000   0.0000   0.1666
  -8.100  -0.4015   0.07604   0.07422  -0.0319  1.0000  0.0117  -2.4183   0.0000   0.0000   0.0000   0.1654
  -8.000  -0.4028   0.07469   0.07288  -0.0325  1.0000  0.0118  -2.4330   0.0000   0.0000   0.0000   0.1643
  -7.900  -0.4051   0.07335   0.07156  -0.0330  1.0000  0.0118  -2.4525   0.0000   0.0000   0.0000   0.1636
  -7.800  -0.4088   0.07204   0.07027  -0.0334  1.0000  0.0118  -2.4786   0.0000   0.0000   0.0000   0.1635
  -7.700  -0.4127   0.07064   0.06889  -0.0340  1.0000  0.0118  -2.5088   0.0000   0.0000   0.0000   0.1629
  -7.600  -0.4141   0.06900   0.06726  -0.0353  1.0000  0.0119  -2.5358   0.0000   0.0000   0.0000   0.1602
  -7.500  -0.4154   0.06733   0.06560  -0.0365  1.0000  0.0119  -2.5637   0.0000   0.0000   0.0000   0.1577
  -7.400  -0.4169   0.06567   0.06394  -0.0375  1.0000  0.0119  -2.5925   0.0000   0.0000   0.0000   0.1557
  -7.300  -0.4185   0.06403   0.06230  -0.0383  1.0000  0.0120  -2.6216   0.0000   0.0000   0.0000   0.1542
  -7.200  -0.4206   0.06245   0.06072  -0.0389  1.0000  0.0120  -2.6507   0.0000   0.0000   0.0000   0.1536
  -7.100  -0.4122   0.05989   0.05813  -0.0424  0.9983  0.0121  -2.6666   0.0000   0.0000   0.0000   0.1432
  -7.000  -0.4017   0.05737   0.05558  -0.0459  0.9961  0.0123  -2.6682   0.0000   0.0000   0.0000   0.1316
  -6.900  -0.3917   0.05505   0.05321  -0.0490  0.9936  0.0124  -2.6634   0.0000   0.0000   0.0000   0.1209
  -6.800  -0.3812   0.05277   0.05089  -0.0519  0.9913  0.0126  -2.6555   0.0000   0.0000   0.0000   0.1097
  -6.700  -0.3700   0.05055   0.04861  -0.0547  0.9893  0.0128  -2.6445   0.0000   0.0000   0.0000   0.0979
  -6.600  -0.3584   0.04836   0.04637  -0.0575  0.9876  0.0130  -2.6309   0.0000   0.0000   0.0000   0.0854
  -6.500  -0.3477   0.04634   0.04429  -0.0597  0.9853  0.0133  -2.6168   0.0000   0.0000   0.0000   0.0740
  -6.400  -0.3380   0.04447   0.04236  -0.0614  0.9815  0.0135  -2.6031   0.0000   0.0000   0.0000   0.0641
  -6.300  -0.3277   0.04264   0.04046  -0.0631  0.9777  0.0138  -2.5863   0.0000   0.0000   0.0000   0.0531
  -6.200  -0.3164   0.04081   0.03856  -0.0648  0.9745  0.0141  -2.5671   0.0000   0.0000   0.0000   0.0406
  -6.100  -0.3044   0.03904   0.03670  -0.0666  0.9715  0.0144  -2.5452   0.0000   0.0000   0.0000   0.0267
  -6.000  -0.2969   0.03762   0.03520  -0.0670  0.9645  0.0148  -2.5296   0.0000   0.0000   0.0000   0.0197
  -5.900  -0.2875   0.03613   0.03363  -0.0678  0.9578  0.0151  -2.5103   0.0000   0.0000   0.0000   0.0096
  -5.800  -0.2771   0.03467   0.03208  -0.0686  0.9519  0.0156  -2.4880   0.0000   0.0000   0.0000  -0.0025
  -5.700  -0.2690   0.03341   0.03072  -0.0688  0.9440  0.0160  -2.4683   0.0000   0.0000   0.0000  -0.0107
  -5.600  -0.2608   0.03220   0.02943  -0.0688  0.9345  0.0165  -2.4479   0.0000   0.0000   0.0000  -0.0189
  -5.500  -0.2521   0.03104   0.02816  -0.0689  0.9256  0.0171  -2.4252   0.0000   0.0000   0.0000  -0.0283
  -5.400  -0.2441   0.03001   0.02703  -0.0687  0.9165  0.0176  -2.4019   0.0000   0.0000   0.0000  -0.0364
  -5.300  -0.2361   0.02908   0.02598  -0.0684  0.9067  0.0183  -2.3759   0.0000   0.0000   0.0000  -0.0449
  -5.200  -0.2277   0.02825   0.02505  -0.0680  0.8974  0.0190  -2.3455   0.0000   0.0000   0.0000  -0.0541
  -5.100  -0.2187   0.02758   0.02429  -0.0677  0.8892  0.0198  -2.3077   0.0000   0.0000   0.0000  -0.0650
  -5.000  -0.2090   0.02718   0.02381  -0.0674  0.8811  0.0207  -2.2560   0.0000   0.0000   0.0000  -0.0780
  -4.900  -0.1980   0.02733   0.02392  -0.0670  0.8728  0.0217  -2.1750   0.0000   0.0000   0.0000  -0.0941
  -4.800  -0.1848   0.02861   0.02517  -0.0666  0.8643  0.0227  -2.0407   0.0000   0.0000   0.0000  -0.1164
  -4.700  -0.1750   0.02850   0.02496  -0.0663  0.8564  0.0229  -1.9827   0.0000   0.0000   0.0000  -0.1349
  -4.600  -0.1659   0.02790   0.02427  -0.0660  0.8499  0.0230  -1.9472   0.0000   0.0000   0.0000  -0.1541
  -4.300  -0.1527   0.01992   0.01553  -0.0647  0.8276  0.0262  -2.1336   0.0000   0.0000   0.0000  -0.1807
  -4.200  -0.1439   0.01940   0.01493  -0.0645  0.8193  0.0272  -2.0633   0.0000   0.0000   0.0000  -0.2054
  -4.100  -0.1342   0.01901   0.01452  -0.0644  0.8147  0.0283  -1.9867   0.0000   0.0000   0.0000  -0.2373
  -4.000  -0.1243   0.01869   0.01418  -0.0643  0.8091  0.0294  -1.9084   0.0000   0.0000   0.0000  -0.2748
  -3.900  -0.1145   0.01838   0.01383  -0.0642  0.8030  0.0307  -1.8356   0.0000   0.0000   0.0000  -0.3184
  -3.800  -0.1046   0.01806   0.01344  -0.0640  0.7968  0.0321  -1.7690   0.0000   0.0000   0.0000  -0.3700
  -3.700  -0.0947   0.01724   0.01233  -0.0635  0.7908  0.0316  -1.7597   0.0000   0.0000   0.0000  -0.4295
  -3.600  -0.0847   0.01713   0.01217  -0.0634  0.7841  0.0338  -1.6837   0.0000   0.0000   0.0000  -0.5081
  -3.500  -0.0740   0.01714   0.01215  -0.0632  0.7772  0.0366  -1.6089   0.0000   0.0000   0.0000  -0.6148
  -3.400  -0.0618   0.01780   0.01285  -0.0632  0.7744  0.0398  -1.5120   0.0000   0.0000   0.0000  -0.7850
  -3.300  -0.0476   0.01976   0.01488  -0.0631  0.7706  0.0416  -1.3804   0.0000   0.0000   0.0000  -1.0913
  -3.200  -0.0443   0.01537   0.01016  -0.0628  0.7674  0.0476  -1.4592   0.0000   0.0000   0.0000  -1.1848
  -3.100  -0.0342   0.01517   0.00998  -0.0628  0.7631  0.0507  -1.3833   0.0000   0.0000   0.0000  -1.6036
  -3.000  -0.0239   0.01508   0.00992  -0.0628  0.7585  0.0544  -1.3101   0.0000   0.0000   0.0000  -2.4026
  -2.900  -0.0131   0.01517   0.01001  -0.0627  0.7536  0.0592  -1.2411   0.0000   0.0000   0.0000  -4.5717
  -2.800  -0.0005   0.01641   0.01130  -0.0625  0.7479  0.0642  -1.1475   0.0000   0.0000   0.0000  -123.0490
  -2.200   0.0636   0.00980   0.00367  -0.0588  0.7242  0.0282  -1.3009   0.0000   0.0000   0.0000   1.1813
  -2.100   0.0752   0.00982   0.00367  -0.0587  0.7205  0.0250  -1.2472   0.0000   0.0000   0.0000   1.0353
  -2.000   0.0863   0.00970   0.00352  -0.0584  0.7167  0.0225  -1.2097   0.0000   0.0000   0.0000   0.9310
  -1.900   0.0961   0.00914   0.00285  -0.0579  0.7130  0.0207  -1.2165   0.0000   0.0000   0.0000   0.8560
  -1.800   0.1066   0.00888   0.00249  -0.0576  0.7090  0.0194  -1.1938   0.0000   0.0000   0.0000   0.7928
  -1.700   0.1173   0.00871   0.00223  -0.0573  0.7048  0.0183  -1.1616   0.0000   0.0000   0.0000   0.7407
  -1.600   0.1281   0.00859   0.00202  -0.0570  0.7000  0.0174  -1.1242   0.0000   0.0000   0.0000   0.6974
  -1.500   0.1389   0.00851   0.00187  -0.0568  0.6943  0.0167  -1.0820   0.0000   0.0000   0.0000   0.6608
  -1.400   0.1498   0.00846   0.00174  -0.0567  0.6881  0.0161  -1.0334   0.0000   0.0000   0.0000   0.6296
  -1.300   0.1609   0.00840   0.00164  -0.0566  0.6848  0.0157  -0.9786   0.0000   0.0000   0.0000   0.6025
  -1.200   0.1721   0.00833   0.00154  -0.0565  0.6829  0.0153  -0.9207   0.0000   0.0000   0.0000   0.5790
  -1.100   0.1833   0.00828   0.00146  -0.0564  0.6806  0.0150  -0.8616   0.0000   0.0000   0.0000   0.5584
  -1.000   0.1945   0.00823   0.00139  -0.0564  0.6778  0.0148  -0.8023   0.0000   0.0000   0.0000   0.5402
  -0.900   0.2056   0.00820   0.00132  -0.0563  0.6746  0.0146  -0.7432   0.0000   0.0000   0.0000   0.5240
  -0.800   0.2167   0.00818   0.00126  -0.0562  0.6711  0.0146  -0.6845   0.0000   0.0000   0.0000   0.5094
  -0.700   0.2278   0.00816   0.00121  -0.0562  0.6672  0.0146  -0.6264   0.0000   0.0000   0.0000   0.4963
  -0.600   0.2388   0.00815   0.00116  -0.0561  0.6628  0.0147  -0.5690   0.0000   0.0000   0.0000   0.4845
  -0.500   0.2497   0.00814   0.00112  -0.0560  0.6582  0.0150  -0.5319   0.0000   0.0000   0.0000   0.4737
  -0.400   0.2605   0.00814   0.00108  -0.0559  0.6531  0.0156  -0.5409   0.0000   0.0000   0.0000   0.4638
  -0.300   0.2714   0.00815   0.00105  -0.0558  0.6475  0.0165  -0.5499   0.0000   0.0000   0.0000   0.4548
  -0.200   0.2823   0.00816   0.00104  -0.0557  0.6420  0.0183  -0.5600   0.0000   0.0000   0.0000   0.4464
  -0.100   0.2934   0.00817   0.00107  -0.0557  0.6371  0.0204  -0.5704   0.0000   0.0000   0.0000   0.4388
   0.000   0.3046   0.00814   0.00109  -0.0557  0.6358  0.0223  -0.5810   0.0000   0.0000   0.0000   0.4316
   0.100   0.3143   0.00773   0.00107  -0.0555  0.6342  0.1368  -0.5904   0.0000   0.0000   0.0000   0.4256
   0.200   0.3243   0.00744   0.00108  -0.0555  0.6320  0.2213  -0.6003   0.0000   0.0000   0.0000   0.4199
   0.300   0.3336   0.00707   0.00110  -0.0554  0.6293  0.3404  -0.6098   0.0000   0.0000   0.0000   0.4146
   0.400   0.3347   0.00586   0.00123  -0.0537  0.6266  0.7365  -0.6146   0.0000   0.0000   0.0000   0.4091
   0.500   0.3413   0.00559   0.00127  -0.0526  0.6232  0.8320  -0.6229   0.0000   0.0000   0.0000   0.4026
   0.600   0.3713   0.00545   0.00140  -0.0561  0.6187  0.9802  -0.6450   0.0000   0.0000   0.0000   0.3994
   0.700   0.4236   0.00547   0.00136  -0.0651  0.6133  1.0000  -0.6820   0.0000   0.0000   0.0000   0.4020
   0.800   0.4336   0.00550   0.00135  -0.0648  0.6092  1.0000  -0.6937   0.0000   0.0000   0.0000   0.3978
   0.900   0.4435   0.00554   0.00135  -0.0646  0.6043  1.0000  -0.7054   0.0000   0.0000   0.0000   0.3938
   1.000   0.4534   0.00558   0.00135  -0.0643  0.5984  1.0000  -0.7170   0.0000   0.0000   0.0000   0.3900
   1.100   0.4633   0.00563   0.00136  -0.0641  0.5918  1.0000  -0.7287   0.0000   0.0000   0.0000   0.3864
   1.200   0.4735   0.00566   0.00136  -0.0639  0.5874  1.0000  -0.7405   0.0000   0.0000   0.0000   0.3829
   1.300   0.4838   0.00566   0.00137  -0.0637  0.5857  1.0000  -0.7526   0.0000   0.0000   0.0000   0.3796
   1.400   0.4942   0.00567   0.00137  -0.0635  0.5835  1.0000  -0.7647   0.0000   0.0000   0.0000   0.3764
   1.500   0.5045   0.00568   0.00138  -0.0634  0.5808  1.0000  -0.7782   0.0000   0.0000   0.0000   0.3733
   1.600   0.5148   0.00570   0.00138  -0.0632  0.5778  1.0000  -0.7922   0.0000   0.0000   0.0000   0.3704
   1.700   0.5250   0.00572   0.00139  -0.0630  0.5744  1.0000  -0.8062   0.0000   0.0000   0.0000   0.3676
   1.800   0.5352   0.00574   0.00140  -0.0628  0.5706  1.0000  -0.8203   0.0000   0.0000   0.0000   0.3648
   1.900   0.5453   0.00578   0.00141  -0.0626  0.5662  1.0000  -0.8343   0.0000   0.0000   0.0000   0.3622
   2.000   0.5553   0.00582   0.00142  -0.0623  0.5610  1.0000  -0.8483   0.0000   0.0000   0.0000   0.3596
   2.100   0.5651   0.00587   0.00143  -0.0621  0.5549  1.0000  -0.8622   0.0000   0.0000   0.0000   0.3571
   2.200   0.5748   0.00593   0.00145  -0.0618  0.5475  1.0000  -0.8760   0.0000   0.0000   0.0000   0.3547
   2.300   0.5846   0.00600   0.00147  -0.0615  0.5397  1.0000  -0.8916   0.0000   0.0000   0.0000   0.3524
   2.400   0.5950   0.00602   0.00149  -0.0614  0.5370  1.0000  -0.9084   0.0000   0.0000   0.0000   0.3502
   2.500   0.6054   0.00603   0.00151  -0.0612  0.5350  1.0000  -0.9254   0.0000   0.0000   0.0000   0.3481
   2.600   0.6158   0.00605   0.00153  -0.0610  0.5325  1.0000  -0.9425   0.0000   0.0000   0.0000   0.3460
   2.700   0.6261   0.00607   0.00155  -0.0609  0.5292  1.0000  -0.9595   0.0000   0.0000   0.0000   0.3440
   2.800   0.6363   0.00610   0.00157  -0.0607  0.5249  1.0000  -0.9766   0.0000   0.0000   0.0000   0.3421
   2.900   0.6463   0.00615   0.00159  -0.0605  0.5194  1.0000  -0.9936   0.0000   0.0000   0.0000   0.3402
   3.000   0.6562   0.00620   0.00162  -0.0602  0.5130  1.0000  -1.0105   0.0000   0.0000   0.0000   0.3383
   3.100   0.6659   0.00627   0.00164  -0.0599  0.5055  1.0000  -1.0297   0.0000   0.0000   0.0000   0.3365
   3.200   0.6755   0.00635   0.00167  -0.0596  0.4969  1.0000  -1.0495   0.0000   0.0000   0.0000   0.3347
   3.300   0.6853   0.00642   0.00171  -0.0594  0.4888  1.0000  -1.0696   0.0000   0.0000   0.0000   0.3330
   3.400   0.6957   0.00644   0.00174  -0.0592  0.4868  1.0000  -1.0905   0.0000   0.0000   0.0000   0.3314
   3.500   0.7061   0.00646   0.00177  -0.0591  0.4839  1.0000  -1.1113   0.0000   0.0000   0.0000   0.3298
   3.600   0.7164   0.00650   0.00180  -0.0589  0.4802  1.0000  -1.1322   0.0000   0.0000   0.0000   0.3283
   3.800   0.7225   0.00772   0.00208  -0.0563  0.3042  1.0000  -1.1596   0.0000   0.0000   0.0000   0.3238
   3.900   0.7290   0.00812   0.00222  -0.0556  0.2590  1.0000  -1.1764   0.0000   0.0000   0.0000   0.3221
   4.000   0.7364   0.00844   0.00234  -0.0551  0.2269  1.0000  -1.1942   0.0000   0.0000   0.0000   0.3205
   4.100   0.7443   0.00872   0.00246  -0.0546  0.1984  1.0000  -1.2166   0.0000   0.0000   0.0000   0.3189
   4.200   0.7517   0.00904   0.00261  -0.0540  0.1679  1.0000  -1.2387   0.0000   0.0000   0.0000   0.3174
   4.300   0.7591   0.00937   0.00276  -0.0535  0.1383  1.0000  -1.2608   0.0000   0.0000   0.0000   0.3159
   4.400   0.7665   0.00972   0.00293  -0.0529  0.1108  1.0000  -1.2830   0.0000   0.0000   0.0000   0.3144
   4.500   0.7740   0.01005   0.00311  -0.0524  0.0863  1.0000  -1.3058   0.0000   0.0000   0.0000   0.3130
   4.600   0.7763   0.01098   0.00363  -0.0511  0.0115  1.0000  -1.3137   0.0000   0.0000   0.0000   0.3110
   4.700   0.7862   0.01107   0.00369  -0.0509  0.0109  1.0000  -1.3418   0.0000   0.0000   0.0000   0.3098
   4.800   0.7962   0.01115   0.00373  -0.0507  0.0103  1.0000  -1.3834   0.0000   0.0000   0.0000   0.3087
   4.900   0.8060   0.01125   0.00379  -0.0505  0.0097  1.0000  -1.4228   0.0000   0.0000   0.0000   0.3076
   5.000   0.8158   0.01135   0.00386  -0.0503  0.0091  1.0000  -1.4585   0.0000   0.0000   0.0000   0.3064
   5.100   0.8259   0.01143   0.00392  -0.0501  0.0082  1.0000  -1.4909   0.0000   0.0000   0.0000   0.3054
   5.200   0.8363   0.01147   0.00398  -0.0500  0.0073  1.0000  -1.5192   0.0000   0.0000   0.0000   0.3044
   5.300   0.8463   0.01155   0.00407  -0.0498  0.0069  1.0000  -1.5471   0.0000   0.0000   0.0000   0.3034
   5.400   0.8562   0.01165   0.00417  -0.0496  0.0065  1.0000  -1.6040   0.0000   0.0000   0.0000   0.3024
   5.500   0.8662   0.01175   0.00427  -0.0494  0.0063  1.0000  -1.6847   0.0000   0.0000   0.0000   0.3014
   5.600   0.8761   0.01186   0.00438  -0.0492  0.0061  1.0000  -1.7668   0.0000   0.0000   0.0000   0.3004
   5.700   0.8860   0.01196   0.00449  -0.0490  0.0060  1.0000  -1.8502   0.0000   0.0000   0.0000   0.2994
   5.800   0.8959   0.01206   0.00460  -0.0488  0.0059  1.0000  -1.9347   0.0000   0.0000   0.0000   0.2985
   5.900   0.9057   0.01217   0.00472  -0.0486  0.0058  1.0000  -2.0203   0.0000   0.0000   0.0000   0.2976
   6.000   0.9156   0.01228   0.00484  -0.0484  0.0058  1.0000  -2.1070   0.0000   0.0000   0.0000   0.2967
   6.100   0.9254   0.01239   0.00497  -0.0482  0.0058  1.0000  -2.1947   0.0000   0.0000   0.0000   0.2958
   6.200   0.9353   0.01250   0.00510  -0.0480  0.0058  1.0000  -2.2836   0.0000   0.0000   0.0000   0.2949
   6.300   0.9451   0.01262   0.00524  -0.0478  0.0058  1.0000  -2.3733   0.0000   0.0000   0.0000   0.2940
   6.400   0.9548   0.01274   0.00539  -0.0475  0.0059  1.0000  -2.4640   0.0000   0.0000   0.0000   0.2931
   6.500   0.9646   0.01286   0.00554  -0.0473  0.0059  1.0000  -2.5553   0.0000   0.0000   0.0000   0.2923
   6.600   0.9742   0.01299   0.00570  -0.0471  0.0060  1.0000  -2.6473   0.0000   0.0000   0.0000   0.2914
   6.700   0.9838   0.01313   0.00587  -0.0468  0.0061  1.0000  -2.7396   0.0000   0.0000   0.0000   0.2906
   6.800   0.9933   0.01328   0.00605  -0.0466  0.0062  1.0000  -2.8323   0.0000   0.0000   0.0000   0.2897
   6.900   1.0028   0.01344   0.00624  -0.0463  0.0064  1.0000  -2.9249   0.0000   0.0000   0.0000   0.2889
   7.000   1.0121   0.01361   0.00645  -0.0460  0.0065  1.0000  -3.0172   0.0000   0.0000   0.0000   0.2880
   7.100   1.0212   0.01379   0.00667  -0.0456  0.0067  1.0000  -3.1082   0.0000   0.0000   0.0000   0.2872
   7.200   1.0303   0.01399   0.00692  -0.0453  0.0069  1.0000  -3.1974   0.0000   0.0000   0.0000   0.2863
   7.300   1.0392   0.01420   0.00718  -0.0449  0.0072  1.0000  -3.2832   0.0000   0.0000   0.0000   0.2855
   7.400   1.0481   0.01442   0.00746  -0.0445  0.0075  1.0000  -3.3632   0.0000   0.0000   0.0000   0.2846
   7.500   1.0567   0.01467   0.00776  -0.0440  0.0079  1.0000  -3.4340   0.0000   0.0000   0.0000   0.2836
   7.600   1.0651   0.01495   0.00810  -0.0435  0.0083  1.0000  -3.4967   0.0000   0.0000   0.0000   0.2827
   7.700   1.0740   0.01513   0.00850  -0.0432  0.0081  1.0000  -3.5700   0.0000   0.0000   0.0000   0.2819
   7.800   1.0823   0.01540   0.00884  -0.0427  0.0083  1.0000  -3.6356   0.0000   0.0000   0.0000   0.2810
   7.900   1.0899   0.01574   0.00925  -0.0420  0.0086  1.0000  -3.6964   0.0000   0.0000   0.0000   0.2801
   8.000   1.0969   0.01613   0.00973  -0.0413  0.0090  1.0000  -3.7515   0.0000   0.0000   0.0000   0.2790
   8.100   1.1031   0.01659   0.01028  -0.0404  0.0094  1.0000  -3.8000   0.0000   0.0000   0.0000   0.2779
   8.200   1.1084   0.01713   0.01092  -0.0394  0.0099  1.0000  -3.8393   0.0000   0.0000   0.0000   0.2766
   8.300   1.1124   0.01778   0.01168  -0.0382  0.0104  1.0000  -3.8646   0.0000   0.0000   0.0000   0.2753
   8.400   1.1143   0.01865   0.01265  -0.0366  0.0109  1.0000  -3.8673   0.0000   0.0000   0.0000   0.2737
   8.500   1.1099   0.02028   0.01443  -0.0342  0.0118  1.0000  -3.7834   0.0000   0.0000   0.0000   0.2715
   8.600   1.1229   0.01995   0.01408  -0.0343  0.0125  1.0000  -3.9196   0.0000   0.0000   0.0000   0.2711
   8.700   1.1340   0.01987   0.01400  -0.0342  0.0135  1.0000  -4.0333   0.0000   0.0000   0.0000   0.2706
   8.800   1.1374   0.02132   0.01574  -0.0320  0.0189  1.0000  -3.9134   0.0000   0.0000   0.0000   0.2685
  15.200   0.8807   0.16781   0.16592  -0.0642  0.0234  1.0000  -2.2961   0.0000   0.0000   0.0000   0.3066
  15.300   0.8811   0.17024   0.16835  -0.0654  0.0233  1.0000  -2.2700   0.0000   0.0000   0.0000   0.3079
  15.400   0.8819   0.17253   0.17064  -0.0666  0.0233  1.0000  -2.2504   0.0000   0.0000   0.0000   0.3091
  15.500   0.8836   0.17455   0.17266  -0.0677  0.0231  1.0000  -2.2428   0.0000   0.0000   0.0000   0.3101
  15.600   0.8899   0.17518   0.17329  -0.0683  0.0226  1.0000  -2.3011   0.0000   0.0000   0.0000   0.3101
  15.700   0.8978   0.17554   0.17366  -0.0687  0.0211  1.0000  -2.3763   0.0000   0.0000   0.0000   0.3097
  15.800   0.9002   0.17749   0.17560  -0.0697  0.0202  1.0000  -2.3755   0.0000   0.0000   0.0000   0.3105
  15.900   0.9014   0.17967   0.17778  -0.0708  0.0194  1.0000  -2.3634   0.0000   0.0000   0.0000   0.3115
  16.000   0.9024   0.18188   0.17999  -0.0719  0.0187  1.0000  -2.3511   0.0000   0.0000   0.0000   0.3125
  16.100   0.9033   0.18405   0.18216  -0.0729  0.0180  1.0000  -2.3414   0.0000   0.0000   0.0000   0.3135
  16.200   0.9043   0.18612   0.18423  -0.0740  0.0174  1.0000  -2.3378   0.0000   0.0000   0.0000   0.3144
  16.300   0.9056   0.18807   0.18618  -0.0749  0.0168  1.0000  -2.3411   0.0000   0.0000   0.0000   0.3153
  16.400   0.9070   0.18990   0.18801  -0.0758  0.0163  1.0000  -2.3517   0.0000   0.0000   0.0000   0.3160
  16.500   0.9087   0.19163   0.18974  -0.0767  0.0158  1.0000  -2.3684   0.0000   0.0000   0.0000   0.3166
  16.600   0.9106   0.19323   0.19134  -0.0774  0.0154  1.0000  -2.3930   0.0000   0.0000   0.0000   0.3171
  16.700   0.9127   0.19468   0.19280  -0.0782  0.0149  1.0000  -2.4265   0.0000   0.0000   0.0000   0.3176
  16.800   0.9151   0.19597   0.19409  -0.0788  0.0145  1.0000  -2.4700   0.0000   0.0000   0.0000   0.3179
  16.900   0.9179   0.19708   0.19519  -0.0794  0.0142  1.0000  -2.5250   0.0000   0.0000   0.0000   0.3180
  17.000   0.9210   0.19796   0.19608  -0.0798  0.0138  1.0000  -2.5936   0.0000   0.0000   0.0000   0.3180
  17.100   0.9232   0.19923   0.19736  -0.0805  0.0135  1.0000  -2.6418   0.0000   0.0000   0.0000   0.3183
  17.200   0.9251   0.20067   0.19880  -0.0812  0.0132  1.0000  -2.6819   0.0000   0.0000   0.0000   0.3187
  17.300   0.9264   0.20227   0.20040  -0.0819  0.0128  1.0000  -2.7138   0.0000   0.0000   0.0000   0.3192
  17.400   0.9257   0.20468   0.20281  -0.0830  0.0124  1.0000  -2.7009   0.0000   0.0000   0.0000   0.3203
  17.500   0.9068   0.21617   0.21425  -0.0866  0.0115  1.0000  -2.1970   0.0000   0.0000   0.0000   0.3266
  17.600   0.9081   0.21856   0.21664  -0.0876  0.0115  1.0000  -2.1792   0.0000   0.0000   0.0000   0.3274
  17.700   0.9095   0.22093   0.21901  -0.0885  0.0115  1.0000  -2.1625   0.0000   0.0000   0.0000   0.3282
  17.800   0.9109   0.22329   0.22137  -0.0894  0.0115  1.0000  -2.1470   0.0000   0.0000   0.0000   0.3289
  17.900   0.9124   0.22563   0.22371  -0.0903  0.0115  1.0000  -2.1326   0.0000   0.0000   0.0000   0.3297
  18.000   0.9138   0.22794   0.22602  -0.0912  0.0114  1.0000  -2.1195   0.0000   0.0000   0.0000   0.3304
  18.100   0.9154   0.23024   0.22832  -0.0921  0.0114  1.0000  -2.1079   0.0000   0.0000   0.0000   0.3311
  18.200   0.9170   0.23250   0.23058  -0.0930  0.0114  1.0000  -2.0980   0.0000   0.0000   0.0000   0.3318
  18.300   0.9187   0.23472   0.23280  -0.0939  0.0113  1.0000  -2.0905   0.0000   0.0000   0.0000   0.3324
  18.400   0.9205   0.23687   0.23495  -0.0948  0.0113  1.0000  -2.0865   0.0000   0.0000   0.0000   0.3330
  18.500   0.9226   0.23889   0.23698  -0.0956  0.0112  1.0000  -2.0889   0.0000   0.0000   0.0000   0.3336
  18.600   0.9253   0.24063   0.23872  -0.0965  0.0111  1.0000  -2.1051   0.0000   0.0000   0.0000   0.3340
  18.700   0.9289   0.24202   0.24012  -0.0972  0.0107  1.0000  -2.1389   0.0000   0.0000   0.0000   0.3343
  18.800   0.9322   0.24368   0.24178  -0.0980  0.0103  1.0000  -2.1594   0.0000   0.0000   0.0000   0.3346
  18.900   0.9346   0.24571   0.24381  -0.0988  0.0100  1.0000  -2.1612   0.0000   0.0000   0.0000   0.3350
  19.000   0.9363   0.24801   0.24612  -0.0997  0.0096  1.0000  -2.1490   0.0000   0.0000   0.0000   0.3357
  19.100   0.9377   0.25045   0.24855  -0.1006  0.0093  1.0000  -2.1310   0.0000   0.0000   0.0000   0.3364
  19.200   0.9391   0.25288   0.25099  -0.1015  0.0090  1.0000  -2.1144   0.0000   0.0000   0.0000   0.3371
  19.300   0.9403   0.25530   0.25341  -0.1024  0.0088  1.0000  -2.0998   0.0000   0.0000   0.0000   0.3377
  19.400   0.9416   0.25770   0.25581  -0.1032  0.0085  1.0000  -2.0872   0.0000   0.0000   0.0000   0.3384
  19.500   0.9428   0.26008   0.25819  -0.1041  0.0083  1.0000  -2.0766   0.0000   0.0000   0.0000   0.3390
  19.600   0.9440   0.26243   0.26055  -0.1049  0.0080  1.0000  -2.0678   0.0000   0.0000   0.0000   0.3396
  19.700   0.9452   0.26477   0.26289  -0.1057  0.0078  1.0000  -2.0605   0.0000   0.0000   0.0000   0.3402
  19.800   0.9464   0.26709   0.26521  -0.1065  0.0076  1.0000  -2.0548   0.0000   0.0000   0.0000   0.3408
  19.900   0.9475   0.26940   0.26752  -0.1073  0.0074  1.0000  -2.0503   0.0000   0.0000   0.0000   0.3414
  20.000   0.9486   0.27169   0.26982  -0.1081  0.0072  1.0000  -2.0470   0.0000   0.0000   0.0000   0.3419
  20.100   0.9497   0.27397   0.27209  -0.1089  0.0071  1.0000  -2.0449   0.0000   0.0000   0.0000   0.3424
  20.200   0.9507   0.27623   0.27436  -0.1097  0.0069  1.0000  -2.0440   0.0000   0.0000   0.0000   0.3430
  20.300   0.9518   0.27847   0.27660  -0.1104  0.0067  1.0000  -2.0441   0.0000   0.0000   0.0000   0.3435
  20.400   0.9528   0.28070   0.27884  -0.1112  0.0066  1.0000  -2.0452   0.0000   0.0000   0.0000   0.3440
  20.500   0.9537   0.28292   0.28106  -0.1119  0.0064  1.0000  -2.0472   0.0000   0.0000   0.0000   0.3445
  20.600   0.9546   0.28512   0.28326  -0.1126  0.0063  1.0000  -2.0500   0.0000   0.0000   0.0000   0.3450
  20.700   0.9554   0.28730   0.28545  -0.1133  0.0062  1.0000  -2.0537   0.0000   0.0000   0.0000   0.3455
  20.800   0.9562   0.28947   0.28762  -0.1140  0.0061  1.0000  -2.0583   0.0000   0.0000   0.0000   0.3460
  20.900   0.9570   0.29162   0.28978  -0.1147  0.0059  1.0000  -2.0636   0.0000   0.0000   0.0000   0.3465
  21.000   0.9576   0.29375   0.29191  -0.1154  0.0058  1.0000  -2.0698   0.0000   0.0000   0.0000   0.3470
  21.100   0.9582   0.29586   0.29403  -0.1161  0.0057  1.0000  -2.0766   0.0000   0.0000   0.0000   0.3474
  21.200   0.9588   0.29795   0.29612  -0.1167  0.0056  1.0000  -2.0842   0.0000   0.0000   0.0000   0.3479
  21.300   0.9592   0.30001   0.29819  -0.1174  0.0055  1.0000  -2.0925   0.0000   0.0000   0.0000   0.3484
  21.400   0.9595   0.30205   0.30023  -0.1180  0.0054  1.0000  -2.1014   0.0000   0.0000   0.0000   0.3488
  21.500   0.9597   0.30406   0.30225  -0.1186  0.0053  1.0000  -2.1108   0.0000   0.0000   0.0000   0.3493
  21.600   0.9598   0.30604   0.30423  -0.1192  0.0052  1.0000  -2.1207   0.0000   0.0000   0.0000   0.3497
  21.700   0.9598   0.30798   0.30618  -0.1198  0.0052  1.0000  -2.1310   0.0000   0.0000   0.0000   0.3502
  21.800   0.9596   0.30988   0.30809  -0.1204  0.0051  1.0000  -2.1416   0.0000   0.0000   0.0000   0.3506
  21.900   0.9602   0.31104   0.30929  -0.1208  0.0049  1.0000  -2.2108   0.0000   0.0000   0.0000   0.3508
  22.000   0.9598   0.31277   0.31102  -0.1213  0.0048  1.0000  -2.2290   0.0000   0.0000   0.0000   0.3512
  22.100   0.9590   0.31446   0.31272  -0.1217  0.0047  1.0000  -2.2448   0.0000   0.0000   0.0000   0.3516
  22.200   0.9577   0.31620   0.31447  -0.1222  0.0047  1.0000  -2.2503   0.0000   0.0000   0.0000   0.3521
  22.300   0.9557   0.31789   0.31617  -0.1226  0.0046  1.0000  -2.2503   0.0000   0.0000   0.0000   0.3527
  22.400   0.9530   0.31944   0.31774  -0.1230  0.0045  1.0000  -2.2462   0.0000   0.0000   0.0000   0.3533
  22.500   0.8992   0.30957   0.30795  -0.1185  0.0047  1.0000  -1.9976   0.0000   0.0000   0.0000   0.3570
  22.600   0.8935   0.30929   0.30768  -0.1185  0.0047  1.0000  -1.9853   0.0000   0.0000   0.0000   0.3578
  22.700   0.8888   0.30924   0.30764  -0.1185  0.0046  1.0000  -1.9732   0.0000   0.0000   0.0000   0.3584
  22.800   0.8847   0.30930   0.30771  -0.1186  0.0045  1.0000  -1.9640   0.0000   0.0000   0.0000   0.3591
  22.900   0.8810   0.30943   0.30786  -0.1187  0.0045  1.0000  -1.9556   0.0000   0.0000   0.0000   0.3597
  23.000   0.8777   0.30963   0.30807  -0.1189  0.0044  1.0000  -1.9478   0.0000   0.0000   0.0000   0.3603
  23.100   0.8747   0.30988   0.30833  -0.1191  0.0044  1.0000  -1.9401   0.0000   0.0000   0.0000   0.3609
  23.200   0.8718   0.31016   0.30862  -0.1193  0.0043  1.0000  -1.9313   0.0000   0.0000   0.0000   0.3615
  23.300   0.8690   0.31049   0.30895  -0.1195  0.0043  1.0000  -1.9203   0.0000   0.0000   0.0000   0.3621
  23.400   0.8661   0.31085   0.30933  -0.1197  0.0042  1.0000  -1.9048   0.0000   0.0000   0.0000   0.3627
  23.500   0.8630   0.31126   0.30975  -0.1199  0.0041  1.0000  -1.8802   0.0000   0.0000   0.0000   0.3634
  23.600   0.8591   0.31177   0.31026  -0.1201  0.0040  1.0000  -1.8311   0.0000   0.0000   0.0000   0.3642
  23.700   0.8436   0.31358   0.31207  -0.1197  0.0037  1.0000  -1.4641   0.0000   0.0000   0.0000   0.3669
  23.800   0.8422   0.31415   0.31264  -0.1200  0.0037  1.0000  -1.4514   0.0000   0.0000   0.0000   0.3674
  23.900   0.8409   0.31472   0.31322  -0.1204  0.0037  1.0000  -1.4390   0.0000   0.0000   0.0000   0.3679
  24.000   0.8397   0.31530   0.31381  -0.1207  0.0037  1.0000  -1.4271   0.0000   0.0000   0.0000   0.3683
  24.100   0.8385   0.31589   0.31440  -0.1210  0.0037  1.0000  -1.4154   0.0000   0.0000   0.0000   0.3688
  24.200   0.8374   0.31648   0.31500  -0.1214  0.0037  1.0000  -1.4041   0.0000   0.0000   0.0000   0.3693
  24.300   0.8364   0.31708   0.31561  -0.1217  0.0037  1.0000  -1.3931   0.0000   0.0000   0.0000   0.3698
  24.400   0.8354   0.31768   0.31622  -0.1221  0.0037  1.0000  -1.3824   0.0000   0.0000   0.0000   0.3702
  24.500   0.8345   0.31829   0.31683  -0.1224  0.0037  1.0000  -1.3720   0.0000   0.0000   0.0000   0.3707
  24.600   0.8336   0.31891   0.31746  -0.1228  0.0036  1.0000  -1.3618   0.0000   0.0000   0.0000   0.3711
  24.700   0.8328   0.31953   0.31808  -0.1231  0.0036  1.0000  -1.3519   0.0000   0.0000   0.0000   0.3716
  24.800   0.8320   0.32015   0.31871  -0.1235  0.0036  1.0000  -1.3422   0.0000   0.0000   0.0000   0.3720
  24.900   0.8313   0.32078   0.31935  -0.1239  0.0036  1.0000  -1.3327   0.0000   0.0000   0.0000   0.3725
  25.000   0.8306   0.32141   0.31998  -0.1242  0.0036  1.0000  -1.3234   0.0000   0.0000   0.0000   0.3729
  25.100   0.8299   0.32204   0.32062  -0.1246  0.0036  1.0000  -1.3142   0.0000   0.0000   0.0000   0.3733
  25.200   0.8292   0.32268   0.32127  -0.1250  0.0036  1.0000  -1.3053   0.0000   0.0000   0.0000   0.3738
  25.300   0.8286   0.32332   0.32192  -0.1253  0.0036  1.0000  -1.2965   0.0000   0.0000   0.0000   0.3742
  25.400   0.8281   0.32396   0.32256  -0.1257  0.0036  1.0000  -1.2880   0.0000   0.0000   0.0000   0.3746
  25.500   0.8275   0.32461   0.32322  -0.1261  0.0036  1.0000  -1.2796   0.0000   0.0000   0.0000   0.3750
  25.600   0.8270   0.32526   0.32387  -0.1265  0.0036  1.0000  -1.2714   0.0000   0.0000   0.0000   0.3754
  25.700   0.8265   0.32591   0.32453  -0.1269  0.0036  1.0000  -1.2633   0.0000   0.0000   0.0000   0.3758
  25.800   0.8260   0.32656   0.32519  -0.1272  0.0036  1.0000  -1.2555   0.0000   0.0000   0.0000   0.3762
  25.900   0.8256   0.32721   0.32585  -0.1276  0.0036  1.0000  -1.2478   0.0000   0.0000   0.0000   0.3766
  26.000   0.8251   0.32787   0.32651  -0.1280  0.0036  1.0000  -1.2402   0.0000   0.0000   0.0000   0.3770
  26.100   0.8247   0.32853   0.32717  -0.1284  0.0036  1.0000  -1.2328   0.0000   0.0000   0.0000   0.3774
  26.200   0.8244   0.32919   0.32784  -0.1288  0.0036  1.0000  -1.2255   0.0000   0.0000   0.0000   0.3778
  26.300   0.8240   0.32985   0.32851  -0.1292  0.0036  1.0000  -1.2184   0.0000   0.0000   0.0000   0.3782
  26.400   0.8236   0.33051   0.32917  -0.1296  0.0036  1.0000  -1.2114   0.0000   0.0000   0.0000   0.3786
  26.500   0.8233   0.33118   0.32985  -0.1300  0.0036  1.0000  -1.2044   0.0000   0.0000   0.0000   0.3790
  26.600   0.8230   0.33185   0.33052  -0.1304  0.0036  1.0000  -1.1975   0.0000   0.0000   0.0000   0.3793
  26.700   0.8227   0.33252   0.33120  -0.1308  0.0036  1.0000  -1.1906   0.0000   0.0000   0.0000   0.3797
  26.800   0.8224   0.33319   0.33188  -0.1312  0.0036  1.0000  -1.1838   0.0000   0.0000   0.0000   0.3801
  26.900   0.8221   0.33386   0.33256  -0.1316  0.0036  1.0000  -1.1769   0.0000   0.0000   0.0000   0.3805
  27.000   0.8219   0.33454   0.33324  -0.1320  0.0036  1.0000  -1.1702   0.0000   0.0000   0.0000   0.3809
  27.100   0.8217   0.33522   0.33392  -0.1324  0.0036  1.0000  -1.1635   0.0000   0.0000   0.0000   0.3812
  27.200   0.8214   0.33590   0.33461  -0.1329  0.0036  1.0000  -1.1569   0.0000   0.0000   0.0000   0.3816
  27.300   0.8212   0.33658   0.33530  -0.1333  0.0036  1.0000  -1.1504   0.0000   0.0000   0.0000   0.3820
  27.400   0.8210   0.33727   0.33599  -0.1337  0.0036  1.0000  -1.1440   0.0000   0.0000   0.0000   0.3824
  27.500   0.8208   0.33795   0.33668  -0.1341  0.0036  1.0000  -1.1378   0.0000   0.0000   0.0000   0.3827
  27.600   0.8207   0.33863   0.33736  -0.1346  0.0036  1.0000  -1.1318   0.0000   0.0000   0.0000   0.3831
  27.700   0.8205   0.33931   0.33805  -0.1350  0.0036  1.0000  -1.1259   0.0000   0.0000   0.0000   0.3835
  27.800   0.8203   0.33999   0.33874  -0.1354  0.0036  1.0000  -1.1202   0.0000   0.0000   0.0000   0.3838
  27.900   0.8202   0.34067   0.33942  -0.1358  0.0036  1.0000  -1.1146   0.0000   0.0000   0.0000   0.3842
  28.000   0.8200   0.34136   0.34011  -0.1362  0.0036  1.0000  -1.1090   0.0000   0.0000   0.0000   0.3845
  28.100   0.8198   0.34204   0.34080  -0.1366  0.0036  1.0000  -1.1035   0.0000   0.0000   0.0000   0.3849
  28.200   0.8197   0.34273   0.34149  -0.1371  0.0036  1.0000  -1.0980   0.0000   0.0000   0.0000   0.3852
  28.300   0.8196   0.34341   0.34219  -0.1375  0.0036  1.0000  -1.0925   0.0000   0.0000   0.0000   0.3856
  28.400   0.8194   0.34410   0.34288  -0.1379  0.0036  1.0000  -1.0870   0.0000   0.0000   0.0000   0.3859
  28.500   0.8193   0.34479   0.34358  -0.1383  0.0036  1.0000  -1.0814   0.0000   0.0000   0.0000   0.3863


