xflr5 v6.61

 Calculated polar for: S3021-095-84

 1 1 Reynolds number fixed          Mach number fixed         

 xtrf =   1.000 (top)        1.000 (bottom)
 Mach =   0.000     Re =     0.400 e 6     Ncrit =   9.000

  alpha     CL        CD       CDp       Cm    Top Xtr Bot Xtr   Cpmin    Chinge    XCp    
 ------- -------- --------- --------- -------- ------- ------- -------- --------- ---------
 -10.000  -0.3909   0.11330   0.11066  -0.0193  1.0000  0.0230  -1.5338   0.0000   0.0000   0.0000   0.1941
  -9.900  -0.3888   0.11193   0.10929  -0.0199  1.0000  0.0230  -1.5407   0.0000   0.0000   0.0000   0.1923
  -9.800  -0.3868   0.11055   0.10792  -0.0205  1.0000  0.0230  -1.5478   0.0000   0.0000   0.0000   0.1906
  -9.700  -0.3848   0.10917   0.10655  -0.0211  1.0000  0.0230  -1.5552   0.0000   0.0000   0.0000   0.1888
  -9.600  -0.3829   0.10780   0.10518  -0.0217  1.0000  0.0230  -1.5629   0.0000   0.0000   0.0000   0.1870
  -9.500  -0.3810   0.10642   0.10381  -0.0223  1.0000  0.0230  -1.5708   0.0000   0.0000   0.0000   0.1851
  -9.400  -0.3792   0.10504   0.10244  -0.0229  1.0000  0.0230  -1.5790   0.0000   0.0000   0.0000   0.1833
  -9.300  -0.3775   0.10367   0.10107  -0.0235  1.0000  0.0230  -1.5876   0.0000   0.0000   0.0000   0.1815
  -9.200  -0.3758   0.10230   0.09971  -0.0242  1.0000  0.0230  -1.5964   0.0000   0.0000   0.0000   0.1796
  -7.900  -0.3765   0.08081   0.07842  -0.0344  1.0000  0.0236  -1.9313   0.0000   0.0000   0.0000   0.1537
  -7.800  -0.3853   0.07803   0.07568  -0.0356  1.0000  0.0239  -2.0241   0.0000   0.0000   0.0000   0.1529
  -7.700  -0.3911   0.07602   0.07370  -0.0365  1.0000  0.0241  -2.0769   0.0000   0.0000   0.0000   0.1521
  -7.600  -0.3949   0.07387   0.07156  -0.0378  1.0000  0.0243  -2.1230   0.0000   0.0000   0.0000   0.1498
  -7.500  -0.3974   0.07189   0.06959  -0.0390  1.0000  0.0245  -2.1576   0.0000   0.0000   0.0000   0.1476
  -7.400  -0.3994   0.07009   0.06779  -0.0398  1.0000  0.0247  -2.1833   0.0000   0.0000   0.0000   0.1460
  -7.300  -0.4009   0.06841   0.06612  -0.0405  1.0000  0.0249  -2.2022   0.0000   0.0000   0.0000   0.1448
  -7.200  -0.4022   0.06686   0.06457  -0.0410  1.0000  0.0251  -2.2160   0.0000   0.0000   0.0000   0.1441
  -7.100  -0.4035   0.06541   0.06312  -0.0412  1.0000  0.0253  -2.2261   0.0000   0.0000   0.0000   0.1439
  -7.000  -0.4049   0.06406   0.06177  -0.0413  1.0000  0.0254  -2.2335   0.0000   0.0000   0.0000   0.1442
  -6.900  -0.4066   0.06280   0.06051  -0.0411  1.0000  0.0256  -2.2393   0.0000   0.0000   0.0000   0.1451
  -6.800  -0.4084   0.06173   0.05945  -0.0407  1.0000  0.0258  -2.2381   0.0000   0.0000   0.0000   0.1468
  -6.700  -0.4096   0.06081   0.05853  -0.0401  0.9999  0.0260  -2.2266   0.0000   0.0000   0.0000   0.1486
  -6.600  -0.3989   0.05932   0.05702  -0.0420  0.9981  0.0265  -2.1731   0.0000   0.0000   0.0000   0.1412
  -6.500  -0.3878   0.05776   0.05543  -0.0441  0.9962  0.0270  -2.1257   0.0000   0.0000   0.0000   0.1327
  -6.400  -0.3769   0.05614   0.05379  -0.0463  0.9939  0.0275  -2.0855   0.0000   0.0000   0.0000   0.1237
  -6.300  -0.3653   0.05443   0.05204  -0.0486  0.9916  0.0281  -2.0500   0.0000   0.0000   0.0000   0.1135
  -6.200  -0.3531   0.05266   0.05023  -0.0510  0.9894  0.0288  -2.0178   0.0000   0.0000   0.0000   0.1020
  -6.100  -0.3404   0.05085   0.04837  -0.0535  0.9876  0.0296  -1.9886   0.0000   0.0000   0.0000   0.0892
  -6.000  -0.3285   0.04905   0.04651  -0.0557  0.9851  0.0304  -1.9665   0.0000   0.0000   0.0000   0.0768
  -5.900  -0.3172   0.04728   0.04467  -0.0576  0.9816  0.0314  -1.9493   0.0000   0.0000   0.0000   0.0645
  -5.800  -0.3047   0.04543   0.04276  -0.0597  0.9786  0.0325  -1.9350   0.0000   0.0000   0.0000   0.0501
  -5.700  -0.2913   0.04357   0.04080  -0.0619  0.9761  0.0338  -1.9236   0.0000   0.0000   0.0000   0.0336
  -5.600  -0.2771   0.04177   0.03891  -0.0639  0.9738  0.0354  -1.9149   0.0000   0.0000   0.0000   0.0153
  -5.500  -0.2619   0.04032   0.03735  -0.0656  0.9716  0.0373  -1.9019   0.0000   0.0000   0.0000  -0.0049
  -5.400  -0.2480   0.04006   0.03701  -0.0660  0.9668  0.0394  -1.8648   0.0000   0.0000   0.0000  -0.0205
  -5.300  -0.2305   0.04142   0.03828  -0.0660  0.9620  0.0412  -1.7812   0.0000   0.0000   0.0000  -0.0410
  -5.200  -0.2173   0.04087   0.03762  -0.0668  0.9570  0.0415  -1.7492   0.0000   0.0000   0.0000  -0.0622
  -5.100  -0.2048   0.03966   0.03629  -0.0679  0.9528  0.0416  -1.7304   0.0000   0.0000   0.0000  -0.0865
  -5.000  -0.1941   0.03847   0.03498  -0.0685  0.9474  0.0417  -1.7140   0.0000   0.0000   0.0000  -0.1082
  -4.900  -0.2021   0.03052   0.02666  -0.0696  0.9366  0.0446  -1.9215   0.0000   0.0000   0.0000  -0.0999
  -4.800  -0.1928   0.02913   0.02524  -0.0700  0.9305  0.0460  -1.8788   0.0000   0.0000   0.0000  -0.1186
  -4.700  -0.1822   0.02823   0.02430  -0.0704  0.9252  0.0472  -1.8217   0.0000   0.0000   0.0000  -0.1418
  -4.600  -0.1735   0.02756   0.02362  -0.0702  0.9182  0.0482  -1.7675   0.0000   0.0000   0.0000  -0.1603
  -4.500  -0.1645   0.02693   0.02295  -0.0700  0.9107  0.0495  -1.7158   0.0000   0.0000   0.0000  -0.1814
  -4.400  -0.1550   0.02631   0.02227  -0.0699  0.9038  0.0510  -1.6665   0.0000   0.0000   0.0000  -0.2067
  -4.300  -0.1453   0.02570   0.02158  -0.0697  0.8972  0.0527  -1.6203   0.0000   0.0000   0.0000  -0.2362
  -4.200  -0.1357   0.02513   0.02093  -0.0695  0.8908  0.0547  -1.5778   0.0000   0.0000   0.0000  -0.2686
  -4.100  -0.1262   0.02466   0.02037  -0.0691  0.8838  0.0571  -1.5366   0.0000   0.0000   0.0000  -0.3044
  -4.000  -0.1141   0.02530   0.02078  -0.0687  0.8768  0.0620  -1.4555   0.0000   0.0000   0.0000  -0.3595
  -3.900  -0.0997   0.02708   0.02254  -0.0681  0.8698  0.0647  -1.3677   0.0000   0.0000   0.0000  -0.4411
  -3.800  -0.0972   0.02326   0.01832  -0.0679  0.8628  0.0682  -1.4334   0.0000   0.0000   0.0000  -0.4566
  -3.700  -0.0903   0.02160   0.01659  -0.0678  0.8566  0.0713  -1.4067   0.0000   0.0000   0.0000  -0.5100
  -3.600  -0.0811   0.02097   0.01595  -0.0676  0.8507  0.0736  -1.3597   0.0000   0.0000   0.0000  -0.5929
  -3.500  -0.0716   0.02048   0.01547  -0.0674  0.8442  0.0759  -1.3120   0.0000   0.0000   0.0000  -0.7016
  -3.400  -0.0618   0.02006   0.01501  -0.0671  0.8376  0.0785  -1.2673   0.0000   0.0000   0.0000  -0.8460
  -3.300  -0.0519   0.01969   0.01458  -0.0668  0.8311  0.0817  -1.2257   0.0000   0.0000   0.0000  -1.0492
  -3.200  -0.0416   0.01942   0.01423  -0.0664  0.8246  0.0852  -1.1861   0.0000   0.0000   0.0000  -1.3621
  -3.100  -0.0306   0.01930   0.01404  -0.0660  0.8186  0.0886  -1.1464   0.0000   0.0000   0.0000  -1.9273
  -3.000  -0.0190   0.01943   0.01414  -0.0657  0.8143  0.0913  -1.1029   0.0000   0.0000   0.0000  -3.2358
  -2.800   0.0061   0.01354   0.00719  -0.0629  0.8068  0.0349  -1.4381   0.0000   0.0000   0.0000  10.6346
  -2.700   0.0169   0.01234   0.00574  -0.0620  0.8023  0.0284  -1.5120   0.0000   0.0000   0.0000   3.9543
  -2.600   0.0278   0.01212   0.00543  -0.0616  0.7973  0.0260  -1.4829   0.0000   0.0000   0.0000   2.4823
  -2.500   0.0389   0.01210   0.00537  -0.0613  0.7923  0.0247  -1.4251   0.0000   0.0000   0.0000   1.8429
  -2.400   0.0499   0.01214   0.00538  -0.0611  0.7871  0.0238  -1.3611   0.0000   0.0000   0.0000   1.4857
  -2.300   0.0604   0.01191   0.00508  -0.0608  0.7816  0.0229  -1.3209   0.0000   0.0000   0.0000   1.2651
  -2.200   0.0700   0.01127   0.00434  -0.0603  0.7767  0.0222  -1.3168   0.0000   0.0000   0.0000   1.1183
  -2.100   0.0802   0.01087   0.00389  -0.0600  0.7738  0.0216  -1.2907   0.0000   0.0000   0.0000   1.0038
  -2.000   0.0905   0.01057   0.00354  -0.0597  0.7703  0.0211  -1.2573   0.0000   0.0000   0.0000   0.9140
  -1.900   0.1010   0.01034   0.00325  -0.0594  0.7662  0.0207  -1.2193   0.0000   0.0000   0.0000   0.8420
  -1.800   0.1115   0.01016   0.00300  -0.0591  0.7617  0.0203  -1.1777   0.0000   0.0000   0.0000   0.7834
  -1.700   0.1221   0.01001   0.00279  -0.0589  0.7570  0.0200  -1.1330   0.0000   0.0000   0.0000   0.7347
  -1.600   0.1328   0.00990   0.00260  -0.0586  0.7522  0.0197  -1.0862   0.0000   0.0000   0.0000   0.6937
  -1.500   0.1435   0.00982   0.00244  -0.0584  0.7473  0.0195  -1.0378   0.0000   0.0000   0.0000   0.6588
  -1.400   0.1542   0.00977   0.00230  -0.0582  0.7422  0.0194  -0.9880   0.0000   0.0000   0.0000   0.6287
  -1.300   0.1650   0.00974   0.00220  -0.0580  0.7367  0.0193  -0.9368   0.0000   0.0000   0.0000   0.6026
  -1.200   0.1761   0.00971   0.00212  -0.0579  0.7320  0.0193  -0.8842   0.0000   0.0000   0.0000   0.5796
  -1.100   0.1872   0.00966   0.00205  -0.0578  0.7298  0.0195  -0.8304   0.0000   0.0000   0.0000   0.5594
  -1.000   0.1982   0.00962   0.00198  -0.0577  0.7270  0.0197  -0.7750   0.0000   0.0000   0.0000   0.5415
  -0.900   0.2093   0.00958   0.00192  -0.0576  0.7238  0.0201  -0.7186   0.0000   0.0000   0.0000   0.5255
  -0.800   0.2203   0.00955   0.00187  -0.0575  0.7201  0.0206  -0.6612   0.0000   0.0000   0.0000   0.5111
  -0.700   0.2312   0.00953   0.00182  -0.0574  0.7160  0.0214  -0.6033   0.0000   0.0000   0.0000   0.4981
  -0.600   0.2421   0.00951   0.00178  -0.0573  0.7117  0.0224  -0.5455   0.0000   0.0000   0.0000   0.4863
  -0.500   0.2517   0.00919   0.00172  -0.0571  0.7074  0.1009  -0.5313   0.0000   0.0000   0.0000   0.4763
  -0.400   0.2617   0.00898   0.00168  -0.0569  0.7029  0.1606  -0.5398   0.0000   0.0000   0.0000   0.4670
  -0.300   0.2714   0.00876   0.00167  -0.0568  0.6983  0.2261  -0.5481   0.0000   0.0000   0.0000   0.4585
  -0.200   0.2812   0.00858   0.00168  -0.0566  0.6931  0.2913  -0.5574   0.0000   0.0000   0.0000   0.4506
  -0.100   0.2908   0.00840   0.00171  -0.0565  0.6872  0.3650  -0.5669   0.0000   0.0000   0.0000   0.4433
   0.000   0.3002   0.00813   0.00174  -0.0563  0.6842  0.4523  -0.5764   0.0000   0.0000   0.0000   0.4365
   0.100   0.3086   0.00779   0.00177  -0.0558  0.6818  0.5562  -0.5854   0.0000   0.0000   0.0000   0.4299
   0.200   0.3156   0.00740   0.00182  -0.0550  0.6790  0.6741  -0.5937   0.0000   0.0000   0.0000   0.4231
   0.300   0.3205   0.00699   0.00189  -0.0534  0.6760  0.8107  -0.6010   0.0000   0.0000   0.0000   0.4153
   0.500   0.4013   0.00677   0.00200  -0.0652  0.6675  1.0000  -0.6573   0.0000   0.0000   0.0000   0.4112
   0.600   0.4113   0.00679   0.00199  -0.0650  0.6633  1.0000  -0.6675   0.0000   0.0000   0.0000   0.4065
   0.700   0.4212   0.00682   0.00197  -0.0647  0.6589  1.0000  -0.6791   0.0000   0.0000   0.0000   0.4021
   0.800   0.4310   0.00686   0.00196  -0.0644  0.6542  1.0000  -0.6907   0.0000   0.0000   0.0000   0.3978
   0.900   0.4408   0.00690   0.00196  -0.0641  0.6490  1.0000  -0.7022   0.0000   0.0000   0.0000   0.3938
   1.000   0.4507   0.00697   0.00197  -0.0639  0.6431  1.0000  -0.7138   0.0000   0.0000   0.0000   0.3899
   1.100   0.4609   0.00704   0.00200  -0.0637  0.6371  1.0000  -0.7256   0.0000   0.0000   0.0000   0.3863
   1.200   0.4711   0.00705   0.00201  -0.0635  0.6353  1.0000  -0.7375   0.0000   0.0000   0.0000   0.3828
   1.300   0.4813   0.00706   0.00201  -0.0633  0.6331  1.0000  -0.7494   0.0000   0.0000   0.0000   0.3795
   1.400   0.4915   0.00707   0.00203  -0.0631  0.6304  1.0000  -0.7613   0.0000   0.0000   0.0000   0.3763
   1.500   0.5017   0.00709   0.00204  -0.0629  0.6274  1.0000  -0.7744   0.0000   0.0000   0.0000   0.3732
   1.600   0.5118   0.00711   0.00205  -0.0627  0.6237  1.0000  -0.7883   0.0000   0.0000   0.0000   0.3702
   1.700   0.5219   0.00713   0.00205  -0.0625  0.6196  1.0000  -0.8022   0.0000   0.0000   0.0000   0.3673
   1.800   0.5319   0.00716   0.00206  -0.0622  0.6150  1.0000  -0.8161   0.0000   0.0000   0.0000   0.3645
   1.900   0.5419   0.00720   0.00206  -0.0620  0.6102  1.0000  -0.8301   0.0000   0.0000   0.0000   0.3618
   2.000   0.5518   0.00724   0.00207  -0.0617  0.6051  1.0000  -0.8439   0.0000   0.0000   0.0000   0.3592
   2.100   0.5616   0.00730   0.00208  -0.0614  0.5997  1.0000  -0.8578   0.0000   0.0000   0.0000   0.3566
   2.200   0.5714   0.00737   0.00211  -0.0611  0.5937  1.0000  -0.8717   0.0000   0.0000   0.0000   0.3542
   2.300   0.5816   0.00746   0.00216  -0.0609  0.5878  1.0000  -0.8869   0.0000   0.0000   0.0000   0.3519
   2.400   0.5918   0.00747   0.00218  -0.0607  0.5859  1.0000  -0.9037   0.0000   0.0000   0.0000   0.3497
   2.500   0.6021   0.00748   0.00220  -0.0606  0.5833  1.0000  -0.9205   0.0000   0.0000   0.0000   0.3476
   2.600   0.6123   0.00749   0.00223  -0.0604  0.5800  1.0000  -0.9374   0.0000   0.0000   0.0000   0.3455
   2.700   0.6225   0.00752   0.00225  -0.0602  0.5758  1.0000  -0.9543   0.0000   0.0000   0.0000   0.3435
   2.800   0.6326   0.00755   0.00227  -0.0599  0.5710  1.0000  -0.9712   0.0000   0.0000   0.0000   0.3415
   2.900   0.6426   0.00758   0.00228  -0.0597  0.5658  1.0000  -0.9882   0.0000   0.0000   0.0000   0.3396
   3.000   0.6525   0.00763   0.00230  -0.0594  0.5604  1.0000  -1.0051   0.0000   0.0000   0.0000   0.3377
   3.100   0.6623   0.00768   0.00232  -0.0591  0.5549  1.0000  -1.0237   0.0000   0.0000   0.0000   0.3358
   3.200   0.6720   0.00775   0.00235  -0.0588  0.5492  1.0000  -1.0436   0.0000   0.0000   0.0000   0.3340
   3.300   0.6818   0.00784   0.00240  -0.0586  0.5424  1.0000  -1.0635   0.0000   0.0000   0.0000   0.3323
   3.400   0.6919   0.00790   0.00245  -0.0584  0.5373  1.0000  -1.0839   0.0000   0.0000   0.0000   0.3306
   3.500   0.7022   0.00791   0.00248  -0.0582  0.5343  1.0000  -1.1047   0.0000   0.0000   0.0000   0.3291
   3.600   0.7124   0.00794   0.00252  -0.0580  0.5302  1.0000  -1.1255   0.0000   0.0000   0.0000   0.3275
   3.700   0.7226   0.00797   0.00254  -0.0578  0.5250  1.0000  -1.1463   0.0000   0.0000   0.0000   0.3260
   3.800   0.7253   0.00830   0.00243  -0.0561  0.4469  1.0000  -1.1611   0.0000   0.0000   0.0000   0.3233
   3.900   0.7317   0.00861   0.00246  -0.0553  0.4012  1.0000  -1.1784   0.0000   0.0000   0.0000   0.3214
   4.000   0.7403   0.00878   0.00252  -0.0549  0.3797  1.0000  -1.1980   0.0000   0.0000   0.0000   0.3199
   4.100   0.7486   0.00899   0.00259  -0.0545  0.3569  1.0000  -1.2214   0.0000   0.0000   0.0000   0.3184
   4.200   0.7573   0.00916   0.00265  -0.0541  0.3385  1.0000  -1.2454   0.0000   0.0000   0.0000   0.3170
   4.300   0.7663   0.00933   0.00273  -0.0538  0.3207  1.0000  -1.2698   0.0000   0.0000   0.0000   0.3156
   4.400   0.7744   0.00957   0.00283  -0.0533  0.2998  1.0000  -1.2934   0.0000   0.0000   0.0000   0.3142
   4.500   0.7837   0.00972   0.00290  -0.0531  0.2849  1.0000  -1.3186   0.0000   0.0000   0.0000   0.3129
   4.600   0.7918   0.00998   0.00302  -0.0526  0.2640  1.0000  -1.3423   0.0000   0.0000   0.0000   0.3116
   4.700   0.8007   0.01016   0.00312  -0.0523  0.2470  1.0000  -1.3673   0.0000   0.0000   0.0000   0.3104
   4.800   0.8089   0.01043   0.00325  -0.0519  0.2255  1.0000  -1.3948   0.0000   0.0000   0.0000   0.3091
   4.900   0.8174   0.01066   0.00337  -0.0516  0.2066  1.0000  -1.4235   0.0000   0.0000   0.0000   0.3079
   5.000   0.8252   0.01097   0.00352  -0.0511  0.1831  1.0000  -1.4510   0.0000   0.0000   0.0000   0.3067
   5.100   0.8336   0.01122   0.00366  -0.0508  0.1635  1.0000  -1.4794   0.0000   0.0000   0.0000   0.3056
   5.200   0.8412   0.01155   0.00382  -0.0503  0.1405  1.0000  -1.5065   0.0000   0.0000   0.0000   0.3044
   5.300   0.8492   0.01186   0.00400  -0.0499  0.1200  1.0000  -1.5360   0.0000   0.0000   0.0000   0.3032
   5.400   0.8572   0.01216   0.00418  -0.0495  0.1006  1.0000  -1.6009   0.0000   0.0000   0.0000   0.3021
   5.500   0.8645   0.01253   0.00440  -0.0490  0.0787  1.0000  -1.6660   0.0000   0.0000   0.0000   0.3009
   5.600   0.8654   0.01361   0.00505  -0.0476  0.0114  1.0000  -1.7037   0.0000   0.0000   0.0000   0.2992
   5.700   0.8750   0.01375   0.00517  -0.0473  0.0110  1.0000  -1.7832   0.0000   0.0000   0.0000   0.2982
   5.800   0.8846   0.01387   0.00528  -0.0471  0.0105  1.0000  -1.8656   0.0000   0.0000   0.0000   0.2972
   5.900   0.8943   0.01399   0.00539  -0.0469  0.0102  1.0000  -1.9505   0.0000   0.0000   0.0000   0.2963
   6.000   0.9040   0.01412   0.00552  -0.0466  0.0097  1.0000  -2.0367   0.0000   0.0000   0.0000   0.2954
   6.100   0.9135   0.01426   0.00566  -0.0464  0.0094  1.0000  -2.1233   0.0000   0.0000   0.0000   0.2944
   6.200   0.9230   0.01440   0.00582  -0.0461  0.0091  1.0000  -2.2107   0.0000   0.0000   0.0000   0.2935
   6.300   0.9325   0.01453   0.00598  -0.0459  0.0089  1.0000  -2.2989   0.0000   0.0000   0.0000   0.2926
   6.400   0.9421   0.01467   0.00615  -0.0456  0.0087  1.0000  -2.3878   0.0000   0.0000   0.0000   0.2918
   6.500   0.9516   0.01480   0.00631  -0.0454  0.0086  1.0000  -2.4773   0.0000   0.0000   0.0000   0.2909
   6.600   0.9612   0.01493   0.00649  -0.0451  0.0086  1.0000  -2.5671   0.0000   0.0000   0.0000   0.2901
   6.700   0.9707   0.01507   0.00667  -0.0449  0.0085  1.0000  -2.6568   0.0000   0.0000   0.0000   0.2892
   6.800   0.9801   0.01522   0.00686  -0.0446  0.0085  1.0000  -2.7461   0.0000   0.0000   0.0000   0.2884
   6.900   0.9895   0.01537   0.00706  -0.0443  0.0085  1.0000  -2.8348   0.0000   0.0000   0.0000   0.2875
   7.000   0.9988   0.01553   0.00727  -0.0440  0.0085  1.0000  -2.9223   0.0000   0.0000   0.0000   0.2867
   7.100   1.0080   0.01570   0.00749  -0.0437  0.0085  1.0000  -3.0084   0.0000   0.0000   0.0000   0.2858
   7.200   1.0170   0.01589   0.00773  -0.0433  0.0086  1.0000  -3.0926   0.0000   0.0000   0.0000   0.2850
   7.300   1.0259   0.01610   0.00797  -0.0429  0.0086  1.0000  -3.1748   0.0000   0.0000   0.0000   0.2841
   7.400   1.0346   0.01632   0.00825  -0.0425  0.0087  1.0000  -3.2552   0.0000   0.0000   0.0000   0.2832
   7.500   1.0431   0.01657   0.00855  -0.0420  0.0088  1.0000  -3.3339   0.0000   0.0000   0.0000   0.2823
   7.600   1.0513   0.01683   0.00887  -0.0415  0.0089  1.0000  -3.4105   0.0000   0.0000   0.0000   0.2814
   7.700   1.0593   0.01713   0.00923  -0.0410  0.0091  1.0000  -3.4849   0.0000   0.0000   0.0000   0.2805
   7.800   1.0681   0.01731   0.00973  -0.0407  0.0093  1.0000  -3.5261   0.0000   0.0000   0.0000   0.2797
   7.900   1.0759   0.01760   0.01009  -0.0401  0.0094  1.0000  -3.6147   0.0000   0.0000   0.0000   0.2788
   8.000   1.0832   0.01794   0.01051  -0.0395  0.0095  1.0000  -3.6953   0.0000   0.0000   0.0000   0.2779
   8.100   1.0899   0.01832   0.01097  -0.0388  0.0096  1.0000  -3.7689   0.0000   0.0000   0.0000   0.2769
   8.200   1.0963   0.01874   0.01146  -0.0381  0.0098  1.0000  -3.8372   0.0000   0.0000   0.0000   0.2759
   8.300   1.1021   0.01919   0.01198  -0.0373  0.0099  1.0000  -3.9002   0.0000   0.0000   0.0000   0.2748
   8.400   1.1073   0.01967   0.01255  -0.0363  0.0100  1.0000  -3.9581   0.0000   0.0000   0.0000   0.2737
   8.500   1.1119   0.02021   0.01316  -0.0354  0.0102  1.0000  -4.0108   0.0000   0.0000   0.0000   0.2725
   8.600   1.1160   0.02078   0.01381  -0.0343  0.0103  1.0000  -4.0584   0.0000   0.0000   0.0000   0.2713
   8.700   1.1194   0.02140   0.01451  -0.0332  0.0105  1.0000  -4.1010   0.0000   0.0000   0.0000   0.2701
   8.800   1.1224   0.02207   0.01526  -0.0320  0.0106  1.0000  -4.1383   0.0000   0.0000   0.0000   0.2688
   8.900   1.1247   0.02281   0.01607  -0.0307  0.0108  1.0000  -4.1697   0.0000   0.0000   0.0000   0.2675
   9.000   1.1264   0.02361   0.01695  -0.0294  0.0110  1.0000  -4.1934   0.0000   0.0000   0.0000   0.2661
   9.100   1.1271   0.02452   0.01794  -0.0279  0.0111  1.0000  -4.2066   0.0000   0.0000   0.0000   0.2647
   9.200   1.1268   0.02574   0.01924  -0.0263  0.0113  1.0000  -4.1976   0.0000   0.0000   0.0000   0.2632
   9.300   1.1291   0.02692   0.02052  -0.0251  0.0117  1.0000  -4.2017   0.0000   0.0000   0.0000   0.2619
   9.400   1.1361   0.02703   0.02064  -0.0245  0.0120  1.0000  -4.2949   0.0000   0.0000   0.0000   0.2611
   9.500   1.1428   0.02718   0.02081  -0.0239  0.0123  1.0000  -4.3857   0.0000   0.0000   0.0000   0.2603
   9.600   1.1495   0.02738   0.02102  -0.0232  0.0127  1.0000  -4.4728   0.0000   0.0000   0.0000   0.2594
   9.700   1.1559   0.02764   0.02132  -0.0225  0.0132  1.0000  -4.5539   0.0000   0.0000   0.0000   0.2586
   9.800   1.1624   0.02803   0.02177  -0.0218  0.0138  1.0000  -4.6218   0.0000   0.0000   0.0000   0.2577
   9.900   1.1709   0.02913   0.02306  -0.0210  0.0156  1.0000  -4.6112   0.0000   0.0000   0.0000   0.2568
  10.000   1.1846   0.03495   0.02943  -0.0210  0.0214  1.0000  -4.3365   0.0000   0.0000   0.0000   0.2564
  15.100   0.8869   0.16840   0.16589  -0.0633  0.0358  1.0000  -2.1467   0.0000   0.0000   0.0000   0.3055
  15.200   0.8873   0.17069   0.16818  -0.0646  0.0350  1.0000  -2.1233   0.0000   0.0000   0.0000   0.3068
  15.300   0.8874   0.17302   0.17051  -0.0658  0.0343  1.0000  -2.0984   0.0000   0.0000   0.0000   0.3082
  15.400   0.8877   0.17529   0.17277  -0.0670  0.0336  1.0000  -2.0774   0.0000   0.0000   0.0000   0.3094
  15.500   0.8881   0.17750   0.17498  -0.0681  0.0329  1.0000  -2.0599   0.0000   0.0000   0.0000   0.3105
  15.600   0.8887   0.17965   0.17712  -0.0692  0.0323  1.0000  -2.0454   0.0000   0.0000   0.0000   0.3116
  15.700   0.8894   0.18175   0.17922  -0.0702  0.0318  1.0000  -2.0338   0.0000   0.0000   0.0000   0.3126
  15.800   0.8903   0.18381   0.18128  -0.0712  0.0312  1.0000  -2.0247   0.0000   0.0000   0.0000   0.3135
  15.900   0.8914   0.18582   0.18329  -0.0722  0.0307  1.0000  -2.0181   0.0000   0.0000   0.0000   0.3143
  16.000   0.8925   0.18779   0.18526  -0.0731  0.0303  1.0000  -2.0141   0.0000   0.0000   0.0000   0.3151
  16.100   0.8938   0.18972   0.18719  -0.0739  0.0298  1.0000  -2.0123   0.0000   0.0000   0.0000   0.3159
  16.200   0.8952   0.19161   0.18908  -0.0748  0.0294  1.0000  -2.0128   0.0000   0.0000   0.0000   0.3165
  16.300   0.8968   0.19347   0.19094  -0.0756  0.0290  1.0000  -2.0156   0.0000   0.0000   0.0000   0.3172
  16.400   0.8984   0.19529   0.19276  -0.0763  0.0286  1.0000  -2.0210   0.0000   0.0000   0.0000   0.3177
  16.500   0.9002   0.19706   0.19453  -0.0771  0.0282  1.0000  -2.0289   0.0000   0.0000   0.0000   0.3182
  16.600   0.9021   0.19879   0.19627  -0.0777  0.0279  1.0000  -2.0396   0.0000   0.0000   0.0000   0.3187
  16.700   0.9042   0.20048   0.19796  -0.0784  0.0275  1.0000  -2.0532   0.0000   0.0000   0.0000   0.3190
  16.800   0.9064   0.20212   0.19960  -0.0790  0.0272  1.0000  -2.0700   0.0000   0.0000   0.0000   0.3193
  16.900   0.9086   0.20374   0.20123  -0.0796  0.0269  1.0000  -2.0884   0.0000   0.0000   0.0000   0.3196
  17.000   0.9109   0.20533   0.20281  -0.0801  0.0265  1.0000  -2.1096   0.0000   0.0000   0.0000   0.3198
  17.100   0.9134   0.20687   0.20436  -0.0806  0.0262  1.0000  -2.1342   0.0000   0.0000   0.0000   0.3199
  17.200   0.9160   0.20838   0.20588  -0.0810  0.0259  1.0000  -2.1621   0.0000   0.0000   0.0000   0.3200
  17.300   0.9186   0.20987   0.20737  -0.0814  0.0256  1.0000  -2.1932   0.0000   0.0000   0.0000   0.3199
  17.400   0.9203   0.21168   0.20918  -0.0820  0.0253  1.0000  -2.2105   0.0000   0.0000   0.0000   0.3202
  17.500   0.9212   0.21379   0.21130  -0.0826  0.0249  1.0000  -2.2181   0.0000   0.0000   0.0000   0.3207
  17.600   0.9058   0.22373   0.22118  -0.0852  0.0235  1.0000  -1.9433   0.0000   0.0000   0.0000   0.3253
  17.700   0.9072   0.22606   0.22351  -0.0861  0.0235  1.0000  -1.9301   0.0000   0.0000   0.0000   0.3261
  17.800   0.9085   0.22837   0.22583  -0.0870  0.0234  1.0000  -1.9173   0.0000   0.0000   0.0000   0.3268
  17.900   0.9099   0.23068   0.22814  -0.0879  0.0234  1.0000  -1.9049   0.0000   0.0000   0.0000   0.3275
  18.000   0.9113   0.23298   0.23044  -0.0888  0.0234  1.0000  -1.8930   0.0000   0.0000   0.0000   0.3282
  18.100   0.9127   0.23527   0.23273  -0.0896  0.0234  1.0000  -1.8815   0.0000   0.0000   0.0000   0.3289
  18.200   0.9141   0.23755   0.23501  -0.0905  0.0234  1.0000  -1.8704   0.0000   0.0000   0.0000   0.3296
  18.300   0.9156   0.23981   0.23727  -0.0914  0.0233  1.0000  -1.8598   0.0000   0.0000   0.0000   0.3303
  18.400   0.9170   0.24206   0.23952  -0.0923  0.0233  1.0000  -1.8496   0.0000   0.0000   0.0000   0.3309
  18.500   0.9184   0.24429   0.24175  -0.0931  0.0233  1.0000  -1.8400   0.0000   0.0000   0.0000   0.3316
  18.600   0.9199   0.24649   0.24396  -0.0940  0.0232  1.0000  -1.8308   0.0000   0.0000   0.0000   0.3322
  18.700   0.9214   0.24868   0.24614  -0.0948  0.0232  1.0000  -1.8223   0.0000   0.0000   0.0000   0.3329
  18.800   0.9229   0.25082   0.24829  -0.0957  0.0231  1.0000  -1.8145   0.0000   0.0000   0.0000   0.3335
  18.900   0.9244   0.25292   0.25040  -0.0966  0.0231  1.0000  -1.8076   0.0000   0.0000   0.0000   0.3341
  19.000   0.9260   0.25496   0.25244  -0.0974  0.0230  1.0000  -1.8018   0.0000   0.0000   0.0000   0.3348
  19.100   0.9280   0.25672   0.25420  -0.0983  0.0228  1.0000  -1.8001   0.0000   0.0000   0.0000   0.3354
  19.200   0.9304   0.25825   0.25574  -0.0993  0.0224  1.0000  -1.8011   0.0000   0.0000   0.0000   0.3360
  19.300   0.9320   0.26003   0.25751  -0.1006  0.0219  1.0000  -1.7843   0.0000   0.0000   0.0000   0.3371
  19.400   0.9332   0.26216   0.25965  -0.1018  0.0212  1.0000  -1.7591   0.0000   0.0000   0.0000   0.3382
  19.500   0.9345   0.26444   0.26192  -0.1029  0.0205  1.0000  -1.7389   0.0000   0.0000   0.0000   0.3390
  19.600   0.9357   0.26674   0.26422  -0.1038  0.0199  1.0000  -1.7245   0.0000   0.0000   0.0000   0.3398
  19.700   0.9369   0.26902   0.26651  -0.1047  0.0193  1.0000  -1.7143   0.0000   0.0000   0.0000   0.3404
  19.800   0.9380   0.27127   0.26877  -0.1055  0.0187  1.0000  -1.7074   0.0000   0.0000   0.0000   0.3410
  19.900   0.9391   0.27350   0.27100  -0.1062  0.0182  1.0000  -1.7027   0.0000   0.0000   0.0000   0.3416
  20.000   0.9402   0.27571   0.27321  -0.1070  0.0177  1.0000  -1.7001   0.0000   0.0000   0.0000   0.3421
  20.100   0.9412   0.27788   0.27539  -0.1077  0.0173  1.0000  -1.6991   0.0000   0.0000   0.0000   0.3426
  20.200   0.9423   0.28003   0.27754  -0.1084  0.0168  1.0000  -1.6998   0.0000   0.0000   0.0000   0.3431
  20.300   0.9432   0.28215   0.27967  -0.1091  0.0164  1.0000  -1.7019   0.0000   0.0000   0.0000   0.3435
  20.400   0.9442   0.28425   0.28177  -0.1098  0.0161  1.0000  -1.7055   0.0000   0.0000   0.0000   0.3440
  20.500   0.9451   0.28632   0.28384  -0.1104  0.0157  1.0000  -1.7105   0.0000   0.0000   0.0000   0.3444
  20.600   0.9460   0.28835   0.28588  -0.1111  0.0154  1.0000  -1.7172   0.0000   0.0000   0.0000   0.3448
  20.700   0.9468   0.29035   0.28789  -0.1117  0.0151  1.0000  -1.7254   0.0000   0.0000   0.0000   0.3452
  20.800   0.9476   0.29231   0.28986  -0.1123  0.0148  1.0000  -1.7354   0.0000   0.0000   0.0000   0.3456
  20.900   0.9484   0.29424   0.29179  -0.1128  0.0145  1.0000  -1.7470   0.0000   0.0000   0.0000   0.3459
  21.000   0.9491   0.29613   0.29369  -0.1134  0.0143  1.0000  -1.7604   0.0000   0.0000   0.0000   0.3462
  21.100   0.9498   0.29798   0.29554  -0.1139  0.0140  1.0000  -1.7757   0.0000   0.0000   0.0000   0.3465
  21.200   0.9504   0.29978   0.29735  -0.1144  0.0138  1.0000  -1.7930   0.0000   0.0000   0.0000   0.3468
  21.300   0.9510   0.30153   0.29912  -0.1148  0.0136  1.0000  -1.8124   0.0000   0.0000   0.0000   0.3470
  21.400   0.9515   0.30324   0.30083  -0.1152  0.0134  1.0000  -1.8341   0.0000   0.0000   0.0000   0.3472
  21.500   0.9519   0.30490   0.30250  -0.1156  0.0132  1.0000  -1.8581   0.0000   0.0000   0.0000   0.3473
  21.600   0.9523   0.30651   0.30412  -0.1159  0.0130  1.0000  -1.8846   0.0000   0.0000   0.0000   0.3474
  21.700   0.9525   0.30808   0.30570  -0.1161  0.0128  1.0000  -1.9136   0.0000   0.0000   0.0000   0.3474
  21.800   0.9527   0.30963   0.30726  -0.1163  0.0126  1.0000  -1.9442   0.0000   0.0000   0.0000   0.3474
  21.900   0.9514   0.31141   0.30910  -0.1164  0.0123  1.0000  -1.9651   0.0000   0.0000   0.0000   0.3475
  22.000   0.9464   0.31403   0.31173  -0.1166  0.0120  1.0000  -1.9306   0.0000   0.0000   0.0000   0.3483
  22.400   0.8666   0.30777   0.30556  -0.1117  0.0115  1.0000  -1.4938   0.0000   0.0000   0.0000   0.3552
  22.500   0.8629   0.30801   0.30581  -0.1119  0.0115  1.0000  -1.4746   0.0000   0.0000   0.0000   0.3559
  22.600   0.8597   0.30832   0.30613  -0.1120  0.0115  1.0000  -1.4566   0.0000   0.0000   0.0000   0.3565
  22.700   0.8567   0.30867   0.30650  -0.1123  0.0115  1.0000  -1.4396   0.0000   0.0000   0.0000   0.3572
  22.800   0.8540   0.30905   0.30693  -0.1125  0.0115  1.0000  -1.4236   0.0000   0.0000   0.0000   0.3578
  22.900   0.8516   0.30947   0.30736  -0.1128  0.0115  1.0000  -1.4083   0.0000   0.0000   0.0000   0.3584
  23.000   0.8493   0.30991   0.30782  -0.1131  0.0115  1.0000  -1.3935   0.0000   0.0000   0.0000   0.3590
  23.100   0.8472   0.31038   0.30829  -0.1134  0.0115  1.0000  -1.3793   0.0000   0.0000   0.0000   0.3596
  23.200   0.8452   0.31086   0.30879  -0.1137  0.0115  1.0000  -1.3656   0.0000   0.0000   0.0000   0.3602
  23.300   0.8434   0.31137   0.30930  -0.1140  0.0115  1.0000  -1.3525   0.0000   0.0000   0.0000   0.3608
  23.400   0.8417   0.31188   0.30983  -0.1143  0.0114  1.0000  -1.3398   0.0000   0.0000   0.0000   0.3613
  23.500   0.8401   0.31241   0.31037  -0.1146  0.0114  1.0000  -1.3276   0.0000   0.0000   0.0000   0.3619
  23.600   0.8387   0.31295   0.31092  -0.1150  0.0114  1.0000  -1.3157   0.0000   0.0000   0.0000   0.3624
  23.700   0.8373   0.31351   0.31148  -0.1153  0.0114  1.0000  -1.3042   0.0000   0.0000   0.0000   0.3630
  23.800   0.8360   0.31407   0.31205  -0.1157  0.0114  1.0000  -1.2931   0.0000   0.0000   0.0000   0.3635
  23.900   0.8347   0.31464   0.31263  -0.1160  0.0114  1.0000  -1.2823   0.0000   0.0000   0.0000   0.3640
  24.000   0.8336   0.31521   0.31322  -0.1164  0.0114  1.0000  -1.2718   0.0000   0.0000   0.0000   0.3645
  24.100   0.8325   0.31580   0.31381  -0.1168  0.0114  1.0000  -1.2615   0.0000   0.0000   0.0000   0.3651
  24.200   0.8315   0.31638   0.31440  -0.1171  0.0114  1.0000  -1.2514   0.0000   0.0000   0.0000   0.3656
  24.300   0.8305   0.31698   0.31501  -0.1175  0.0114  1.0000  -1.2415   0.0000   0.0000   0.0000   0.3661
  24.400   0.8296   0.31757   0.31561  -0.1179  0.0114  1.0000  -1.2319   0.0000   0.0000   0.0000   0.3666
  24.500   0.8287   0.31818   0.31622  -0.1183  0.0114  1.0000  -1.2225   0.0000   0.0000   0.0000   0.3671
  24.600   0.8279   0.31878   0.31684  -0.1187  0.0113  1.0000  -1.2134   0.0000   0.0000   0.0000   0.3676
  24.700   0.8271   0.31940   0.31746  -0.1191  0.0113  1.0000  -1.2045   0.0000   0.0000   0.0000   0.3680
  24.800   0.8264   0.32001   0.31809  -0.1195  0.0113  1.0000  -1.1958   0.0000   0.0000   0.0000   0.3685
  24.900   0.8257   0.32063   0.31871  -0.1199  0.0113  1.0000  -1.1874   0.0000   0.0000   0.0000   0.3690
  25.000   0.8250   0.32126   0.31935  -0.1203  0.0113  1.0000  -1.1791   0.0000   0.0000   0.0000   0.3695
  25.100   0.8244   0.32188   0.31998  -0.1207  0.0113  1.0000  -1.1710   0.0000   0.0000   0.0000   0.3699
  25.200   0.8238   0.32251   0.32062  -0.1211  0.0113  1.0000  -1.1632   0.0000   0.0000   0.0000   0.3704
  25.300   0.8233   0.32314   0.32126  -0.1215  0.0113  1.0000  -1.1555   0.0000   0.0000   0.0000   0.3708
  25.400   0.8228   0.32378   0.32190  -0.1219  0.0113  1.0000  -1.1476   0.0000   0.0000   0.0000   0.3713
  25.500   0.8223   0.32442   0.32255  -0.1223  0.0113  1.0000  -1.1399   0.0000   0.0000   0.0000   0.3717
  25.600   0.8218   0.32506   0.32320  -0.1227  0.0112  1.0000  -1.1323   0.0000   0.0000   0.0000   0.3722
  25.700   0.8213   0.32570   0.32385  -0.1232  0.0112  1.0000  -1.1249   0.0000   0.0000   0.0000   0.3726
  25.800   0.8209   0.32634   0.32450  -0.1236  0.0112  1.0000  -1.1176   0.0000   0.0000   0.0000   0.3731
  25.900   0.8205   0.32699   0.32516  -0.1240  0.0112  1.0000  -1.1105   0.0000   0.0000   0.0000   0.3735
  26.000   0.8202   0.32764   0.32582  -0.1244  0.0112  1.0000  -1.1036   0.0000   0.0000   0.0000   0.3740
  26.100   0.8198   0.32829   0.32648  -0.1249  0.0112  1.0000  -1.0967   0.0000   0.0000   0.0000   0.3744
  26.200   0.8195   0.32895   0.32714  -0.1253  0.0112  1.0000  -1.0901   0.0000   0.0000   0.0000   0.3748
  26.300   0.8192   0.32961   0.32780  -0.1257  0.0111  1.0000  -1.0835   0.0000   0.0000   0.0000   0.3752
  26.400   0.8189   0.33027   0.32847  -0.1262  0.0111  1.0000  -1.0765   0.0000   0.0000   0.0000   0.3757
  26.500   0.8186   0.33093   0.32914  -0.1266  0.0111  1.0000  -1.0692   0.0000   0.0000   0.0000   0.3761
  26.600   0.8183   0.33160   0.32982  -0.1271  0.0111  1.0000  -1.0619   0.0000   0.0000   0.0000   0.3766
  26.700   0.8180   0.33227   0.33050  -0.1275  0.0111  1.0000  -1.0548   0.0000   0.0000   0.0000   0.3770
  26.800   0.8178   0.33294   0.33118  -0.1280  0.0111  1.0000  -1.0479   0.0000   0.0000   0.0000   0.3774
  26.900   0.8176   0.33362   0.33186  -0.1284  0.0110  1.0000  -1.0410   0.0000   0.0000   0.0000   0.3778
  27.000   0.8174   0.33430   0.33255  -0.1289  0.0110  1.0000  -1.0343   0.0000   0.0000   0.0000   0.3783
  27.100   0.8172   0.33498   0.33324  -0.1293  0.0110  1.0000  -1.0277   0.0000   0.0000   0.0000   0.3787
  27.200   0.8170   0.33566   0.33393  -0.1298  0.0110  1.0000  -1.0212   0.0000   0.0000   0.0000   0.3791
  27.300   0.8169   0.33635   0.33462  -0.1303  0.0110  1.0000  -1.0148   0.0000   0.0000   0.0000   0.3795
  27.400   0.8167   0.33704   0.33532  -0.1307  0.0109  1.0000  -1.0085   0.0000   0.0000   0.0000   0.3799
  27.500   0.8167   0.33774   0.33602  -0.1312  0.0109  1.0000  -1.0022   0.0000   0.0000   0.0000   0.3804
  27.600   0.8167   0.33844   0.33674  -0.1317  0.0109  1.0000  -0.9958   0.0000   0.0000   0.0000   0.3808
  27.700   0.8168   0.33917   0.33747  -0.1322  0.0108  1.0000  -0.9892   0.0000   0.0000   0.0000   0.3812
  27.800   0.8170   0.33993   0.33824  -0.1328  0.0107  1.0000  -0.9823   0.0000   0.0000   0.0000   0.3817
  27.900   0.8175   0.34074   0.33906  -0.1334  0.0105  1.0000  -0.9745   0.0000   0.0000   0.0000   0.3821
  28.000   0.8182   0.34164   0.33997  -0.1340  0.0103  1.0000  -0.9652   0.0000   0.0000   0.0000   0.3825
  28.100   0.8190   0.34258   0.34091  -0.1346  0.0098  1.0000  -0.9553   0.0000   0.0000   0.0000   0.3829
  28.200   0.8195   0.34343   0.34177  -0.1351  0.0093  1.0000  -0.9483   0.0000   0.0000   0.0000   0.3832
  28.300   0.8197   0.34420   0.34254  -0.1355  0.0088  1.0000  -0.9447   0.0000   0.0000   0.0000   0.3836
  28.400   0.8197   0.34491   0.34327  -0.1360  0.0085  1.0000  -0.9427   0.0000   0.0000   0.0000   0.3839
  28.500   0.8196   0.34561   0.34397  -0.1364  0.0082  1.0000  -0.9407   0.0000   0.0000   0.0000   0.3843
  28.600   0.8196   0.34630   0.34466  -0.1369  0.0080  1.0000  -0.9393   0.0000   0.0000   0.0000   0.3846
  28.700   0.8195   0.34698   0.34535  -0.1373  0.0077  1.0000  -0.9389   0.0000   0.0000   0.0000   0.3849
  28.800   0.8195   0.34765   0.34603  -0.1377  0.0074  1.0000  -0.9396   0.0000   0.0000   0.0000   0.3853
  28.900   0.8194   0.34831   0.34670  -0.1382  0.0072  1.0000  -0.9482   0.0000   0.0000   0.0000   0.3856
  29.000   0.8194   0.34896   0.34736  -0.1386  0.0069  1.0000  -0.9614   0.0000   0.0000   0.0000   0.3859
  29.100   0.8194   0.34959   0.34800  -0.1390  0.0066  1.0000  -0.9756   0.0000   0.0000   0.0000   0.3862
  29.200   0.8193   0.35020   0.34861  -0.1395  0.0063  1.0000  -0.9911   0.0000   0.0000   0.0000   0.3865
  29.300   0.8193   0.35079   0.34921  -0.1399  0.0060  1.0000  -1.0082   0.0000   0.0000   0.0000   0.3868
  29.400   0.8193   0.35134   0.34977  -0.1403  0.0057  1.0000  -1.0271   0.0000   0.0000   0.0000   0.3871
  29.500   0.8195   0.35172   0.35019  -0.1408  0.0053  1.0000  -1.0551   0.0000   0.0000   0.0000   0.3873
  29.600   0.8195   0.35212   0.35060  -0.1412  0.0050  1.0000  -1.0824   0.0000   0.0000   0.0000   0.3876
  29.700   0.8195   0.35249   0.35098  -0.1416  0.0048  1.0000  -1.1114   0.0000   0.0000   0.0000   0.3878
  29.800   0.8196   0.35282   0.35132  -0.1420  0.0046  1.0000  -1.1425   0.0000   0.0000   0.0000   0.3879
  29.900   0.8195   0.35310   0.35161  -0.1423  0.0045  1.0000  -1.1756   0.0000   0.0000   0.0000   0.3881
  30.000   0.8195   0.35334   0.35186  -0.1427  0.0043  1.0000  -1.2108   0.0000   0.0000   0.0000   0.3882


