xflr5 v6.61

 Calculated polar for: S3021-095-84

 1 1 Reynolds number fixed          Mach number fixed         

 xtrf =   1.000 (top)        1.000 (bottom)
 Mach =   0.000     Re =     0.500 e 6     Ncrit =   9.000

  alpha     CL        CD       CDp       Cm    Top Xtr Bot Xtr   Cpmin    Chinge    XCp    
 ------- -------- --------- --------- -------- ------- ------- -------- --------- ---------
 -10.000  -0.3992   0.10897   0.10660  -0.0170  1.0000  0.0198  -1.5578   0.0000   0.0000   0.0000   0.2008
  -9.900  -0.3971   0.10771   0.10535  -0.0177  1.0000  0.0202  -1.5679   0.0000   0.0000   0.0000   0.1988
  -9.800  -0.3950   0.10648   0.10412  -0.0185  1.0000  0.0206  -1.5788   0.0000   0.0000   0.0000   0.1967
  -9.700  -0.3928   0.10527   0.10291  -0.0193  1.0000  0.0209  -1.5898   0.0000   0.0000   0.0000   0.1945
  -9.600  -0.3905   0.10409   0.10175  -0.0201  1.0000  0.0212  -1.5992   0.0000   0.0000   0.0000   0.1923
  -9.500  -0.3879   0.10296   0.10062  -0.0208  1.0000  0.0215  -1.6058   0.0000   0.0000   0.0000   0.1901
  -9.400  -0.3851   0.10187   0.09953  -0.0215  1.0000  0.0218  -1.6075   0.0000   0.0000   0.0000   0.1880
  -9.300  -0.3822   0.10078   0.09845  -0.0221  1.0000  0.0220  -1.6073   0.0000   0.0000   0.0000   0.1861
  -9.200  -0.3796   0.09966   0.09735  -0.0227  1.0000  0.0221  -1.6079   0.0000   0.0000   0.0000   0.1841
  -9.100  -0.3772   0.09852   0.09621  -0.0233  1.0000  0.0223  -1.6096   0.0000   0.0000   0.0000   0.1822
  -9.000  -0.3751   0.09735   0.09505  -0.0239  1.0000  0.0224  -1.6127   0.0000   0.0000   0.0000   0.1803
  -8.900  -0.3730   0.09615   0.09385  -0.0245  1.0000  0.0224  -1.6168   0.0000   0.0000   0.0000   0.1785
  -8.800  -0.3711   0.09492   0.09263  -0.0251  1.0000  0.0225  -1.6218   0.0000   0.0000   0.0000   0.1765
  -8.700  -0.3692   0.09366   0.09138  -0.0257  1.0000  0.0226  -1.6276   0.0000   0.0000   0.0000   0.1745
  -8.600  -0.3674   0.09238   0.09011  -0.0264  1.0000  0.0226  -1.6343   0.0000   0.0000   0.0000   0.1725
  -8.500  -0.3658   0.09108   0.08882  -0.0270  1.0000  0.0226  -1.6417   0.0000   0.0000   0.0000   0.1705
  -8.400  -0.3643   0.08978   0.08753  -0.0277  1.0000  0.0227  -1.6498   0.0000   0.0000   0.0000   0.1685
  -8.300  -0.3629   0.08847   0.08624  -0.0283  1.0000  0.0227  -1.6587   0.0000   0.0000   0.0000   0.1665
  -8.200  -0.3618   0.08716   0.08494  -0.0289  1.0000  0.0227  -1.6683   0.0000   0.0000   0.0000   0.1646
  -8.100  -0.3608   0.08585   0.08363  -0.0296  1.0000  0.0228  -1.6787   0.0000   0.0000   0.0000   0.1627
  -8.000  -0.3601   0.08453   0.08232  -0.0302  1.0000  0.0228  -1.6899   0.0000   0.0000   0.0000   0.1608
  -7.900  -0.3595   0.08320   0.08101  -0.0309  1.0000  0.0228  -1.7019   0.0000   0.0000   0.0000   0.1590
  -7.800  -0.3593   0.08188   0.07970  -0.0315  1.0000  0.0228  -1.7149   0.0000   0.0000   0.0000   0.1572
  -7.700  -0.3596   0.08057   0.07841  -0.0321  1.0000  0.0228  -1.7291   0.0000   0.0000   0.0000   0.1558
  -7.600  -0.3606   0.07929   0.07715  -0.0327  1.0000  0.0229  -1.7446   0.0000   0.0000   0.0000   0.1546
  -7.500  -0.3625   0.07805   0.07593  -0.0331  1.0000  0.0229  -1.7618   0.0000   0.0000   0.0000   0.1540
  -7.400  -0.3651   0.07682   0.07472  -0.0336  1.0000  0.0229  -1.7805   0.0000   0.0000   0.0000   0.1536
  -7.300  -0.3662   0.07540   0.07331  -0.0345  1.0000  0.0229  -1.7999   0.0000   0.0000   0.0000   0.1515
  -7.200  -0.3665   0.07390   0.07182  -0.0356  1.0000  0.0229  -1.8198   0.0000   0.0000   0.0000   0.1488
  -7.100  -0.3667   0.07239   0.07032  -0.0365  1.0000  0.0229  -1.8403   0.0000   0.0000   0.0000   0.1464
  -7.000  -0.3672   0.07091   0.06884  -0.0373  1.0000  0.0229  -1.8611   0.0000   0.0000   0.0000   0.1445
  -6.900  -0.3681   0.06947   0.06741  -0.0378  1.0000  0.0229  -1.8820   0.0000   0.0000   0.0000   0.1435
  -6.800  -0.3695   0.06810   0.06605  -0.0380  1.0000  0.0229  -1.9028   0.0000   0.0000   0.0000   0.1433
  -6.700  -0.3688   0.06653   0.06447  -0.0388  0.9996  0.0230  -1.9239   0.0000   0.0000   0.0000   0.1411
  -6.600  -0.3570   0.06381   0.06170  -0.0426  0.9973  0.0230  -1.9476   0.0000   0.0000   0.0000   0.1268
  -6.500  -0.3458   0.06120   0.05904  -0.0460  0.9949  0.0230  -1.9712   0.0000   0.0000   0.0000   0.1131
  -6.400  -0.3348   0.05867   0.05645  -0.0491  0.9922  0.0230  -1.9936   0.0000   0.0000   0.0000   0.0994
  -5.900  -0.2966   0.03934   0.03645  -0.0646  0.9750  0.0246  -2.4425   0.0000   0.0000   0.0000   0.0275
  -5.800  -0.2874   0.03688   0.03389  -0.0664  0.9724  0.0255  -2.4306   0.0000   0.0000   0.0000   0.0143
  -5.700  -0.2780   0.03560   0.03257  -0.0672  0.9683  0.0261  -2.3777   0.0000   0.0000   0.0000   0.0034
  -5.600  -0.2695   0.03466   0.03159  -0.0675  0.9621  0.0268  -2.3196   0.0000   0.0000   0.0000  -0.0054
  -5.500  -0.2587   0.03391   0.03082  -0.0682  0.9572  0.0274  -2.2422   0.0000   0.0000   0.0000  -0.0183
  -5.400  -0.2471   0.03312   0.03000  -0.0690  0.9529  0.0282  -2.1681   0.0000   0.0000   0.0000  -0.0341
  -5.300  -0.2367   0.03234   0.02917  -0.0695  0.9475  0.0290  -2.1056   0.0000   0.0000   0.0000  -0.0485
  -5.200  -0.2283   0.03159   0.02836  -0.0694  0.9394  0.0299  -2.0555   0.0000   0.0000   0.0000  -0.0590
  -5.100  -0.2185   0.03076   0.02747  -0.0696  0.9321  0.0310  -2.0069   0.0000   0.0000   0.0000  -0.0737
  -5.000  -0.2082   0.02992   0.02654  -0.0698  0.9255  0.0323  -1.9625   0.0000   0.0000   0.0000  -0.0907
  -4.900  -0.1993   0.02916   0.02569  -0.0696  0.9177  0.0337  -1.9254   0.0000   0.0000   0.0000  -0.1048
  -4.800  -0.1900   0.02849   0.02493  -0.0694  0.9095  0.0353  -1.8892   0.0000   0.0000   0.0000  -0.1206
  -4.700  -0.1797   0.02806   0.02441  -0.0691  0.9017  0.0373  -1.8470   0.0000   0.0000   0.0000  -0.1402
  -4.500  -0.1529   0.03024   0.02650  -0.0682  0.8875  0.0413  -1.6685   0.0000   0.0000   0.0000  -0.2021
  -4.400  -0.1431   0.03016   0.02630  -0.0678  0.8796  0.0416  -1.6250   0.0000   0.0000   0.0000  -0.2302
  -4.300  -0.1341   0.02961   0.02563  -0.0674  0.8717  0.0417  -1.5952   0.0000   0.0000   0.0000  -0.2593
  -4.200  -0.1390   0.02287   0.01846  -0.0674  0.8638  0.0461  -1.7547   0.0000   0.0000   0.0000  -0.2417
  -4.100  -0.1302   0.02226   0.01782  -0.0672  0.8569  0.0477  -1.6931   0.0000   0.0000   0.0000  -0.2733
  -4.000  -0.1208   0.02177   0.01733  -0.0671  0.8509  0.0492  -1.6315   0.0000   0.0000   0.0000  -0.3123
  -3.900  -0.1114   0.02137   0.01689  -0.0669  0.8441  0.0510  -1.5676   0.0000   0.0000   0.0000  -0.3578
  -3.800  -0.1018   0.02105   0.01636  -0.0666  0.8371  0.0534  -1.5095   0.0000   0.0000   0.0000  -0.4122
  -3.700  -0.0920   0.02085   0.01609  -0.0663  0.8300  0.0566  -1.4543   0.0000   0.0000   0.0000  -0.4794
  -3.500  -0.0698   0.02107   0.01621  -0.0657  0.8169  0.0627  -1.3469   0.0000   0.0000   0.0000  -0.7012
  -3.400  -0.0557   0.02280   0.01795  -0.0653  0.8117  0.0650  -1.2555   0.0000   0.0000   0.0000  -0.9328
  -3.300  -0.0535   0.01829   0.01311  -0.0652  0.8071  0.0713  -1.3161   0.0000   0.0000   0.0000  -0.9814
  -3.200  -0.0439   0.01774   0.01254  -0.0650  0.8018  0.0740  -1.2678   0.0000   0.0000   0.0000  -1.2452
  -3.100  -0.0339   0.01734   0.01213  -0.0649  0.7965  0.0766  -1.2188   0.0000   0.0000   0.0000  -1.6813
  -3.000  -0.0237   0.01699   0.01175  -0.0646  0.7911  0.0796  -1.1733   0.0000   0.0000   0.0000  -2.4982
  -2.600   0.0244   0.01263   0.00646  -0.0615  0.7736  0.0372  -1.3353   0.0000   0.0000   0.0000   2.7923
  -2.500   0.0352   0.01127   0.00482  -0.0604  0.7705  0.0272  -1.4394   0.0000   0.0000   0.0000   1.9812
  -2.400   0.0466   0.01125   0.00477  -0.0603  0.7666  0.0251  -1.3859   0.0000   0.0000   0.0000   1.5543
  -2.300   0.0581   0.01136   0.00488  -0.0601  0.7623  0.0239  -1.3167   0.0000   0.0000   0.0000   1.2942
  -2.200   0.0681   0.01085   0.00430  -0.0597  0.7578  0.0224  -1.3041   0.0000   0.0000   0.0000   1.1333
  -2.100   0.0779   0.01034   0.00370  -0.0592  0.7531  0.0215  -1.2933   0.0000   0.0000   0.0000   1.0161
  -2.000   0.0879   0.01003   0.00330  -0.0588  0.7481  0.0207  -1.2667   0.0000   0.0000   0.0000   0.9233
  -1.900   0.0982   0.00981   0.00298  -0.0585  0.7426  0.0200  -1.2331   0.0000   0.0000   0.0000   0.8491
  -1.800   0.1087   0.00965   0.00273  -0.0582  0.7363  0.0194  -1.1946   0.0000   0.0000   0.0000   0.7884
  -1.700   0.1195   0.00951   0.00252  -0.0580  0.7317  0.0189  -1.1520   0.0000   0.0000   0.0000   0.7377
  -1.600   0.1305   0.00937   0.00233  -0.0578  0.7294  0.0185  -1.1064   0.0000   0.0000   0.0000   0.6952
  -1.500   0.1415   0.00926   0.00218  -0.0577  0.7267  0.0181  -1.0585   0.0000   0.0000   0.0000   0.6593
  -1.400   0.1526   0.00918   0.00206  -0.0575  0.7236  0.0179  -1.0087   0.0000   0.0000   0.0000   0.6285
  -1.300   0.1636   0.00912   0.00196  -0.0574  0.7202  0.0177  -0.9571   0.0000   0.0000   0.0000   0.6020
  -1.200   0.1747   0.00907   0.00186  -0.0573  0.7165  0.0175  -0.9030   0.0000   0.0000   0.0000   0.5788
  -1.100   0.1856   0.00904   0.00177  -0.0572  0.7125  0.0175  -0.8472   0.0000   0.0000   0.0000   0.5585
  -1.000   0.1966   0.00902   0.00169  -0.0570  0.7082  0.0175  -0.7903   0.0000   0.0000   0.0000   0.5405
  -0.900   0.2074   0.00901   0.00162  -0.0569  0.7036  0.0176  -0.7328   0.0000   0.0000   0.0000   0.5245
  -0.800   0.2182   0.00901   0.00156  -0.0568  0.6985  0.0179  -0.6752   0.0000   0.0000   0.0000   0.5101
  -0.700   0.2290   0.00902   0.00152  -0.0566  0.6928  0.0183  -0.6175   0.0000   0.0000   0.0000   0.4971
  -0.600   0.2400   0.00904   0.00149  -0.0566  0.6865  0.0189  -0.5594   0.0000   0.0000   0.0000   0.4853
  -0.500   0.2511   0.00901   0.00146  -0.0565  0.6841  0.0199  -0.5319   0.0000   0.0000   0.0000   0.4746
  -0.400   0.2622   0.00897   0.00145  -0.0564  0.6819  0.0212  -0.5410   0.0000   0.0000   0.0000   0.4647
  -0.300   0.2733   0.00893   0.00144  -0.0564  0.6793  0.0226  -0.5501   0.0000   0.0000   0.0000   0.4557
  -0.200   0.2827   0.00848   0.00140  -0.0563  0.6762  0.1383  -0.5591   0.0000   0.0000   0.0000   0.4482
  -0.100   0.2928   0.00826   0.00140  -0.0562  0.6726  0.2034  -0.5689   0.0000   0.0000   0.0000   0.4409
   0.000   0.3026   0.00801   0.00140  -0.0561  0.6687  0.2786  -0.5786   0.0000   0.0000   0.0000   0.4343
   0.100   0.3124   0.00779   0.00142  -0.0559  0.6648  0.3528  -0.5884   0.0000   0.0000   0.0000   0.4279
   0.200   0.3214   0.00749   0.00144  -0.0557  0.6610  0.4548  -0.5978   0.0000   0.0000   0.0000   0.4220
   0.300   0.3288   0.00706   0.00149  -0.0551  0.6572  0.5953  -0.6062   0.0000   0.0000   0.0000   0.4162
   0.400   0.3912   0.00619   0.00170  -0.0653  0.6510  1.0000  -0.6479   0.0000   0.0000   0.0000   0.4156
   0.500   0.4010   0.00624   0.00170  -0.0650  0.6451  1.0000  -0.6578   0.0000   0.0000   0.0000   0.4107
   0.600   0.4110   0.00630   0.00170  -0.0648  0.6385  1.0000  -0.6680   0.0000   0.0000   0.0000   0.4062
   0.700   0.4212   0.00632   0.00170  -0.0646  0.6359  1.0000  -0.6797   0.0000   0.0000   0.0000   0.4018
   0.800   0.4314   0.00632   0.00170  -0.0644  0.6337  1.0000  -0.6915   0.0000   0.0000   0.0000   0.3976
   0.900   0.4416   0.00632   0.00170  -0.0642  0.6313  1.0000  -0.7034   0.0000   0.0000   0.0000   0.3937
   1.000   0.4519   0.00633   0.00170  -0.0640  0.6286  1.0000  -0.7152   0.0000   0.0000   0.0000   0.3899
   1.100   0.4621   0.00635   0.00171  -0.0638  0.6255  1.0000  -0.7271   0.0000   0.0000   0.0000   0.3862
   1.200   0.4722   0.00637   0.00171  -0.0636  0.6220  1.0000  -0.7390   0.0000   0.0000   0.0000   0.3828
   1.300   0.4824   0.00639   0.00171  -0.0634  0.6182  1.0000  -0.7509   0.0000   0.0000   0.0000   0.3794
   1.400   0.4924   0.00642   0.00171  -0.0632  0.6139  1.0000  -0.7628   0.0000   0.0000   0.0000   0.3762
   1.500   0.5024   0.00646   0.00172  -0.0629  0.6092  1.0000  -0.7758   0.0000   0.0000   0.0000   0.3730
   1.600   0.5122   0.00651   0.00172  -0.0627  0.6040  1.0000  -0.7895   0.0000   0.0000   0.0000   0.3700
   1.700   0.5220   0.00656   0.00173  -0.0624  0.5979  1.0000  -0.8032   0.0000   0.0000   0.0000   0.3671
   1.800   0.5319   0.00663   0.00175  -0.0621  0.5912  1.0000  -0.8169   0.0000   0.0000   0.0000   0.3643
   1.900   0.5421   0.00667   0.00178  -0.0619  0.5871  1.0000  -0.8309   0.0000   0.0000   0.0000   0.3617
   2.000   0.5524   0.00668   0.00179  -0.0618  0.5852  1.0000  -0.8452   0.0000   0.0000   0.0000   0.3592
   2.100   0.5627   0.00670   0.00181  -0.0616  0.5830  1.0000  -0.8594   0.0000   0.0000   0.0000   0.3567
   2.200   0.5730   0.00671   0.00183  -0.0614  0.5801  1.0000  -0.8737   0.0000   0.0000   0.0000   0.3544
   2.300   0.5833   0.00673   0.00184  -0.0612  0.5764  1.0000  -0.8894   0.0000   0.0000   0.0000   0.3521
   2.400   0.5934   0.00676   0.00186  -0.0610  0.5721  1.0000  -0.9061   0.0000   0.0000   0.0000   0.3499
   2.500   0.6035   0.00679   0.00187  -0.0608  0.5672  1.0000  -0.9228   0.0000   0.0000   0.0000   0.3477
   2.600   0.6134   0.00684   0.00189  -0.0605  0.5617  1.0000  -0.9395   0.0000   0.0000   0.0000   0.3456
   2.700   0.6232   0.00689   0.00190  -0.0602  0.5559  1.0000  -0.9561   0.0000   0.0000   0.0000   0.3435
   2.800   0.6329   0.00696   0.00193  -0.0599  0.5495  1.0000  -0.9727   0.0000   0.0000   0.0000   0.3415
   2.900   0.6427   0.00703   0.00196  -0.0597  0.5428  1.0000  -0.9893   0.0000   0.0000   0.0000   0.3395
   3.000   0.6528   0.00709   0.00200  -0.0595  0.5377  1.0000  -1.0063   0.0000   0.0000   0.0000   0.3377
   3.100   0.6632   0.00710   0.00203  -0.0593  0.5355  1.0000  -1.0256   0.0000   0.0000   0.0000   0.3360
   3.200   0.6736   0.00712   0.00206  -0.0592  0.5324  1.0000  -1.0462   0.0000   0.0000   0.0000   0.3343
   3.300   0.6838   0.00715   0.00209  -0.0590  0.5281  1.0000  -1.0668   0.0000   0.0000   0.0000   0.3326
   3.400   0.6939   0.00719   0.00212  -0.0588  0.5228  1.0000  -1.0873   0.0000   0.0000   0.0000   0.3309
   3.500   0.7039   0.00723   0.00214  -0.0585  0.5167  1.0000  -1.1078   0.0000   0.0000   0.0000   0.3293
   3.600   0.7137   0.00730   0.00217  -0.0582  0.5102  1.0000  -1.1282   0.0000   0.0000   0.0000   0.3277
   3.700   0.7233   0.00737   0.00219  -0.0580  0.5035  1.0000  -1.1485   0.0000   0.0000   0.0000   0.3261
   3.800   0.7235   0.00802   0.00223  -0.0560  0.3868  1.0000  -1.1602   0.0000   0.0000   0.0000   0.3233
   3.900   0.7306   0.00833   0.00230  -0.0554  0.3496  1.0000  -1.1779   0.0000   0.0000   0.0000   0.3216
   4.000   0.7391   0.00853   0.00238  -0.0550  0.3247  1.0000  -1.1972   0.0000   0.0000   0.0000   0.3201
   4.100   0.7469   0.00880   0.00248  -0.0545  0.2979  1.0000  -1.2199   0.0000   0.0000   0.0000   0.3186
   4.200   0.7557   0.00899   0.00257  -0.0541  0.2782  1.0000  -1.2438   0.0000   0.0000   0.0000   0.3172
   4.300   0.7638   0.00925   0.00267  -0.0537  0.2548  1.0000  -1.2671   0.0000   0.0000   0.0000   0.3158
   4.400   0.7725   0.00945   0.00277  -0.0534  0.2359  1.0000  -1.2913   0.0000   0.0000   0.0000   0.3144
   4.500   0.7806   0.00972   0.00289  -0.0529  0.2127  1.0000  -1.3148   0.0000   0.0000   0.0000   0.3131
   4.600   0.7889   0.00998   0.00302  -0.0525  0.1910  1.0000  -1.3387   0.0000   0.0000   0.0000   0.3118
   4.700   0.7970   0.01025   0.00315  -0.0521  0.1687  1.0000  -1.3625   0.0000   0.0000   0.0000   0.3105
   4.800   0.8046   0.01059   0.00332  -0.0516  0.1432  1.0000  -1.3885   0.0000   0.0000   0.0000   0.3092
   4.900   0.8128   0.01086   0.00346  -0.0512  0.1226  1.0000  -1.4166   0.0000   0.0000   0.0000   0.3079
   5.000   0.8208   0.01115   0.00363  -0.0508  0.1020  1.0000  -1.4444   0.0000   0.0000   0.0000   0.3067
   5.100   0.8280   0.01155   0.00384  -0.0503  0.0751  1.0000  -1.4706   0.0000   0.0000   0.0000   0.3054
   5.200   0.8301   0.01250   0.00441  -0.0490  0.0114  1.0000  -1.4824   0.0000   0.0000   0.0000   0.3036
   5.300   0.8399   0.01261   0.00449  -0.0488  0.0108  1.0000  -1.5248   0.0000   0.0000   0.0000   0.3026
   5.400   0.8497   0.01272   0.00456  -0.0486  0.0102  1.0000  -1.5707   0.0000   0.0000   0.0000   0.3016
   5.500   0.8595   0.01283   0.00464  -0.0484  0.0097  1.0000  -1.6476   0.0000   0.0000   0.0000   0.3006
   5.600   0.8692   0.01295   0.00474  -0.0481  0.0091  1.0000  -1.7276   0.0000   0.0000   0.0000   0.2996
   5.700   0.8793   0.01303   0.00483  -0.0480  0.0085  1.0000  -1.8120   0.0000   0.0000   0.0000   0.2987
   5.800   0.8891   0.01314   0.00495  -0.0478  0.0081  1.0000  -1.8965   0.0000   0.0000   0.0000   0.2977
   5.900   0.8988   0.01326   0.00509  -0.0476  0.0078  1.0000  -1.9818   0.0000   0.0000   0.0000   0.2968
   6.000   0.9085   0.01338   0.00523  -0.0473  0.0076  1.0000  -2.0679   0.0000   0.0000   0.0000   0.2959
   6.100   0.9181   0.01351   0.00537  -0.0471  0.0075  1.0000  -2.1548   0.0000   0.0000   0.0000   0.2950
   6.200   0.9278   0.01364   0.00552  -0.0469  0.0074  1.0000  -2.2427   0.0000   0.0000   0.0000   0.2941
   6.300   0.9374   0.01377   0.00567  -0.0466  0.0073  1.0000  -2.3314   0.0000   0.0000   0.0000   0.2932
   6.400   0.9470   0.01390   0.00583  -0.0464  0.0073  1.0000  -2.4210   0.0000   0.0000   0.0000   0.2923
   6.500   0.9566   0.01403   0.00600  -0.0461  0.0073  1.0000  -2.5114   0.0000   0.0000   0.0000   0.2914
   6.600   0.9662   0.01416   0.00617  -0.0459  0.0073  1.0000  -2.6022   0.0000   0.0000   0.0000   0.2906
   6.700   0.9757   0.01430   0.00635  -0.0456  0.0073  1.0000  -2.6934   0.0000   0.0000   0.0000   0.2897
   6.800   0.9852   0.01445   0.00654  -0.0453  0.0074  1.0000  -2.7847   0.0000   0.0000   0.0000   0.2889
   6.900   0.9946   0.01460   0.00673  -0.0451  0.0074  1.0000  -2.8756   0.0000   0.0000   0.0000   0.2881
   7.000   1.0039   0.01477   0.00694  -0.0448  0.0075  1.0000  -2.9660   0.0000   0.0000   0.0000   0.2872
   7.100   1.0131   0.01494   0.00716  -0.0444  0.0076  1.0000  -3.0551   0.0000   0.0000   0.0000   0.2864
   7.200   1.0222   0.01512   0.00740  -0.0441  0.0077  1.0000  -3.1423   0.0000   0.0000   0.0000   0.2855
   7.300   1.0312   0.01532   0.00764  -0.0437  0.0079  1.0000  -3.2271   0.0000   0.0000   0.0000   0.2847
   7.400   1.0400   0.01554   0.00791  -0.0433  0.0080  1.0000  -3.3082   0.0000   0.0000   0.0000   0.2838
   7.500   1.0486   0.01578   0.00821  -0.0429  0.0082  1.0000  -3.3857   0.0000   0.0000   0.0000   0.2829
   7.600   1.0569   0.01605   0.00852  -0.0424  0.0084  1.0000  -3.4602   0.0000   0.0000   0.0000   0.2820
   7.700   1.0650   0.01634   0.00887  -0.0418  0.0086  1.0000  -3.5318   0.0000   0.0000   0.0000   0.2810
   7.800   1.0741   0.01649   0.00931  -0.0415  0.0087  1.0000  -3.5818   0.0000   0.0000   0.0000   0.2803
   7.900   1.0819   0.01679   0.00969  -0.0410  0.0088  1.0000  -3.6613   0.0000   0.0000   0.0000   0.2794
   8.000   1.0891   0.01714   0.01011  -0.0404  0.0090  1.0000  -3.7373   0.0000   0.0000   0.0000   0.2784
   8.100   1.0959   0.01753   0.01057  -0.0396  0.0091  1.0000  -3.8068   0.0000   0.0000   0.0000   0.2774
   8.200   1.1022   0.01796   0.01108  -0.0389  0.0093  1.0000  -3.8705   0.0000   0.0000   0.0000   0.2764
   8.300   1.1078   0.01843   0.01163  -0.0380  0.0095  1.0000  -3.9283   0.0000   0.0000   0.0000   0.2753
   8.400   1.1129   0.01894   0.01222  -0.0370  0.0098  1.0000  -3.9800   0.0000   0.0000   0.0000   0.2741
   8.500   1.1174   0.01951   0.01287  -0.0360  0.0100  1.0000  -4.0256   0.0000   0.0000   0.0000   0.2729
   8.600   1.1212   0.02013   0.01358  -0.0348  0.0102  1.0000  -4.0645   0.0000   0.0000   0.0000   0.2716
   8.700   1.1242   0.02083   0.01435  -0.0336  0.0105  1.0000  -4.0959   0.0000   0.0000   0.0000   0.2703
   8.800   1.1263   0.02162   0.01523  -0.0322  0.0108  1.0000  -4.1178   0.0000   0.0000   0.0000   0.2689
   8.900   1.1274   0.02258   0.01628  -0.0308  0.0110  1.0000  -4.1248   0.0000   0.0000   0.0000   0.2675
   9.000   1.1245   0.02431   0.01814  -0.0288  0.0114  1.0000  -4.0648   0.0000   0.0000   0.0000   0.2657
   9.100   1.1317   0.02461   0.01846  -0.0282  0.0120  1.0000  -4.1387   0.0000   0.0000   0.0000   0.2648
   9.200   1.1404   0.02454   0.01840  -0.0277  0.0124  1.0000  -4.2464   0.0000   0.0000   0.0000   0.2641
   9.300   1.1485   0.02458   0.01845  -0.0272  0.0130  1.0000  -4.3451   0.0000   0.0000   0.0000   0.2633
   9.400   1.1560   0.02478   0.01868  -0.0265  0.0137  1.0000  -4.4268   0.0000   0.0000   0.0000   0.2624
  14.300   0.8962   0.14858   0.14637  -0.0535  0.0352  1.0000  -2.4042   0.0000   0.0000   0.0000   0.2943
  14.400   0.8951   0.15101   0.14880  -0.0549  0.0344  1.0000  -2.3725   0.0000   0.0000   0.0000   0.2959
  14.500   0.8941   0.15340   0.15118  -0.0563  0.0337  1.0000  -2.3429   0.0000   0.0000   0.0000   0.2974
  14.600   0.8932   0.15573   0.15351  -0.0576  0.0331  1.0000  -2.3162   0.0000   0.0000   0.0000   0.2989
  14.700   0.8925   0.15800   0.15578  -0.0588  0.0325  1.0000  -2.2930   0.0000   0.0000   0.0000   0.3003
  14.800   0.8921   0.16021   0.15798  -0.0600  0.0319  1.0000  -2.2734   0.0000   0.0000   0.0000   0.3016
  14.900   0.8920   0.16235   0.16012  -0.0611  0.0313  1.0000  -2.2572   0.0000   0.0000   0.0000   0.3028
  15.000   0.8921   0.16443   0.16220  -0.0622  0.0308  1.0000  -2.2444   0.0000   0.0000   0.0000   0.3039
  15.100   0.8924   0.16645   0.16421  -0.0633  0.0303  1.0000  -2.2349   0.0000   0.0000   0.0000   0.3049
  15.200   0.8929   0.16841   0.16617  -0.0643  0.0298  1.0000  -2.2288   0.0000   0.0000   0.0000   0.3059
  15.300   0.8937   0.17031   0.16807  -0.0652  0.0294  1.0000  -2.2260   0.0000   0.0000   0.0000   0.3067
  15.400   0.8946   0.17215   0.16990  -0.0661  0.0290  1.0000  -2.2266   0.0000   0.0000   0.0000   0.3075
  15.500   0.8958   0.17392   0.17168  -0.0669  0.0286  1.0000  -2.2306   0.0000   0.0000   0.0000   0.3083
  15.600   0.8972   0.17563   0.17339  -0.0677  0.0282  1.0000  -2.2384   0.0000   0.0000   0.0000   0.3089
  15.700   0.8988   0.17727   0.17503  -0.0685  0.0278  1.0000  -2.2499   0.0000   0.0000   0.0000   0.3094
  15.800   0.9005   0.17884   0.17660  -0.0691  0.0274  1.0000  -2.2656   0.0000   0.0000   0.0000   0.3099
  15.900   0.9025   0.18034   0.17810  -0.0698  0.0271  1.0000  -2.2855   0.0000   0.0000   0.0000   0.3103
  16.000   0.9047   0.18176   0.17953  -0.0703  0.0268  1.0000  -2.3100   0.0000   0.0000   0.0000   0.3105
  16.100   0.9072   0.18310   0.18087  -0.0708  0.0264  1.0000  -2.3392   0.0000   0.0000   0.0000   0.3107
  16.200   0.9096   0.18441   0.18219  -0.0713  0.0261  1.0000  -2.3711   0.0000   0.0000   0.0000   0.3108
  16.300   0.9111   0.18607   0.18384  -0.0719  0.0257  1.0000  -2.3877   0.0000   0.0000   0.0000   0.3113
  16.400   0.9122   0.18782   0.18559  -0.0726  0.0253  1.0000  -2.4016   0.0000   0.0000   0.0000   0.3118
  16.500   0.9120   0.19000   0.18778  -0.0734  0.0248  1.0000  -2.3995   0.0000   0.0000   0.0000   0.3125
  16.600   0.8917   0.20081   0.19853  -0.0772  0.0235  1.0000  -2.0402   0.0000   0.0000   0.0000   0.3190
  16.700   0.8929   0.20316   0.20087  -0.0782  0.0234  1.0000  -2.0230   0.0000   0.0000   0.0000   0.3199
  16.800   0.8941   0.20548   0.20320  -0.0792  0.0234  1.0000  -2.0068   0.0000   0.0000   0.0000   0.3207
  16.900   0.8954   0.20779   0.20551  -0.0801  0.0234  1.0000  -1.9914   0.0000   0.0000   0.0000   0.3216
  17.000   0.8968   0.21008   0.20780  -0.0811  0.0234  1.0000  -1.9768   0.0000   0.0000   0.0000   0.3224
  17.100   0.8982   0.21236   0.21007  -0.0820  0.0234  1.0000  -1.9631   0.0000   0.0000   0.0000   0.3232
  17.200   0.8996   0.21461   0.21232  -0.0830  0.0233  1.0000  -1.9503   0.0000   0.0000   0.0000   0.3240
  17.300   0.9011   0.21683   0.21455  -0.0839  0.0233  1.0000  -1.9384   0.0000   0.0000   0.0000   0.3248
  17.400   0.9027   0.21899   0.21671  -0.0849  0.0232  1.0000  -1.9283   0.0000   0.0000   0.0000   0.3255
  17.500   0.9045   0.22104   0.21876  -0.0858  0.0232  1.0000  -1.9209   0.0000   0.0000   0.0000   0.3263
  17.600   0.9065   0.22295   0.22067  -0.0868  0.0230  1.0000  -1.9175   0.0000   0.0000   0.0000   0.3270
  17.700   0.9091   0.22460   0.22232  -0.0877  0.0228  1.0000  -1.9216   0.0000   0.0000   0.0000   0.3276
  17.800   0.9129   0.22584   0.22356  -0.0886  0.0223  1.0000  -1.9371   0.0000   0.0000   0.0000   0.3281
  17.900   0.9161   0.22747   0.22519  -0.0897  0.0214  1.0000  -1.9355   0.0000   0.0000   0.0000   0.3288
  18.000   0.9176   0.22969   0.22742  -0.0909  0.0206  1.0000  -1.9133   0.0000   0.0000   0.0000   0.3299
  18.100   0.9190   0.23200   0.22972  -0.0920  0.0199  1.0000  -1.8943   0.0000   0.0000   0.0000   0.3308
  18.200   0.9203   0.23427   0.23199  -0.0930  0.0192  1.0000  -1.8812   0.0000   0.0000   0.0000   0.3316
  18.300   0.9218   0.23649   0.23421  -0.0939  0.0186  1.0000  -1.8731   0.0000   0.0000   0.0000   0.3324
  18.400   0.9232   0.23866   0.23639  -0.0948  0.0180  1.0000  -1.8690   0.0000   0.0000   0.0000   0.3330
  18.500   0.9247   0.24079   0.23851  -0.0956  0.0174  1.0000  -1.8683   0.0000   0.0000   0.0000   0.3336
  18.600   0.9263   0.24287   0.24060  -0.0964  0.0169  1.0000  -1.8706   0.0000   0.0000   0.0000   0.3342
  18.700   0.9279   0.24490   0.24263  -0.0972  0.0165  1.0000  -1.8761   0.0000   0.0000   0.0000   0.3347
  18.800   0.9295   0.24689   0.24463  -0.0980  0.0160  1.0000  -1.8846   0.0000   0.0000   0.0000   0.3352
  18.900   0.9312   0.24884   0.24657  -0.0987  0.0156  1.0000  -1.8961   0.0000   0.0000   0.0000   0.3356
  19.000   0.9330   0.25073   0.24847  -0.0994  0.0153  1.0000  -1.9108   0.0000   0.0000   0.0000   0.3360
  19.100   0.9348   0.25258   0.25032  -0.1001  0.0149  1.0000  -1.9289   0.0000   0.0000   0.0000   0.3364
  19.200   0.9366   0.25437   0.25212  -0.1007  0.0146  1.0000  -1.9506   0.0000   0.0000   0.0000   0.3367
  19.300   0.9386   0.25610   0.25385  -0.1013  0.0143  1.0000  -1.9763   0.0000   0.0000   0.0000   0.3369
  19.400   0.9406   0.25777   0.25552  -0.1019  0.0140  1.0000  -2.0064   0.0000   0.0000   0.0000   0.3371
  19.500   0.9427   0.25936   0.25712  -0.1024  0.0137  1.0000  -2.0416   0.0000   0.0000   0.0000   0.3372
  19.600   0.9450   0.26088   0.25865  -0.1029  0.0135  1.0000  -2.0823   0.0000   0.0000   0.0000   0.3372
  19.700   0.9473   0.26234   0.26012  -0.1033  0.0132  1.0000  -2.1281   0.0000   0.0000   0.0000   0.3371
  19.800   0.9495   0.26384   0.26163  -0.1037  0.0130  1.0000  -2.1735   0.0000   0.0000   0.0000   0.3371
  19.900   0.9510   0.26563   0.26342  -0.1042  0.0127  1.0000  -2.2047   0.0000   0.0000   0.0000   0.3373
  20.000   0.9517   0.26780   0.26559  -0.1048  0.0124  1.0000  -2.2191   0.0000   0.0000   0.0000   0.3377
  20.100   0.9386   0.27747   0.27523  -0.1064  0.0115  1.0000  -1.9039   0.0000   0.0000   0.0000   0.3412
  20.200   0.9394   0.27984   0.27760  -0.1071  0.0115  1.0000  -1.8921   0.0000   0.0000   0.0000   0.3417
  20.300   0.9402   0.28221   0.27997  -0.1079  0.0115  1.0000  -1.8804   0.0000   0.0000   0.0000   0.3423
  20.400   0.9409   0.28456   0.28233  -0.1086  0.0115  1.0000  -1.8689   0.0000   0.0000   0.0000   0.3429
  20.500   0.9415   0.28691   0.28468  -0.1093  0.0115  1.0000  -1.8576   0.0000   0.0000   0.0000   0.3434
  20.600   0.9420   0.28924   0.28702  -0.1101  0.0115  1.0000  -1.8463   0.0000   0.0000   0.0000   0.3440
  20.700   0.9425   0.29156   0.28934  -0.1108  0.0115  1.0000  -1.8351   0.0000   0.0000   0.0000   0.3446
  20.800   0.9429   0.29386   0.29165  -0.1115  0.0114  1.0000  -1.8239   0.0000   0.0000   0.0000   0.3451
  20.900   0.9431   0.29615   0.29394  -0.1121  0.0114  1.0000  -1.8126   0.0000   0.0000   0.0000   0.3457
  21.000   0.9433   0.29841   0.29621  -0.1128  0.0114  1.0000  -1.8014   0.0000   0.0000   0.0000   0.3463
  21.100   0.9433   0.30065   0.29846  -0.1135  0.0114  1.0000  -1.7901   0.0000   0.0000   0.0000   0.3468
  21.200   0.9432   0.30286   0.30067  -0.1141  0.0114  1.0000  -1.7787   0.0000   0.0000   0.0000   0.3474
  21.300   0.9430   0.30504   0.30286  -0.1147  0.0114  1.0000  -1.7671   0.0000   0.0000   0.0000   0.3480
  21.400   0.9426   0.30718   0.30500  -0.1153  0.0114  1.0000  -1.7554   0.0000   0.0000   0.0000   0.3485
  21.500   0.9419   0.30927   0.30710  -0.1159  0.0114  1.0000  -1.7434   0.0000   0.0000   0.0000   0.3491
  21.600   0.9410   0.31130   0.30914  -0.1165  0.0113  1.0000  -1.7309   0.0000   0.0000   0.0000   0.3497
  21.700   0.9398   0.31325   0.31110  -0.1170  0.0113  1.0000  -1.7177   0.0000   0.0000   0.0000   0.3503
  21.800   0.9382   0.31511   0.31297  -0.1175  0.0113  1.0000  -1.7039   0.0000   0.0000   0.0000   0.3509
  21.900   0.9360   0.31684   0.31471  -0.1179  0.0113  1.0000  -1.6889   0.0000   0.0000   0.0000   0.3516
  22.000   0.9332   0.31839   0.31627  -0.1182  0.0113  1.0000  -1.6723   0.0000   0.0000   0.0000   0.3522
  22.100   0.8839   0.30836   0.30634  -0.1138  0.0113  1.0000  -1.5325   0.0000   0.0000   0.0000   0.3551
  22.200   0.8778   0.30809   0.30609  -0.1137  0.0113  1.0000  -1.5078   0.0000   0.0000   0.0000   0.3559
  22.300   0.8729   0.30808   0.30610  -0.1138  0.0113  1.0000  -1.4868   0.0000   0.0000   0.0000   0.3566
  22.400   0.8689   0.30822   0.30625  -0.1139  0.0113  1.0000  -1.4682   0.0000   0.0000   0.0000   0.3573
  22.500   0.8654   0.30845   0.30649  -0.1141  0.0112  1.0000  -1.4509   0.0000   0.0000   0.0000   0.3580
  22.600   0.8623   0.30873   0.30678  -0.1143  0.0112  1.0000  -1.4350   0.0000   0.0000   0.0000   0.3587
  22.700   0.8595   0.30907   0.30713  -0.1145  0.0112  1.0000  -1.4202   0.0000   0.0000   0.0000   0.3593
  22.800   0.8571   0.30945   0.30752  -0.1148  0.0112  1.0000  -1.4065   0.0000   0.0000   0.0000   0.3600
  22.900   0.8555   0.30988   0.30800  -0.1152  0.0111  1.0000  -1.3984   0.0000   0.0000   0.0000   0.3606
  23.000   0.8537   0.31033   0.30846  -0.1155  0.0110  1.0000  -1.3875   0.0000   0.0000   0.0000   0.3612
  23.100   0.8521   0.31082   0.30895  -0.1159  0.0109  1.0000  -1.3767   0.0000   0.0000   0.0000   0.3618
  23.200   0.8506   0.31134   0.30949  -0.1163  0.0109  1.0000  -1.3653   0.0000   0.0000   0.0000   0.3624
  23.300   0.8492   0.31193   0.31008  -0.1168  0.0107  1.0000  -1.3511   0.0000   0.0000   0.0000   0.3630
  23.400   0.8481   0.31256   0.31072  -0.1172  0.0106  1.0000  -1.3369   0.0000   0.0000   0.0000   0.3637
  23.500   0.8470   0.31322   0.31139  -0.1177  0.0105  1.0000  -1.3223   0.0000   0.0000   0.0000   0.3643
  23.600   0.8461   0.31391   0.31208  -0.1182  0.0103  1.0000  -1.3074   0.0000   0.0000   0.0000   0.3649
  23.700   0.8451   0.31459   0.31278  -0.1186  0.0101  1.0000  -1.2925   0.0000   0.0000   0.0000   0.3655
  23.800   0.8442   0.31527   0.31346  -0.1190  0.0099  1.0000  -1.2780   0.0000   0.0000   0.0000   0.3660
  23.900   0.8432   0.31593   0.31413  -0.1194  0.0098  1.0000  -1.2643   0.0000   0.0000   0.0000   0.3665
  24.000   0.8421   0.31658   0.31479  -0.1198  0.0096  1.0000  -1.2515   0.0000   0.0000   0.0000   0.3671
  24.100   0.8411   0.31722   0.31544  -0.1201  0.0094  1.0000  -1.2395   0.0000   0.0000   0.0000   0.3676
  24.200   0.8402   0.31785   0.31608  -0.1205  0.0093  1.0000  -1.2282   0.0000   0.0000   0.0000   0.3680
  24.300   0.8392   0.31848   0.31672  -0.1209  0.0092  1.0000  -1.2177   0.0000   0.0000   0.0000   0.3685
  24.400   0.8383   0.31911   0.31736  -0.1212  0.0090  1.0000  -1.2078   0.0000   0.0000   0.0000   0.3690
  24.500   0.8374   0.31974   0.31799  -0.1216  0.0089  1.0000  -1.1984   0.0000   0.0000   0.0000   0.3695
  24.600   0.8366   0.32036   0.31862  -0.1220  0.0088  1.0000  -1.1896   0.0000   0.0000   0.0000   0.3699
  24.700   0.8358   0.32099   0.31926  -0.1223  0.0086  1.0000  -1.1812   0.0000   0.0000   0.0000   0.3704
  24.800   0.8350   0.32161   0.31989  -0.1227  0.0085  1.0000  -1.1731   0.0000   0.0000   0.0000   0.3708
  24.900   0.8343   0.32224   0.32052  -0.1231  0.0084  1.0000  -1.1655   0.0000   0.0000   0.0000   0.3713
  25.000   0.8336   0.32287   0.32116  -0.1235  0.0083  1.0000  -1.1581   0.0000   0.0000   0.0000   0.3717
  25.100   0.8329   0.32350   0.32180  -0.1238  0.0082  1.0000  -1.1511   0.0000   0.0000   0.0000   0.3722
  25.200   0.8323   0.32413   0.32244  -0.1242  0.0081  1.0000  -1.1443   0.0000   0.0000   0.0000   0.3726
  25.300   0.8317   0.32476   0.32308  -0.1246  0.0080  1.0000  -1.1378   0.0000   0.0000   0.0000   0.3730
  25.400   0.8311   0.32540   0.32372  -0.1250  0.0079  1.0000  -1.1315   0.0000   0.0000   0.0000   0.3734
  25.500   0.8306   0.32603   0.32437  -0.1254  0.0078  1.0000  -1.1255   0.0000   0.0000   0.0000   0.3739
  25.600   0.8301   0.32667   0.32501  -0.1258  0.0077  1.0000  -1.1196   0.0000   0.0000   0.0000   0.3743
  25.700   0.8296   0.32731   0.32566  -0.1262  0.0076  1.0000  -1.1140   0.0000   0.0000   0.0000   0.3747
  25.800   0.8291   0.32795   0.32631  -0.1265  0.0076  1.0000  -1.1085   0.0000   0.0000   0.0000   0.3751
  25.900   0.8287   0.32859   0.32696  -0.1269  0.0075  1.0000  -1.1032   0.0000   0.0000   0.0000   0.3755
  26.000   0.8283   0.32924   0.32761  -0.1273  0.0074  1.0000  -1.0981   0.0000   0.0000   0.0000   0.3759
  26.100   0.8279   0.32988   0.32826  -0.1277  0.0073  1.0000  -1.0931   0.0000   0.0000   0.0000   0.3763
  26.200   0.8275   0.33053   0.32892  -0.1281  0.0073  1.0000  -1.0883   0.0000   0.0000   0.0000   0.3767
  26.300   0.8271   0.33118   0.32957  -0.1285  0.0072  1.0000  -1.0836   0.0000   0.0000   0.0000   0.3771
  26.400   0.8268   0.33183   0.33023  -0.1289  0.0071  1.0000  -1.0791   0.0000   0.0000   0.0000   0.3774
  26.500   0.8265   0.33248   0.33088  -0.1293  0.0071  1.0000  -1.0747   0.0000   0.0000   0.0000   0.3778
  26.600   0.8262   0.33313   0.33154  -0.1297  0.0070  1.0000  -1.0704   0.0000   0.0000   0.0000   0.3782
  26.700   0.8259   0.33378   0.33220  -0.1301  0.0069  1.0000  -1.0663   0.0000   0.0000   0.0000   0.3786
  26.800   0.8256   0.33444   0.33286  -0.1305  0.0069  1.0000  -1.0623   0.0000   0.0000   0.0000   0.3790
  26.900   0.8253   0.33509   0.33353  -0.1310  0.0068  1.0000  -1.0585   0.0000   0.0000   0.0000   0.3793
  27.000   0.8251   0.33574   0.33419  -0.1314  0.0067  1.0000  -1.0548   0.0000   0.0000   0.0000   0.3797
  27.100   0.8248   0.33640   0.33485  -0.1318  0.0067  1.0000  -1.0519   0.0000   0.0000   0.0000   0.3801
  27.200   0.8246   0.33704   0.33550  -0.1322  0.0066  1.0000  -1.0503   0.0000   0.0000   0.0000   0.3804
  27.300   0.8244   0.33768   0.33614  -0.1326  0.0064  1.0000  -1.0500   0.0000   0.0000   0.0000   0.3808
  27.400   0.8243   0.33830   0.33678  -0.1330  0.0063  1.0000  -1.0512   0.0000   0.0000   0.0000   0.3811
  27.500   0.8241   0.33892   0.33740  -0.1334  0.0062  1.0000  -1.0540   0.0000   0.0000   0.0000   0.3815
  27.600   0.8240   0.33952   0.33801  -0.1339  0.0060  1.0000  -1.0586   0.0000   0.0000   0.0000   0.3818
  27.700   0.8239   0.34011   0.33860  -0.1343  0.0058  1.0000  -1.0651   0.0000   0.0000   0.0000   0.3821
  27.800   0.8238   0.34068   0.33918  -0.1347  0.0057  1.0000  -1.0737   0.0000   0.0000   0.0000   0.3824
  27.900   0.8238   0.34123   0.33973  -0.1351  0.0055  1.0000  -1.0843   0.0000   0.0000   0.0000   0.3827
  28.000   0.8237   0.34176   0.34027  -0.1355  0.0053  1.0000  -1.0968   0.0000   0.0000   0.0000   0.3830
  28.100   0.8237   0.34227   0.34079  -0.1360  0.0052  1.0000  -1.1111   0.0000   0.0000   0.0000   0.3833
  28.200   0.8237   0.34276   0.34129  -0.1364  0.0050  1.0000  -1.1268   0.0000   0.0000   0.0000   0.3836
  28.300   0.8237   0.34324   0.34177  -0.1368  0.0049  1.0000  -1.1434   0.0000   0.0000   0.0000   0.3839
  28.400   0.8236   0.34371   0.34225  -0.1372  0.0048  1.0000  -1.1601   0.0000   0.0000   0.0000   0.3841
  28.500   0.8236   0.34419   0.34274  -0.1376  0.0047  1.0000  -1.1756   0.0000   0.0000   0.0000   0.3844
  28.600   0.8235   0.34469   0.34325  -0.1380  0.0046  1.0000  -1.1881   0.0000   0.0000   0.0000   0.3846
  28.700   0.8235   0.34518   0.34375  -0.1384  0.0046  1.0000  -1.2012   0.0000   0.0000   0.0000   0.3849
  28.800   0.8234   0.34566   0.34423  -0.1388  0.0045  1.0000  -1.2157   0.0000   0.0000   0.0000   0.3851
  28.900   0.8233   0.34611   0.34469  -0.1391  0.0044  1.0000  -1.2315   0.0000   0.0000   0.0000   0.3853
  29.000   0.8232   0.34654   0.34513  -0.1395  0.0043  1.0000  -1.2487   0.0000   0.0000   0.0000   0.3855
  29.100   0.8231   0.34695   0.34555  -0.1398  0.0043  1.0000  -1.2669   0.0000   0.0000   0.0000   0.3857
  29.200   0.8225   0.34711   0.34575  -0.1400  0.0041  1.0000  -1.3031   0.0000   0.0000   0.0000   0.3857
  29.300   0.8162   0.34918   0.34780  -0.1397  0.0036  1.0000  -1.1183   0.0000   0.0000   0.0000   0.3869
  29.400   0.8160   0.34994   0.34856  -0.1401  0.0036  1.0000  -1.1181   0.0000   0.0000   0.0000   0.3873
  29.500   0.8158   0.35071   0.34934  -0.1406  0.0036  1.0000  -1.1159   0.0000   0.0000   0.0000   0.3878
  29.600   0.8156   0.35153   0.35016  -0.1411  0.0036  1.0000  -1.1089   0.0000   0.0000   0.0000   0.3882
  29.700   0.8154   0.35242   0.35105  -0.1417  0.0036  1.0000  -1.0926   0.0000   0.0000   0.0000   0.3887
  29.800   0.8152   0.35339   0.35202  -0.1422  0.0035  1.0000  -1.0659   0.0000   0.0000   0.0000   0.3892
  29.900   0.8150   0.35437   0.35300  -0.1427  0.0035  1.0000  -1.0379   0.0000   0.0000   0.0000   0.3897
  30.000   0.8149   0.35530   0.35394  -0.1431  0.0035  1.0000  -1.0217   0.0000   0.0000   0.0000   0.3901


