xflr5 v6.61

 Calculated polar for: S3021-095-84

 1 1 Reynolds number fixed          Mach number fixed         

 xtrf =   1.000 (top)        1.000 (bottom)
 Mach =   0.000     Re =     0.450 e 6     Ncrit =   9.000

  alpha     CL        CD       CDp       Cm    Top Xtr Bot Xtr   Cpmin    Chinge    XCp    
 ------- -------- --------- --------- -------- ------- ------- -------- --------- ---------
 -10.000  -0.3909   0.11224   0.10974  -0.0186  1.0000  0.0227  -1.5245   0.0000   0.0000   0.0000   0.1958
  -9.900  -0.3887   0.11094   0.10844  -0.0192  1.0000  0.0227  -1.5297   0.0000   0.0000   0.0000   0.1941
  -9.800  -0.3866   0.10961   0.10713  -0.0198  1.0000  0.0228  -1.5354   0.0000   0.0000   0.0000   0.1923
  -9.700  -0.3845   0.10828   0.10580  -0.0204  1.0000  0.0228  -1.5414   0.0000   0.0000   0.0000   0.1905
  -9.600  -0.3825   0.10694   0.10447  -0.0210  1.0000  0.0228  -1.5478   0.0000   0.0000   0.0000   0.1887
  -9.500  -0.3805   0.10560   0.10313  -0.0216  1.0000  0.0228  -1.5545   0.0000   0.0000   0.0000   0.1869
  -9.400  -0.3786   0.10426   0.10180  -0.0222  1.0000  0.0228  -1.5615   0.0000   0.0000   0.0000   0.1851
  -9.300  -0.3768   0.10292   0.10047  -0.0228  1.0000  0.0229  -1.5689   0.0000   0.0000   0.0000   0.1833
  -9.200  -0.3750   0.10158   0.09914  -0.0234  1.0000  0.0229  -1.5765   0.0000   0.0000   0.0000   0.1815
  -9.100  -0.3733   0.10024   0.09781  -0.0240  1.0000  0.0229  -1.5845   0.0000   0.0000   0.0000   0.1797
  -9.000  -0.3717   0.09891   0.09648  -0.0246  1.0000  0.0229  -1.5929   0.0000   0.0000   0.0000   0.1779
  -8.900  -0.3702   0.09757   0.09515  -0.0252  1.0000  0.0229  -1.6016   0.0000   0.0000   0.0000   0.1760
  -8.800  -0.3686   0.09621   0.09380  -0.0258  1.0000  0.0229  -1.6106   0.0000   0.0000   0.0000   0.1741
  -8.700  -0.3670   0.09484   0.09244  -0.0265  1.0000  0.0229  -1.6200   0.0000   0.0000   0.0000   0.1721
  -8.600  -0.3655   0.09346   0.09107  -0.0271  1.0000  0.0230  -1.6298   0.0000   0.0000   0.0000   0.1701
  -8.500  -0.3641   0.09209   0.08971  -0.0278  1.0000  0.0230  -1.6401   0.0000   0.0000   0.0000   0.1680
  -8.400  -0.3629   0.09072   0.08835  -0.0285  1.0000  0.0230  -1.6508   0.0000   0.0000   0.0000   0.1660
  -8.300  -0.3618   0.08934   0.08699  -0.0291  1.0000  0.0230  -1.6622   0.0000   0.0000   0.0000   0.1640
  -8.200  -0.3608   0.08797   0.08563  -0.0298  1.0000  0.0230  -1.6741   0.0000   0.0000   0.0000   0.1621
  -8.100  -0.3600   0.08660   0.08427  -0.0305  1.0000  0.0230  -1.6866   0.0000   0.0000   0.0000   0.1601
  -8.000  -0.3594   0.08522   0.08290  -0.0311  1.0000  0.0230  -1.6999   0.0000   0.0000   0.0000   0.1581
  -7.900  -0.3591   0.08385   0.08154  -0.0318  1.0000  0.0230  -1.7140   0.0000   0.0000   0.0000   0.1563
  -7.800  -0.3592   0.08248   0.08020  -0.0325  1.0000  0.0230  -1.7291   0.0000   0.0000   0.0000   0.1545
  -7.700  -0.3598   0.08114   0.07887  -0.0331  1.0000  0.0230  -1.7454   0.0000   0.0000   0.0000   0.1530
  -7.600  -0.3611   0.07983   0.07758  -0.0337  1.0000  0.0230  -1.7631   0.0000   0.0000   0.0000   0.1519
  -7.500  -0.3633   0.07855   0.07632  -0.0343  1.0000  0.0231  -1.7823   0.0000   0.0000   0.0000   0.1510
  -7.400  -0.3649   0.07717   0.07495  -0.0351  1.0000  0.0231  -1.8029   0.0000   0.0000   0.0000   0.1494
  -7.300  -0.3650   0.07561   0.07340  -0.0363  1.0000  0.0231  -1.8242   0.0000   0.0000   0.0000   0.1463
  -7.200  -0.3651   0.07404   0.07184  -0.0373  1.0000  0.0231  -1.8462   0.0000   0.0000   0.0000   0.1436
  -7.100  -0.3653   0.07248   0.07029  -0.0382  1.0000  0.0231  -1.8687   0.0000   0.0000   0.0000   0.1412
  -7.000  -0.3656   0.07095   0.06876  -0.0389  1.0000  0.0231  -1.8914   0.0000   0.0000   0.0000   0.1395
  -6.900  -0.3664   0.06948   0.06728  -0.0394  1.0000  0.0231  -1.9140   0.0000   0.0000   0.0000   0.1386
  -6.800  -0.3677   0.06809   0.06589  -0.0395  1.0000  0.0231  -1.9362   0.0000   0.0000   0.0000   0.1387
  -6.700  -0.3698   0.06681   0.06461  -0.0393  1.0000  0.0231  -1.9577   0.0000   0.0000   0.0000   0.1399
  -6.600  -0.3625   0.06452   0.06229  -0.0418  0.9985  0.0231  -1.9825   0.0000   0.0000   0.0000   0.1309
  -6.400  -0.3578   0.05098   0.04848  -0.0535  0.9904  0.0243  -2.4041   0.0000   0.0000   0.0000   0.0964
  -6.300  -0.3504   0.04760   0.04502  -0.0564  0.9881  0.0251  -2.4319   0.0000   0.0000   0.0000   0.0848
  -6.200  -0.3401   0.04567   0.04304  -0.0585  0.9863  0.0257  -2.3962   0.0000   0.0000   0.0000   0.0740
  -6.100  -0.3308   0.04423   0.04156  -0.0597  0.9829  0.0262  -2.3514   0.0000   0.0000   0.0000   0.0653
  -6.000  -0.3198   0.04323   0.04055  -0.0609  0.9802  0.0268  -2.2779   0.0000   0.0000   0.0000   0.0555
  -5.900  -0.3080   0.04219   0.03947  -0.0622  0.9778  0.0274  -2.2089   0.0000   0.0000   0.0000   0.0440
  -5.800  -0.2958   0.04106   0.03831  -0.0636  0.9755  0.0281  -2.1466   0.0000   0.0000   0.0000   0.0307
  -5.700  -0.2832   0.03986   0.03705  -0.0651  0.9732  0.0290  -2.0920   0.0000   0.0000   0.0000   0.0160
  -5.600  -0.2701   0.03858   0.03571  -0.0666  0.9711  0.0299  -2.0437   0.0000   0.0000   0.0000  -0.0011
  -5.500  -0.2620   0.03750   0.03457  -0.0669  0.9642  0.0308  -2.0120   0.0000   0.0000   0.0000  -0.0098
  -5.400  -0.2513   0.03629   0.03329  -0.0677  0.9588  0.0320  -1.9797   0.0000   0.0000   0.0000  -0.0238
  -5.300  -0.2391   0.03504   0.03194  -0.0686  0.9543  0.0334  -1.9494   0.0000   0.0000   0.0000  -0.0418
  -5.200  -0.2260   0.03386   0.03066  -0.0696  0.9503  0.0351  -1.9203   0.0000   0.0000   0.0000  -0.0628
  -5.100  -0.2170   0.03310   0.02981  -0.0694  0.9424  0.0368  -1.8948   0.0000   0.0000   0.0000  -0.0748
  -5.000  -0.2044   0.03294   0.02958  -0.0694  0.9355  0.0389  -1.8477   0.0000   0.0000   0.0000  -0.0945
  -4.900  -0.1867   0.03474   0.03133  -0.0691  0.9298  0.0411  -1.7388   0.0000   0.0000   0.0000  -0.1256
  -4.800  -0.1746   0.03467   0.03114  -0.0692  0.9236  0.0415  -1.6924   0.0000   0.0000   0.0000  -0.1522
  -4.700  -0.1662   0.03403   0.03040  -0.0689  0.9152  0.0416  -1.6681   0.0000   0.0000   0.0000  -0.1704
  -4.600  -0.1719   0.02708   0.02301  -0.0692  0.9052  0.0444  -1.8584   0.0000   0.0000   0.0000  -0.1584
  -4.500  -0.1644   0.02569   0.02155  -0.0691  0.8980  0.0459  -1.8231   0.0000   0.0000   0.0000  -0.1765
  -4.400  -0.1557   0.02491   0.02072  -0.0690  0.8912  0.0472  -1.7720   0.0000   0.0000   0.0000  -0.1990
  -4.300  -0.1469   0.02432   0.02013  -0.0687  0.8841  0.0484  -1.7149   0.0000   0.0000   0.0000  -0.2243
  -4.200  -0.1379   0.02380   0.01956  -0.0685  0.8768  0.0497  -1.6597   0.0000   0.0000   0.0000  -0.2531
  -4.100  -0.1288   0.02331   0.01901  -0.0682  0.8695  0.0514  -1.6068   0.0000   0.0000   0.0000  -0.2865
  -4.000  -0.1194   0.02287   0.01847  -0.0679  0.8624  0.0534  -1.5547   0.0000   0.0000   0.0000  -0.3258
  -3.900  -0.1093   0.02278   0.01817  -0.0677  0.8559  0.0573  -1.4861   0.0000   0.0000   0.0000  -0.3766
  -3.800  -0.0987   0.02262   0.01794  -0.0673  0.8498  0.0602  -1.4408   0.0000   0.0000   0.0000  -0.4401
  -3.700  -0.0867   0.02316   0.01845  -0.0669  0.8430  0.0632  -1.3793   0.0000   0.0000   0.0000  -0.5308
  -3.600  -0.0730   0.02483   0.02010  -0.0664  0.8357  0.0651  -1.2938   0.0000   0.0000   0.0000  -0.6689
  -3.500  -0.0723   0.01990   0.01479  -0.0663  0.8297  0.0708  -1.3676   0.0000   0.0000   0.0000  -0.6768
  -3.400  -0.0633   0.01928   0.01411  -0.0661  0.8227  0.0733  -1.3215   0.0000   0.0000   0.0000  -0.8052
  -3.300  -0.0534   0.01881   0.01365  -0.0659  0.8172  0.0757  -1.2724   0.0000   0.0000   0.0000  -0.9975
  -3.200  -0.0432   0.01841   0.01324  -0.0657  0.8126  0.0785  -1.2261   0.0000   0.0000   0.0000  -1.2851
  -3.100  -0.0329   0.01805   0.01286  -0.0655  0.8076  0.0817  -1.1831   0.0000   0.0000   0.0000  -1.7598
  -3.000  -0.0223   0.01778   0.01253  -0.0652  0.8025  0.0852  -1.1425   0.0000   0.0000   0.0000  -2.7046
  -2.700   0.0149   0.01310   0.00684  -0.0621  0.7888  0.0363  -1.3836   0.0000   0.0000   0.0000   4.4557
  -2.600   0.0255   0.01179   0.00524  -0.0610  0.7838  0.0278  -1.4782   0.0000   0.0000   0.0000   2.6623
  -2.400   0.0481   0.01173   0.00511  -0.0606  0.7748  0.0243  -1.3720   0.0000   0.0000   0.0000   1.5212
  -2.300   0.0596   0.01184   0.00522  -0.0605  0.7715  0.0234  -1.3018   0.0000   0.0000   0.0000   1.2742
  -2.200   0.0689   0.01097   0.00426  -0.0600  0.7678  0.0222  -1.3161   0.0000   0.0000   0.0000   1.1269
  -2.100   0.0789   0.01055   0.00377  -0.0596  0.7636  0.0214  -1.2949   0.0000   0.0000   0.0000   1.0100
  -2.000   0.0892   0.01025   0.00340  -0.0592  0.7591  0.0208  -1.2640   0.0000   0.0000   0.0000   0.9184
  -1.900   0.0996   0.01003   0.00309  -0.0589  0.7543  0.0203  -1.2278   0.0000   0.0000   0.0000   0.8452
  -1.800   0.1101   0.00986   0.00284  -0.0586  0.7494  0.0198  -1.1875   0.0000   0.0000   0.0000   0.7856
  -1.700   0.1206   0.00973   0.00262  -0.0583  0.7442  0.0194  -1.1440   0.0000   0.0000   0.0000   0.7363
  -1.600   0.1312   0.00963   0.00244  -0.0581  0.7385  0.0190  -1.0981   0.0000   0.0000   0.0000   0.6948
  -1.500   0.1421   0.00957   0.00230  -0.0579  0.7325  0.0188  -1.0497   0.0000   0.0000   0.0000   0.6593
  -1.400   0.1532   0.00948   0.00217  -0.0578  0.7303  0.0186  -0.9996   0.0000   0.0000   0.0000   0.6287
  -1.300   0.1642   0.00941   0.00207  -0.0577  0.7278  0.0184  -0.9480   0.0000   0.0000   0.0000   0.6023
  -1.200   0.1753   0.00935   0.00199  -0.0576  0.7249  0.0184  -0.8949   0.0000   0.0000   0.0000   0.5792
  -1.100   0.1864   0.00931   0.00191  -0.0575  0.7215  0.0184  -0.8399   0.0000   0.0000   0.0000   0.5589
  -1.000   0.1974   0.00928   0.00183  -0.0574  0.7177  0.0185  -0.7837   0.0000   0.0000   0.0000   0.5409
  -0.900   0.2084   0.00926   0.00176  -0.0572  0.7136  0.0187  -0.7266   0.0000   0.0000   0.0000   0.5249
  -0.800   0.2193   0.00924   0.00170  -0.0571  0.7093  0.0191  -0.6689   0.0000   0.0000   0.0000   0.5105
  -0.700   0.2302   0.00923   0.00164  -0.0570  0.7047  0.0197  -0.6110   0.0000   0.0000   0.0000   0.4974
  -0.600   0.2409   0.00923   0.00160  -0.0568  0.6999  0.0205  -0.5532   0.0000   0.0000   0.0000   0.4856
  -0.500   0.2517   0.00923   0.00158  -0.0567  0.6947  0.0217  -0.5319   0.0000   0.0000   0.0000   0.4749
  -0.400   0.2626   0.00925   0.00158  -0.0566  0.6887  0.0229  -0.5409   0.0000   0.0000   0.0000   0.4651
  -0.300   0.2719   0.00880   0.00154  -0.0565  0.6848  0.1431  -0.5488   0.0000   0.0000   0.0000   0.4571
  -0.200   0.2820   0.00857   0.00153  -0.0564  0.6827  0.2049  -0.5583   0.0000   0.0000   0.0000   0.4492
  -0.100   0.2919   0.00831   0.00154  -0.0563  0.6801  0.2776  -0.5680   0.0000   0.0000   0.0000   0.4420
   0.000   0.3018   0.00809   0.00155  -0.0562  0.6770  0.3486  -0.5778   0.0000   0.0000   0.0000   0.4352
   0.100   0.3110   0.00778   0.00157  -0.0560  0.6736  0.4414  -0.5873   0.0000   0.0000   0.0000   0.4289
   0.200   0.3194   0.00744   0.00160  -0.0556  0.6699  0.5535  -0.5963   0.0000   0.0000   0.0000   0.4228
   0.300   0.3256   0.00700   0.00165  -0.0546  0.6663  0.6929  -0.6041   0.0000   0.0000   0.0000   0.4163
   0.500   0.4012   0.00646   0.00182  -0.0651  0.6568  1.0000  -0.6577   0.0000   0.0000   0.0000   0.4109
   0.600   0.4110   0.00649   0.00181  -0.0648  0.6520  1.0000  -0.6678   0.0000   0.0000   0.0000   0.4062
   0.700   0.4209   0.00654   0.00181  -0.0646  0.6463  1.0000  -0.6793   0.0000   0.0000   0.0000   0.4018
   0.800   0.4308   0.00661   0.00182  -0.0643  0.6399  1.0000  -0.6909   0.0000   0.0000   0.0000   0.3977
   0.900   0.4410   0.00664   0.00183  -0.0641  0.6362  1.0000  -0.7026   0.0000   0.0000   0.0000   0.3937
   1.000   0.4512   0.00664   0.00183  -0.0639  0.6342  1.0000  -0.7145   0.0000   0.0000   0.0000   0.3899
   1.100   0.4614   0.00665   0.00184  -0.0638  0.6318  1.0000  -0.7264   0.0000   0.0000   0.0000   0.3862
   1.200   0.4717   0.00667   0.00184  -0.0636  0.6291  1.0000  -0.7383   0.0000   0.0000   0.0000   0.3828
   1.300   0.4819   0.00668   0.00185  -0.0634  0.6260  1.0000  -0.7502   0.0000   0.0000   0.0000   0.3794
   1.400   0.4920   0.00670   0.00186  -0.0632  0.6224  1.0000  -0.7622   0.0000   0.0000   0.0000   0.3762
   1.500   0.5021   0.00673   0.00186  -0.0629  0.6184  1.0000  -0.7753   0.0000   0.0000   0.0000   0.3731
   1.600   0.5122   0.00676   0.00186  -0.0627  0.6140  1.0000  -0.7891   0.0000   0.0000   0.0000   0.3701
   1.700   0.5221   0.00680   0.00186  -0.0624  0.6091  1.0000  -0.8029   0.0000   0.0000   0.0000   0.3672
   1.800   0.5319   0.00684   0.00187  -0.0621  0.6039  1.0000  -0.8167   0.0000   0.0000   0.0000   0.3644
   1.900   0.5417   0.00690   0.00188  -0.0619  0.5981  1.0000  -0.8304   0.0000   0.0000   0.0000   0.3617
   2.000   0.5516   0.00698   0.00191  -0.0616  0.5916  1.0000  -0.8442   0.0000   0.0000   0.0000   0.3591
   2.100   0.5618   0.00703   0.00194  -0.0614  0.5872  1.0000  -0.8583   0.0000   0.0000   0.0000   0.3566
   2.200   0.5721   0.00704   0.00196  -0.0612  0.5854  1.0000  -0.8726   0.0000   0.0000   0.0000   0.3543
   2.300   0.5824   0.00705   0.00198  -0.0611  0.5829  1.0000  -0.8882   0.0000   0.0000   0.0000   0.3520
   2.400   0.5927   0.00707   0.00200  -0.0609  0.5797  1.0000  -0.9050   0.0000   0.0000   0.0000   0.3498
   2.500   0.6029   0.00709   0.00202  -0.0607  0.5757  1.0000  -0.9218   0.0000   0.0000   0.0000   0.3477
   2.600   0.6130   0.00712   0.00204  -0.0605  0.5711  1.0000  -0.9386   0.0000   0.0000   0.0000   0.3456
   2.700   0.6231   0.00715   0.00205  -0.0602  0.5659  1.0000  -0.9555   0.0000   0.0000   0.0000   0.3435
   2.800   0.6330   0.00720   0.00207  -0.0600  0.5604  1.0000  -0.9722   0.0000   0.0000   0.0000   0.3415
   2.900   0.6427   0.00726   0.00209  -0.0597  0.5547  1.0000  -0.9890   0.0000   0.0000   0.0000   0.3395
   3.000   0.6525   0.00732   0.00212  -0.0594  0.5486  1.0000  -1.0056   0.0000   0.0000   0.0000   0.3376
   3.100   0.6622   0.00741   0.00216  -0.0591  0.5420  1.0000  -1.0242   0.0000   0.0000   0.0000   0.3358
   3.200   0.6724   0.00746   0.00220  -0.0589  0.5374  1.0000  -1.0445   0.0000   0.0000   0.0000   0.3341
   3.300   0.6827   0.00747   0.00224  -0.0588  0.5347  1.0000  -1.0651   0.0000   0.0000   0.0000   0.3324
   3.400   0.6930   0.00749   0.00227  -0.0586  0.5310  1.0000  -1.0858   0.0000   0.0000   0.0000   0.3308
   3.500   0.7032   0.00753   0.00230  -0.0584  0.5262  1.0000  -1.1065   0.0000   0.0000   0.0000   0.3292
   3.600   0.7133   0.00757   0.00232  -0.0582  0.5204  1.0000  -1.1271   0.0000   0.0000   0.0000   0.3276
   3.700   0.7232   0.00762   0.00234  -0.0579  0.5142  1.0000  -1.1477   0.0000   0.0000   0.0000   0.3261
   3.800   0.7241   0.00815   0.00230  -0.0560  0.4105  1.0000  -1.1605   0.0000   0.0000   0.0000   0.3233
   3.900   0.7316   0.00841   0.00237  -0.0554  0.3772  1.0000  -1.1786   0.0000   0.0000   0.0000   0.3216
   4.000   0.7391   0.00868   0.00244  -0.0549  0.3478  1.0000  -1.1969   0.0000   0.0000   0.0000   0.3200
   4.100   0.7481   0.00884   0.00251  -0.0545  0.3286  1.0000  -1.2211   0.0000   0.0000   0.0000   0.3185
   4.200   0.7561   0.00909   0.00260  -0.0541  0.3048  1.0000  -1.2441   0.0000   0.0000   0.0000   0.3170
   4.300   0.7652   0.00925   0.00268  -0.0538  0.2879  1.0000  -1.2687   0.0000   0.0000   0.0000   0.3157
   4.400   0.7734   0.00950   0.00279  -0.0533  0.2665  1.0000  -1.2923   0.0000   0.0000   0.0000   0.3143
   4.500   0.7822   0.00969   0.00288  -0.0530  0.2483  1.0000  -1.3168   0.0000   0.0000   0.0000   0.3130
   4.600   0.7904   0.00995   0.00301  -0.0526  0.2267  1.0000  -1.3406   0.0000   0.0000   0.0000   0.3117
   4.700   0.7989   0.01018   0.00312  -0.0522  0.2070  1.0000  -1.3650   0.0000   0.0000   0.0000   0.3104
   4.800   0.8067   0.01049   0.00327  -0.0518  0.1829  1.0000  -1.3917   0.0000   0.0000   0.0000   0.3092
   4.900   0.8152   0.01074   0.00340  -0.0514  0.1627  1.0000  -1.4203   0.0000   0.0000   0.0000   0.3080
   5.000   0.8229   0.01106   0.00356  -0.0510  0.1391  1.0000  -1.4476   0.0000   0.0000   0.0000   0.3067
   5.100   0.8306   0.01139   0.00374  -0.0505  0.1169  1.0000  -1.4748   0.0000   0.0000   0.0000   0.3055
   5.200   0.8386   0.01168   0.00391  -0.0501  0.0962  1.0000  -1.5025   0.0000   0.0000   0.0000   0.3043
   5.300   0.8438   0.01229   0.00424  -0.0493  0.0556  1.0000  -1.5254   0.0000   0.0000   0.0000   0.3029
   5.400   0.8480   0.01302   0.00470  -0.0483  0.0113  1.0000  -1.5626   0.0000   0.0000   0.0000   0.3014
   5.500   0.8577   0.01315   0.00479  -0.0481  0.0107  1.0000  -1.6377   0.0000   0.0000   0.0000   0.3004
   5.600   0.8674   0.01326   0.00488  -0.0479  0.0102  1.0000  -1.7166   0.0000   0.0000   0.0000   0.2994
   5.700   0.8772   0.01337   0.00498  -0.0477  0.0098  1.0000  -1.7983   0.0000   0.0000   0.0000   0.2984
   5.800   0.8869   0.01349   0.00509  -0.0474  0.0093  1.0000  -1.8823   0.0000   0.0000   0.0000   0.2975
   5.900   0.8967   0.01360   0.00521  -0.0472  0.0088  1.0000  -1.9682   0.0000   0.0000   0.0000   0.2966
   6.000   0.9063   0.01373   0.00535  -0.0470  0.0085  1.0000  -2.0540   0.0000   0.0000   0.0000   0.2956
   6.100   0.9159   0.01386   0.00551  -0.0468  0.0083  1.0000  -2.1408   0.0000   0.0000   0.0000   0.2947
   6.200   0.9255   0.01400   0.00566  -0.0465  0.0081  1.0000  -2.2284   0.0000   0.0000   0.0000   0.2938
   6.300   0.9351   0.01413   0.00582  -0.0463  0.0080  1.0000  -2.3169   0.0000   0.0000   0.0000   0.2929
   6.400   0.9447   0.01426   0.00598  -0.0460  0.0079  1.0000  -2.4062   0.0000   0.0000   0.0000   0.2921
   6.500   0.9542   0.01439   0.00614  -0.0458  0.0079  1.0000  -2.4961   0.0000   0.0000   0.0000   0.2912
   6.600   0.9638   0.01453   0.00632  -0.0455  0.0078  1.0000  -2.5866   0.0000   0.0000   0.0000   0.2903
   6.700   0.9733   0.01466   0.00649  -0.0453  0.0078  1.0000  -2.6772   0.0000   0.0000   0.0000   0.2895
   6.800   0.9828   0.01481   0.00668  -0.0450  0.0079  1.0000  -2.7678   0.0000   0.0000   0.0000   0.2886
   6.900   0.9922   0.01496   0.00688  -0.0447  0.0079  1.0000  -2.8579   0.0000   0.0000   0.0000   0.2878
   7.000   1.0015   0.01512   0.00709  -0.0444  0.0080  1.0000  -2.9470   0.0000   0.0000   0.0000   0.2870
   7.100   1.0107   0.01529   0.00732  -0.0441  0.0080  1.0000  -3.0347   0.0000   0.0000   0.0000   0.2861
   7.200   1.0198   0.01548   0.00755  -0.0437  0.0081  1.0000  -3.1205   0.0000   0.0000   0.0000   0.2853
   7.300   1.0287   0.01568   0.00780  -0.0433  0.0082  1.0000  -3.2039   0.0000   0.0000   0.0000   0.2844
   7.400   1.0375   0.01590   0.00807  -0.0429  0.0083  1.0000  -3.2845   0.0000   0.0000   0.0000   0.2835
   7.500   1.0461   0.01614   0.00836  -0.0425  0.0085  1.0000  -3.3628   0.0000   0.0000   0.0000   0.2826
   7.600   1.0544   0.01640   0.00867  -0.0420  0.0086  1.0000  -3.4387   0.0000   0.0000   0.0000   0.2817
   7.700   1.0623   0.01670   0.00903  -0.0415  0.0088  1.0000  -3.5116   0.0000   0.0000   0.0000   0.2808
   7.800   1.0713   0.01687   0.00950  -0.0411  0.0089  1.0000  -3.5565   0.0000   0.0000   0.0000   0.2800
   7.900   1.0791   0.01717   0.00987  -0.0406  0.0091  1.0000  -3.6408   0.0000   0.0000   0.0000   0.2791
   8.000   1.0864   0.01751   0.01029  -0.0400  0.0092  1.0000  -3.7196   0.0000   0.0000   0.0000   0.2782
   8.100   1.0933   0.01788   0.01074  -0.0393  0.0093  1.0000  -3.7917   0.0000   0.0000   0.0000   0.2772
   8.200   1.0995   0.01830   0.01123  -0.0385  0.0095  1.0000  -3.8579   0.0000   0.0000   0.0000   0.2761
   8.300   1.1053   0.01876   0.01177  -0.0377  0.0097  1.0000  -3.9187   0.0000   0.0000   0.0000   0.2751
   8.400   1.1105   0.01926   0.01235  -0.0367  0.0098  1.0000  -3.9740   0.0000   0.0000   0.0000   0.2739
   8.500   1.1151   0.01981   0.01298  -0.0357  0.0100  1.0000  -4.0239   0.0000   0.0000   0.0000   0.2728
   8.600   1.1190   0.02040   0.01365  -0.0346  0.0102  1.0000  -4.0682   0.0000   0.0000   0.0000   0.2715
   8.700   1.1224   0.02104   0.01437  -0.0335  0.0104  1.0000  -4.1066   0.0000   0.0000   0.0000   0.2703
   8.800   1.1251   0.02176   0.01516  -0.0322  0.0106  1.0000  -4.1383   0.0000   0.0000   0.0000   0.2690
   8.900   1.1271   0.02256   0.01604  -0.0309  0.0108  1.0000  -4.1619   0.0000   0.0000   0.0000   0.2676
   9.000   1.1283   0.02349   0.01706  -0.0295  0.0110  1.0000  -4.1734   0.0000   0.0000   0.0000   0.2662
   9.100   1.1276   0.02477   0.01843  -0.0278  0.0113  1.0000  -4.1555   0.0000   0.0000   0.0000   0.2646
   9.200   1.1304   0.02583   0.01957  -0.0266  0.0118  1.0000  -4.1651   0.0000   0.0000   0.0000   0.2634
   9.300   1.1381   0.02583   0.01958  -0.0261  0.0121  1.0000  -4.2662   0.0000   0.0000   0.0000   0.2626
   9.400   1.1456   0.02589   0.01965  -0.0255  0.0126  1.0000  -4.3627   0.0000   0.0000   0.0000   0.2617
   9.500   1.1528   0.02604   0.01982  -0.0248  0.0131  1.0000  -4.4520   0.0000   0.0000   0.0000   0.2609
   9.600   1.1596   0.02633   0.02016  -0.0241  0.0138  1.0000  -4.5261   0.0000   0.0000   0.0000   0.2600
   9.700   1.1744   0.02969   0.02397  -0.0236  0.0192  1.0000  -4.3324   0.0000   0.0000   0.0000   0.2592
   9.800   1.1842   0.04301   0.03880  -0.0200  0.0536  1.0000  -3.5325   0.0000   0.0000   0.0000   0.2560
   9.900   1.1867   0.04397   0.03983  -0.0191  0.0527  1.0000  -3.5651   0.0000   0.0000   0.0000   0.2551
  10.000   1.1887   0.04491   0.04084  -0.0182  0.0517  1.0000  -3.5984   0.0000   0.0000   0.0000   0.2542
  10.100   1.1903   0.04585   0.04185  -0.0173  0.0508  1.0000  -3.6319   0.0000   0.0000   0.0000   0.2533
  10.200   1.1916   0.04680   0.04286  -0.0163  0.0498  1.0000  -3.6655   0.0000   0.0000   0.0000   0.2524
  10.300   1.1924   0.04775   0.04387  -0.0154  0.0490  1.0000  -3.6993   0.0000   0.0000   0.0000   0.2515
  10.400   1.1931   0.04870   0.04487  -0.0146  0.0482  1.0000  -3.7335   0.0000   0.0000   0.0000   0.2506
  10.500   1.1936   0.04967   0.04588  -0.0137  0.0475  1.0000  -3.7685   0.0000   0.0000   0.0000   0.2497
  10.600   1.1941   0.05063   0.04687  -0.0129  0.0468  1.0000  -3.8047   0.0000   0.0000   0.0000   0.2489
  10.700   1.1943   0.05157   0.04784  -0.0120  0.0461  1.0000  -3.8410   0.0000   0.0000   0.0000   0.2480
  10.800   1.1949   0.05254   0.04883  -0.0111  0.0455  1.0000  -3.8804   0.0000   0.0000   0.0000   0.2472
  10.900   1.1939   0.05353   0.04984  -0.0102  0.0450  1.0000  -3.9123   0.0000   0.0000   0.0000   0.2462
  11.000   1.1903   0.05452   0.05088  -0.0090  0.0445  1.0000  -3.9320   0.0000   0.0000   0.0000   0.2452
  11.100   1.1863   0.05559   0.05198  -0.0080  0.0441  1.0000  -3.9492   0.0000   0.0000   0.0000   0.2442
  11.200   1.1818   0.05672   0.05315  -0.0070  0.0437  1.0000  -3.9628   0.0000   0.0000   0.0000   0.2433
  11.300   1.1766   0.05794   0.05442  -0.0062  0.0434  1.0000  -3.9725   0.0000   0.0000   0.0000   0.2424
  11.400   1.1708   0.05929   0.05581  -0.0054  0.0430  1.0000  -3.9773   0.0000   0.0000   0.0000   0.2417
  11.500   1.1643   0.06077   0.05734  -0.0049  0.0427  1.0000  -3.9766   0.0000   0.0000   0.0000   0.2411
  11.600   1.1568   0.06239   0.05901  -0.0044  0.0424  1.0000  -3.9691   0.0000   0.0000   0.0000   0.2406
  11.700   1.1482   0.06418   0.06085  -0.0041  0.0421  1.0000  -3.9538   0.0000   0.0000   0.0000   0.2402
  11.800   1.1386   0.06621   0.06294  -0.0039  0.0418  1.0000  -3.9296   0.0000   0.0000   0.0000   0.2399
  11.900   1.1280   0.06835   0.06514  -0.0040  0.0415  1.0000  -3.8981   0.0000   0.0000   0.0000   0.2399
  12.000   1.1167   0.07062   0.06748  -0.0042  0.0413  1.0000  -3.8611   0.0000   0.0000   0.0000   0.2400
  12.100   1.1052   0.07291   0.06983  -0.0047  0.0411  1.0000  -3.8226   0.0000   0.0000   0.0000   0.2403
  12.200   1.0937   0.07527   0.07226  -0.0054  0.0410  1.0000  -3.7822   0.0000   0.0000   0.0000   0.2408
  12.300   1.0825   0.07754   0.07459  -0.0061  0.0409  1.0000  -3.7440   0.0000   0.0000   0.0000   0.2414
  12.400   1.0715   0.07982   0.07692  -0.0070  0.0409  1.0000  -3.7066   0.0000   0.0000   0.0000   0.2422
  12.500   1.0607   0.08222   0.07938  -0.0081  0.0408  1.0000  -3.6679   0.0000   0.0000   0.0000   0.2431
  12.600   1.0501   0.08475   0.08196  -0.0094  0.0407  1.0000  -3.6277   0.0000   0.0000   0.0000   0.2443
  12.700   1.0397   0.08737   0.08464  -0.0109  0.0407  1.0000  -3.5868   0.0000   0.0000   0.0000   0.2456
  12.800   1.0293   0.09012   0.08744  -0.0125  0.0407  1.0000  -3.5436   0.0000   0.0000   0.0000   0.2472
  12.900   1.0193   0.09293   0.09030  -0.0143  0.0406  1.0000  -3.5004   0.0000   0.0000   0.0000   0.2489
  13.000   1.0090   0.09592   0.09334  -0.0163  0.0406  1.0000  -3.4523   0.0000   0.0000   0.0000   0.2509
  13.100   0.9991   0.09898   0.09644  -0.0184  0.0406  1.0000  -3.4037   0.0000   0.0000   0.0000   0.2530
  13.200   0.9885   0.10232   0.09982  -0.0208  0.0406  1.0000  -3.3461   0.0000   0.0000   0.0000   0.2555
  13.300   0.9777   0.10588   0.10342  -0.0233  0.0405  1.0000  -3.2823   0.0000   0.0000   0.0000   0.2583
  13.400   0.9655   0.10990   0.10748  -0.0263  0.0404  1.0000  -3.2028   0.0000   0.0000   0.0000   0.2616
  13.500   0.9478   0.11540   0.11303  -0.0303  0.0402  1.0000  -3.0699   0.0000   0.0000   0.0000   0.2663
  14.300   0.8810   0.15135   0.14901  -0.0541  0.0389  1.0000  -2.2792   0.0000   0.0000   0.0000   0.2961
  14.400   0.8874   0.15222   0.14988  -0.0550  0.0377  1.0000  -2.3153   0.0000   0.0000   0.0000   0.2966
  14.500   0.8893   0.15414   0.15180  -0.0562  0.0368  1.0000  -2.3069   0.0000   0.0000   0.0000   0.2977
  14.600   0.8898   0.15636   0.15402  -0.0575  0.0359  1.0000  -2.2854   0.0000   0.0000   0.0000   0.2991
  14.700   0.8898   0.15869   0.15634  -0.0588  0.0351  1.0000  -2.2600   0.0000   0.0000   0.0000   0.3005
  14.800   0.8896   0.16102   0.15866  -0.0601  0.0344  1.0000  -2.2345   0.0000   0.0000   0.0000   0.3018
  14.900   0.8893   0.16333   0.16097  -0.0613  0.0337  1.0000  -2.2105   0.0000   0.0000   0.0000   0.3032
  15.000   0.8891   0.16563   0.16326  -0.0625  0.0330  1.0000  -2.1873   0.0000   0.0000   0.0000   0.3045
  15.100   0.8890   0.16785   0.16549  -0.0637  0.0324  1.0000  -2.1679   0.0000   0.0000   0.0000   0.3058
  15.200   0.8892   0.17001   0.16764  -0.0648  0.0318  1.0000  -2.1519   0.0000   0.0000   0.0000   0.3069
  15.300   0.8897   0.17211   0.16974  -0.0659  0.0313  1.0000  -2.1395   0.0000   0.0000   0.0000   0.3080
  15.400   0.8903   0.17415   0.17178  -0.0669  0.0308  1.0000  -2.1300   0.0000   0.0000   0.0000   0.3090
  15.500   0.8911   0.17614   0.17376  -0.0679  0.0303  1.0000  -2.1234   0.0000   0.0000   0.0000   0.3099
  15.600   0.8920   0.17807   0.17570  -0.0688  0.0298  1.0000  -2.1197   0.0000   0.0000   0.0000   0.3107
  15.700   0.8932   0.17996   0.17759  -0.0697  0.0294  1.0000  -2.1189   0.0000   0.0000   0.0000   0.3115
  15.800   0.8945   0.18180   0.17942  -0.0705  0.0290  1.0000  -2.1209   0.0000   0.0000   0.0000   0.3122
  15.900   0.8959   0.18359   0.18121  -0.0713  0.0286  1.0000  -2.1260   0.0000   0.0000   0.0000   0.3128
  16.000   0.8976   0.18532   0.18294  -0.0720  0.0282  1.0000  -2.1341   0.0000   0.0000   0.0000   0.3133
  16.100   0.8993   0.18702   0.18465  -0.0728  0.0278  1.0000  -2.1442   0.0000   0.0000   0.0000   0.3139
  16.200   0.9012   0.18867   0.18630  -0.0735  0.0275  1.0000  -2.1576   0.0000   0.0000   0.0000   0.3143
  16.300   0.9032   0.19027   0.18790  -0.0741  0.0272  1.0000  -2.1744   0.0000   0.0000   0.0000   0.3147
  16.400   0.9054   0.19180   0.18944  -0.0747  0.0268  1.0000  -2.1948   0.0000   0.0000   0.0000   0.3150
  16.500   0.9077   0.19328   0.19092  -0.0752  0.0265  1.0000  -2.2190   0.0000   0.0000   0.0000   0.3152
  16.600   0.9102   0.19471   0.19235  -0.0757  0.0262  1.0000  -2.2472   0.0000   0.0000   0.0000   0.3153
  16.700   0.9129   0.19608   0.19372  -0.0761  0.0259  1.0000  -2.2794   0.0000   0.0000   0.0000   0.3153
  16.800   0.9144   0.19779   0.19544  -0.0767  0.0255  1.0000  -2.2962   0.0000   0.0000   0.0000   0.3157
  16.900   0.9155   0.19968   0.19733  -0.0774  0.0251  1.0000  -2.3081   0.0000   0.0000   0.0000   0.3161
  17.000   0.9146   0.20234   0.19999  -0.0782  0.0246  1.0000  -2.2927   0.0000   0.0000   0.0000   0.3170
  17.100   0.8985   0.21228   0.20987  -0.0814  0.0235  1.0000  -1.9849   0.0000   0.0000   0.0000   0.3224
  17.200   0.8998   0.21460   0.21220  -0.0823  0.0234  1.0000  -1.9701   0.0000   0.0000   0.0000   0.3232
  17.300   0.9011   0.21692   0.21451  -0.0832  0.0234  1.0000  -1.9560   0.0000   0.0000   0.0000   0.3240
  17.400   0.9025   0.21922   0.21681  -0.0842  0.0234  1.0000  -1.9425   0.0000   0.0000   0.0000   0.3248
  17.500   0.9039   0.22150   0.21910  -0.0851  0.0234  1.0000  -1.9296   0.0000   0.0000   0.0000   0.3255
  17.600   0.9054   0.22377   0.22137  -0.0860  0.0234  1.0000  -1.9173   0.0000   0.0000   0.0000   0.3263
  17.700   0.9068   0.22603   0.22362  -0.0869  0.0233  1.0000  -1.9057   0.0000   0.0000   0.0000   0.3270
  17.800   0.9083   0.22826   0.22586  -0.0878  0.0233  1.0000  -1.8948   0.0000   0.0000   0.0000   0.3277
  17.900   0.9099   0.23047   0.22807  -0.0887  0.0233  1.0000  -1.8845   0.0000   0.0000   0.0000   0.3284
  18.000   0.9114   0.23266   0.23026  -0.0896  0.0232  1.0000  -1.8752   0.0000   0.0000   0.0000   0.3291
  18.100   0.9131   0.23481   0.23241  -0.0905  0.0232  1.0000  -1.8668   0.0000   0.0000   0.0000   0.3298
  18.200   0.9149   0.23679   0.23439  -0.0914  0.0231  1.0000  -1.8616   0.0000   0.0000   0.0000   0.3305
  18.300   0.9170   0.23860   0.23621  -0.0923  0.0229  1.0000  -1.8603   0.0000   0.0000   0.0000   0.3311
  18.400   0.9198   0.24012   0.23773  -0.0933  0.0226  1.0000  -1.8655   0.0000   0.0000   0.0000   0.3317
  18.500   0.9229   0.24155   0.23916  -0.0943  0.0219  1.0000  -1.8688   0.0000   0.0000   0.0000   0.3323
  18.600   0.9245   0.24362   0.24123  -0.0956  0.0212  1.0000  -1.8456   0.0000   0.0000   0.0000   0.3335
  18.700   0.9258   0.24590   0.24351  -0.0967  0.0205  1.0000  -1.8236   0.0000   0.0000   0.0000   0.3345
  18.800   0.9272   0.24820   0.24581  -0.0977  0.0198  1.0000  -1.8078   0.0000   0.0000   0.0000   0.3353
  18.900   0.9286   0.25047   0.24808  -0.0987  0.0191  1.0000  -1.7971   0.0000   0.0000   0.0000   0.3360
  19.000   0.9300   0.25270   0.25031  -0.0995  0.0186  1.0000  -1.7902   0.0000   0.0000   0.0000   0.3366
  19.100   0.9313   0.25490   0.25252  -0.1004  0.0180  1.0000  -1.7864   0.0000   0.0000   0.0000   0.3372
  19.200   0.9327   0.25706   0.25468  -0.1012  0.0175  1.0000  -1.7853   0.0000   0.0000   0.0000   0.3378
  19.300   0.9341   0.25919   0.25682  -0.1019  0.0170  1.0000  -1.7864   0.0000   0.0000   0.0000   0.3383
  19.400   0.9355   0.26129   0.25892  -0.1027  0.0166  1.0000  -1.7898   0.0000   0.0000   0.0000   0.3388
  19.500   0.9369   0.26336   0.26099  -0.1034  0.0162  1.0000  -1.7953   0.0000   0.0000   0.0000   0.3393
  19.600   0.9384   0.26539   0.26302  -0.1041  0.0158  1.0000  -1.8033   0.0000   0.0000   0.0000   0.3397
  19.700   0.9398   0.26738   0.26502  -0.1048  0.0154  1.0000  -1.8135   0.0000   0.0000   0.0000   0.3401
  19.800   0.9413   0.26934   0.26698  -0.1055  0.0151  1.0000  -1.8261   0.0000   0.0000   0.0000   0.3405
  19.900   0.9427   0.27125   0.26890  -0.1061  0.0148  1.0000  -1.8412   0.0000   0.0000   0.0000   0.3408
  20.000   0.9442   0.27313   0.27078  -0.1067  0.0145  1.0000  -1.8591   0.0000   0.0000   0.0000   0.3411
  20.100   0.9458   0.27495   0.27261  -0.1073  0.0142  1.0000  -1.8799   0.0000   0.0000   0.0000   0.3414
  20.200   0.9473   0.27673   0.27440  -0.1079  0.0139  1.0000  -1.9039   0.0000   0.0000   0.0000   0.3416
  20.300   0.9489   0.27846   0.27613  -0.1084  0.0137  1.0000  -1.9316   0.0000   0.0000   0.0000   0.3418
  20.400   0.9506   0.28014   0.27782  -0.1089  0.0134  1.0000  -1.9631   0.0000   0.0000   0.0000   0.3419
  20.500   0.9523   0.28177   0.27945  -0.1093  0.0132  1.0000  -1.9989   0.0000   0.0000   0.0000   0.3419
  20.600   0.9541   0.28334   0.28104  -0.1096  0.0130  1.0000  -2.0396   0.0000   0.0000   0.0000   0.3418
  20.700   0.9559   0.28496   0.28266  -0.1099  0.0128  1.0000  -2.0805   0.0000   0.0000   0.0000   0.3417
  20.800   0.9566   0.28692   0.28462  -0.1104  0.0126  1.0000  -2.1037   0.0000   0.0000   0.0000   0.3419
  20.900   0.9562   0.28936   0.28707  -0.1109  0.0123  1.0000  -2.1063   0.0000   0.0000   0.0000   0.3423
  21.000   0.9428   0.29835   0.29603  -0.1120  0.0115  1.0000  -1.8196   0.0000   0.0000   0.0000   0.3454
  21.100   0.9428   0.30061   0.29830  -0.1126  0.0115  1.0000  -1.8070   0.0000   0.0000   0.0000   0.3460
  21.200   0.9426   0.30285   0.30055  -0.1132  0.0115  1.0000  -1.7943   0.0000   0.0000   0.0000   0.3465
  21.300   0.9422   0.30505   0.30275  -0.1139  0.0115  1.0000  -1.7813   0.0000   0.0000   0.0000   0.3471
  21.400   0.9416   0.30721   0.30492  -0.1144  0.0115  1.0000  -1.7680   0.0000   0.0000   0.0000   0.3477
  21.500   0.9408   0.30932   0.30703  -0.1150  0.0115  1.0000  -1.7543   0.0000   0.0000   0.0000   0.3483
  21.600   0.9397   0.31136   0.30909  -0.1155  0.0115  1.0000  -1.7401   0.0000   0.0000   0.0000   0.3489
  21.700   0.9382   0.31332   0.31106  -0.1160  0.0115  1.0000  -1.7253   0.0000   0.0000   0.0000   0.3495
  21.800   0.9364   0.31518   0.31293  -0.1165  0.0114  1.0000  -1.7095   0.0000   0.0000   0.0000   0.3501
  21.900   0.9339   0.31689   0.31465  -0.1168  0.0114  1.0000  -1.6924   0.0000   0.0000   0.0000   0.3508
  22.000   0.9290   0.31809   0.31586  -0.1170  0.0114  1.0000  -1.6693   0.0000   0.0000   0.0000   0.3515
  22.100   0.8817   0.30800   0.30587  -0.1127  0.0114  1.0000  -1.5377   0.0000   0.0000   0.0000   0.3542
  22.200   0.8757   0.30778   0.30567  -0.1126  0.0114  1.0000  -1.5126   0.0000   0.0000   0.0000   0.3550
  22.300   0.8708   0.30780   0.30570  -0.1127  0.0114  1.0000  -1.4906   0.0000   0.0000   0.0000   0.3557
  22.400   0.8667   0.30795   0.30586  -0.1128  0.0114  1.0000  -1.4707   0.0000   0.0000   0.0000   0.3564
  22.500   0.8631   0.30818   0.30611  -0.1129  0.0114  1.0000  -1.4523   0.0000   0.0000   0.0000   0.3571
  22.600   0.8599   0.30848   0.30642  -0.1131  0.0114  1.0000  -1.4351   0.0000   0.0000   0.0000   0.3578
  22.700   0.8570   0.30883   0.30678  -0.1134  0.0114  1.0000  -1.4188   0.0000   0.0000   0.0000   0.3584
  22.800   0.8544   0.30921   0.30718  -0.1136  0.0114  1.0000  -1.4035   0.0000   0.0000   0.0000   0.3590
  22.900   0.8521   0.30962   0.30764  -0.1139  0.0114  1.0000  -1.3897   0.0000   0.0000   0.0000   0.3597
  23.000   0.8499   0.31006   0.30809  -0.1142  0.0114  1.0000  -1.3761   0.0000   0.0000   0.0000   0.3603
  23.100   0.8479   0.31053   0.30856  -0.1145  0.0113  1.0000  -1.3629   0.0000   0.0000   0.0000   0.3608
  23.200   0.8461   0.31101   0.30906  -0.1148  0.0113  1.0000  -1.3504   0.0000   0.0000   0.0000   0.3614
  23.300   0.8443   0.31151   0.30956  -0.1151  0.0113  1.0000  -1.3380   0.0000   0.0000   0.0000   0.3620
  23.400   0.8427   0.31202   0.31008  -0.1155  0.0113  1.0000  -1.3261   0.0000   0.0000   0.0000   0.3625
  23.500   0.8412   0.31254   0.31062  -0.1158  0.0113  1.0000  -1.3147   0.0000   0.0000   0.0000   0.3631
  23.600   0.8398   0.31308   0.31116  -0.1161  0.0113  1.0000  -1.3037   0.0000   0.0000   0.0000   0.3636
  23.700   0.8385   0.31363   0.31172  -0.1165  0.0113  1.0000  -1.2930   0.0000   0.0000   0.0000   0.3642
  23.800   0.8373   0.31418   0.31229  -0.1169  0.0112  1.0000  -1.2828   0.0000   0.0000   0.0000   0.3647
  23.900   0.8361   0.31475   0.31286  -0.1172  0.0112  1.0000  -1.2729   0.0000   0.0000   0.0000   0.3652
  24.000   0.8351   0.31532   0.31344  -0.1176  0.0112  1.0000  -1.2633   0.0000   0.0000   0.0000   0.3657
  24.100   0.8341   0.31590   0.31403  -0.1180  0.0112  1.0000  -1.2541   0.0000   0.0000   0.0000   0.3662
  24.200   0.8332   0.31649   0.31463  -0.1184  0.0112  1.0000  -1.2448   0.0000   0.0000   0.0000   0.3667
  24.300   0.8323   0.31708   0.31523  -0.1188  0.0111  1.0000  -1.2356   0.0000   0.0000   0.0000   0.3673
  24.400   0.8315   0.31768   0.31584  -0.1192  0.0111  1.0000  -1.2267   0.0000   0.0000   0.0000   0.3678
  24.500   0.8307   0.31829   0.31645  -0.1196  0.0111  1.0000  -1.2181   0.0000   0.0000   0.0000   0.3683
  24.600   0.8300   0.31890   0.31707  -0.1200  0.0111  1.0000  -1.2098   0.0000   0.0000   0.0000   0.3687
  24.700   0.8294   0.31952   0.31770  -0.1204  0.0110  1.0000  -1.2016   0.0000   0.0000   0.0000   0.3692
  24.800   0.8287   0.32016   0.31835  -0.1209  0.0110  1.0000  -1.1918   0.0000   0.0000   0.0000   0.3698
  24.900   0.8282   0.32081   0.31900  -0.1213  0.0109  1.0000  -1.1821   0.0000   0.0000   0.0000   0.3703
  25.000   0.8276   0.32147   0.31967  -0.1218  0.0109  1.0000  -1.1727   0.0000   0.0000   0.0000   0.3708
  25.100   0.8272   0.32213   0.32034  -0.1223  0.0109  1.0000  -1.1635   0.0000   0.0000   0.0000   0.3713
  25.200   0.8267   0.32281   0.32103  -0.1227  0.0108  1.0000  -1.1543   0.0000   0.0000   0.0000   0.3718
  25.300   0.8264   0.32350   0.32173  -0.1232  0.0107  1.0000  -1.1452   0.0000   0.0000   0.0000   0.3723
  25.400   0.8261   0.32420   0.32244  -0.1237  0.0107  1.0000  -1.1361   0.0000   0.0000   0.0000   0.3728
  25.500   0.8259   0.32492   0.32316  -0.1241  0.0106  1.0000  -1.1270   0.0000   0.0000   0.0000   0.3732
  25.600   0.8257   0.32564   0.32389  -0.1246  0.0105  1.0000  -1.1178   0.0000   0.0000   0.0000   0.3737
  25.700   0.8255   0.32637   0.32462  -0.1251  0.0104  1.0000  -1.1087   0.0000   0.0000   0.0000   0.3742
  25.800   0.8254   0.32710   0.32537  -0.1256  0.0103  1.0000  -1.0995   0.0000   0.0000   0.0000   0.3746
  25.900   0.8252   0.32784   0.32611  -0.1260  0.0102  1.0000  -1.0905   0.0000   0.0000   0.0000   0.3750
  26.000   0.8251   0.32857   0.32685  -0.1265  0.0101  1.0000  -1.0817   0.0000   0.0000   0.0000   0.3755
  26.100   0.8249   0.32929   0.32758  -0.1269  0.0100  1.0000  -1.0732   0.0000   0.0000   0.0000   0.3759
  26.200   0.8247   0.33001   0.32831  -0.1273  0.0099  1.0000  -1.0651   0.0000   0.0000   0.0000   0.3763
  26.300   0.8246   0.33073   0.32903  -0.1278  0.0098  1.0000  -1.0573   0.0000   0.0000   0.0000   0.3767
  26.400   0.8244   0.33144   0.32974  -0.1282  0.0097  1.0000  -1.0498   0.0000   0.0000   0.0000   0.3771
  26.500   0.8241   0.33214   0.33045  -0.1286  0.0096  1.0000  -1.0427   0.0000   0.0000   0.0000   0.3775
  26.600   0.8239   0.33284   0.33116  -0.1290  0.0095  1.0000  -1.0359   0.0000   0.0000   0.0000   0.3779
  26.700   0.8237   0.33353   0.33186  -0.1295  0.0094  1.0000  -1.0293   0.0000   0.0000   0.0000   0.3782
  26.800   0.8235   0.33422   0.33256  -0.1299  0.0093  1.0000  -1.0231   0.0000   0.0000   0.0000   0.3786
  26.900   0.8233   0.33491   0.33326  -0.1303  0.0092  1.0000  -1.0170   0.0000   0.0000   0.0000   0.3790
  27.000   0.8231   0.33560   0.33396  -0.1307  0.0091  1.0000  -1.0112   0.0000   0.0000   0.0000   0.3794
  27.100   0.8229   0.33629   0.33465  -0.1311  0.0090  1.0000  -1.0057   0.0000   0.0000   0.0000   0.3797
  27.200   0.8227   0.33698   0.33535  -0.1315  0.0089  1.0000  -1.0003   0.0000   0.0000   0.0000   0.3801
  27.300   0.8226   0.33767   0.33604  -0.1320  0.0087  1.0000  -0.9955   0.0000   0.0000   0.0000   0.3805
  27.400   0.8224   0.33836   0.33674  -0.1324  0.0086  1.0000  -0.9913   0.0000   0.0000   0.0000   0.3808
  27.500   0.8223   0.33904   0.33743  -0.1328  0.0084  1.0000  -0.9879   0.0000   0.0000   0.0000   0.3812
  27.600   0.8222   0.33972   0.33812  -0.1332  0.0081  1.0000  -0.9855   0.0000   0.0000   0.0000   0.3816
  27.700   0.8221   0.34039   0.33880  -0.1337  0.0079  1.0000  -0.9843   0.0000   0.0000   0.0000   0.3819
  27.800   0.8220   0.34105   0.33947  -0.1341  0.0076  1.0000  -0.9845   0.0000   0.0000   0.0000   0.3823
  27.900   0.8219   0.34170   0.34012  -0.1345  0.0073  1.0000  -0.9862   0.0000   0.0000   0.0000   0.3826
  28.000   0.8218   0.34234   0.34077  -0.1350  0.0070  1.0000  -0.9893   0.0000   0.0000   0.0000   0.3829
  28.100   0.8218   0.34296   0.34140  -0.1354  0.0067  1.0000  -0.9936   0.0000   0.0000   0.0000   0.3833
  28.200   0.8217   0.34358   0.34202  -0.1358  0.0065  1.0000  -0.9989   0.0000   0.0000   0.0000   0.3836
  28.300   0.8217   0.34419   0.34264  -0.1363  0.0063  1.0000  -1.0041   0.0000   0.0000   0.0000   0.3839
  28.400   0.8216   0.34481   0.34327  -0.1367  0.0061  1.0000  -1.0079   0.0000   0.0000   0.0000   0.3842
  28.500   0.8215   0.34544   0.34390  -0.1371  0.0060  1.0000  -1.0109   0.0000   0.0000   0.0000   0.3846
  28.600   0.8214   0.34606   0.34453  -0.1375  0.0058  1.0000  -1.0150   0.0000   0.0000   0.0000   0.3849
  28.700   0.8214   0.34666   0.34514  -0.1380  0.0057  1.0000  -1.0203   0.0000   0.0000   0.0000   0.3852
  28.800   0.8213   0.34726   0.34574  -0.1384  0.0056  1.0000  -1.0270   0.0000   0.0000   0.0000   0.3855
  28.900   0.8213   0.34783   0.34632  -0.1388  0.0054  1.0000  -1.0354   0.0000   0.0000   0.0000   0.3858
  29.000   0.8212   0.34839   0.34689  -0.1393  0.0053  1.0000  -1.0457   0.0000   0.0000   0.0000   0.3861
  29.100   0.8212   0.34893   0.34743  -0.1397  0.0051  1.0000  -1.0580   0.0000   0.0000   0.0000   0.3864
  29.200   0.8212   0.34944   0.34795  -0.1401  0.0050  1.0000  -1.0801   0.0000   0.0000   0.0000   0.3866
  29.300   0.8212   0.34992   0.34844  -0.1405  0.0049  1.0000  -1.1038   0.0000   0.0000   0.0000   0.3869
  29.400   0.8213   0.35011   0.34868  -0.1409  0.0046  1.0000  -1.1422   0.0000   0.0000   0.0000   0.3870
  29.500   0.8213   0.35043   0.34901  -0.1412  0.0045  1.0000  -1.1739   0.0000   0.0000   0.0000   0.3872
  29.600   0.8212   0.35072   0.34931  -0.1416  0.0044  1.0000  -1.2070   0.0000   0.0000   0.0000   0.3873
  29.700   0.8211   0.35098   0.34957  -0.1419  0.0042  1.0000  -1.2417   0.0000   0.0000   0.0000   0.3874
  29.800   0.8209   0.35119   0.34979  -0.1421  0.0041  1.0000  -1.2777   0.0000   0.0000   0.0000   0.3874
  29.900   0.8143   0.35373   0.35229  -0.1419  0.0036  1.0000  -1.0744   0.0000   0.0000   0.0000   0.3889
  30.000   0.8140   0.35470   0.35327  -0.1424  0.0035  1.0000  -1.0453   0.0000   0.0000   0.0000   0.3894


