xflr5 v6.61

 Calculated polar for: S3021-095-84

 1 1 Reynolds number fixed          Mach number fixed         

 xtrf =   1.000 (top)        1.000 (bottom)
 Mach =   0.000     Re =     0.130 e 6     Ncrit =   9.000

  alpha     CL        CD       CDp       Cm    Top Xtr Bot Xtr   Cpmin    Chinge    XCp    
 ------- -------- --------- --------- -------- ------- ------- -------- --------- ---------
 -10.000  -0.4035   0.11834   0.11382  -0.0179  1.0000  0.0627  -1.3324   0.0000   0.0000   0.0000   0.1996
  -9.900  -0.4033   0.11781   0.11331  -0.0191  1.0000  0.0633  -1.3524   0.0000   0.0000   0.0000   0.1966
  -9.800  -0.4030   0.11728   0.11280  -0.0204  1.0000  0.0638  -1.3708   0.0000   0.0000   0.0000   0.1936
  -9.700  -0.4028   0.11666   0.11221  -0.0215  1.0000  0.0641  -1.3881   0.0000   0.0000   0.0000   0.1908
  -9.600  -0.4015   0.11592   0.11148  -0.0225  1.0000  0.0644  -1.3978   0.0000   0.0000   0.0000   0.1884
  -9.500  -0.4002   0.11508   0.11065  -0.0233  1.0000  0.0646  -1.4070   0.0000   0.0000   0.0000   0.1862
  -9.400  -0.3990   0.11414   0.10974  -0.0242  1.0000  0.0647  -1.4163   0.0000   0.0000   0.0000   0.1840
  -9.300  -0.3978   0.11312   0.10874  -0.0250  1.0000  0.0648  -1.4256   0.0000   0.0000   0.0000   0.1818
  -9.200  -0.3966   0.11205   0.10768  -0.0259  1.0000  0.0649  -1.4350   0.0000   0.0000   0.0000   0.1795
  -9.100  -0.3955   0.11093   0.10658  -0.0267  1.0000  0.0650  -1.4448   0.0000   0.0000   0.0000   0.1773
  -9.000  -0.3946   0.10978   0.10545  -0.0275  1.0000  0.0651  -1.4549   0.0000   0.0000   0.0000   0.1751
  -8.900  -0.3938   0.10861   0.10429  -0.0284  1.0000  0.0652  -1.4655   0.0000   0.0000   0.0000   0.1729
  -8.400  -0.4016   0.09797   0.09383  -0.0330  1.0000  0.0664  -1.5959   0.0000   0.0000   0.0000   0.1633
  -8.300  -0.4004   0.09424   0.09010  -0.0320  1.0000  0.0678  -1.5845   0.0000   0.0000   0.0000   0.1657
  -8.200  -0.3932   0.09231   0.08816  -0.0304  1.0000  0.0688  -1.5323   0.0000   0.0000   0.0000   0.1681
  -8.100  -0.3882   0.09088   0.08674  -0.0296  1.0000  0.0697  -1.4966   0.0000   0.0000   0.0000   0.1692
  -8.000  -0.3833   0.08960   0.08547  -0.0289  1.0000  0.0706  -1.4633   0.0000   0.0000   0.0000   0.1700
  -7.900  -0.3797   0.08841   0.08429  -0.0285  1.0000  0.0715  -1.4394   0.0000   0.0000   0.0000   0.1703
  -7.800  -0.3769   0.08727   0.08316  -0.0284  1.0000  0.0723  -1.4219   0.0000   0.0000   0.0000   0.1703
  -7.700  -0.3746   0.08614   0.08205  -0.0283  1.0000  0.0732  -1.4081   0.0000   0.0000   0.0000   0.1702
  -7.600  -0.3730   0.08503   0.08096  -0.0283  1.0000  0.0741  -1.3984   0.0000   0.0000   0.0000   0.1699
  -7.500  -0.3720   0.08394   0.07989  -0.0283  1.0000  0.0750  -1.3922   0.0000   0.0000   0.0000   0.1697
  -7.400  -0.3717   0.08286   0.07884  -0.0284  1.0000  0.0758  -1.3892   0.0000   0.0000   0.0000   0.1694
  -7.300  -0.3721   0.08180   0.07781  -0.0285  1.0000  0.0767  -1.3890   0.0000   0.0000   0.0000   0.1693
  -7.200  -0.3732   0.08076   0.07680  -0.0286  1.0000  0.0775  -1.3914   0.0000   0.0000   0.0000   0.1694
  -7.100  -0.3745   0.07970   0.07577  -0.0288  1.0000  0.0783  -1.3955   0.0000   0.0000   0.0000   0.1692
  -7.000  -0.3751   0.07855   0.07465  -0.0293  1.0000  0.0793  -1.4002   0.0000   0.0000   0.0000   0.1682
  -6.900  -0.3756   0.07738   0.07350  -0.0299  1.0000  0.0803  -1.4062   0.0000   0.0000   0.0000   0.1668
  -6.800  -0.3762   0.07620   0.07235  -0.0305  1.0000  0.0813  -1.4137   0.0000   0.0000   0.0000   0.1654
  -6.700  -0.3769   0.07502   0.07119  -0.0312  1.0000  0.0824  -1.4229   0.0000   0.0000   0.0000   0.1639
  -6.600  -0.3777   0.07383   0.07003  -0.0319  1.0000  0.0835  -1.4338   0.0000   0.0000   0.0000   0.1624
  -6.500  -0.3786   0.07265   0.06887  -0.0326  1.0000  0.0847  -1.4469   0.0000   0.0000   0.0000   0.1607
  -6.400  -0.3794   0.07152   0.06775  -0.0334  1.0000  0.0861  -1.4616   0.0000   0.0000   0.0000   0.1590
  -6.300  -0.3802   0.07048   0.06672  -0.0342  1.0000  0.0876  -1.4803   0.0000   0.0000   0.0000   0.1570
  -6.200  -0.3812   0.06971   0.06593  -0.0353  1.0000  0.0894  -1.5062   0.0000   0.0000   0.0000   0.1546
  -6.100  -0.3816   0.06998   0.06613  -0.0365  1.0000  0.0917  -1.5386   0.0000   0.0000   0.0000   0.1516
  -6.000  -0.3814   0.07068   0.06677  -0.0363  1.0000  0.0929  -1.5490   0.0000   0.0000   0.0000   0.1520
  -5.900  -0.3831   0.07059   0.06665  -0.0357  1.0000  0.0933  -1.5560   0.0000   0.0000   0.0000   0.1543
  -5.800  -0.3855   0.07027   0.06630  -0.0348  1.0000  0.0935  -1.5620   0.0000   0.0000   0.0000   0.1571
  -5.700  -0.3880   0.06984   0.06584  -0.0339  1.0000  0.0936  -1.5675   0.0000   0.0000   0.0000   0.1601
  -5.600  -0.3904   0.06935   0.06532  -0.0330  1.0000  0.0937  -1.5724   0.0000   0.0000   0.0000   0.1630
  -5.500  -0.3925   0.06880   0.06475  -0.0321  1.0000  0.0938  -1.5766   0.0000   0.0000   0.0000   0.1657
  -5.400  -0.4071   0.06244   0.05842  -0.0334  0.9998  0.0958  -1.6691   0.0000   0.0000   0.0000   0.1657
  -5.300  -0.4008   0.05850   0.05454  -0.0349  0.9977  0.0981  -1.6497   0.0000   0.0000   0.0000   0.1605
  -5.200  -0.3896   0.05679   0.05289  -0.0355  0.9957  0.0999  -1.5957   0.0000   0.0000   0.0000   0.1564
  -5.100  -0.3776   0.05541   0.05154  -0.0364  0.9932  0.1019  -1.5457   0.0000   0.0000   0.0000   0.1513
  -5.000  -0.3644   0.05409   0.05022  -0.0377  0.9905  0.1044  -1.5016   0.0000   0.0000   0.0000   0.1442
  -4.900  -0.3499   0.05274   0.04885  -0.0395  0.9881  0.1076  -1.4625   0.0000   0.0000   0.0000   0.1349
  -4.800  -0.3351   0.05134   0.04739  -0.0415  0.9852  0.1115  -1.4337   0.0000   0.0000   0.0000   0.1238
  -4.700  -0.3199   0.05005   0.04599  -0.0438  0.9812  0.1166  -1.4154   0.0000   0.0000   0.0000   0.1107
  -4.600  -0.2864   0.05419   0.04971  -0.0469  0.9764  0.1269  -1.3681   0.0000   0.0000   0.0000   0.0835
  -4.500  -0.2885   0.04597   0.04146  -0.0506  0.9739  0.1324  -1.4235   0.0000   0.0000   0.0000   0.0720
  -4.400  -0.2751   0.04424   0.03982  -0.0516  0.9722  0.1352  -1.3755   0.0000   0.0000   0.0000   0.0598
  -4.300  -0.2626   0.04305   0.03865  -0.0523  0.9693  0.1382  -1.3323   0.0000   0.0000   0.0000   0.0480
  -4.200  -0.2516   0.04206   0.03766  -0.0528  0.9647  0.1417  -1.2967   0.0000   0.0000   0.0000   0.0373
  -4.100  -0.2376   0.04105   0.03658  -0.0539  0.9608  0.1465  -1.2619   0.0000   0.0000   0.0000   0.0201
  -4.000  -0.2206   0.04013   0.03554  -0.0556  0.9574  0.1530  -1.2286   0.0000   0.0000   0.0000  -0.0050
  -3.800  -0.1764   0.03248   0.02675  -0.0603  0.9527  0.0877  -1.4721   0.0000   0.0000   0.0000  -0.0963
  -3.700  -0.1568   0.02855   0.02215  -0.0609  0.9512  0.0598  -1.6509   0.0000   0.0000   0.0000  -0.1436
  -3.600  -0.1419   0.02657   0.01989  -0.0617  0.9487  0.0550  -1.6705   0.0000   0.0000   0.0000  -0.1907
  -3.500  -0.1320   0.02509   0.01810  -0.0611  0.9430  0.0508  -1.7039   0.0000   0.0000   0.0000  -0.2192
  -3.400  -0.1162   0.02383   0.01610  -0.0611  0.9392  0.0457  -1.7080   0.0000   0.0000   0.0000  -0.2833
  -3.300  -0.0987   0.02360   0.01574  -0.0618  0.9359  0.0435  -1.6661   0.0000   0.0000   0.0000  -0.3853
  -3.200  -0.0802   0.02359   0.01569  -0.0629  0.9331  0.0423  -1.5974   0.0000   0.0000   0.0000  -0.5440
  -3.100  -0.0633   0.02250   0.01445  -0.0639  0.9310  0.0410  -1.5713   0.0000   0.0000   0.0000  -0.7723
  -3.000  -0.0468   0.02121   0.01301  -0.0648  0.9290  0.0401  -1.5574   0.0000   0.0000   0.0000  -1.1491
  -2.900  -0.0298   0.02022   0.01191  -0.0657  0.9272  0.0394  -1.5315   0.0000   0.0000   0.0000  -1.9746
  -2.800  -0.0127   0.01938   0.01098  -0.0666  0.9255  0.0387  -1.4997   0.0000   0.0000   0.0000  -5.0685
  -2.700   0.0026   0.01871   0.01023  -0.0671  0.9229  0.0382  -1.4662   0.0000   0.0000   0.0000  26.4789
  -2.600   0.0098   0.01832   0.00980  -0.0663  0.9166  0.0379  -1.4419   0.0000   0.0000   0.0000   7.0718
  -2.500   0.0216   0.01784   0.00928  -0.0662  0.9120  0.0376  -1.4087   0.0000   0.0000   0.0000   3.3420
  -2.400   0.0349   0.01738   0.00876  -0.0664  0.9081  0.0374  -1.3708   0.0000   0.0000   0.0000   2.1691
  -2.300   0.0490   0.01694   0.00826  -0.0668  0.9046  0.0373  -1.3294   0.0000   0.0000   0.0000   1.6231
  -2.200   0.0639   0.01654   0.00779  -0.0672  0.9013  0.0374  -1.2845   0.0000   0.0000   0.0000   1.3107
  -2.100   0.0792   0.01618   0.00735  -0.0678  0.8983  0.0377  -1.2372   0.0000   0.0000   0.0000   1.1120
  -2.000   0.0947   0.01587   0.00695  -0.0683  0.8955  0.0383  -1.1883   0.0000   0.0000   0.0000   0.9767
  -1.900   0.1077   0.01566   0.00664  -0.0684  0.8918  0.0392  -1.1435   0.0000   0.0000   0.0000   0.8895
  -1.800   0.1153   0.01556   0.00647  -0.0676  0.8853  0.0401  -1.1091   0.0000   0.0000   0.0000   0.8398
  -1.700   0.1261   0.01541   0.00625  -0.0673  0.8799  0.0415  -1.0688   0.0000   0.0000   0.0000   0.7870
  -1.600   0.1380   0.01516   0.00598  -0.0672  0.8753  0.0492  -1.0416   0.0000   0.0000   0.0000   0.7393
  -1.500   0.1487   0.01458   0.00580  -0.0671  0.8712  0.1299  -1.0084   0.0000   0.0000   0.0000   0.7035
  -1.400   0.1575   0.01373   0.00572  -0.0670  0.8676  0.3155  -0.9724   0.0000   0.0000   0.0000   0.6771
  -1.300   0.1678   0.01327   0.00565  -0.0667  0.8642  0.4265  -0.9245   0.0000   0.0000   0.0000   0.6493
  -1.200   0.1750   0.01255   0.00569  -0.0656  0.8611  0.6238  -0.8771   0.0000   0.0000   0.0000   0.6264
  -1.100   0.2197   0.01176   0.00569  -0.0706  0.8617  0.9424  -0.7177   0.0000   0.0000   0.0000   0.5721
  -1.000   0.2519   0.01167   0.00552  -0.0746  0.8598  0.9826  -0.6150   0.0000   0.0000   0.0000   0.5466
  -0.900   0.2802   0.01159   0.00537  -0.0781  0.8567  1.0000  -0.5319   0.0000   0.0000   0.0000   0.5289
  -0.800   0.2875   0.01166   0.00540  -0.0774  0.8506  1.0000  -0.5321   0.0000   0.0000   0.0000   0.5194
  -0.700   0.2960   0.01170   0.00540  -0.0769  0.8446  1.0000  -0.5396   0.0000   0.0000   0.0000   0.5097
  -0.600   0.3052   0.01173   0.00538  -0.0764  0.8389  1.0000  -0.5476   0.0000   0.0000   0.0000   0.5002
  -0.500   0.3149   0.01174   0.00534  -0.0760  0.8336  1.0000  -0.5560   0.0000   0.0000   0.0000   0.4910
  -0.400   0.3248   0.01175   0.00529  -0.0755  0.8288  1.0000  -0.5658   0.0000   0.0000   0.0000   0.4822
  -0.300   0.3351   0.01177   0.00526  -0.0752  0.8244  1.0000  -0.5758   0.0000   0.0000   0.0000   0.4739
  -0.200   0.3457   0.01186   0.00528  -0.0749  0.8200  1.0000  -0.5860   0.0000   0.0000   0.0000   0.4661
  -0.100   0.3541   0.01194   0.00535  -0.0745  0.8153  1.0000  -0.5946   0.0000   0.0000   0.0000   0.4597
   0.000   0.3627   0.01201   0.00541  -0.0740  0.8102  1.0000  -0.6033   0.0000   0.0000   0.0000   0.4534
   0.200   0.3810   0.01212   0.00554  -0.0731  0.7998  1.0000  -0.6217   0.0000   0.0000   0.0000   0.4411
   0.300   0.3905   0.01216   0.00553  -0.0727  0.7948  1.0000  -0.6313   0.0000   0.0000   0.0000   0.4352
   0.400   0.4001   0.01218   0.00550  -0.0723  0.7901  1.0000  -0.6412   0.0000   0.0000   0.0000   0.4295
   0.500   0.4099   0.01221   0.00547  -0.0718  0.7855  1.0000  -0.6511   0.0000   0.0000   0.0000   0.4240
   0.600   0.4201   0.01228   0.00548  -0.0714  0.7810  1.0000  -0.6623   0.0000   0.0000   0.0000   0.4187
   0.700   0.4298   0.01241   0.00555  -0.0711  0.7763  1.0000  -0.6735   0.0000   0.0000   0.0000   0.4140
   0.800   0.4385   0.01247   0.00561  -0.0706  0.7717  1.0000  -0.6839   0.0000   0.0000   0.0000   0.4097
   0.900   0.4473   0.01254   0.00566  -0.0702  0.7666  1.0000  -0.6945   0.0000   0.0000   0.0000   0.4055
   1.000   0.4565   0.01259   0.00570  -0.0698  0.7615  1.0000  -0.7053   0.0000   0.0000   0.0000   0.4013
   1.100   0.4659   0.01264   0.00571  -0.0694  0.7564  1.0000  -0.7165   0.0000   0.0000   0.0000   0.3973
   1.200   0.4755   0.01267   0.00571  -0.0690  0.7514  1.0000  -0.7280   0.0000   0.0000   0.0000   0.3933
   1.300   0.4852   0.01270   0.00569  -0.0685  0.7466  1.0000  -0.7396   0.0000   0.0000   0.0000   0.3894
   1.400   0.4951   0.01273   0.00568  -0.0681  0.7420  1.0000  -0.7514   0.0000   0.0000   0.0000   0.3856
   1.500   0.5053   0.01281   0.00570  -0.0677  0.7374  1.0000  -0.7647   0.0000   0.0000   0.0000   0.3820
   1.600   0.5154   0.01300   0.00583  -0.0674  0.7324  1.0000  -0.7784   0.0000   0.0000   0.0000   0.3787
   1.700   0.5244   0.01305   0.00589  -0.0671  0.7284  1.0000  -0.7910   0.0000   0.0000   0.0000   0.3757
   1.800   0.5335   0.01311   0.00597  -0.0667  0.7238  1.0000  -0.8038   0.0000   0.0000   0.0000   0.3728
   1.900   0.5428   0.01317   0.00602  -0.0663  0.7188  1.0000  -0.8169   0.0000   0.0000   0.0000   0.3699
   2.000   0.5522   0.01322   0.00606  -0.0659  0.7136  1.0000  -0.8302   0.0000   0.0000   0.0000   0.3670
   2.100   0.5619   0.01325   0.00608  -0.0655  0.7085  1.0000  -0.8439   0.0000   0.0000   0.0000   0.3642
   2.200   0.5718   0.01328   0.00607  -0.0651  0.7035  1.0000  -0.8578   0.0000   0.0000   0.0000   0.3614
   2.300   0.5818   0.01330   0.00606  -0.0647  0.6987  1.0000  -0.8727   0.0000   0.0000   0.0000   0.3587
   2.400   0.5919   0.01335   0.00606  -0.0644  0.6940  1.0000  -0.8894   0.0000   0.0000   0.0000   0.3560
   2.500   0.6023   0.01348   0.00613  -0.0641  0.6890  1.0000  -0.9063   0.0000   0.0000   0.0000   0.3536
   2.600   0.6121   0.01364   0.00628  -0.0638  0.6841  1.0000  -0.9224   0.0000   0.0000   0.0000   0.3514
   2.700   0.6213   0.01369   0.00636  -0.0635  0.6800  1.0000  -0.9380   0.0000   0.0000   0.0000   0.3492
   2.800   0.6306   0.01375   0.00644  -0.0631  0.6752  1.0000  -0.9539   0.0000   0.0000   0.0000   0.3471
   2.900   0.6401   0.01380   0.00650  -0.0628  0.6699  1.0000  -0.9700   0.0000   0.0000   0.0000   0.3450
   3.000   0.6498   0.01384   0.00654  -0.0624  0.6644  1.0000  -0.9865   0.0000   0.0000   0.0000   0.3429
   3.100   0.6597   0.01386   0.00655  -0.0620  0.6590  1.0000  -1.0033   0.0000   0.0000   0.0000   0.3408
   3.200   0.6697   0.01387   0.00654  -0.0617  0.6538  1.0000  -1.0235   0.0000   0.0000   0.0000   0.3387
   3.300   0.6799   0.01389   0.00653  -0.0613  0.6487  1.0000  -1.0441   0.0000   0.0000   0.0000   0.3367
   3.400   0.6903   0.01397   0.00655  -0.0609  0.6434  1.0000  -1.0649   0.0000   0.0000   0.0000   0.3348
   3.500   0.7007   0.01420   0.00672  -0.0607  0.6372  1.0000  -1.0855   0.0000   0.0000   0.0000   0.3331
   3.600   0.7099   0.01422   0.00679  -0.0604  0.6330  1.0000  -1.1048   0.0000   0.0000   0.0000   0.3313
   3.700   0.7193   0.01427   0.00687  -0.0600  0.6280  1.0000  -1.1242   0.0000   0.0000   0.0000   0.3297
   3.800   0.7290   0.01429   0.00707  -0.0597  0.6233  1.0000  -1.1442   0.0000   0.0000   0.0000   0.3280
   3.900   0.7388   0.01432   0.00710  -0.0594  0.6179  1.0000  -1.1644   0.0000   0.0000   0.0000   0.3264
   4.000   0.7487   0.01433   0.00711  -0.0590  0.6122  1.0000  -1.1856   0.0000   0.0000   0.0000   0.3248
   4.100   0.7587   0.01434   0.00709  -0.0587  0.6066  1.0000  -1.2112   0.0000   0.0000   0.0000   0.3232
   4.200   0.7689   0.01435   0.00706  -0.0583  0.6010  1.0000  -1.2373   0.0000   0.0000   0.0000   0.3216
   4.300   0.7793   0.01440   0.00705  -0.0580  0.5951  1.0000  -1.2640   0.0000   0.0000   0.0000   0.3201
   4.400   0.7899   0.01461   0.00718  -0.0578  0.5882  1.0000  -1.2905   0.0000   0.0000   0.0000   0.3187
   4.500   0.7988   0.01458   0.00720  -0.0573  0.5825  1.0000  -1.3152   0.0000   0.0000   0.0000   0.3172
   4.600   0.8077   0.01447   0.00711  -0.0567  0.5732  1.0000  -1.3405   0.0000   0.0000   0.0000   0.3156
   4.700   0.8166   0.01429   0.00689  -0.0560  0.5610  1.0000  -1.3670   0.0000   0.0000   0.0000   0.3138
   4.800   0.8258   0.01412   0.00655  -0.0551  0.5469  1.0000  -1.3970   0.0000   0.0000   0.0000   0.3119
   4.900   0.8343   0.01406   0.00640  -0.0544  0.5318  1.0000  -1.4274   0.0000   0.0000   0.0000   0.3102
   5.000   0.8422   0.01394   0.00626  -0.0536  0.5140  1.0000  -1.4571   0.0000   0.0000   0.0000   0.3086
   5.100   0.8501   0.01393   0.00603  -0.0527  0.4944  1.0000  -1.4871   0.0000   0.0000   0.0000   0.3068
   5.200   0.8583   0.01395   0.00601  -0.0521  0.4768  1.0000  -1.5394   0.0000   0.0000   0.0000   0.3054
   5.300   0.8664   0.01401   0.00598  -0.0515  0.4581  1.0000  -1.5989   0.0000   0.0000   0.0000   0.3040
   5.400   0.8746   0.01414   0.00597  -0.0509  0.4443  1.0000  -1.6596   0.0000   0.0000   0.0000   0.3026
   5.500   0.8838   0.01425   0.00606  -0.0506  0.4349  1.0000  -1.7238   0.0000   0.0000   0.0000   0.3015
   5.600   0.8932   0.01435   0.00616  -0.0503  0.4246  1.0000  -1.7899   0.0000   0.0000   0.0000   0.3005
   5.700   0.9022   0.01447   0.00625  -0.0499  0.4129  1.0000  -1.8565   0.0000   0.0000   0.0000   0.2994
   5.800   0.9105   0.01462   0.00631  -0.0494  0.4005  1.0000  -1.9230   0.0000   0.0000   0.0000   0.2982
   5.900   0.9189   0.01479   0.00641  -0.0489  0.3888  1.0000  -1.9911   0.0000   0.0000   0.0000   0.2971
   6.000   0.9281   0.01492   0.00654  -0.0486  0.3762  1.0000  -2.0634   0.0000   0.0000   0.0000   0.2961
   6.100   0.9364   0.01510   0.00665  -0.0481  0.3615  1.0000  -2.1349   0.0000   0.0000   0.0000   0.2951
   6.200   0.9437   0.01534   0.00676  -0.0475  0.3469  1.0000  -2.2050   0.0000   0.0000   0.0000   0.2939
   6.300   0.9526   0.01550   0.00692  -0.0471  0.3341  1.0000  -2.2822   0.0000   0.0000   0.0000   0.2929
   6.400   0.9609   0.01570   0.00707  -0.0467  0.3196  1.0000  -2.3594   0.0000   0.0000   0.0000   0.2919
   6.500   0.9683   0.01597   0.00724  -0.0461  0.3053  1.0000  -2.4346   0.0000   0.0000   0.0000   0.2909
   6.600   0.9766   0.01618   0.00743  -0.0457  0.2934  1.0000  -2.5148   0.0000   0.0000   0.0000   0.2899
   6.700   0.9851   0.01639   0.00763  -0.0453  0.2806  1.0000  -2.5974   0.0000   0.0000   0.0000   0.2890
   6.800   0.9922   0.01670   0.00785  -0.0447  0.2644  1.0000  -2.6747   0.0000   0.0000   0.0000   0.2879
   6.900   0.9975   0.01714   0.00810  -0.0440  0.2329  1.0000  -2.7457   0.0000   0.0000   0.0000   0.2868
   7.000   1.0011   0.01776   0.00841  -0.0431  0.1935  1.0000  -2.8091   0.0000   0.0000   0.0000   0.2856
   7.100   1.0066   0.01824   0.00873  -0.0424  0.1700  1.0000  -2.8792   0.0000   0.0000   0.0000   0.2846
   7.200   1.0128   0.01868   0.00905  -0.0418  0.1490  1.0000  -2.9508   0.0000   0.0000   0.0000   0.2836
   7.300   1.0194   0.01910   0.00938  -0.0412  0.1305  1.0000  -3.0210   0.0000   0.0000   0.0000   0.2826
   7.400   1.0244   0.01967   0.00979  -0.0404  0.1070  1.0000  -3.0824   0.0000   0.0000   0.0000   0.2815
   7.600   1.0266   0.02160   0.01105  -0.0381  0.0324  1.0000  -3.1679   0.0000   0.0000   0.0000   0.2790
   7.700   1.0319   0.02215   0.01155  -0.0373  0.0252  1.0000  -3.2239   0.0000   0.0000   0.0000   0.2779
   7.800   1.0388   0.02255   0.01198  -0.0366  0.0227  1.0000  -3.2843   0.0000   0.0000   0.0000   0.2769
   7.900   1.0457   0.02293   0.01242  -0.0360  0.0217  1.0000  -3.3481   0.0000   0.0000   0.0000   0.2759
   8.100   1.0624   0.02334   0.01353  -0.0352  0.0245  1.0000  -3.6033   0.0000   0.0000   0.0000   0.2744
   8.200   1.0684   0.02381   0.01406  -0.0344  0.0232  1.0000  -3.6620   0.0000   0.0000   0.0000   0.2733
   8.300   1.0745   0.02425   0.01461  -0.0336  0.0226  1.0000  -3.7257   0.0000   0.0000   0.0000   0.2723
   8.400   1.0802   0.02472   0.01518  -0.0329  0.0221  1.0000  -3.7852   0.0000   0.0000   0.0000   0.2713
   8.500   1.0854   0.02521   0.01578  -0.0320  0.0217  1.0000  -3.8411   0.0000   0.0000   0.0000   0.2702
   8.600   1.0901   0.02572   0.01640  -0.0311  0.0213  1.0000  -3.8939   0.0000   0.0000   0.0000   0.2691
   8.700   1.0943   0.02626   0.01704  -0.0302  0.0210  1.0000  -3.9440   0.0000   0.0000   0.0000   0.2680
   8.800   1.0980   0.02683   0.01771  -0.0292  0.0208  1.0000  -3.9916   0.0000   0.0000   0.0000   0.2669
   8.900   1.1012   0.02741   0.01839  -0.0282  0.0206  1.0000  -4.0363   0.0000   0.0000   0.0000   0.2658
   9.000   1.1036   0.02802   0.01909  -0.0270  0.0204  1.0000  -4.0778   0.0000   0.0000   0.0000   0.2646
   9.100   1.1052   0.02862   0.01978  -0.0258  0.0203  1.0000  -4.1157   0.0000   0.0000   0.0000   0.2633
   9.200   1.1065   0.02926   0.02049  -0.0246  0.0202  1.0000  -4.1519   0.0000   0.0000   0.0000   0.2620
   9.300   1.1076   0.02992   0.02122  -0.0233  0.0201  1.0000  -4.1870   0.0000   0.0000   0.0000   0.2607
   9.400   1.1087   0.03061   0.02199  -0.0222  0.0201  1.0000  -4.2209   0.0000   0.0000   0.0000   0.2595
   9.500   1.1098   0.03134   0.02279  -0.0210  0.0200  1.0000  -4.2543   0.0000   0.0000   0.0000   0.2583
   9.600   1.1111   0.03210   0.02361  -0.0200  0.0200  1.0000  -4.2877   0.0000   0.0000   0.0000   0.2572
   9.700   1.1127   0.03288   0.02446  -0.0190  0.0200  1.0000  -4.3210   0.0000   0.0000   0.0000   0.2561
   9.800   1.1147   0.03370   0.02534  -0.0180  0.0200  1.0000  -4.3547   0.0000   0.0000   0.0000   0.2551
   9.900   1.1171   0.03455   0.02626  -0.0171  0.0200  1.0000  -4.3887   0.0000   0.0000   0.0000   0.2541
  10.000   1.1200   0.03543   0.02721  -0.0163  0.0200  1.0000  -4.4231   0.0000   0.0000   0.0000   0.2532
  10.100   1.1234   0.03636   0.02821  -0.0155  0.0201  1.0000  -4.4578   0.0000   0.0000   0.0000   0.2523
  10.200   1.1274   0.03732   0.02925  -0.0148  0.0202  1.0000  -4.4928   0.0000   0.0000   0.0000   0.2515
  10.300   1.1316   0.03834   0.03036  -0.0141  0.0203  1.0000  -4.5265   0.0000   0.0000   0.0000   0.2507
  10.400   1.1361   0.03942   0.03152  -0.0134  0.0204  1.0000  -4.5596   0.0000   0.0000   0.0000   0.2499
  10.500   1.1406   0.04055   0.03276  -0.0127  0.0205  1.0000  -4.5903   0.0000   0.0000   0.0000   0.2491
  10.600   1.1447   0.04175   0.03406  -0.0121  0.0207  1.0000  -4.6182   0.0000   0.0000   0.0000   0.2484
  10.700   1.1484   0.04301   0.03543  -0.0115  0.0208  1.0000  -4.6428   0.0000   0.0000   0.0000   0.2477
  10.800   1.1512   0.04432   0.03686  -0.0108  0.0210  1.0000  -4.6628   0.0000   0.0000   0.0000   0.2470
  10.900   1.1530   0.04567   0.03832  -0.0102  0.0211  1.0000  -4.6786   0.0000   0.0000   0.0000   0.2463
  11.000   1.1539   0.04706   0.03983  -0.0095  0.0213  1.0000  -4.6904   0.0000   0.0000   0.0000   0.2455
  11.100   1.1540   0.04848   0.04138  -0.0089  0.0215  1.0000  -4.6986   0.0000   0.0000   0.0000   0.2449
  11.200   1.1532   0.04995   0.04296  -0.0082  0.0216  1.0000  -4.7032   0.0000   0.0000   0.0000   0.2442
  11.300   1.1515   0.05144   0.04457  -0.0077  0.0218  1.0000  -4.7042   0.0000   0.0000   0.0000   0.2435
  11.400   1.1488   0.05295   0.04620  -0.0071  0.0219  1.0000  -4.7015   0.0000   0.0000   0.0000   0.2429
  11.500   1.1455   0.05451   0.04788  -0.0066  0.0220  1.0000  -4.6960   0.0000   0.0000   0.0000   0.2424
  11.600   1.1417   0.05612   0.04960  -0.0062  0.0221  1.0000  -4.6879   0.0000   0.0000   0.0000   0.2419
  11.700   1.1372   0.05779   0.05137  -0.0059  0.0223  1.0000  -4.6770   0.0000   0.0000   0.0000   0.2415
  11.800   1.1323   0.05951   0.05320  -0.0057  0.0224  1.0000  -4.6636   0.0000   0.0000   0.0000   0.2412
  11.900   1.1270   0.06129   0.05509  -0.0056  0.0225  1.0000  -4.6479   0.0000   0.0000   0.0000   0.2410
  12.000   1.1212   0.06312   0.05703  -0.0056  0.0226  1.0000  -4.6297   0.0000   0.0000   0.0000   0.2409
  12.100   1.1151   0.06502   0.05903  -0.0058  0.0227  1.0000  -4.6094   0.0000   0.0000   0.0000   0.2409
  12.200   1.1085   0.06698   0.06108  -0.0060  0.0227  1.0000  -4.5867   0.0000   0.0000   0.0000   0.2410
  12.300   1.1016   0.06898   0.06317  -0.0064  0.0228  1.0000  -4.5619   0.0000   0.0000   0.0000   0.2412
  12.400   1.0944   0.07102   0.06531  -0.0068  0.0229  1.0000  -4.5351   0.0000   0.0000   0.0000   0.2414
  12.500   1.0868   0.07315   0.06752  -0.0074  0.0230  1.0000  -4.5061   0.0000   0.0000   0.0000   0.2419
  12.600   1.0792   0.07537   0.06983  -0.0081  0.0230  1.0000  -4.4748   0.0000   0.0000   0.0000   0.2424
  12.700   1.0714   0.07770   0.07224  -0.0089  0.0231  1.0000  -4.4409   0.0000   0.0000   0.0000   0.2431
  12.800   1.0634   0.08012   0.07474  -0.0099  0.0232  1.0000  -4.4046   0.0000   0.0000   0.0000   0.2439
  12.900   1.0552   0.08265   0.07735  -0.0110  0.0232  1.0000  -4.3647   0.0000   0.0000   0.0000   0.2449
  13.000   1.0468   0.08530   0.08008  -0.0122  0.0233  1.0000  -4.3211   0.0000   0.0000   0.0000   0.2460
  13.100   1.0380   0.08810   0.08294  -0.0136  0.0234  1.0000  -4.2722   0.0000   0.0000   0.0000   0.2473
  13.200   1.0303   0.09087   0.08585  -0.0149  0.0235  1.0000  -4.2255   0.0000   0.0000   0.0000   0.2486
  13.300   1.0278   0.09261   0.08764  -0.0159  0.0236  1.0000  -4.2313   0.0000   0.0000   0.0000   0.2494
  13.400   1.0244   0.09453   0.08960  -0.0171  0.0237  1.0000  -4.2292   0.0000   0.0000   0.0000   0.2504
  13.500   1.0212   0.09647   0.09160  -0.0182  0.0239  1.0000  -4.2260   0.0000   0.0000   0.0000   0.2515
  13.600   1.0175   0.09854   0.09372  -0.0195  0.0240  1.0000  -4.2177   0.0000   0.0000   0.0000   0.2526
  13.700   1.0124   0.10091   0.09614  -0.0211  0.0241  1.0000  -4.1962   0.0000   0.0000   0.0000   0.2541
  13.800   1.0075   0.10331   0.09860  -0.0227  0.0242  1.0000  -4.1740   0.0000   0.0000   0.0000   0.2557
  13.900   1.0023   0.10586   0.10119  -0.0244  0.0242  1.0000  -4.1463   0.0000   0.0000   0.0000   0.2574
  14.000   0.9961   0.10869   0.10408  -0.0264  0.0243  1.0000  -4.1074   0.0000   0.0000   0.0000   0.2594
  14.100   0.9904   0.11152   0.10696  -0.0284  0.0244  1.0000  -4.0686   0.0000   0.0000   0.0000   0.2615
  14.200   0.9839   0.11464   0.11012  -0.0306  0.0245  1.0000  -4.0190   0.0000   0.0000   0.0000   0.2638
  14.300   0.9776   0.11784   0.11338  -0.0329  0.0245  1.0000  -3.9657   0.0000   0.0000   0.0000   0.2663
  14.400   0.9710   0.12120   0.11678  -0.0352  0.0246  1.0000  -3.9058   0.0000   0.0000   0.0000   0.2689
  14.500   0.9643   0.12471   0.12033  -0.0377  0.0247  1.0000  -3.8377   0.0000   0.0000   0.0000   0.2717
  14.600   0.9576   0.12829   0.12394  -0.0403  0.0248  1.0000  -3.7627   0.0000   0.0000   0.0000   0.2745
  14.700   0.9508   0.13208   0.12777  -0.0429  0.0249  1.0000  -3.6768   0.0000   0.0000   0.0000   0.2776
  14.800   0.9436   0.13623   0.13194  -0.0456  0.0251  1.0000  -3.5741   0.0000   0.0000   0.0000   0.2809
  14.900   0.9356   0.14098   0.13671  -0.0486  0.0254  1.0000  -3.4418   0.0000   0.0000   0.0000   0.2845
  15.000   0.9247   0.14752   0.14325  -0.0522  0.0261  1.0000  -3.2187   0.0000   0.0000   0.0000   0.2893
  15.100   0.9088   0.15699   0.15268  -0.0568  0.0278  1.0000  -2.8341   0.0000   0.0000   0.0000   0.2957
  15.200   0.8990   0.16341   0.15906  -0.0600  0.0292  1.0000  -2.6006   0.0000   0.0000   0.0000   0.3002
  15.300   0.8943   0.16776   0.16339  -0.0620  0.0304  1.0000  -2.4704   0.0000   0.0000   0.0000   0.3029
  15.400   0.8917   0.17129   0.16690  -0.0635  0.0317  1.0000  -2.3819   0.0000   0.0000   0.0000   0.3048
  15.500   0.8903   0.17436   0.16995  -0.0648  0.0329  1.0000  -2.3181   0.0000   0.0000   0.0000   0.3063
  15.600   0.8898   0.17710   0.17269  -0.0659  0.0341  1.0000  -2.2716   0.0000   0.0000   0.0000   0.3075
  15.700   0.8897   0.17963   0.17521  -0.0667  0.0354  1.0000  -2.2389   0.0000   0.0000   0.0000   0.3084
  15.800   0.8899   0.18203   0.17761  -0.0673  0.0368  1.0000  -2.2173   0.0000   0.0000   0.0000   0.3089
  16.400   0.9025   0.20152   0.19718  -0.0716  0.0622  1.0000  -1.9137   0.0000   0.0000   0.0000   0.3124
  16.500   0.9046   0.20374   0.19940  -0.0721  0.0619  1.0000  -1.9156   0.0000   0.0000   0.0000   0.3127
  16.600   0.9071   0.20605   0.20172  -0.0725  0.0617  1.0000  -1.9218   0.0000   0.0000   0.0000   0.3128
  16.700   0.9091   0.20873   0.20440  -0.0729  0.0612  1.0000  -1.9261   0.0000   0.0000   0.0000   0.3128
  16.900   0.9024   0.21929   0.21490  -0.0751  0.0597  1.0000  -1.8248   0.0000   0.0000   0.0000   0.3158
  17.000   0.9037   0.22152   0.21713  -0.0760  0.0596  1.0000  -1.8137   0.0000   0.0000   0.0000   0.3166
  17.100   0.9049   0.22372   0.21933  -0.0769  0.0596  1.0000  -1.8028   0.0000   0.0000   0.0000   0.3173
  17.200   0.9062   0.22589   0.22150  -0.0778  0.0596  1.0000  -1.7919   0.0000   0.0000   0.0000   0.3181
  17.300   0.9074   0.22803   0.22364  -0.0787  0.0595  1.0000  -1.7811   0.0000   0.0000   0.0000   0.3189
  17.400   0.9086   0.23014   0.22575  -0.0796  0.0595  1.0000  -1.7704   0.0000   0.0000   0.0000   0.3196
  17.500   0.9098   0.23220   0.22782  -0.0805  0.0594  1.0000  -1.7597   0.0000   0.0000   0.0000   0.3204
  17.600   0.9110   0.23422   0.22983  -0.0814  0.0593  1.0000  -1.7490   0.0000   0.0000   0.0000   0.3212
  17.700   0.9121   0.23618   0.23179  -0.0824  0.0592  1.0000  -1.7382   0.0000   0.0000   0.0000   0.3220
  17.800   0.9132   0.23806   0.23367  -0.0833  0.0591  1.0000  -1.7273   0.0000   0.0000   0.0000   0.3228
  17.900   0.9143   0.23984   0.23546  -0.0843  0.0590  1.0000  -1.7160   0.0000   0.0000   0.0000   0.3237
  18.000   0.9153   0.24148   0.23709  -0.0853  0.0588  1.0000  -1.7038   0.0000   0.0000   0.0000   0.3246
  18.100   0.9150   0.24285   0.23846  -0.0867  0.0585  1.0000  -1.6819   0.0000   0.0000   0.0000   0.3260
  18.200   0.9137   0.24389   0.23950  -0.0883  0.0579  1.0000  -1.6504   0.0000   0.0000   0.0000   0.3278
  18.300   0.9113   0.24486   0.24045  -0.0903  0.0570  1.0000  -1.6094   0.0000   0.0000   0.0000   0.3301
  18.400   0.9105   0.24638   0.24197  -0.0919  0.0559  1.0000  -1.5780   0.0000   0.0000   0.0000   0.3318
  18.500   0.9108   0.24826   0.24385  -0.0931  0.0549  1.0000  -1.5584   0.0000   0.0000   0.0000   0.3330
  18.600   0.9116   0.25028   0.24586  -0.0941  0.0539  1.0000  -1.5452   0.0000   0.0000   0.0000   0.3339
  18.700   0.9126   0.25233   0.24792  -0.0950  0.0531  1.0000  -1.5357   0.0000   0.0000   0.0000   0.3347
  18.800   0.9138   0.25440   0.24999  -0.0959  0.0523  1.0000  -1.5285   0.0000   0.0000   0.0000   0.3353
  18.900   0.9149   0.25648   0.25207  -0.0966  0.0515  1.0000  -1.5230   0.0000   0.0000   0.0000   0.3359
  19.000   0.9161   0.25855   0.25415  -0.0974  0.0507  1.0000  -1.5188   0.0000   0.0000   0.0000   0.3364
  19.100   0.9174   0.26061   0.25622  -0.0981  0.0500  1.0000  -1.5159   0.0000   0.0000   0.0000   0.3369
  19.200   0.9186   0.26267   0.25828  -0.0987  0.0493  1.0000  -1.5140   0.0000   0.0000   0.0000   0.3374
  19.300   0.9199   0.26471   0.26033  -0.0994  0.0487  1.0000  -1.5132   0.0000   0.0000   0.0000   0.3378
  19.400   0.9212   0.26674   0.26237  -0.1000  0.0480  1.0000  -1.5133   0.0000   0.0000   0.0000   0.3382
  19.500   0.9224   0.26876   0.26440  -0.1006  0.0474  1.0000  -1.5146   0.0000   0.0000   0.0000   0.3385
  19.600   0.9237   0.27077   0.26641  -0.1012  0.0468  1.0000  -1.5170   0.0000   0.0000   0.0000   0.3388
  19.700   0.9250   0.27276   0.26841  -0.1017  0.0462  1.0000  -1.5206   0.0000   0.0000   0.0000   0.3391
  19.800   0.9264   0.27474   0.27039  -0.1022  0.0456  1.0000  -1.5255   0.0000   0.0000   0.0000   0.3394
  19.900   0.9277   0.27670   0.27237  -0.1027  0.0451  1.0000  -1.5318   0.0000   0.0000   0.0000   0.3395
  20.000   0.9291   0.27864   0.27432  -0.1031  0.0446  1.0000  -1.5397   0.0000   0.0000   0.0000   0.3397
  20.100   0.9305   0.28058   0.27627  -0.1035  0.0441  1.0000  -1.5494   0.0000   0.0000   0.0000   0.3398
  20.200   0.9320   0.28252   0.27822  -0.1039  0.0436  1.0000  -1.5612   0.0000   0.0000   0.0000   0.3398
  20.300   0.9336   0.28446   0.28017  -0.1041  0.0431  1.0000  -1.5754   0.0000   0.0000   0.0000   0.3397
  20.400   0.9354   0.28643   0.28215  -0.1043  0.0426  1.0000  -1.5925   0.0000   0.0000   0.0000   0.3396
  20.500   0.9374   0.28845   0.28419  -0.1044  0.0422  1.0000  -1.6133   0.0000   0.0000   0.0000   0.3392
  20.600   0.9398   0.29060   0.28636  -0.1044  0.0418  1.0000  -1.6391   0.0000   0.0000   0.0000   0.3387
  20.700   0.9431   0.29305   0.28882  -0.1041  0.0413  1.0000  -1.6721   0.0000   0.0000   0.0000   0.3379
  20.800   0.9482   0.29638   0.29218  -0.1035  0.0408  1.0000  -1.7184   0.0000   0.0000   0.0000   0.3365
  20.900   0.9451   0.30602   0.30179  -0.1033  0.0396  1.0000  -1.6661   0.0000   0.0000   0.0000   0.3367
  21.000   0.9448   0.30804   0.30382  -0.1039  0.0396  1.0000  -1.6548   0.0000   0.0000   0.0000   0.3373
  21.100   0.9443   0.31001   0.30580  -0.1045  0.0395  1.0000  -1.6432   0.0000   0.0000   0.0000   0.3379
  21.200   0.9437   0.31194   0.30774  -0.1052  0.0395  1.0000  -1.6314   0.0000   0.0000   0.0000   0.3385
  21.300   0.9429   0.31382   0.30963  -0.1057  0.0395  1.0000  -1.6192   0.0000   0.0000   0.0000   0.3391
  21.400   0.9418   0.31563   0.31145  -0.1063  0.0394  1.0000  -1.6067   0.0000   0.0000   0.0000   0.3397
  21.500   0.9405   0.31735   0.31318  -0.1068  0.0394  1.0000  -1.5935   0.0000   0.0000   0.0000   0.3403
  21.600   0.9389   0.31899   0.31483  -0.1073  0.0394  1.0000  -1.5797   0.0000   0.0000   0.0000   0.3409
  21.700   0.9369   0.32051   0.31637  -0.1078  0.0393  1.0000  -1.5652   0.0000   0.0000   0.0000   0.3416
  21.800   0.9343   0.32189   0.31776  -0.1082  0.0393  1.0000  -1.5495   0.0000   0.0000   0.0000   0.3422
  21.900   0.9311   0.32306   0.31896  -0.1085  0.0392  1.0000  -1.5323   0.0000   0.0000   0.0000   0.3429
  22.000   0.9263   0.32380   0.31972  -0.1087  0.0392  1.0000  -1.5114   0.0000   0.0000   0.0000   0.3436
  22.100   0.8920   0.31669   0.31271  -0.1054  0.0392  1.0000  -1.4252   0.0000   0.0000   0.0000   0.3449
  22.200   0.8824   0.31531   0.31137  -0.1049  0.0392  1.0000  -1.3943   0.0000   0.0000   0.0000   0.3458
  22.300   0.8746   0.31428   0.31036  -0.1048  0.0391  1.0000  -1.3649   0.0000   0.0000   0.0000   0.3467
  22.400   0.8679   0.31345   0.30957  -0.1049  0.0391  1.0000  -1.3374   0.0000   0.0000   0.0000   0.3477
  22.500   0.8617   0.31271   0.30884  -0.1050  0.0390  1.0000  -1.3103   0.0000   0.0000   0.0000   0.3487
  22.600   0.8563   0.31210   0.30825  -0.1053  0.0389  1.0000  -1.2846   0.0000   0.0000   0.0000   0.3497
  22.700   0.8515   0.31159   0.30776  -0.1056  0.0388  1.0000  -1.2598   0.0000   0.0000   0.0000   0.3508
  22.800   0.8471   0.31117   0.30736  -0.1060  0.0387  1.0000  -1.2357   0.0000   0.0000   0.0000   0.3518
  22.900   0.8432   0.31083   0.30704  -0.1065  0.0385  1.0000  -1.2118   0.0000   0.0000   0.0000   0.3529
  23.000   0.8398   0.31060   0.30682  -0.1070  0.0383  1.0000  -1.1882   0.0000   0.0000   0.0000   0.3540
  23.100   0.8369   0.31053   0.30676  -0.1076  0.0380  1.0000  -1.1648   0.0000   0.0000   0.0000   0.3551
  23.200   0.8345   0.31064   0.30689  -0.1083  0.0377  1.0000  -1.1423   0.0000   0.0000   0.0000   0.3561
  23.300   0.8327   0.31096   0.30722  -0.1089  0.0373  1.0000  -1.1217   0.0000   0.0000   0.0000   0.3571
  23.400   0.8311   0.31142   0.30770  -0.1095  0.0368  1.0000  -1.1039   0.0000   0.0000   0.0000   0.3580
  23.500   0.8298   0.31195   0.30832  -0.1100  0.0362  1.0000  -1.0856   0.0000   0.0000   0.0000   0.3587
  23.600   0.8285   0.31251   0.30889  -0.1104  0.0357  1.0000  -1.0721   0.0000   0.0000   0.0000   0.3593
  23.700   0.8273   0.31307   0.30946  -0.1108  0.0352  1.0000  -1.0609   0.0000   0.0000   0.0000   0.3599
  23.800   0.8261   0.31363   0.31004  -0.1112  0.0348  1.0000  -1.0510   0.0000   0.0000   0.0000   0.3605
  23.900   0.8250   0.31419   0.31062  -0.1116  0.0343  1.0000  -1.0421   0.0000   0.0000   0.0000   0.3610
  24.000   0.8240   0.31476   0.31120  -0.1119  0.0338  1.0000  -1.0341   0.0000   0.0000   0.0000   0.3615
  24.100   0.8230   0.31532   0.31178  -0.1123  0.0334  1.0000  -1.0269   0.0000   0.0000   0.0000   0.3619
  24.200   0.8220   0.31589   0.31236  -0.1126  0.0330  1.0000  -1.0202   0.0000   0.0000   0.0000   0.3624
  24.300   0.8211   0.31645   0.31294  -0.1130  0.0326  1.0000  -1.0141   0.0000   0.0000   0.0000   0.3628
  24.400   0.8203   0.31701   0.31352  -0.1133  0.0322  1.0000  -1.0084   0.0000   0.0000   0.0000   0.3633
  24.500   0.8195   0.31758   0.31410  -0.1137  0.0318  1.0000  -1.0033   0.0000   0.0000   0.0000   0.3637
  24.600   0.8188   0.31815   0.31468  -0.1140  0.0314  1.0000  -0.9985   0.0000   0.0000   0.0000   0.3641
  24.700   0.8181   0.31871   0.31526  -0.1144  0.0310  1.0000  -0.9942   0.0000   0.0000   0.0000   0.3645
  24.800   0.8174   0.31928   0.31584  -0.1147  0.0306  1.0000  -0.9903   0.0000   0.0000   0.0000   0.3649
  24.900   0.8168   0.31984   0.31642  -0.1151  0.0303  1.0000  -0.9869   0.0000   0.0000   0.0000   0.3653
  25.000   0.8162   0.32041   0.31700  -0.1154  0.0299  1.0000  -0.9838   0.0000   0.0000   0.0000   0.3657
  25.100   0.8157   0.32097   0.31758  -0.1157  0.0296  1.0000  -0.9811   0.0000   0.0000   0.0000   0.3661
  25.200   0.8152   0.32153   0.31815  -0.1161  0.0293  1.0000  -0.9789   0.0000   0.0000   0.0000   0.3665
  25.300   0.8147   0.32209   0.31873  -0.1164  0.0290  1.0000  -0.9770   0.0000   0.0000   0.0000   0.3668
  25.400   0.8143   0.32265   0.31930  -0.1168  0.0286  1.0000  -0.9756   0.0000   0.0000   0.0000   0.3672
  25.500   0.8139   0.32321   0.31987  -0.1171  0.0283  1.0000  -0.9747   0.0000   0.0000   0.0000   0.3675
  25.600   0.8135   0.32376   0.32044  -0.1175  0.0280  1.0000  -0.9742   0.0000   0.0000   0.0000   0.3678
  25.700   0.8132   0.32431   0.32101  -0.1178  0.0278  1.0000  -0.9742   0.0000   0.0000   0.0000   0.3681
  25.800   0.8128   0.32486   0.32157  -0.1181  0.0275  1.0000  -0.9747   0.0000   0.0000   0.0000   0.3684
  25.900   0.8125   0.32540   0.32212  -0.1184  0.0272  1.0000  -0.9758   0.0000   0.0000   0.0000   0.3687
  26.000   0.8123   0.32594   0.32268  -0.1188  0.0269  1.0000  -0.9774   0.0000   0.0000   0.0000   0.3690
  26.100   0.8120   0.32647   0.32322  -0.1191  0.0267  1.0000  -0.9797   0.0000   0.0000   0.0000   0.3693
  26.200   0.8118   0.32700   0.32377  -0.1194  0.0264  1.0000  -0.9827   0.0000   0.0000   0.0000   0.3695
  26.300   0.8117   0.32753   0.32432  -0.1197  0.0262  1.0000  -0.9864   0.0000   0.0000   0.0000   0.3697
  26.400   0.8115   0.32806   0.32486  -0.1199  0.0259  1.0000  -0.9909   0.0000   0.0000   0.0000   0.3699
  26.500   0.8114   0.32859   0.32541  -0.1202  0.0257  1.0000  -0.9964   0.0000   0.0000   0.0000   0.3701
  26.600   0.8113   0.32914   0.32597  -0.1204  0.0255  1.0000  -1.0028   0.0000   0.0000   0.0000   0.3702
  26.700   0.8113   0.32971   0.32656  -0.1207  0.0253  1.0000  -1.0104   0.0000   0.0000   0.0000   0.3703
  26.800   0.8114   0.33032   0.32718  -0.1208  0.0250  1.0000  -1.0193   0.0000   0.0000   0.0000   0.3703
  26.900   0.8115   0.33100   0.32788  -0.1210  0.0248  1.0000  -1.0299   0.0000   0.0000   0.0000   0.3703
  27.000   0.8119   0.33183   0.32873  -0.1211  0.0246  1.0000  -1.0424   0.0000   0.0000   0.0000   0.3701
  27.100   0.8125   0.33294   0.32985  -0.1211  0.0244  1.0000  -1.0573   0.0000   0.0000   0.0000   0.3699
  27.200   0.8139   0.33474   0.33168  -0.1210  0.0241  1.0000  -1.0758   0.0000   0.0000   0.0000   0.3693
  27.700   0.8159   0.34484   0.34180  -0.1222  0.0234  1.0000  -1.0436   0.0000   0.0000   0.0000   0.3698
  27.800   0.8154   0.34532   0.34229  -0.1227  0.0234  1.0000  -1.0365   0.0000   0.0000   0.0000   0.3703
  27.900   0.8149   0.34580   0.34278  -0.1232  0.0234  1.0000  -1.0294   0.0000   0.0000   0.0000   0.3707
  28.000   0.8144   0.34627   0.34327  -0.1236  0.0234  1.0000  -1.0225   0.0000   0.0000   0.0000   0.3712
  28.100   0.8139   0.34675   0.34376  -0.1241  0.0234  1.0000  -1.0156   0.0000   0.0000   0.0000   0.3717
  28.200   0.8134   0.34720   0.34422  -0.1245  0.0234  1.0000  -1.0085   0.0000   0.0000   0.0000   0.3722
  28.300   0.8128   0.34764   0.34467  -0.1250  0.0234  1.0000  -1.0013   0.0000   0.0000   0.0000   0.3727
  28.400   0.8123   0.34807   0.34512  -0.1255  0.0234  1.0000  -0.9942   0.0000   0.0000   0.0000   0.3732
  28.500   0.8117   0.34847   0.34553  -0.1260  0.0233  1.0000  -0.9866   0.0000   0.0000   0.0000   0.3737
  28.600   0.8110   0.34881   0.34588  -0.1264  0.0233  1.0000  -0.9781   0.0000   0.0000   0.0000   0.3742
  28.700   0.8104   0.34916   0.34624  -0.1269  0.0233  1.0000  -0.9696   0.0000   0.0000   0.0000   0.3748
  28.800   0.8097   0.34950   0.34659  -0.1274  0.0233  1.0000  -0.9612   0.0000   0.0000   0.0000   0.3753
  28.900   0.8091   0.34986   0.34696  -0.1279  0.0233  1.0000  -0.9530   0.0000   0.0000   0.0000   0.3759
  29.000   0.8084   0.35021   0.34732  -0.1284  0.0233  1.0000  -0.9448   0.0000   0.0000   0.0000   0.3764
  29.100   0.8078   0.35057   0.34769  -0.1289  0.0232  1.0000  -0.9367   0.0000   0.0000   0.0000   0.3770
  29.200   0.8073   0.35093   0.34806  -0.1294  0.0232  1.0000  -0.9286   0.0000   0.0000   0.0000   0.3775
  29.300   0.8067   0.35129   0.34843  -0.1300  0.0232  1.0000  -0.9252   0.0000   0.0000   0.0000   0.3781
  29.400   0.8061   0.35165   0.34880  -0.1305  0.0232  1.0000  -0.9275   0.0000   0.0000   0.0000   0.3786
  29.500   0.8056   0.35201   0.34917  -0.1310  0.0231  1.0000  -0.9292   0.0000   0.0000   0.0000   0.3792
  29.600   0.8050   0.35226   0.34944  -0.1316  0.0231  1.0000  -0.9289   0.0000   0.0000   0.0000   0.3798
  29.700   0.8038   0.35196   0.34921  -0.1324  0.0229  1.0000  -0.9151   0.0000   0.0000   0.0000   0.3808
  29.800   0.8029   0.35157   0.34882  -0.1336  0.0225  1.0000  -0.8935   0.0000   0.0000   0.0000   0.3822
  29.900   0.8044   0.35244   0.34970  -0.1351  0.0209  1.0000  -0.8638   0.0000   0.0000   0.0000   0.3836
  30.000   0.8051   0.35343   0.35070  -0.1358  0.0189  1.0000  -0.8588   0.0000   0.0000   0.0000   0.3841


