xflr5 v6.61

 Calculated polar for: S4062-095-87

 1 1 Reynolds number fixed          Mach number fixed         

 xtrf =   1.000 (top)        1.000 (bottom)
 Mach =   0.000     Re =     0.200 e 6     Ncrit =   9.000

  alpha     CL        CD       CDp       Cm    Top Xtr Bot Xtr   Cpmin    Chinge    XCp    
 ------- -------- --------- --------- -------- ------- ------- -------- --------- ---------
 -10.000  -0.3081   0.11574   0.11211  -0.0443  1.0000  0.0342  -1.5267   0.0000   0.0000   0.0000   0.0966
  -9.900  -0.3085   0.11337   0.10975  -0.0445  1.0000  0.0347  -1.5398   0.0000   0.0000   0.0000   0.0962
  -9.800  -0.3061   0.11163   0.10803  -0.0443  1.0000  0.0351  -1.5224   0.0000   0.0000   0.0000   0.0959
  -9.700  -0.3037   0.11023   0.10663  -0.0440  1.0000  0.0354  -1.5010   0.0000   0.0000   0.0000   0.0957
  -9.600  -0.3018   0.10903   0.10545  -0.0436  1.0000  0.0357  -1.4805   0.0000   0.0000   0.0000   0.0961
  -9.500  -0.3010   0.10804   0.10448  -0.0430  1.0000  0.0360  -1.4629   0.0000   0.0000   0.0000   0.0976
  -9.400  -0.3021   0.10731   0.10378  -0.0421  1.0000  0.0363  -1.4510   0.0000   0.0000   0.0000   0.1013
  -9.300  -0.3054   0.10685   0.10334  -0.0409  1.0000  0.0365  -1.4451   0.0000   0.0000   0.0000   0.1072
  -9.200  -0.3111   0.10666   0.10319  -0.0392  1.0000  0.0366  -1.4454   0.0000   0.0000   0.0000   0.1154
  -9.100  -0.3178   0.10658   0.10314  -0.0374  1.0000  0.0367  -1.4481   0.0000   0.0000   0.0000   0.1240
  -9.000  -0.3241   0.10645   0.10304  -0.0356  1.0000  0.0368  -1.4504   0.0000   0.0000   0.0000   0.1319
  -8.900  -0.3296   0.10621   0.10283  -0.0342  1.0000  0.0370  -1.4510   0.0000   0.0000   0.0000   0.1386
  -8.800  -0.3221   0.10457   0.10118  -0.0355  0.9988  0.0375  -1.4270   0.0000   0.0000   0.0000   0.1320
  -8.700  -0.3148   0.10295   0.09957  -0.0369  0.9975  0.0379  -1.4068   0.0000   0.0000   0.0000   0.1249
  -8.600  -0.3079   0.10137   0.09798  -0.0384  0.9961  0.0384  -1.3903   0.0000   0.0000   0.0000   0.1173
  -8.500  -0.3012   0.09980   0.09641  -0.0399  0.9945  0.0389  -1.3767   0.0000   0.0000   0.0000   0.1094
  -8.400  -0.2945   0.09823   0.09484  -0.0415  0.9929  0.0395  -1.3652   0.0000   0.0000   0.0000   0.1008
  -8.300  -0.2876   0.09664   0.09325  -0.0433  0.9913  0.0400  -1.3553   0.0000   0.0000   0.0000   0.0912
  -8.200  -0.2804   0.09501   0.09162  -0.0452  0.9898  0.0406  -1.3470   0.0000   0.0000   0.0000   0.0804
  -8.100  -0.2730   0.09335   0.08996  -0.0472  0.9885  0.0412  -1.3401   0.0000   0.0000   0.0000   0.0685
  -8.000  -0.2655   0.09168   0.08828  -0.0494  0.9873  0.0418  -1.3346   0.0000   0.0000   0.0000   0.0553
  -7.900  -0.2594   0.09014   0.08675  -0.0511  0.9853  0.0424  -1.3318   0.0000   0.0000   0.0000   0.0441
  -7.800  -0.2537   0.08863   0.08524  -0.0529  0.9829  0.0430  -1.3305   0.0000   0.0000   0.0000   0.0327
  -7.700  -0.2475   0.08707   0.08368  -0.0548  0.9808  0.0437  -1.3301   0.0000   0.0000   0.0000   0.0196
  -7.600  -0.2409   0.08546   0.08207  -0.0570  0.9788  0.0444  -1.3309   0.0000   0.0000   0.0000   0.0044
  -7.500  -0.2337   0.08379   0.08040  -0.0594  0.9770  0.0452  -1.3329   0.0000   0.0000   0.0000  -0.0133
  -7.400  -0.2259   0.08206   0.07866  -0.0620  0.9753  0.0460  -1.3365   0.0000   0.0000   0.0000  -0.0340
  -7.300  -0.2175   0.08027   0.07687  -0.0650  0.9737  0.0470  -1.3423   0.0000   0.0000   0.0000  -0.0584
  -7.200  -0.2084   0.07840   0.07500  -0.0684  0.9723  0.0480  -1.3512   0.0000   0.0000   0.0000  -0.0881
  -7.100  -0.2017   0.07679   0.07339  -0.0713  0.9695  0.0490  -1.3645   0.0000   0.0000   0.0000  -0.1135
  -7.000  -0.1990   0.07555   0.07215  -0.0732  0.9645  0.0499  -1.3816   0.0000   0.0000   0.0000  -0.1280
  -6.900  -0.1906   0.07394   0.07054  -0.0773  0.9606  0.0512  -1.4054   0.0000   0.0000   0.0000  -0.1657
  -6.800  -0.1763   0.07260   0.06917  -0.0835  0.9571  0.0529  -1.4319   0.0000   0.0000   0.0000  -0.2346
  -6.700  -0.1614   0.07112   0.06765  -0.0890  0.9546  0.0538  -1.4453   0.0000   0.0000   0.0000  -0.3129
  -6.600  -0.1481   0.06923   0.06557  -0.0939  0.9524  0.0541  -1.4668   0.0000   0.0000   0.0000  -0.3969
  -6.500  -0.1369   0.06711   0.06340  -0.0978  0.9506  0.0543  -1.4842   0.0000   0.0000   0.0000  -0.4775
  -6.400  -0.1317   0.06554   0.06180  -0.0996  0.9472  0.0543  -1.5004   0.0000   0.0000   0.0000  -0.5194
  -6.300  -0.1295   0.06425   0.06048  -0.1003  0.9427  0.0544  -1.5154   0.0000   0.0000   0.0000  -0.5389
  -6.200  -0.1245   0.06270   0.05888  -0.1018  0.9390  0.0545  -1.5296   0.0000   0.0000   0.0000  -0.5813
  -6.100  -0.1183   0.06104   0.05716  -0.1033  0.9358  0.0545  -1.5423   0.0000   0.0000   0.0000  -0.6382
  -6.000  -0.1286   0.05386   0.05009  -0.1074  0.9317  0.0566  -1.6982   0.0000   0.0000   0.0000  -0.5992
  -5.900  -0.1239   0.05175   0.04783  -0.1083  0.9296  0.0580  -1.6814   0.0000   0.0000   0.0000  -0.6378
  -5.800  -0.1158   0.05040   0.04647  -0.1089  0.9278  0.0587  -1.6481   0.0000   0.0000   0.0000  -0.7054
  -5.700  -0.1072   0.04909   0.04515  -0.1097  0.9259  0.0594  -1.6181   0.0000   0.0000   0.0000  -0.7887
  -5.600  -0.0985   0.04778   0.04381  -0.1105  0.9240  0.0602  -1.5937   0.0000   0.0000   0.0000  -0.8884
  -5.500  -0.0928   0.04665   0.04265  -0.1108  0.9211  0.0608  -1.5784   0.0000   0.0000   0.0000  -0.9604
  -5.400  -0.0890   0.04559   0.04156  -0.1107  0.9173  0.0613  -1.5684   0.0000   0.0000   0.0000  -1.0117
  -5.300  -0.0836   0.04441   0.04033  -0.1109  0.9136  0.0619  -1.5594   0.0000   0.0000   0.0000  -1.0951
  -5.200  -0.0770   0.04311   0.03897  -0.1114  0.9104  0.0625  -1.5521   0.0000   0.0000   0.0000  -1.2163
  -5.100  -0.0695   0.04173   0.03751  -0.1121  0.9076  0.0630  -1.5472   0.0000   0.0000   0.0000  -1.3838
  -4.800  -0.0402   0.03063   0.02529  -0.1150  0.9000  0.0303  -2.0783   0.0000   0.0000   0.0000  -2.6524
  -4.700  -0.0317   0.02842   0.02282  -0.1154  0.8982  0.0283  -2.1283   0.0000   0.0000   0.0000  -3.4424
  -4.600  -0.0221   0.02648   0.02061  -0.1156  0.8965  0.0264  -2.1762   0.0000   0.0000   0.0000  -5.0625
  -4.500  -0.0118   0.02466   0.01848  -0.1156  0.8949  0.0245  -2.2316   0.0000   0.0000   0.0000  -9.6535
  -4.400  -0.0013   0.02302   0.01650  -0.1154  0.8933  0.0228  -2.2896   0.0000   0.0000   0.0000  -92.2022
  -4.300   0.0090   0.02179   0.01499  -0.1151  0.8916  0.0215  -2.3250   0.0000   0.0000   0.0000  13.2062
  -4.200   0.0182   0.02092   0.01392  -0.1146  0.8897  0.0205  -2.3312   0.0000   0.0000   0.0000   6.6492
  -4.100   0.0274   0.02031   0.01319  -0.1142  0.8875  0.0199  -2.3105   0.0000   0.0000   0.0000   4.4711
  -4.000   0.0369   0.01985   0.01262  -0.1138  0.8852  0.0195  -2.2740   0.0000   0.0000   0.0000   3.3775
  -3.900   0.0466   0.01944   0.01214  -0.1135  0.8829  0.0191  -2.2297   0.0000   0.0000   0.0000   2.7204
  -3.800   0.0564   0.01905   0.01168  -0.1132  0.8806  0.0188  -2.1819   0.0000   0.0000   0.0000   2.2836
  -3.700   0.0665   0.01866   0.01123  -0.1129  0.8784  0.0187  -2.1323   0.0000   0.0000   0.0000   1.9707
  -3.600   0.0768   0.01827   0.01078  -0.1127  0.8764  0.0185  -2.0821   0.0000   0.0000   0.0000   1.7360
  -3.500   0.0872   0.01787   0.01032  -0.1125  0.8744  0.0185  -2.0318   0.0000   0.0000   0.0000   1.5548
  -3.400   0.0978   0.01748   0.00987  -0.1123  0.8726  0.0185  -1.9816   0.0000   0.0000   0.0000   1.4112
  -3.300   0.1086   0.01710   0.00943  -0.1121  0.8708  0.0187  -1.9311   0.0000   0.0000   0.0000   1.2942
  -3.200   0.1195   0.01673   0.00900  -0.1119  0.8690  0.0189  -1.8797   0.0000   0.0000   0.0000   1.1971
  -3.100   0.1306   0.01641   0.00859  -0.1118  0.8673  0.0194  -1.8271   0.0000   0.0000   0.0000   1.1149
  -3.000   0.1420   0.01612   0.00822  -0.1116  0.8657  0.0201  -1.7724   0.0000   0.0000   0.0000   1.0445
  -2.900   0.1535   0.01588   0.00789  -0.1115  0.8641  0.0212  -1.7157   0.0000   0.0000   0.0000   0.9834
  -2.800   0.1651   0.01567   0.00762  -0.1113  0.8625  0.0229  -1.6573   0.0000   0.0000   0.0000   0.9307
  -2.700   0.1766   0.01550   0.00741  -0.1112  0.8609  0.0255  -1.5976   0.0000   0.0000   0.0000   0.8853
  -2.600   0.1879   0.01537   0.00727  -0.1110  0.8592  0.0301  -1.5409   0.0000   0.0000   0.0000   0.8460
  -2.500   0.1984   0.01526   0.00724  -0.1108  0.8573  0.0495  -1.4881   0.0000   0.0000   0.0000   0.8133
  -2.400   0.2080   0.01498   0.00717  -0.1108  0.8556  0.0913  -1.4298   0.0000   0.0000   0.0000   0.7869
  -2.300   0.2179   0.01484   0.00716  -0.1107  0.8537  0.1198  -1.3679   0.0000   0.0000   0.0000   0.7622
  -2.200   0.2274   0.01467   0.00719  -0.1107  0.8516  0.1618  -1.3054   0.0000   0.0000   0.0000   0.7405
  -2.100   0.2374   0.01461   0.00722  -0.1106  0.8494  0.1837  -1.2433   0.0000   0.0000   0.0000   0.7194
  -2.000   0.2474   0.01456   0.00724  -0.1105  0.8472  0.2017  -1.1824   0.0000   0.0000   0.0000   0.6998
  -1.900   0.2575   0.01451   0.00726  -0.1105  0.8450  0.2225  -1.1222   0.0000   0.0000   0.0000   0.6817
  -1.800   0.2677   0.01445   0.00729  -0.1104  0.8429  0.2454  -1.0627   0.0000   0.0000   0.0000   0.6648
  -1.700   0.2780   0.01436   0.00732  -0.1103  0.8408  0.2784  -1.0037   0.0000   0.0000   0.0000   0.6491
  -1.600   0.2874   0.01408   0.00740  -0.1103  0.8388  0.3553  -0.9469   0.0000   0.0000   0.0000   0.6356
  -1.500   0.2960   0.01372   0.00752  -0.1099  0.8369  0.4659  -0.8928   0.0000   0.0000   0.0000   0.6232
  -1.400   0.3031   0.01332   0.00763  -0.1091  0.8351  0.5915  -0.8426   0.0000   0.0000   0.0000   0.6116
  -1.300   0.3099   0.01304   0.00770  -0.1079  0.8333  0.6834  -0.7930   0.0000   0.0000   0.0000   0.5998
  -1.200   0.3177   0.01287   0.00771  -0.1069  0.8317  0.7457  -0.7392   0.0000   0.0000   0.0000   0.5878
  -1.100   0.3264   0.01276   0.00769  -0.1060  0.8301  0.7935  -0.6462   0.0000   0.0000   0.0000   0.5759
  -1.000   0.3375   0.01255   0.00764  -0.1053  0.8288  0.8838  -0.5964   0.0000   0.0000   0.0000   0.5630
  -0.900   0.3678   0.01234   0.00743  -0.1090  0.8283  1.0000  -0.5425   0.0000   0.0000   0.0000   0.5471
  -0.800   0.3790   0.01234   0.00736  -0.1089  0.8267  1.0000  -0.5489   0.0000   0.0000   0.0000   0.5379
  -0.700   0.3903   0.01235   0.00730  -0.1088  0.8250  1.0000  -0.5554   0.0000   0.0000   0.0000   0.5291
  -0.600   0.4014   0.01237   0.00726  -0.1087  0.8233  1.0000  -0.5617   0.0000   0.0000   0.0000   0.5210
  -0.500   0.4122   0.01246   0.00729  -0.1085  0.8214  1.0000  -0.5679   0.0000   0.0000   0.0000   0.5133
  -0.400   0.4223   0.01264   0.00742  -0.1083  0.8191  1.0000  -0.5739   0.0000   0.0000   0.0000   0.5064
  -0.300   0.4325   0.01269   0.00743  -0.1083  0.8174  1.0000  -0.5810   0.0000   0.0000   0.0000   0.5002
  -0.200   0.4426   0.01275   0.00747  -0.1082  0.8155  1.0000  -0.5880   0.0000   0.0000   0.0000   0.4942
  -0.100   0.4526   0.01283   0.00752  -0.1082  0.8133  1.0000  -0.5951   0.0000   0.0000   0.0000   0.4886
   0.000   0.4627   0.01290   0.00757  -0.1081  0.8110  1.0000  -0.6038   0.0000   0.0000   0.0000   0.4831
   0.100   0.4728   0.01297   0.00760  -0.1080  0.8085  1.0000  -0.6131   0.0000   0.0000   0.0000   0.4777
   0.200   0.4829   0.01302   0.00763  -0.1078  0.8059  1.0000  -0.6226   0.0000   0.0000   0.0000   0.4725
   0.300   0.4933   0.01305   0.00763  -0.1077  0.8033  1.0000  -0.6322   0.0000   0.0000   0.0000   0.4674
   0.400   0.5039   0.01307   0.00761  -0.1075  0.8008  1.0000  -0.6421   0.0000   0.0000   0.0000   0.4625
   0.500   0.5146   0.01307   0.00759  -0.1074  0.7985  1.0000  -0.6524   0.0000   0.0000   0.0000   0.4576
   0.600   0.5255   0.01306   0.00755  -0.1072  0.7962  1.0000  -0.6640   0.0000   0.0000   0.0000   0.4529
   0.700   0.5365   0.01304   0.00750  -0.1071  0.7941  1.0000  -0.6758   0.0000   0.0000   0.0000   0.4484
   0.800   0.5478   0.01301   0.00745  -0.1070  0.7922  1.0000  -0.6878   0.0000   0.0000   0.0000   0.4440
   0.900   0.5592   0.01297   0.00737  -0.1069  0.7902  1.0000  -0.7000   0.0000   0.0000   0.0000   0.4397
   1.000   0.5707   0.01290   0.00727  -0.1067  0.7881  1.0000  -0.7123   0.0000   0.0000   0.0000   0.4355
   1.100   0.5823   0.01284   0.00718  -0.1066  0.7861  1.0000  -0.7248   0.0000   0.0000   0.0000   0.4314
   1.200   0.5938   0.01280   0.00710  -0.1064  0.7840  1.0000  -0.7382   0.0000   0.0000   0.0000   0.4275
   1.300   0.6050   0.01282   0.00709  -0.1062  0.7815  1.0000  -0.7522   0.0000   0.0000   0.0000   0.4237
   1.400   0.6152   0.01298   0.00723  -0.1060  0.7785  1.0000  -0.7653   0.0000   0.0000   0.0000   0.4203
   1.500   0.6254   0.01297   0.00721  -0.1058  0.7762  1.0000  -0.7784   0.0000   0.0000   0.0000   0.4172
   1.600   0.6354   0.01296   0.00721  -0.1057  0.7733  1.0000  -0.7913   0.0000   0.0000   0.0000   0.4142
   1.700   0.6453   0.01297   0.00722  -0.1054  0.7700  1.0000  -0.8043   0.0000   0.0000   0.0000   0.4112
   1.800   0.6555   0.01295   0.00720  -0.1052  0.7665  1.0000  -0.8177   0.0000   0.0000   0.0000   0.4082
   1.900   0.6660   0.01292   0.00716  -0.1050  0.7631  1.0000  -0.8313   0.0000   0.0000   0.0000   0.4053
   2.000   0.6768   0.01288   0.00711  -0.1048  0.7600  1.0000  -0.8452   0.0000   0.0000   0.0000   0.4024
   2.100   0.6878   0.01284   0.00706  -0.1047  0.7571  1.0000  -0.8610   0.0000   0.0000   0.0000   0.3996
   2.200   0.6990   0.01278   0.00699  -0.1045  0.7543  1.0000  -0.8777   0.0000   0.0000   0.0000   0.3969
   2.300   0.7103   0.01271   0.00696  -0.1044  0.7518  1.0000  -0.8946   0.0000   0.0000   0.0000   0.3942
   2.400   0.7218   0.01264   0.00686  -0.1043  0.7493  1.0000  -0.9116   0.0000   0.0000   0.0000   0.3916
   2.500   0.7333   0.01256   0.00676  -0.1041  0.7467  1.0000  -0.9289   0.0000   0.0000   0.0000   0.3890
   2.600   0.7448   0.01248   0.00666  -0.1040  0.7442  1.0000  -0.9462   0.0000   0.0000   0.0000   0.3865
   2.700   0.7562   0.01245   0.00660  -0.1038  0.7415  1.0000  -0.9635   0.0000   0.0000   0.0000   0.3841
   2.800   0.7675   0.01248   0.00660  -0.1037  0.7385  1.0000  -0.9815   0.0000   0.0000   0.0000   0.3819
   2.900   0.7782   0.01258   0.00670  -0.1036  0.7353  1.0000  -1.0008   0.0000   0.0000   0.0000   0.3798
   3.000   0.7882   0.01259   0.00672  -0.1034  0.7327  1.0000  -1.0195   0.0000   0.0000   0.0000   0.3778
   3.100   0.7982   0.01259   0.00675  -0.1032  0.7295  1.0000  -1.0383   0.0000   0.0000   0.0000   0.3758
   3.200   0.8083   0.01258   0.00675  -0.1030  0.7258  1.0000  -1.0575   0.0000   0.0000   0.0000   0.3738
   3.300   0.8188   0.01255   0.00674  -0.1028  0.7219  1.0000  -1.0770   0.0000   0.0000   0.0000   0.3718
   3.400   0.8295   0.01251   0.00670  -0.1026  0.7181  1.0000  -1.0969   0.0000   0.0000   0.0000   0.3699
   3.500   0.8404   0.01246   0.00665  -0.1025  0.7144  1.0000  -1.1172   0.0000   0.0000   0.0000   0.3680
   3.600   0.8515   0.01241   0.00660  -0.1023  0.7110  1.0000  -1.1378   0.0000   0.0000   0.0000   0.3661
   3.700   0.8627   0.01236   0.00654  -0.1022  0.7077  1.0000  -1.1585   0.0000   0.0000   0.0000   0.3643
   3.800   0.8739   0.01229   0.00646  -0.1020  0.7043  1.0000  -1.1810   0.0000   0.0000   0.0000   0.3625
   3.900   0.8853   0.01221   0.00637  -0.1019  0.7007  1.0000  -1.2075   0.0000   0.0000   0.0000   0.3607
   4.000   0.8970   0.01216   0.00628  -0.1017  0.6967  1.0000  -1.2390   0.0000   0.0000   0.0000   0.3589
   4.100   0.9086   0.01220   0.00628  -0.1016  0.6917  1.0000  -1.2706   0.0000   0.0000   0.0000   0.3573
   4.200   0.9183   0.01219   0.00632  -0.1014  0.6881  1.0000  -1.2993   0.0000   0.0000   0.0000   0.3557
   4.300   0.9281   0.01218   0.00635  -0.1011  0.6838  1.0000  -1.3284   0.0000   0.0000   0.0000   0.3542
   4.400   0.9382   0.01218   0.00638  -0.1009  0.6790  1.0000  -1.3580   0.0000   0.0000   0.0000   0.3526
   4.500   0.9485   0.01216   0.00638  -0.1007  0.6740  1.0000  -1.3883   0.0000   0.0000   0.0000   0.3511
   4.600   0.9590   0.01212   0.00635  -0.1004  0.6688  1.0000  -1.4192   0.0000   0.0000   0.0000   0.3496
   4.700   0.9698   0.01205   0.00629  -0.1002  0.6632  1.0000  -1.4508   0.0000   0.0000   0.0000   0.3481
   4.800   0.9810   0.01198   0.00618  -0.1000  0.6574  1.0000  -1.4833   0.0000   0.0000   0.0000   0.3466
   4.900   0.9923   0.01192   0.00608  -0.0998  0.6512  1.0000  -1.5162   0.0000   0.0000   0.0000   0.3451
   5.000   1.0033   0.01194   0.00606  -0.0996  0.6447  1.0000  -1.5486   0.0000   0.0000   0.0000   0.3437
   5.100   1.0126   0.01196   0.00614  -0.0993  0.6389  1.0000  -1.5787   0.0000   0.0000   0.0000   0.3424
   5.200   1.0223   0.01197   0.00621  -0.0990  0.6320  1.0000  -1.6177   0.0000   0.0000   0.0000   0.3411
   5.300   1.0323   0.01198   0.00624  -0.0987  0.6246  1.0000  -1.6579   0.0000   0.0000   0.0000   0.3398
   5.400   1.0427   0.01197   0.00621  -0.0985  0.6166  1.0000  -1.6991   0.0000   0.0000   0.0000   0.3384
   5.500   1.0532   0.01195   0.00615  -0.0982  0.6080  1.0000  -1.7482   0.0000   0.0000   0.0000   0.3371
   5.600   1.0636   0.01198   0.00611  -0.0979  0.5984  1.0000  -1.8034   0.0000   0.0000   0.0000   0.3357
   5.700   1.0727   0.01203   0.00622  -0.0975  0.5891  1.0000  -1.8571   0.0000   0.0000   0.0000   0.3345
   5.800   1.0820   0.01207   0.00626  -0.0971  0.5768  1.0000  -1.9358   0.0000   0.0000   0.0000   0.3333
   5.900   1.0910   0.01214   0.00661  -0.0965  0.5589  1.0000  -2.0754   0.0000   0.0000   0.0000   0.3318
   6.000   1.1000   0.01223   0.00669  -0.0960  0.5450  1.0000  -2.1696   0.0000   0.0000   0.0000   0.3305
   6.100   1.1087   0.01234   0.00679  -0.0955  0.5278  1.0000  -2.2574   0.0000   0.0000   0.0000   0.3293
   6.200   1.1164   0.01251   0.00682  -0.0948  0.5078  1.0000  -2.3410   0.0000   0.0000   0.0000   0.3279
   6.300   1.1245   0.01268   0.00695  -0.0943  0.4882  1.0000  -2.4251   0.0000   0.0000   0.0000   0.3267
   6.400   1.1314   0.01293   0.00706  -0.0935  0.4647  1.0000  -2.5043   0.0000   0.0000   0.0000   0.3254
   6.500   1.1383   0.01319   0.00722  -0.0928  0.4437  1.0000  -2.5838   0.0000   0.0000   0.0000   0.3242
   6.600   1.1446   0.01350   0.00741  -0.0921  0.4211  1.0000  -2.6607   0.0000   0.0000   0.0000   0.3229
   6.700   1.1506   0.01383   0.00763  -0.0913  0.4009  1.0000  -2.7370   0.0000   0.0000   0.0000   0.3217
   6.800   1.1569   0.01415   0.00785  -0.0906  0.3804  1.0000  -2.8149   0.0000   0.0000   0.0000   0.3205
   6.900   1.1618   0.01457   0.00812  -0.0896  0.3606  1.0000  -2.8866   0.0000   0.0000   0.0000   0.3192
   7.000   1.1689   0.01484   0.00836  -0.0891  0.3442  1.0000  -2.9687   0.0000   0.0000   0.0000   0.3182
   7.100   1.1741   0.01524   0.00864  -0.0882  0.3271  1.0000  -3.0432   0.0000   0.0000   0.0000   0.3170
   7.200   1.1801   0.01559   0.00891  -0.0875  0.3121  1.0000  -3.1211   0.0000   0.0000   0.0000   0.3159
   7.300   1.1872   0.01586   0.00917  -0.0870  0.2993  1.0000  -3.2051   0.0000   0.0000   0.0000   0.3148
   7.400   1.1929   0.01622   0.00945  -0.0862  0.2863  1.0000  -3.2830   0.0000   0.0000   0.0000   0.3137
   7.500   1.1977   0.01665   0.00977  -0.0853  0.2725  1.0000  -3.3563   0.0000   0.0000   0.0000   0.3126
   7.600   1.2057   0.01685   0.01002  -0.0849  0.2637  1.0000  -3.4465   0.0000   0.0000   0.0000   0.3116
   7.700   1.2122   0.01716   0.01030  -0.0843  0.2531  1.0000  -3.5298   0.0000   0.0000   0.0000   0.3106
   7.800   1.2172   0.01755   0.01060  -0.0835  0.2421  1.0000  -3.6063   0.0000   0.0000   0.0000   0.3095
   7.900   1.2217   0.01798   0.01096  -0.0826  0.2303  1.0000  -3.6800   0.0000   0.0000   0.0000   0.3084
   8.000   1.2297   0.01817   0.01121  -0.0822  0.2226  1.0000  -3.7721   0.0000   0.0000   0.0000   0.3075
   8.100   1.2357   0.01848   0.01150  -0.0815  0.2129  1.0000  -3.8555   0.0000   0.0000   0.0000   0.3064
   8.200   1.2398   0.01890   0.01183  -0.0806  0.2026  1.0000  -3.9295   0.0000   0.0000   0.0000   0.3054
   8.300   1.2430   0.01939   0.01223  -0.0795  0.1911  1.0000  -3.9976   0.0000   0.0000   0.0000   0.3042
   8.400   1.2504   0.01957   0.01248  -0.0790  0.1837  1.0000  -4.0892   0.0000   0.0000   0.0000   0.3033
   8.500   1.2550   0.01990   0.01279  -0.0781  0.1745  1.0000  -4.1673   0.0000   0.0000   0.0000   0.3022
   8.600   1.2572   0.02036   0.01315  -0.0769  0.1650  1.0000  -4.2328   0.0000   0.0000   0.0000   0.3010
   8.700   1.2591   0.02090   0.01361  -0.0757  0.1546  1.0000  -4.2943   0.0000   0.0000   0.0000   0.2998
   8.800   1.2659   0.02112   0.01390  -0.0751  0.1476  1.0000  -4.3843   0.0000   0.0000   0.0000   0.2989
   8.900   1.2700   0.02152   0.01426  -0.0743  0.1392  1.0000  -4.4598   0.0000   0.0000   0.0000   0.2979
   9.000   1.2717   0.02207   0.01472  -0.0731  0.1309  1.0000  -4.5215   0.0000   0.0000   0.0000   0.2968
   9.100   1.2723   0.02276   0.01533  -0.0718  0.1218  1.0000  -4.5726   0.0000   0.0000   0.0000   0.2956
   9.200   1.2788   0.02303   0.01569  -0.0712  0.1166  1.0000  -4.6595   0.0000   0.0000   0.0000   0.2947
   9.300   1.2832   0.02346   0.01611  -0.0705  0.1103  1.0000  -4.7348   0.0000   0.0000   0.0000   0.2937
   9.400   1.2856   0.02401   0.01661  -0.0695  0.1042  1.0000  -4.7993   0.0000   0.0000   0.0000   0.2927
   9.500   1.2855   0.02479   0.01731  -0.0682  0.0974  1.0000  -4.8450   0.0000   0.0000   0.0000   0.2916
   9.600   1.2873   0.02553   0.01805  -0.0671  0.0921  1.0000  -4.8968   0.0000   0.0000   0.0000   0.2905
   9.700   1.2931   0.02587   0.01846  -0.0665  0.0890  1.0000  -4.9782   0.0000   0.0000   0.0000   0.2897
   9.800   1.2977   0.02629   0.01906  -0.0658  0.0845  1.0000  -5.0183   0.0000   0.0000   0.0000   0.2888
   9.900   1.3016   0.02675   0.01952  -0.0651  0.0803  1.0000  -5.0895   0.0000   0.0000   0.0000   0.2880
  10.000   1.3039   0.02735   0.02006  -0.0643  0.0760  1.0000  -5.1533   0.0000   0.0000   0.0000   0.2871
  10.100   1.3037   0.02822   0.02089  -0.0632  0.0710  1.0000  -5.1948   0.0000   0.0000   0.0000   0.2861
  10.200   1.3052   0.02907   0.02175  -0.0622  0.0669  1.0000  -5.2416   0.0000   0.0000   0.0000   0.2851
  10.300   1.3114   0.02933   0.02209  -0.0617  0.0647  1.0000  -5.3287   0.0000   0.0000   0.0000   0.2844
  10.400   1.3163   0.02975   0.02256  -0.0612  0.0618  1.0000  -5.4025   0.0000   0.0000   0.0000   0.2836
  10.500   1.3203   0.03023   0.02308  -0.0606  0.0583  1.0000  -5.4701   0.0000   0.0000   0.0000   0.2829
  10.600   1.3229   0.03083   0.02367  -0.0599  0.0546  1.0000  -5.5287   0.0000   0.0000   0.0000   0.2821
  10.700   1.3210   0.03187   0.02466  -0.0588  0.0498  1.0000  -5.5454   0.0000   0.0000   0.0000   0.2812
  10.800   1.3199   0.03290   0.02573  -0.0577  0.0427  1.0000  -5.5181   0.0000   0.0000   0.0000   0.2802
  10.900   1.2995   0.03599   0.02872  -0.0549  0.0282  1.0000  -5.2020   0.0000   0.0000   0.0000   0.2786
  11.000   1.3049   0.03636   0.02913  -0.0545  0.0272  1.0000  -5.2589   0.0000   0.0000   0.0000   0.2780
  11.100   1.3091   0.03690   0.02973  -0.0540  0.0260  1.0000  -5.3103   0.0000   0.0000   0.0000   0.2773
  11.200   1.3127   0.03750   0.03039  -0.0535  0.0247  1.0000  -5.3643   0.0000   0.0000   0.0000   0.2766
  11.300   1.3159   0.03812   0.03104  -0.0530  0.0234  1.0000  -5.4247   0.0000   0.0000   0.0000   0.2760
  11.400   1.3189   0.03873   0.03168  -0.0526  0.0222  1.0000  -5.4936   0.0000   0.0000   0.0000   0.2754
  11.500   1.3220   0.03931   0.03228  -0.0522  0.0210  1.0000  -5.5711   0.0000   0.0000   0.0000   0.2749
  11.600   1.3249   0.03992   0.03290  -0.0519  0.0199  1.0000  -5.6536   0.0000   0.0000   0.0000   0.2743
  11.700   1.3269   0.04064   0.03363  -0.0515  0.0188  1.0000  -5.7282   0.0000   0.0000   0.0000   0.2738
  11.800   1.3273   0.04158   0.03458  -0.0510  0.0178  1.0000  -5.7800   0.0000   0.0000   0.0000   0.2733
  11.900   1.3262   0.04275   0.03579  -0.0503  0.0169  1.0000  -5.8059   0.0000   0.0000   0.0000   0.2726
  12.000   1.3238   0.04412   0.03724  -0.0495  0.0162  1.0000  -5.8099   0.0000   0.0000   0.0000   0.2719
  12.100   1.3210   0.04568   0.03889  -0.0486  0.0155  1.0000  -5.7972   0.0000   0.0000   0.0000   0.2711
  12.200   1.3184   0.04740   0.04073  -0.0477  0.0150  1.0000  -5.7729   0.0000   0.0000   0.0000   0.2704
  12.300   1.3185   0.04867   0.04206  -0.0470  0.0148  1.0000  -5.7908   0.0000   0.0000   0.0000   0.2697
  12.400   1.3204   0.04954   0.04300  -0.0466  0.0147  1.0000  -5.8442   0.0000   0.0000   0.0000   0.2692
  12.500   1.3220   0.05043   0.04396  -0.0462  0.0146  1.0000  -5.8958   0.0000   0.0000   0.0000   0.2687
  12.600   1.3233   0.05134   0.04494  -0.0458  0.0144  1.0000  -5.9457   0.0000   0.0000   0.0000   0.2681
  12.700   1.3245   0.05229   0.04596  -0.0454  0.0143  1.0000  -5.9943   0.0000   0.0000   0.0000   0.2676
  12.800   1.3256   0.05327   0.04701  -0.0451  0.0142  1.0000  -6.0415   0.0000   0.0000   0.0000   0.2672
  12.900   1.3263   0.05431   0.04812  -0.0447  0.0140  1.0000  -6.0866   0.0000   0.0000   0.0000   0.2667
  13.000   1.3265   0.05541   0.04931  -0.0444  0.0139  1.0000  -6.1279   0.0000   0.0000   0.0000   0.2663
  13.100   1.3263   0.05657   0.05054  -0.0441  0.0138  1.0000  -6.1669   0.0000   0.0000   0.0000   0.2659
  13.200   1.3260   0.05777   0.05182  -0.0439  0.0136  1.0000  -6.2048   0.0000   0.0000   0.0000   0.2655
  13.300   1.3257   0.05900   0.05313  -0.0437  0.0135  1.0000  -6.2418   0.0000   0.0000   0.0000   0.2652
  13.400   1.3252   0.06026   0.05447  -0.0435  0.0133  1.0000  -6.2777   0.0000   0.0000   0.0000   0.2649
  13.500   1.3245   0.06157   0.05586  -0.0433  0.0131  1.0000  -6.3121   0.0000   0.0000   0.0000   0.2646
  13.600   1.3235   0.06292   0.05730  -0.0432  0.0130  1.0000  -6.3443   0.0000   0.0000   0.0000   0.2644
  13.700   1.3217   0.06438   0.05884  -0.0432  0.0128  1.0000  -6.3712   0.0000   0.0000   0.0000   0.2642
  13.800   1.3196   0.06589   0.06043  -0.0432  0.0127  1.0000  -6.3958   0.0000   0.0000   0.0000   0.2641
  13.900   1.3175   0.06742   0.06204  -0.0432  0.0126  1.0000  -6.4202   0.0000   0.0000   0.0000   0.2640
  14.000   1.3154   0.06898   0.06368  -0.0433  0.0124  1.0000  -6.4441   0.0000   0.0000   0.0000   0.2639
  14.100   1.3132   0.07058   0.06537  -0.0435  0.0123  1.0000  -6.4667   0.0000   0.0000   0.0000   0.2639
  14.200   1.3106   0.07224   0.06711  -0.0437  0.0121  1.0000  -6.4864   0.0000   0.0000   0.0000   0.2639
  14.300   1.3071   0.07403   0.06898  -0.0440  0.0120  1.0000  -6.4995   0.0000   0.0000   0.0000   0.2641
  14.400   1.3036   0.07585   0.07088  -0.0444  0.0119  1.0000  -6.5118   0.0000   0.0000   0.0000   0.2643
  14.500   1.3002   0.07768   0.07279  -0.0448  0.0117  1.0000  -6.5240   0.0000   0.0000   0.0000   0.2645
  14.600   1.2968   0.07954   0.07473  -0.0453  0.0116  1.0000  -6.5353   0.0000   0.0000   0.0000   0.2647
  14.700   1.2930   0.08148   0.07676  -0.0459  0.0115  1.0000  -6.5426   0.0000   0.0000   0.0000   0.2651
  14.800   1.2883   0.08358   0.07894  -0.0466  0.0114  1.0000  -6.5415   0.0000   0.0000   0.0000   0.2656
  14.900   1.2838   0.08569   0.08113  -0.0474  0.0113  1.0000  -6.5409   0.0000   0.0000   0.0000   0.2661
  15.000   1.2794   0.08781   0.08333  -0.0482  0.0112  1.0000  -6.5397   0.0000   0.0000   0.0000   0.2667
  15.100   1.2747   0.09000   0.08560  -0.0491  0.0111  1.0000  -6.5345   0.0000   0.0000   0.0000   0.2674
  15.200   1.2689   0.09241   0.08810  -0.0503  0.0111  1.0000  -6.5183   0.0000   0.0000   0.0000   0.2682
  15.300   1.2634   0.09484   0.09061  -0.0514  0.0110  1.0000  -6.5014   0.0000   0.0000   0.0000   0.2692
  15.400   1.2579   0.09727   0.09312  -0.0527  0.0110  1.0000  -6.4835   0.0000   0.0000   0.0000   0.2701
  15.500   1.2519   0.09986   0.09580  -0.0540  0.0109  1.0000  -6.4578   0.0000   0.0000   0.0000   0.2712
  15.600   1.2452   0.10261   0.09863  -0.0556  0.0109  1.0000  -6.4219   0.0000   0.0000   0.0000   0.2726
  15.700   1.2387   0.10526   0.10136  -0.0572  0.0109  1.0000  -6.3860   0.0000   0.0000   0.0000   0.2739
  15.800   1.2318   0.10808   0.10425  -0.0590  0.0109  1.0000  -6.3415   0.0000   0.0000   0.0000   0.2754
  15.900   1.2238   0.11123   0.10749  -0.0610  0.0110  1.0000  -6.2810   0.0000   0.0000   0.0000   0.2772
  16.000   1.2161   0.11440   0.11075  -0.0630  0.0110  1.0000  -6.2196   0.0000   0.0000   0.0000   0.2791
  16.100   1.2072   0.11803   0.11446  -0.0654  0.0112  1.0000  -6.1382   0.0000   0.0000   0.0000   0.2813
  16.200   1.1980   0.12186   0.11838  -0.0680  0.0113  1.0000  -6.0477   0.0000   0.0000   0.0000   0.2837
  16.300   1.1878   0.12608   0.12268  -0.0708  0.0115  1.0000  -5.9388   0.0000   0.0000   0.0000   0.2864
  16.400   1.1768   0.13075   0.12744  -0.0739  0.0117  1.0000  -5.8098   0.0000   0.0000   0.0000   0.2896
  16.500   1.1641   0.13605   0.13283  -0.0773  0.0120  1.0000  -5.6502   0.0000   0.0000   0.0000   0.2932
  16.600   1.1502   0.14195   0.13880  -0.0810  0.0124  1.0000  -5.4626   0.0000   0.0000   0.0000   0.2972
  16.700   1.1320   0.14949   0.14643  -0.0857  0.0129  1.0000  -5.1940   0.0000   0.0000   0.0000   0.3025
  16.800   1.1074   0.15961   0.15661  -0.0915  0.0137  1.0000  -4.7923   0.0000   0.0000   0.0000   0.3097
  16.900   1.0642   0.17720   0.17424  -0.0999  0.0148  1.0000  -3.9765   0.0000   0.0000   0.0000   0.3218
  17.000   1.0613   0.18099   0.17802  -0.1016  0.0149  1.0000  -3.8999   0.0000   0.0000   0.0000   0.3236
  17.100   1.0585   0.18475   0.18178  -0.1033  0.0150  1.0000  -3.8220   0.0000   0.0000   0.0000   0.3254
  17.200   1.0560   0.18852   0.18555  -0.1049  0.0151  1.0000  -3.7422   0.0000   0.0000   0.0000   0.3271
  17.300   1.0536   0.19222   0.18925  -0.1064  0.0151  1.0000  -3.6640   0.0000   0.0000   0.0000   0.3287
  17.400   1.0515   0.19589   0.19292  -0.1078  0.0152  1.0000  -3.5862   0.0000   0.0000   0.0000   0.3302
  17.500   1.0496   0.19952   0.19654  -0.1092  0.0152  1.0000  -3.5097   0.0000   0.0000   0.0000   0.3317
  17.600   1.0478   0.20310   0.20011  -0.1106  0.0153  1.0000  -3.4356   0.0000   0.0000   0.0000   0.3331
  17.700   1.0462   0.20662   0.20363  -0.1119  0.0153  1.0000  -3.3646   0.0000   0.0000   0.0000   0.3344
  17.800   1.0447   0.21010   0.20710  -0.1131  0.0153  1.0000  -3.2965   0.0000   0.0000   0.0000   0.3357
  17.900   1.0434   0.21354   0.21054  -0.1144  0.0153  1.0000  -3.2309   0.0000   0.0000   0.0000   0.3370
  18.000   1.0420   0.21696   0.21396  -0.1156  0.0153  1.0000  -3.1674   0.0000   0.0000   0.0000   0.3382
  18.100   1.0408   0.22037   0.21736  -0.1168  0.0153  1.0000  -3.1054   0.0000   0.0000   0.0000   0.3394
  18.200   1.0395   0.22378   0.22076  -0.1179  0.0153  1.0000  -3.0445   0.0000   0.0000   0.0000   0.3405
  18.300   1.0382   0.22720   0.22417  -0.1191  0.0152  1.0000  -2.9841   0.0000   0.0000   0.0000   0.3417
  18.400   1.0369   0.23064   0.22761  -0.1202  0.0152  1.0000  -2.9237   0.0000   0.0000   0.0000   0.3428
  18.500   1.0356   0.23411   0.23107  -0.1213  0.0151  1.0000  -2.8632   0.0000   0.0000   0.0000   0.3439
  18.600   1.0342   0.23763   0.23458  -0.1224  0.0151  1.0000  -2.8011   0.0000   0.0000   0.0000   0.3451
  18.700   1.0326   0.24122   0.23817  -0.1234  0.0150  1.0000  -2.7372   0.0000   0.0000   0.0000   0.3462
  18.800   1.0310   0.24486   0.24180  -0.1245  0.0149  1.0000  -2.6718   0.0000   0.0000   0.0000   0.3473
  18.900   1.0292   0.24856   0.24549  -0.1255  0.0149  1.0000  -2.6054   0.0000   0.0000   0.0000   0.3485
  19.000   1.0274   0.25229   0.24919  -0.1265  0.0148  1.0000  -2.5384   0.0000   0.0000   0.0000   0.3496
  19.100   1.0316   0.25345   0.25035  -0.1277  0.0142  1.0000  -2.5919   0.0000   0.0000   0.0000   0.3501
  19.200   1.0320   0.25619   0.25309  -0.1286  0.0139  1.0000  -2.5690   0.0000   0.0000   0.0000   0.3508
  19.300   1.0321   0.25906   0.25596  -0.1295  0.0137  1.0000  -2.5401   0.0000   0.0000   0.0000   0.3515
  19.400   1.0320   0.26200   0.25890  -0.1304  0.0135  1.0000  -2.5074   0.0000   0.0000   0.0000   0.3523
  19.500   1.0317   0.26499   0.26189  -0.1313  0.0134  1.0000  -2.4723   0.0000   0.0000   0.0000   0.3530
  19.600   1.0312   0.26801   0.26490  -0.1321  0.0133  1.0000  -2.4360   0.0000   0.0000   0.0000   0.3538
  19.700   1.0306   0.27102   0.26792  -0.1329  0.0131  1.0000  -2.3994   0.0000   0.0000   0.0000   0.3545
  19.800   1.0299   0.27403   0.27092  -0.1337  0.0131  1.0000  -2.3631   0.0000   0.0000   0.0000   0.3553
  19.900   1.0290   0.27700   0.27390  -0.1344  0.0130  1.0000  -2.3276   0.0000   0.0000   0.0000   0.3560
  20.000   1.0280   0.27994   0.27683  -0.1351  0.0130  1.0000  -2.2933   0.0000   0.0000   0.0000   0.3567
  20.100   1.0269   0.28283   0.27973  -0.1357  0.0131  1.0000  -2.2601   0.0000   0.0000   0.0000   0.3574
  20.200   1.0255   0.28568   0.28258  -0.1363  0.0131  1.0000  -2.2282   0.0000   0.0000   0.0000   0.3580
  20.300   1.0239   0.28847   0.28538  -0.1369  0.0133  1.0000  -2.1973   0.0000   0.0000   0.0000   0.3586
  20.400   1.0220   0.29123   0.28815  -0.1374  0.0135  1.0000  -2.1668   0.0000   0.0000   0.0000   0.3592
  20.500   1.0191   0.29403   0.29095  -0.1377  0.0138  1.0000  -2.1339   0.0000   0.0000   0.0000   0.3598
  20.900   1.0077   0.30538   0.30237  -0.1398  0.0177  1.0000  -1.8544   0.0000   0.0000   0.0000   0.3632
  21.000   1.0019   0.30738   0.30437  -0.1399  0.0178  1.0000  -1.8090   0.0000   0.0000   0.0000   0.3641
  21.100   0.9550   0.30099   0.29809  -0.1355  0.0187  1.0000  -1.6215   0.0000   0.0000   0.0000   0.3670
  21.200   0.9456   0.30068   0.29780  -0.1350  0.0187  1.0000  -1.5829   0.0000   0.0000   0.0000   0.3679
  21.300   0.9386   0.30068   0.29783  -0.1347  0.0187  1.0000  -1.5545   0.0000   0.0000   0.0000   0.3686
  21.400   0.9329   0.30085   0.29801  -0.1345  0.0186  1.0000  -1.5317   0.0000   0.0000   0.0000   0.3693
  21.500   0.9280   0.30110   0.29828  -0.1344  0.0185  1.0000  -1.5127   0.0000   0.0000   0.0000   0.3699
  21.600   0.9236   0.30141   0.29860  -0.1344  0.0183  1.0000  -1.4968   0.0000   0.0000   0.0000   0.3705
  21.700   0.9198   0.30175   0.29896  -0.1344  0.0182  1.0000  -1.4834   0.0000   0.0000   0.0000   0.3710
  21.800   0.9163   0.30213   0.29935  -0.1344  0.0180  1.0000  -1.4722   0.0000   0.0000   0.0000   0.3715
  21.900   0.9132   0.30253   0.29976  -0.1344  0.0179  1.0000  -1.4631   0.0000   0.0000   0.0000   0.3719
  22.000   0.9103   0.30295   0.30019  -0.1345  0.0177  1.0000  -1.4557   0.0000   0.0000   0.0000   0.3723
  22.100   0.9077   0.30337   0.30063  -0.1346  0.0175  1.0000  -1.4501   0.0000   0.0000   0.0000   0.3727
  22.200   0.9053   0.30380   0.30107  -0.1346  0.0173  1.0000  -1.4462   0.0000   0.0000   0.0000   0.3731
  22.300   0.9031   0.30424   0.30152  -0.1347  0.0172  1.0000  -1.4439   0.0000   0.0000   0.0000   0.3734
  22.400   0.9011   0.30467   0.30196  -0.1348  0.0170  1.0000  -1.4432   0.0000   0.0000   0.0000   0.3737
  22.500   0.8992   0.30511   0.30241  -0.1349  0.0168  1.0000  -1.4441   0.0000   0.0000   0.0000   0.3740
  22.600   0.8975   0.30554   0.30285  -0.1350  0.0167  1.0000  -1.4466   0.0000   0.0000   0.0000   0.3743
  22.700   0.8959   0.30596   0.30329  -0.1350  0.0165  1.0000  -1.4508   0.0000   0.0000   0.0000   0.3744
  22.800   0.8945   0.30639   0.30373  -0.1351  0.0164  1.0000  -1.4568   0.0000   0.0000   0.0000   0.3746
  22.900   0.8932   0.30682   0.30417  -0.1351  0.0162  1.0000  -1.4645   0.0000   0.0000   0.0000   0.3747
  23.000   0.8920   0.30726   0.30462  -0.1351  0.0160  1.0000  -1.4738   0.0000   0.0000   0.0000   0.3747
  23.100   0.8909   0.30772   0.30509  -0.1350  0.0159  1.0000  -1.4847   0.0000   0.0000   0.0000   0.3747
  23.200   0.8900   0.30824   0.30563  -0.1349  0.0157  1.0000  -1.4968   0.0000   0.0000   0.0000   0.3746
  23.300   0.8883   0.30892   0.30632  -0.1349  0.0155  1.0000  -1.4960   0.0000   0.0000   0.0000   0.3747
  23.400   0.8848   0.30993   0.30734  -0.1348  0.0152  1.0000  -1.4692   0.0000   0.0000   0.0000   0.3751
  23.500   0.8769   0.31226   0.30963  -0.1347  0.0148  1.0000  -1.3576   0.0000   0.0000   0.0000   0.3765
  23.600   0.8757   0.31303   0.31041  -0.1350  0.0148  1.0000  -1.3456   0.0000   0.0000   0.0000   0.3769
  23.700   0.8746   0.31380   0.31119  -0.1353  0.0148  1.0000  -1.3339   0.0000   0.0000   0.0000   0.3773
  23.800   0.8735   0.31457   0.31197  -0.1356  0.0148  1.0000  -1.3225   0.0000   0.0000   0.0000   0.3777
  23.900   0.8725   0.31534   0.31275  -0.1359  0.0148  1.0000  -1.3114   0.0000   0.0000   0.0000   0.3781
  24.000   0.8714   0.31611   0.31352  -0.1362  0.0148  1.0000  -1.3003   0.0000   0.0000   0.0000   0.3785
  24.100   0.8705   0.31688   0.31430  -0.1365  0.0148  1.0000  -1.2895   0.0000   0.0000   0.0000   0.3789
  24.200   0.8696   0.31765   0.31508  -0.1368  0.0148  1.0000  -1.2790   0.0000   0.0000   0.0000   0.3793
  24.300   0.8687   0.31842   0.31586  -0.1371  0.0148  1.0000  -1.2686   0.0000   0.0000   0.0000   0.3797
  24.400   0.8678   0.31919   0.31663  -0.1375  0.0148  1.0000  -1.2585   0.0000   0.0000   0.0000   0.3801
  24.500   0.8670   0.31996   0.31741  -0.1378  0.0148  1.0000  -1.2485   0.0000   0.0000   0.0000   0.3805
  24.600   0.8662   0.32073   0.31819  -0.1381  0.0148  1.0000  -1.2388   0.0000   0.0000   0.0000   0.3809
  24.700   0.8655   0.32150   0.31896  -0.1385  0.0147  1.0000  -1.2292   0.0000   0.0000   0.0000   0.3813
  24.800   0.8648   0.32227   0.31974  -0.1388  0.0147  1.0000  -1.2198   0.0000   0.0000   0.0000   0.3817
  24.900   0.8641   0.32303   0.32051  -0.1392  0.0147  1.0000  -1.2106   0.0000   0.0000   0.0000   0.3821
  25.000   0.8634   0.32380   0.32129  -0.1395  0.0147  1.0000  -1.2015   0.0000   0.0000   0.0000   0.3824
  25.100   0.8628   0.32457   0.32206  -0.1399  0.0147  1.0000  -1.1926   0.0000   0.0000   0.0000   0.3828
  25.200   0.8621   0.32532   0.32282  -0.1402  0.0147  1.0000  -1.1837   0.0000   0.0000   0.0000   0.3832
  25.300   0.8615   0.32607   0.32358  -0.1406  0.0147  1.0000  -1.1748   0.0000   0.0000   0.0000   0.3836
  25.400   0.8609   0.32683   0.32434  -0.1410  0.0147  1.0000  -1.1661   0.0000   0.0000   0.0000   0.3840
  25.500   0.8603   0.32757   0.32509  -0.1413  0.0147  1.0000  -1.1575   0.0000   0.0000   0.0000   0.3844
  25.600   0.8598   0.32832   0.32585  -0.1417  0.0147  1.0000  -1.1490   0.0000   0.0000   0.0000   0.3847
  25.700   0.8593   0.32907   0.32660  -0.1421  0.0146  1.0000  -1.1407   0.0000   0.0000   0.0000   0.3851
  25.800   0.8587   0.32981   0.32735  -0.1425  0.0146  1.0000  -1.1325   0.0000   0.0000   0.0000   0.3855
  25.900   0.8583   0.33055   0.32810  -0.1429  0.0146  1.0000  -1.1245   0.0000   0.0000   0.0000   0.3859
  26.000   0.8578   0.33128   0.32884  -0.1432  0.0146  1.0000  -1.1165   0.0000   0.0000   0.0000   0.3862
  26.100   0.8573   0.33201   0.32957  -0.1436  0.0146  1.0000  -1.1082   0.0000   0.0000   0.0000   0.3866
  26.200   0.8568   0.33273   0.33030  -0.1440  0.0146  1.0000  -1.0999   0.0000   0.0000   0.0000   0.3870
  26.300   0.8564   0.33346   0.33103  -0.1444  0.0145  1.0000  -1.0917   0.0000   0.0000   0.0000   0.3874
  26.400   0.8559   0.33417   0.33176  -0.1449  0.0145  1.0000  -1.0836   0.0000   0.0000   0.0000   0.3878
  26.500   0.8555   0.33489   0.33248  -0.1453  0.0145  1.0000  -1.0752   0.0000   0.0000   0.0000   0.3882
  26.600   0.8549   0.33559   0.33319  -0.1457  0.0145  1.0000  -1.0652   0.0000   0.0000   0.0000   0.3887
  26.700   0.8544   0.33629   0.33390  -0.1462  0.0144  1.0000  -1.0552   0.0000   0.0000   0.0000   0.3891
  26.800   0.8540   0.33700   0.33461  -0.1467  0.0144  1.0000  -1.0452   0.0000   0.0000   0.0000   0.3896
  26.900   0.8535   0.33772   0.33533  -0.1471  0.0143  1.0000  -1.0353   0.0000   0.0000   0.0000   0.3901
  27.000   0.8531   0.33844   0.33606  -0.1476  0.0143  1.0000  -1.0252   0.0000   0.0000   0.0000   0.3905
  27.100   0.8528   0.33918   0.33681  -0.1481  0.0142  1.0000  -1.0151   0.0000   0.0000   0.0000   0.3910
  27.200   0.8525   0.33993   0.33756  -0.1486  0.0142  1.0000  -1.0048   0.0000   0.0000   0.0000   0.3915
  27.300   0.8523   0.34070   0.33834  -0.1492  0.0141  1.0000  -0.9943   0.0000   0.0000   0.0000   0.3919
  27.400   0.8522   0.34151   0.33915  -0.1497  0.0140  1.0000  -0.9835   0.0000   0.0000   0.0000   0.3924
  27.500   0.8521   0.34234   0.33999  -0.1503  0.0139  1.0000  -0.9723   0.0000   0.0000   0.0000   0.3929
  27.600   0.8522   0.34322   0.34087  -0.1508  0.0137  1.0000  -0.9608   0.0000   0.0000   0.0000   0.3933
  27.700   0.8523   0.34413   0.34179  -0.1514  0.0136  1.0000  -0.9493   0.0000   0.0000   0.0000   0.3938
  27.800   0.8524   0.34503   0.34275  -0.1519  0.0134  1.0000  -0.9397   0.0000   0.0000   0.0000   0.3941
  27.900   0.8525   0.34594   0.34368  -0.1524  0.0132  1.0000  -0.9298   0.0000   0.0000   0.0000   0.3945
  28.000   0.8526   0.34684   0.34458  -0.1528  0.0130  1.0000  -0.9209   0.0000   0.0000   0.0000   0.3948
  28.100   0.8527   0.34772   0.34547  -0.1533  0.0128  1.0000  -0.9130   0.0000   0.0000   0.0000   0.3951
  28.200   0.8527   0.34858   0.34634  -0.1537  0.0125  1.0000  -0.9061   0.0000   0.0000   0.0000   0.3954
  28.300   0.8527   0.34942   0.34718  -0.1541  0.0123  1.0000  -0.9000   0.0000   0.0000   0.0000   0.3957
  28.400   0.8526   0.35025   0.34802  -0.1545  0.0121  1.0000  -0.8946   0.0000   0.0000   0.0000   0.3960
  28.500   0.8525   0.35106   0.34884  -0.1549  0.0119  1.0000  -0.8897   0.0000   0.0000   0.0000   0.3962
  28.600   0.8525   0.35187   0.34965  -0.1553  0.0117  1.0000  -0.8852   0.0000   0.0000   0.0000   0.3965
  28.700   0.8524   0.35267   0.35046  -0.1557  0.0115  1.0000  -0.8811   0.0000   0.0000   0.0000   0.3968
  28.800   0.8523   0.35346   0.35126  -0.1560  0.0113  1.0000  -0.8773   0.0000   0.0000   0.0000   0.3970
  28.900   0.8521   0.35425   0.35206  -0.1564  0.0111  1.0000  -0.8738   0.0000   0.0000   0.0000   0.3973
  29.000   0.8520   0.35504   0.35285  -0.1568  0.0109  1.0000  -0.8705   0.0000   0.0000   0.0000   0.3975
  29.100   0.8519   0.35582   0.35364  -0.1572  0.0108  1.0000  -0.8675   0.0000   0.0000   0.0000   0.3978
  29.200   0.8518   0.35660   0.35442  -0.1576  0.0106  1.0000  -0.8646   0.0000   0.0000   0.0000   0.3980
  29.300   0.8517   0.35737   0.35520  -0.1579  0.0104  1.0000  -0.8620   0.0000   0.0000   0.0000   0.3983
  29.400   0.8516   0.35814   0.35598  -0.1583  0.0103  1.0000  -0.8595   0.0000   0.0000   0.0000   0.3985
  29.500   0.8515   0.35891   0.35676  -0.1587  0.0101  1.0000  -0.8573   0.0000   0.0000   0.0000   0.3987
  29.600   0.8514   0.35968   0.35753  -0.1591  0.0100  1.0000  -0.8552   0.0000   0.0000   0.0000   0.3990
  29.700   0.8512   0.36044   0.35830  -0.1595  0.0098  1.0000  -0.8532   0.0000   0.0000   0.0000   0.3992
  29.800   0.8511   0.36120   0.35907  -0.1598  0.0097  1.0000  -0.8514   0.0000   0.0000   0.0000   0.3994
  29.900   0.8510   0.36196   0.35984  -0.1602  0.0095  1.0000  -0.8498   0.0000   0.0000   0.0000   0.3997
  30.000   0.8509   0.36272   0.36061  -0.1606  0.0094  1.0000  -0.8483   0.0000   0.0000   0.0000   0.3999


