xflr5 v6.61

 Calculated polar for: S4062-095-87

 1 1 Reynolds number fixed          Mach number fixed         

 xtrf =   1.000 (top)        1.000 (bottom)
 Mach =   0.000     Re =     0.100 e 6     Ncrit =   9.000

  alpha     CL        CD       CDp       Cm    Top Xtr Bot Xtr   Cpmin    Chinge    XCp    
 ------- -------- --------- --------- -------- ------- ------- -------- --------- ---------
 -10.000  -0.2945   0.11769   0.11251  -0.0382  1.0000  0.0654  -1.1315   0.0000   0.0000   0.0000   0.1105
  -9.900  -0.2924   0.11660   0.11144  -0.0385  1.0000  0.0662  -1.1292   0.0000   0.0000   0.0000   0.1085
  -9.800  -0.2906   0.11553   0.11039  -0.0388  1.0000  0.0670  -1.1279   0.0000   0.0000   0.0000   0.1067
  -9.700  -0.2890   0.11448   0.10937  -0.0391  1.0000  0.0679  -1.1277   0.0000   0.0000   0.0000   0.1049
  -9.600  -0.2878   0.11348   0.10838  -0.0394  1.0000  0.0687  -1.1285   0.0000   0.0000   0.0000   0.1034
  -9.500  -0.2868   0.11251   0.10744  -0.0397  1.0000  0.0696  -1.1303   0.0000   0.0000   0.0000   0.1022
  -9.400  -0.2863   0.11161   0.10656  -0.0398  1.0000  0.0704  -1.1332   0.0000   0.0000   0.0000   0.1015
  -9.300  -0.2865   0.11078   0.10576  -0.0399  1.0000  0.0713  -1.1374   0.0000   0.0000   0.0000   0.1014
  -9.200  -0.2874   0.11005   0.10506  -0.0399  1.0000  0.0721  -1.1429   0.0000   0.0000   0.0000   0.1022
  -9.100  -0.2892   0.10944   0.10449  -0.0396  1.0000  0.0728  -1.1499   0.0000   0.0000   0.0000   0.1042
  -9.000  -0.2922   0.10897   0.10405  -0.0391  1.0000  0.0736  -1.1582   0.0000   0.0000   0.0000   0.1074
  -8.900  -0.2960   0.10861   0.10373  -0.0385  1.0000  0.0742  -1.1678   0.0000   0.0000   0.0000   0.1115
  -8.800  -0.3008   0.10837   0.10353  -0.0377  1.0000  0.0748  -1.1786   0.0000   0.0000   0.0000   0.1165
  -8.700  -0.3063   0.10824   0.10343  -0.0368  1.0000  0.0753  -1.1904   0.0000   0.0000   0.0000   0.1222
  -8.600  -0.3125   0.10818   0.10341  -0.0357  1.0000  0.0758  -1.2032   0.0000   0.0000   0.0000   0.1281
  -8.500  -0.3190   0.10817   0.10344  -0.0347  1.0000  0.0763  -1.2169   0.0000   0.0000   0.0000   0.1339
  -8.400  -0.3257   0.10821   0.10353  -0.0337  1.0000  0.0767  -1.2316   0.0000   0.0000   0.0000   0.1395
  -8.300  -0.3328   0.10830   0.10365  -0.0327  1.0000  0.0772  -1.2471   0.0000   0.0000   0.0000   0.1450
  -8.200  -0.3400   0.10842   0.10381  -0.0318  1.0000  0.0776  -1.2631   0.0000   0.0000   0.0000   0.1501
  -8.100  -0.3474   0.10856   0.10399  -0.0309  1.0000  0.0779  -1.2797   0.0000   0.0000   0.0000   0.1550
  -8.000  -0.3548   0.10872   0.10419  -0.0300  1.0000  0.0782  -1.2962   0.0000   0.0000   0.0000   0.1597
  -7.900  -0.3622   0.10887   0.10437  -0.0290  1.0000  0.0785  -1.3122   0.0000   0.0000   0.0000   0.1642
  -7.800  -0.3698   0.10900   0.10454  -0.0281  1.0000  0.0788  -1.3281   0.0000   0.0000   0.0000   0.1686
  -7.700  -0.3774   0.10910   0.10468  -0.0272  1.0000  0.0790  -1.3437   0.0000   0.0000   0.0000   0.1729
  -7.600  -0.3853   0.10917   0.10478  -0.0262  1.0000  0.0792  -1.3592   0.0000   0.0000   0.0000   0.1771
  -7.500  -0.3932   0.10921   0.10485  -0.0252  1.0000  0.0793  -1.3745   0.0000   0.0000   0.0000   0.1812
  -7.400  -0.4012   0.10920   0.10488  -0.0242  1.0000  0.0794  -1.3898   0.0000   0.0000   0.0000   0.1851
  -7.300  -0.4081   0.10910   0.10481  -0.0236  1.0000  0.0796  -1.4044   0.0000   0.0000   0.0000   0.1880
  -7.200  -0.4128   0.10883   0.10457  -0.0234  1.0000  0.0797  -1.4170   0.0000   0.0000   0.0000   0.1891
  -7.100  -0.4168   0.10843   0.10420  -0.0234  1.0000  0.0799  -1.4292   0.0000   0.0000   0.0000   0.1897
  -7.000  -0.4202   0.10794   0.10372  -0.0236  1.0000  0.0800  -1.4412   0.0000   0.0000   0.0000   0.1899
  -6.900  -0.4231   0.10734   0.10315  -0.0239  1.0000  0.0802  -1.4530   0.0000   0.0000   0.0000   0.1897
  -6.800  -0.4203   0.10625   0.10205  -0.0259  0.9989  0.0803  -1.4641   0.0000   0.0000   0.0000   0.1847
  -6.700  -0.4100   0.10443   0.10021  -0.0300  0.9965  0.0805  -1.4743   0.0000   0.0000   0.0000   0.1732
  -6.600  -0.4010   0.10258   0.09834  -0.0335  0.9938  0.0806  -1.4841   0.0000   0.0000   0.0000   0.1628
  -6.500  -0.3915   0.10063   0.09636  -0.0369  0.9912  0.0807  -1.4938   0.0000   0.0000   0.0000   0.1518
  -6.400  -0.3953   0.09485   0.09065  -0.0393  0.9896  0.0820  -1.5552   0.0000   0.0000   0.0000   0.1469
  -6.300  -0.3945   0.09124   0.08706  -0.0384  0.9885  0.0833  -1.5427   0.0000   0.0000   0.0000   0.1488
  -6.200  -0.3881   0.08914   0.08498  -0.0375  0.9875  0.0843  -1.5031   0.0000   0.0000   0.0000   0.1497
  -6.100  -0.3817   0.08746   0.08330  -0.0371  0.9860  0.0853  -1.4700   0.0000   0.0000   0.0000   0.1490
  -6.000  -0.3761   0.08601   0.08186  -0.0368  0.9839  0.0862  -1.4418   0.0000   0.0000   0.0000   0.1482
  -5.900  -0.3700   0.08460   0.08045  -0.0370  0.9818  0.0872  -1.4166   0.0000   0.0000   0.0000   0.1461
  -5.800  -0.3636   0.08320   0.07904  -0.0376  0.9797  0.0883  -1.3953   0.0000   0.0000   0.0000   0.1427
  -5.700  -0.3565   0.08176   0.07760  -0.0387  0.9777  0.0895  -1.3771   0.0000   0.0000   0.0000   0.1377
  -5.600  -0.3485   0.08026   0.07609  -0.0401  0.9757  0.0909  -1.3609   0.0000   0.0000   0.0000   0.1309
  -5.500  -0.3394   0.07868   0.07449  -0.0421  0.9738  0.0925  -1.3473   0.0000   0.0000   0.0000   0.1220
  -5.400  -0.3291   0.07702   0.07280  -0.0446  0.9722  0.0942  -1.3369   0.0000   0.0000   0.0000   0.1104
  -5.300  -0.3210   0.07538   0.07096  -0.0469  0.9702  0.0955  -1.3382   0.0000   0.0000   0.0000   0.0999
  -5.200  -0.3186   0.07418   0.06975  -0.0477  0.9673  0.0968  -1.3390   0.0000   0.0000   0.0000   0.0964
  -5.100  -0.3135   0.07279   0.06834  -0.0493  0.9645  0.0984  -1.3401   0.0000   0.0000   0.0000   0.0889
  -5.000  -0.3062   0.07124   0.06677  -0.0515  0.9619  0.1004  -1.3430   0.0000   0.0000   0.0000   0.0779
  -4.900  -0.2964   0.06957   0.06505  -0.0545  0.9594  0.1028  -1.3490   0.0000   0.0000   0.0000   0.0622
  -4.800  -0.2632   0.07087   0.06597  -0.0647  0.9556  0.1114  -1.3875   0.0000   0.0000   0.0000  -0.0001
  -4.700  -0.2503   0.06940   0.06440  -0.0671  0.9538  0.1117  -1.3860   0.0000   0.0000   0.0000  -0.0228
  -4.600  -0.2479   0.06334   0.05831  -0.0711  0.9525  0.1139  -1.4438   0.0000   0.0000   0.0000  -0.0415
  -4.500  -0.2404   0.06007   0.05504  -0.0729  0.9514  0.1157  -1.4393   0.0000   0.0000   0.0000  -0.0578
  -4.400  -0.2285   0.05806   0.05301  -0.0743  0.9503  0.1166  -1.4202   0.0000   0.0000   0.0000  -0.0802
  -4.300  -0.2008   0.04812   0.04243  -0.0800  0.9499  0.0513  -1.8354   0.0000   0.0000   0.0000  -0.1553
  -4.200  -0.1951   0.04596   0.04017  -0.0807  0.9480  0.0491  -1.8553   0.0000   0.0000   0.0000  -0.1703
  -4.100  -0.1895   0.04406   0.03815  -0.0810  0.9458  0.0470  -1.8798   0.0000   0.0000   0.0000  -0.1844
  -4.000  -0.1798   0.04174   0.03562  -0.0821  0.9438  0.0443  -1.9239   0.0000   0.0000   0.0000  -0.2135
  -3.900  -0.1659   0.03865   0.03213  -0.0837  0.9421  0.0408  -2.0172   0.0000   0.0000   0.0000  -0.2628
  -3.800  -0.1489   0.03547   0.02833  -0.0853  0.9407  0.0371  -2.1486   0.0000   0.0000   0.0000  -0.3322
  -3.700  -0.1347   0.03432   0.02685  -0.0859  0.9386  0.0354  -2.1643   0.0000   0.0000   0.0000  -0.3975
  -3.600  -0.1209   0.03371   0.02606  -0.0863  0.9363  0.0346  -2.1342   0.0000   0.0000   0.0000  -0.4752
  -3.500  -0.1065   0.03315   0.02536  -0.0869  0.9342  0.0340  -2.0918   0.0000   0.0000   0.0000  -0.5791
  -3.400  -0.0913   0.03254   0.02461  -0.0877  0.9322  0.0336  -2.0471   0.0000   0.0000   0.0000  -0.7254
  -3.300  -0.0754   0.03175   0.02360  -0.0887  0.9304  0.0332  -2.0078   0.0000   0.0000   0.0000  -0.9432
  -3.200  -0.0588   0.03038   0.02200  -0.0898  0.9292  0.0330  -1.9937   0.0000   0.0000   0.0000  -1.2986
  -3.100  -0.0422   0.02933   0.02075  -0.0909  0.9279  0.0330  -1.9670   0.0000   0.0000   0.0000  -1.9316
  -3.000  -0.0256   0.02848   0.01973  -0.0918  0.9267  0.0330  -1.9321   0.0000   0.0000   0.0000  -3.3880
  -2.900  -0.0090   0.02779   0.01890  -0.0928  0.9256  0.0332  -1.8906   0.0000   0.0000   0.0000  -10.1462
  -2.800   0.0075   0.02677   0.01777  -0.0937  0.9248  0.0339  -1.8681   0.0000   0.0000   0.0000  12.9640
  -2.700   0.0240   0.02592   0.01681  -0.0947  0.9239  0.0351  -1.8395   0.0000   0.0000   0.0000   4.2371
  -2.600   0.0409   0.02535   0.01616  -0.0957  0.9230  0.0373  -1.7986   0.0000   0.0000   0.0000   2.6154
  -2.500   0.0426   0.02511   0.01588  -0.0942  0.9202  0.0386  -1.7774   0.0000   0.0000   0.0000   2.4867
  -2.400   0.0485   0.02488   0.01563  -0.0934  0.9177  0.0407  -1.7445   0.0000   0.0000   0.0000   2.1951
  -2.300   0.0567   0.02469   0.01541  -0.0929  0.9154  0.0439  -1.7077   0.0000   0.0000   0.0000   1.9051
  -2.200   0.0665   0.02450   0.01516  -0.0927  0.9131  0.0489  -1.6763   0.0000   0.0000   0.0000   1.6584
  -2.100   0.0781   0.02406   0.01477  -0.0928  0.9112  0.0638  -1.6714   0.0000   0.0000   0.0000   1.4489
  -2.000   0.0902   0.02353   0.01460  -0.0931  0.9094  0.1302  -1.6630   0.0000   0.0000   0.0000   1.2924
  -1.900   0.1016   0.02340   0.01467  -0.0935  0.9074  0.1825  -1.6081   0.0000   0.0000   0.0000   1.1783
  -1.800   0.1134   0.02333   0.01480  -0.0939  0.9055  0.2312  -1.5432   0.0000   0.0000   0.0000   1.0855
  -1.700   0.1256   0.02325   0.01491  -0.0944  0.9036  0.2728  -1.4765   0.0000   0.0000   0.0000   1.0079
  -1.500   0.1501   0.02295   0.01529  -0.0954  0.9002  0.4094  -1.3387   0.0000   0.0000   0.0000   0.8900
  -1.400   0.1633   0.02268   0.01548  -0.0958  0.8986  0.5104  -1.2689   0.0000   0.0000   0.0000   0.8404
  -1.300   0.1750   0.02229   0.01564  -0.0955  0.8971  0.6415  -1.2051   0.0000   0.0000   0.0000   0.7990
  -1.200   0.1835   0.02188   0.01576  -0.0939  0.8957  0.8060  -1.1501   0.0000   0.0000   0.0000   0.7644
  -1.100   0.2104   0.02179   0.01567  -0.0966  0.8944  1.0000  -1.0487   0.0000   0.0000   0.0000   0.7114
  -1.000   0.2303   0.02203   0.01576  -0.0982  0.8930  1.0000  -0.9668   0.0000   0.0000   0.0000   0.6785
  -0.900   0.2352   0.02220   0.01584  -0.0973  0.8896  1.0000  -0.9262   0.0000   0.0000   0.0000   0.6655
  -0.800   0.2338   0.02228   0.01587  -0.0954  0.8851  1.0000  -0.9033   0.0000   0.0000   0.0000   0.6597
  -0.700   0.2397   0.02243   0.01594  -0.0947  0.8819  1.0000  -0.8595   0.0000   0.0000   0.0000   0.6466
  -0.600   0.2480   0.02260   0.01604  -0.0945  0.8791  1.0000  -0.8080   0.0000   0.0000   0.0000   0.6321
  -0.500   0.2577   0.02278   0.01613  -0.0944  0.8765  1.0000  -0.7483   0.0000   0.0000   0.0000   0.6174
  -0.400   0.2685   0.02295   0.01619  -0.0945  0.8740  1.0000  -0.6443   0.0000   0.0000   0.0000   0.6028
  -0.300   0.2802   0.02313   0.01629  -0.0948  0.8717  1.0000  -0.5949   0.0000   0.0000   0.0000   0.5889
  -0.200   0.2928   0.02330   0.01638  -0.0953  0.8696  1.0000  -0.5441   0.0000   0.0000   0.0000   0.5756
  -0.100   0.3064   0.02347   0.01647  -0.0958  0.8675  1.0000  -0.4924   0.0000   0.0000   0.0000   0.5628
   0.000   0.3214   0.02363   0.01656  -0.0966  0.8655  1.0000  -0.5022   0.0000   0.0000   0.0000   0.5504
   0.100   0.3379   0.02378   0.01664  -0.0976  0.8636  1.0000  -0.5136   0.0000   0.0000   0.0000   0.5386
   0.200   0.3557   0.02393   0.01673  -0.0988  0.8619  1.0000  -0.5259   0.0000   0.0000   0.0000   0.5273
   0.300   0.3747   0.02409   0.01682  -0.1001  0.8603  1.0000  -0.5404   0.0000   0.0000   0.0000   0.5167
   0.400   0.3940   0.02429   0.01697  -0.1016  0.8588  1.0000  -0.5552   0.0000   0.0000   0.0000   0.5070
   0.500   0.4135   0.02457   0.01719  -0.1030  0.8573  1.0000  -0.5700   0.0000   0.0000   0.0000   0.4982
   0.600   0.3943   0.02476   0.01737  -0.0984  0.8500  1.0000  -0.5600   0.0000   0.0000   0.0000   0.4986
   0.700   0.3976   0.02498   0.01756  -0.0974  0.8462  1.0000  -0.5643   0.0000   0.0000   0.0000   0.4938
   0.800   0.4044   0.02519   0.01773  -0.0969  0.8429  1.0000  -0.5709   0.0000   0.0000   0.0000   0.4884
   0.900   0.4135   0.02537   0.01788  -0.0967  0.8397  1.0000  -0.5794   0.0000   0.0000   0.0000   0.4826
   1.000   0.4248   0.02552   0.01799  -0.0969  0.8366  1.0000  -0.5905   0.0000   0.0000   0.0000   0.4766
   1.100   0.4380   0.02563   0.01807  -0.0973  0.8337  1.0000  -0.6030   0.0000   0.0000   0.0000   0.4705
   1.200   0.4529   0.02572   0.01813  -0.0979  0.8311  1.0000  -0.6169   0.0000   0.0000   0.0000   0.4645
   1.300   0.4694   0.02579   0.01817  -0.0987  0.8287  1.0000  -0.6320   0.0000   0.0000   0.0000   0.4586
   1.400   0.4871   0.02584   0.01819  -0.0997  0.8267  1.0000  -0.6480   0.0000   0.0000   0.0000   0.4529
   1.500   0.5062   0.02588   0.01821  -0.1010  0.8249  1.0000  -0.6652   0.0000   0.0000   0.0000   0.4475
   1.600   0.5260   0.02592   0.01823  -0.1023  0.8232  1.0000  -0.6841   0.0000   0.0000   0.0000   0.4424
   1.700   0.5455   0.02599   0.01829  -0.1035  0.8215  1.0000  -0.7040   0.0000   0.0000   0.0000   0.4376
   1.800   0.5646   0.02612   0.01840  -0.1046  0.8200  1.0000  -0.7237   0.0000   0.0000   0.0000   0.4330
   1.900   0.5423   0.02672   0.01899  -0.1000  0.8110  1.0000  -0.7100   0.0000   0.0000   0.0000   0.4320
   2.000   0.5443   0.02695   0.01921  -0.0987  0.8055  1.0000  -0.7158   0.0000   0.0000   0.0000   0.4289
   2.100   0.5529   0.02708   0.01933  -0.0984  0.8011  1.0000  -0.7271   0.0000   0.0000   0.0000   0.4254
   2.200   0.5649   0.02714   0.01938  -0.0985  0.7974  1.0000  -0.7413   0.0000   0.0000   0.0000   0.4217
   2.300   0.5793   0.02715   0.01939  -0.0989  0.7942  1.0000  -0.7574   0.0000   0.0000   0.0000   0.4180
   2.400   0.5954   0.02712   0.01936  -0.0996  0.7915  1.0000  -0.7751   0.0000   0.0000   0.0000   0.4144
   2.500   0.6135   0.02702   0.01926  -0.1004  0.7891  1.0000  -0.7951   0.0000   0.0000   0.0000   0.4108
   2.600   0.6340   0.02684   0.01908  -0.1016  0.7870  1.0000  -0.8199   0.0000   0.0000   0.0000   0.4072
   2.700   0.6540   0.02663   0.01888  -0.1026  0.7849  1.0000  -0.8445   0.0000   0.0000   0.0000   0.4037
   2.800   0.6733   0.02640   0.01873  -0.1034  0.7830  1.0000  -0.8687   0.0000   0.0000   0.0000   0.4003
   2.900   0.6922   0.02620   0.01852  -0.1040  0.7813  1.0000  -0.8927   0.0000   0.0000   0.0000   0.3970
   3.000   0.7102   0.02606   0.01839  -0.1046  0.7796  1.0000  -0.9161   0.0000   0.0000   0.0000   0.3939
   3.100   0.6902   0.02718   0.01950  -0.1011  0.7683  1.0000  -0.9017   0.0000   0.0000   0.0000   0.3930
   3.200   0.6933   0.02742   0.01975  -0.1001  0.7621  1.0000  -0.9105   0.0000   0.0000   0.0000   0.3907
   3.300   0.7048   0.02739   0.01973  -0.1000  0.7577  1.0000  -0.9274   0.0000   0.0000   0.0000   0.3881
   3.400   0.7198   0.02724   0.01959  -0.1003  0.7542  1.0000  -0.9512   0.0000   0.0000   0.0000   0.3855
   3.500   0.7362   0.02701   0.01937  -0.1006  0.7514  1.0000  -0.9767   0.0000   0.0000   0.0000   0.3828
   3.600   0.7529   0.02672   0.01909  -0.1010  0.7487  1.0000  -1.0030   0.0000   0.0000   0.0000   0.3801
   3.700   0.7702   0.02636   0.01875  -0.1013  0.7462  1.0000  -1.0302   0.0000   0.0000   0.0000   0.3775
   3.800   0.7879   0.02596   0.01837  -0.1017  0.7440  1.0000  -1.0581   0.0000   0.0000   0.0000   0.3749
   3.900   0.8057   0.02556   0.01798  -0.1020  0.7420  1.0000  -1.0863   0.0000   0.0000   0.0000   0.3723
   4.000   0.8236   0.02515   0.01759  -0.1023  0.7402  1.0000  -1.1148   0.0000   0.0000   0.0000   0.3699
   4.100   0.8412   0.02477   0.01723  -0.1026  0.7383  1.0000  -1.1454   0.0000   0.0000   0.0000   0.3675
   4.200   0.8585   0.02446   0.01693  -0.1028  0.7362  1.0000  -1.1793   0.0000   0.0000   0.0000   0.3652
   4.300   0.8436   0.02567   0.01819  -0.1003  0.7236  1.0000  -1.1680   0.0000   0.0000   0.0000   0.3642
   4.400   0.8520   0.02566   0.01821  -0.0997  0.7175  1.0000  -1.1935   0.0000   0.0000   0.0000   0.3622
   4.500   0.8643   0.02541   0.01798  -0.0994  0.7127  1.0000  -1.2263   0.0000   0.0000   0.0000   0.3601
   4.600   0.8791   0.02500   0.01760  -0.0993  0.7089  1.0000  -1.2633   0.0000   0.0000   0.0000   0.3580
   4.700   0.8950   0.02453   0.01716  -0.0993  0.7057  1.0000  -1.3024   0.0000   0.0000   0.0000   0.3559
   4.800   0.9116   0.02403   0.01670  -0.0994  0.7028  1.0000  -1.3429   0.0000   0.0000   0.0000   0.3539
   4.900   0.9284   0.02350   0.01619  -0.0995  0.7000  1.0000  -1.3843   0.0000   0.0000   0.0000   0.3518
   5.000   0.9464   0.02289   0.01561  -0.0997  0.6973  1.0000  -1.4281   0.0000   0.0000   0.0000   0.3499
   5.100   0.9649   0.02228   0.01502  -0.0999  0.6943  1.0000  -1.4730   0.0000   0.0000   0.0000   0.3480
   5.200   0.9770   0.02209   0.01485  -0.0995  0.6895  1.0000  -1.5073   0.0000   0.0000   0.0000   0.3462
   5.300   0.9753   0.02258   0.01542  -0.0980  0.6794  1.0000  -1.5179   0.0000   0.0000   0.0000   0.3447
   5.400   0.9836   0.02247   0.01535  -0.0972  0.6719  1.0000  -1.5461   0.0000   0.0000   0.0000   0.3429
   5.500   0.9967   0.02207   0.01500  -0.0969  0.6659  1.0000  -1.5847   0.0000   0.0000   0.0000   0.3412
   5.600   1.0122   0.02153   0.01449  -0.0968  0.6606  1.0000  -1.6372   0.0000   0.0000   0.0000   0.3395
   5.700   1.0289   0.02091   0.01389  -0.0967  0.6555  1.0000  -1.7068   0.0000   0.0000   0.0000   0.3378
   5.800   1.0464   0.02027   0.01324  -0.0968  0.6502  1.0000  -1.7823   0.0000   0.0000   0.0000   0.3361
   5.900   1.0599   0.01995   0.01292  -0.0965  0.6431  1.0000  -1.8470   0.0000   0.0000   0.0000   0.3346
   6.000   1.0633   0.02012   0.01318  -0.0953  0.6324  1.0000  -1.8829   0.0000   0.0000   0.0000   0.3330
   6.100   1.0728   0.01992   0.01302  -0.0946  0.6222  1.0000  -1.9473   0.0000   0.0000   0.0000   0.3315
   6.200   1.0870   0.01938   0.01305  -0.0941  0.6104  1.0000  -2.1435   0.0000   0.0000   0.0000   0.3297
   6.300   1.1044   0.01884   0.01247  -0.0941  0.6009  1.0000  -2.2772   0.0000   0.0000   0.0000   0.3283
   6.400   1.1098   0.01895   0.01267  -0.0931  0.5882  1.0000  -2.3489   0.0000   0.0000   0.0000   0.3268
   6.500   1.1173   0.01890   0.01266  -0.0922  0.5734  1.0000  -2.4313   0.0000   0.0000   0.0000   0.3253
   6.600   1.1304   0.01855   0.01223  -0.0918  0.5581  1.0000  -2.5417   0.0000   0.0000   0.0000   0.3238
   6.700   1.1388   0.01856   0.01222  -0.0910  0.5417  1.0000  -2.6282   0.0000   0.0000   0.0000   0.3224
   6.800   1.1461   0.01858   0.01223  -0.0901  0.5220  1.0000  -2.7106   0.0000   0.0000   0.0000   0.3210
   6.900   1.1564   0.01854   0.01200  -0.0894  0.5017  1.0000  -2.8090   0.0000   0.0000   0.0000   0.3196
   7.000   1.1618   0.01874   0.01221  -0.0884  0.4809  1.0000  -2.8824   0.0000   0.0000   0.0000   0.3182
   7.100   1.1696   0.01891   0.01216  -0.0875  0.4586  1.0000  -2.9695   0.0000   0.0000   0.0000   0.3168
   7.200   1.1752   0.01920   0.01242  -0.0866  0.4379  1.0000  -3.0443   0.0000   0.0000   0.0000   0.3155
   7.300   1.1809   0.01954   0.01256  -0.0856  0.4167  1.0000  -3.1219   0.0000   0.0000   0.0000   0.3141
   7.400   1.1866   0.01991   0.01285  -0.0847  0.3977  1.0000  -3.1981   0.0000   0.0000   0.0000   0.3129
   7.500   1.1919   0.02030   0.01314  -0.0837  0.3792  1.0000  -3.2728   0.0000   0.0000   0.0000   0.3117
   7.600   1.1972   0.02082   0.01343  -0.0828  0.3612  1.0000  -3.3485   0.0000   0.0000   0.0000   0.3104
   7.700   1.2028   0.02116   0.01384  -0.0820  0.3465  1.0000  -3.4237   0.0000   0.0000   0.0000   0.3093
   7.800   1.2076   0.02161   0.01418  -0.0811  0.3310  1.0000  -3.4973   0.0000   0.0000   0.0000   0.3081
   7.900   1.2126   0.02221   0.01456  -0.0802  0.3150  1.0000  -3.5718   0.0000   0.0000   0.0000   0.3070
   8.000   1.2177   0.02253   0.01498  -0.0793  0.3025  1.0000  -3.6459   0.0000   0.0000   0.0000   0.3059
   8.100   1.2221   0.02297   0.01535  -0.0784  0.2888  1.0000  -3.7184   0.0000   0.0000   0.0000   0.3047
   8.200   1.2262   0.02366   0.01580  -0.0775  0.2738  1.0000  -3.7897   0.0000   0.0000   0.0000   0.3036
   8.300   1.2312   0.02400   0.01622  -0.0766  0.2630  1.0000  -3.8633   0.0000   0.0000   0.0000   0.3025
   8.400   1.2355   0.02440   0.01664  -0.0757  0.2514  1.0000  -3.9353   0.0000   0.0000   0.0000   0.3014
   8.500   1.2389   0.02497   0.01708  -0.0747  0.2400  1.0000  -4.0032   0.0000   0.0000   0.0000   0.3003
   8.600   1.2444   0.02566   0.01766  -0.0739  0.2275  1.0000  -4.0772   0.0000   0.0000   0.0000   0.2993
   8.700   1.2488   0.02604   0.01813  -0.0730  0.2178  1.0000  -4.1470   0.0000   0.0000   0.0000   0.2982
   8.800   1.2522   0.02652   0.01860  -0.0720  0.2078  1.0000  -4.2136   0.0000   0.0000   0.0000   0.2971
   8.900   1.2551   0.02726   0.01916  -0.0710  0.1970  1.0000  -4.2764   0.0000   0.0000   0.0000   0.2960
   9.000   1.2609   0.02796   0.01986  -0.0702  0.1864  1.0000  -4.3470   0.0000   0.0000   0.0000   0.2951
   9.100   1.2640   0.02840   0.02036  -0.0691  0.1781  1.0000  -4.4081   0.0000   0.0000   0.0000   0.2939
   9.200   1.2663   0.02889   0.02084  -0.0680  0.1700  1.0000  -4.4676   0.0000   0.0000   0.0000   0.2927
   9.300   1.2689   0.02969   0.02148  -0.0670  0.1609  1.0000  -4.5279   0.0000   0.0000   0.0000   0.2917
   9.400   1.2753   0.03056   0.02233  -0.0664  0.1515  1.0000  -4.5971   0.0000   0.0000   0.0000   0.2908
   9.500   1.2777   0.03096   0.02282  -0.0653  0.1451  1.0000  -4.6551   0.0000   0.0000   0.0000   0.2897
   9.600   1.2797   0.03142   0.02329  -0.0642  0.1386  1.0000  -4.7139   0.0000   0.0000   0.0000   0.2887
   9.700   1.2812   0.03195   0.02378  -0.0631  0.1327  1.0000  -4.7717   0.0000   0.0000   0.0000   0.2876
   9.800   1.2914   0.03350   0.02511  -0.0631  0.1220  1.0000  -4.8496   0.0000   0.0000   0.0000   0.2871
   9.900   1.2941   0.03392   0.02587  -0.0621  0.1186  1.0000  -4.8715   0.0000   0.0000   0.0000   0.2860
  10.000   1.2981   0.03448   0.02653  -0.0612  0.1142  1.0000  -4.9193   0.0000   0.0000   0.0000   0.2851
  10.100   1.3023   0.03510   0.02719  -0.0604  0.1096  1.0000  -4.9731   0.0000   0.0000   0.0000   0.2841
  10.200   1.3060   0.03572   0.02784  -0.0595  0.1053  1.0000  -5.0279   0.0000   0.0000   0.0000   0.2832
  10.300   1.3095   0.03644   0.02854  -0.0587  0.1012  1.0000  -5.0822   0.0000   0.0000   0.0000   0.2823
  10.400   1.3238   0.03869   0.03071  -0.0592  0.0923  1.0000  -5.1409   0.0000   0.0000   0.0000   0.2821
  10.500   1.3229   0.03893   0.03105  -0.0579  0.0898  1.0000  -5.1791   0.0000   0.0000   0.0000   0.2809
  10.600   1.3213   0.03926   0.03147  -0.0565  0.0863  1.0000  -5.2144   0.0000   0.0000   0.0000   0.2798
  10.700   1.3195   0.03962   0.03187  -0.0553  0.0823  1.0000  -5.2529   0.0000   0.0000   0.0000   0.2788
  10.800   1.3175   0.04003   0.03228  -0.0542  0.0783  1.0000  -5.2936   0.0000   0.0000   0.0000   0.2779
  10.900   1.3163   0.04067   0.03289  -0.0533  0.0745  1.0000  -5.3286   0.0000   0.0000   0.0000   0.2770
  11.000   1.3208   0.04296   0.03512  -0.0527  0.0661  1.0000  -5.2936   0.0000   0.0000   0.0000   0.2763
  11.100   1.3179   0.04354   0.03584  -0.0513  0.0623  1.0000  -5.2727   0.0000   0.0000   0.0000   0.2752
  11.200   1.3145   0.04437   0.03673  -0.0501  0.0573  1.0000  -5.2354   0.0000   0.0000   0.0000   0.2742
  11.300   1.3119   0.04525   0.03758  -0.0491  0.0533  1.0000  -5.2176   0.0000   0.0000   0.0000   0.2733
  11.400   1.3117   0.04661   0.03889  -0.0482  0.0496  1.0000  -5.2004   0.0000   0.0000   0.0000   0.2725
  11.600   1.3210   0.05199   0.04459  -0.0469  0.0447  1.0000  -5.0700   0.0000   0.0000   0.0000   0.2710
  11.700   1.3216   0.05325   0.04600  -0.0461  0.0441  1.0000  -5.0656   0.0000   0.0000   0.0000   0.2702
  11.800   1.3218   0.05464   0.04753  -0.0453  0.0436  1.0000  -5.0595   0.0000   0.0000   0.0000   0.2695
  11.900   1.3213   0.05610   0.04914  -0.0445  0.0432  1.0000  -5.0521   0.0000   0.0000   0.0000   0.2687
  12.000   1.3199   0.05762   0.05080  -0.0437  0.0428  1.0000  -5.0432   0.0000   0.0000   0.0000   0.2680
  12.100   1.3178   0.05918   0.05249  -0.0430  0.0426  1.0000  -5.0329   0.0000   0.0000   0.0000   0.2674
  12.200   1.3149   0.06078   0.05423  -0.0422  0.0424  1.0000  -5.0213   0.0000   0.0000   0.0000   0.2667
  12.300   1.3114   0.06242   0.05600  -0.0416  0.0422  1.0000  -5.0081   0.0000   0.0000   0.0000   0.2662
  12.400   1.3071   0.06410   0.05781  -0.0409  0.0421  1.0000  -4.9933   0.0000   0.0000   0.0000   0.2656
  12.500   1.3019   0.06580   0.05963  -0.0404  0.0420  1.0000  -4.9768   0.0000   0.0000   0.0000   0.2652
  12.600   1.2961   0.06753   0.06148  -0.0398  0.0420  1.0000  -4.9587   0.0000   0.0000   0.0000   0.2648
  12.700   1.2900   0.06932   0.06339  -0.0394  0.0420  1.0000  -4.9391   0.0000   0.0000   0.0000   0.2644
  12.800   1.2834   0.07117   0.06536  -0.0391  0.0419  1.0000  -4.9181   0.0000   0.0000   0.0000   0.2642
  12.900   1.2763   0.07308   0.06738  -0.0389  0.0420  1.0000  -4.8952   0.0000   0.0000   0.0000   0.2640
  13.000   1.2689   0.07507   0.06948  -0.0388  0.0420  1.0000  -4.8708   0.0000   0.0000   0.0000   0.2639
  13.100   1.2614   0.07712   0.07164  -0.0388  0.0420  1.0000  -4.8449   0.0000   0.0000   0.0000   0.2640
  13.200   1.2532   0.07924   0.07386  -0.0389  0.0421  1.0000  -4.8171   0.0000   0.0000   0.0000   0.2641
  13.300   1.2448   0.08144   0.07616  -0.0392  0.0421  1.0000  -4.7875   0.0000   0.0000   0.0000   0.2644
  13.400   1.2363   0.08371   0.07853  -0.0396  0.0422  1.0000  -4.7563   0.0000   0.0000   0.0000   0.2648
  13.500   1.2272   0.08606   0.08097  -0.0402  0.0423  1.0000  -4.7228   0.0000   0.0000   0.0000   0.2654
  13.600   1.2180   0.08848   0.08349  -0.0410  0.0424  1.0000  -4.6874   0.0000   0.0000   0.0000   0.2660
  13.700   1.2087   0.09099   0.08609  -0.0418  0.0425  1.0000  -4.6499   0.0000   0.0000   0.0000   0.2669
  13.800   1.1989   0.09360   0.08878  -0.0429  0.0426  1.0000  -4.6096   0.0000   0.0000   0.0000   0.2679
  13.900   1.1890   0.09630   0.09157  -0.0442  0.0427  1.0000  -4.5669   0.0000   0.0000   0.0000   0.2691
  14.000   1.1789   0.09912   0.09446  -0.0456  0.0429  1.0000  -4.5211   0.0000   0.0000   0.0000   0.2705
  14.100   1.1685   0.10208   0.09750  -0.0472  0.0430  1.0000  -4.4717   0.0000   0.0000   0.0000   0.2721
  14.200   1.1582   0.10519   0.10067  -0.0491  0.0432  1.0000  -4.4186   0.0000   0.0000   0.0000   0.2739
  14.300   1.1473   0.10848   0.10403  -0.0511  0.0434  1.0000  -4.3605   0.0000   0.0000   0.0000   0.2759
  14.400   1.1365   0.11185   0.10746  -0.0534  0.0436  1.0000  -4.2978   0.0000   0.0000   0.0000   0.2782
  14.500   1.1253   0.11547   0.11114  -0.0559  0.0438  1.0000  -4.2282   0.0000   0.0000   0.0000   0.2808
  14.600   1.1140   0.11937   0.11509  -0.0586  0.0441  1.0000  -4.1512   0.0000   0.0000   0.0000   0.2837
  14.700   1.1024   0.12363   0.11938  -0.0616  0.0444  1.0000  -4.0647   0.0000   0.0000   0.0000   0.2868
  14.800   1.0906   0.12823   0.12401  -0.0647  0.0447  1.0000  -3.9680   0.0000   0.0000   0.0000   0.2903
  14.900   1.0790   0.13312   0.12891  -0.0679  0.0450  1.0000  -3.8615   0.0000   0.0000   0.0000   0.2938
  15.000   1.0677   0.13827   0.13407  -0.0710  0.0454  1.0000  -3.7450   0.0000   0.0000   0.0000   0.2974
  15.100   1.0571   0.14355   0.13934  -0.0738  0.0459  1.0000  -3.6202   0.0000   0.0000   0.0000   0.3007
  15.300   1.0504   0.15053   0.14640  -0.0780  0.0465  1.0000  -3.5012   0.0000   0.0000   0.0000   0.3050
  15.400   1.0473   0.15439   0.15026  -0.0802  0.0469  1.0000  -3.4265   0.0000   0.0000   0.0000   0.3074
  15.500   1.0091   0.17506   0.17062  -0.0923  0.0552  1.0000  -2.7427   0.0000   0.0000   0.0000   0.3233
  15.600   1.0053   0.17914   0.17468  -0.0942  0.0565  1.0000  -2.6503   0.0000   0.0000   0.0000   0.3255
  15.700   1.0027   0.18282   0.17835  -0.0958  0.0579  1.0000  -2.5743   0.0000   0.0000   0.0000   0.3272
  15.800   1.0009   0.18625   0.18176  -0.0971  0.0592  1.0000  -2.5093   0.0000   0.0000   0.0000   0.3287
  15.900   1.0000   0.18941   0.18491  -0.0983  0.0607  1.0000  -2.4571   0.0000   0.0000   0.0000   0.3299
  16.000   1.0002   0.19233   0.18783  -0.0990  0.0623  1.0000  -2.4183   0.0000   0.0000   0.0000   0.3305
  16.100   1.0015   0.19510   0.19059  -0.0993  0.0641  1.0000  -2.3963   0.0000   0.0000   0.0000   0.3305
  16.600   1.0082   0.22336   0.21890  -0.1026  0.0930  1.0000  -2.0648   0.0000   0.0000   0.0000   0.3331
  16.700   1.0088   0.22587   0.22141  -0.1036  0.0930  1.0000  -2.0440   0.0000   0.0000   0.0000   0.3340
  16.800   1.0093   0.22831   0.22385  -0.1047  0.0929  1.0000  -2.0236   0.0000   0.0000   0.0000   0.3348
  16.900   1.0097   0.23068   0.22621  -0.1057  0.0928  1.0000  -2.0035   0.0000   0.0000   0.0000   0.3357
  17.000   1.0101   0.23296   0.22849  -0.1067  0.0928  1.0000  -1.9836   0.0000   0.0000   0.0000   0.3365
  17.100   1.0104   0.23515   0.23068  -0.1078  0.0926  1.0000  -1.9638   0.0000   0.0000   0.0000   0.3374
  17.200   1.0107   0.23723   0.23275  -0.1089  0.0925  1.0000  -1.9440   0.0000   0.0000   0.0000   0.3383
  17.300   1.0108   0.23916   0.23468  -0.1100  0.0923  1.0000  -1.9240   0.0000   0.0000   0.0000   0.3393
  17.400   1.0108   0.24087   0.23638  -0.1112  0.0921  1.0000  -1.9030   0.0000   0.0000   0.0000   0.3404
  17.500   1.0085   0.24218   0.23768  -0.1129  0.0916  1.0000  -1.8701   0.0000   0.0000   0.0000   0.3422
  17.600   1.0046   0.24292   0.23841  -0.1151  0.0908  1.0000  -1.8270   0.0000   0.0000   0.0000   0.3446
  17.700   0.9985   0.24346   0.23892  -0.1175  0.0892  1.0000  -1.7735   0.0000   0.0000   0.0000   0.3477
  17.800   0.9957   0.24495   0.24040  -0.1194  0.0874  1.0000  -1.7365   0.0000   0.0000   0.0000   0.3497
  17.900   0.9950   0.24691   0.24236  -0.1206  0.0858  1.0000  -1.7137   0.0000   0.0000   0.0000   0.3509
  18.000   0.9951   0.24901   0.24446  -0.1216  0.0843  1.0000  -1.6975   0.0000   0.0000   0.0000   0.3518
  18.100   0.9956   0.25115   0.24660  -0.1225  0.0830  1.0000  -1.6850   0.0000   0.0000   0.0000   0.3524
  18.200   0.9962   0.25329   0.24874  -0.1232  0.0817  1.0000  -1.6753   0.0000   0.0000   0.0000   0.3530
  18.300   0.9971   0.25542   0.25088  -0.1239  0.0805  1.0000  -1.6680   0.0000   0.0000   0.0000   0.3534
  18.400   0.9982   0.25748   0.25294  -0.1245  0.0791  1.0000  -1.6646   0.0000   0.0000   0.0000   0.3537
  18.500   0.9998   0.25938   0.25484  -0.1249  0.0773  1.0000  -1.6693   0.0000   0.0000   0.0000   0.3537
  18.600   1.0035   0.26076   0.25624  -0.1247  0.0745  1.0000  -1.7022   0.0000   0.0000   0.0000   0.3529
  19.100   1.0224   0.27735   0.27302  -0.1223  0.0670  1.0000  -1.8267   0.0000   0.0000   0.0000   0.3473
  19.200   1.0205   0.27844   0.27411  -0.1237  0.0666  1.0000  -1.7987   0.0000   0.0000   0.0000   0.3488
  19.300   1.0169   0.27948   0.27514  -0.1253  0.0661  1.0000  -1.7597   0.0000   0.0000   0.0000   0.3507
  19.400   1.0120   0.28055   0.27620  -0.1271  0.0655  1.0000  -1.7145   0.0000   0.0000   0.0000   0.3529
  19.500   1.0074   0.28175   0.27739  -0.1290  0.0644  1.0000  -1.6656   0.0000   0.0000   0.0000   0.3552
  19.600   1.0041   0.28331   0.27894  -0.1308  0.0621  1.0000  -1.6219   0.0000   0.0000   0.0000   0.3573
  19.700   1.0030   0.28507   0.28070  -0.1319  0.0583  1.0000  -1.6071   0.0000   0.0000   0.0000   0.3584
  19.800   1.0040   0.28645   0.28210  -0.1322  0.0543  1.0000  -1.6282   0.0000   0.0000   0.0000   0.3584
  19.900   1.0050   0.28807   0.28374  -0.1323  0.0525  1.0000  -1.6470   0.0000   0.0000   0.0000   0.3582
  20.000   1.0062   0.28972   0.28540  -0.1323  0.0511  1.0000  -1.6689   0.0000   0.0000   0.0000   0.3578
  20.100   1.0087   0.29122   0.28692  -0.1319  0.0497  1.0000  -1.7094   0.0000   0.0000   0.0000   0.3569
  20.200   1.0220   0.29332   0.28907  -0.1289  0.0474  1.0000  -1.8678   0.0000   0.0000   0.0000   0.3519
  20.300   1.0171   0.30195   0.29766  -0.1282  0.0459  1.0000  -1.8282   0.0000   0.0000   0.0000   0.3518
  20.400   1.0155   0.30426   0.29998  -0.1287  0.0458  1.0000  -1.8091   0.0000   0.0000   0.0000   0.3524
  20.500   1.0136   0.30649   0.30221  -0.1292  0.0458  1.0000  -1.7895   0.0000   0.0000   0.0000   0.3530
  20.600   1.0113   0.30861   0.30434  -0.1296  0.0458  1.0000  -1.7695   0.0000   0.0000   0.0000   0.3537
  20.700   1.0085   0.31060   0.30634  -0.1300  0.0458  1.0000  -1.7487   0.0000   0.0000   0.0000   0.3543
  20.800   1.0052   0.31242   0.30818  -0.1303  0.0457  1.0000  -1.7269   0.0000   0.0000   0.0000   0.3549
  20.900   1.0010   0.31400   0.30977  -0.1306  0.0457  1.0000  -1.7035   0.0000   0.0000   0.0000   0.3556
  21.000   0.9785   0.31147   0.30732  -0.1284  0.0457  1.0000  -1.6410   0.0000   0.0000   0.0000   0.3567
  21.100   0.9581   0.30841   0.30431  -0.1266  0.0457  1.0000  -1.5837   0.0000   0.0000   0.0000   0.3577
  21.200   0.9483   0.30762   0.30355  -0.1260  0.0456  1.0000  -1.5491   0.0000   0.0000   0.0000   0.3585
  21.300   0.9407   0.30725   0.30321  -0.1258  0.0456  1.0000  -1.5196   0.0000   0.0000   0.0000   0.3593
  21.400   0.9344   0.30709   0.30308  -0.1257  0.0455  1.0000  -1.4929   0.0000   0.0000   0.0000   0.3600
  21.500   0.9287   0.30702   0.30302  -0.1256  0.0455  1.0000  -1.4677   0.0000   0.0000   0.0000   0.3608
  21.600   0.9236   0.30698   0.30300  -0.1257  0.0454  1.0000  -1.4437   0.0000   0.0000   0.0000   0.3615
  21.700   0.9180   0.30678   0.30282  -0.1258  0.0453  1.0000  -1.4165   0.0000   0.0000   0.0000   0.3625
  21.800   0.9125   0.30653   0.30259  -0.1260  0.0452  1.0000  -1.3886   0.0000   0.0000   0.0000   0.3635
  21.900   0.9068   0.30617   0.30224  -0.1263  0.0451  1.0000  -1.3589   0.0000   0.0000   0.0000   0.3646
  22.000   0.9014   0.30582   0.30190  -0.1267  0.0450  1.0000  -1.3291   0.0000   0.0000   0.0000   0.3657
  22.100   0.8963   0.30551   0.30160  -0.1271  0.0448  1.0000  -1.2991   0.0000   0.0000   0.0000   0.3670
  22.200   0.8917   0.30526   0.30137  -0.1277  0.0445  1.0000  -1.2685   0.0000   0.0000   0.0000   0.3683
  22.300   0.8875   0.30514   0.30126  -0.1284  0.0442  1.0000  -1.2369   0.0000   0.0000   0.0000   0.3696
  22.400   0.8840   0.30526   0.30139  -0.1292  0.0436  1.0000  -1.2050   0.0000   0.0000   0.0000   0.3710
  22.500   0.8814   0.30570   0.30183  -0.1299  0.0428  1.0000  -1.1766   0.0000   0.0000   0.0000   0.3722
  22.600   0.8793   0.30633   0.30247  -0.1305  0.0419  1.0000  -1.1548   0.0000   0.0000   0.0000   0.3731
  22.700   0.8776   0.30700   0.30316  -0.1310  0.0410  1.0000  -1.1385   0.0000   0.0000   0.0000   0.3738
  22.800   0.8759   0.30767   0.30384  -0.1313  0.0402  1.0000  -1.1255   0.0000   0.0000   0.0000   0.3744
  22.900   0.8744   0.30833   0.30451  -0.1317  0.0395  1.0000  -1.1146   0.0000   0.0000   0.0000   0.3749
  23.000   0.8729   0.30898   0.30518  -0.1319  0.0388  1.0000  -1.1052   0.0000   0.0000   0.0000   0.3754
  23.100   0.8716   0.30963   0.30584  -0.1322  0.0381  1.0000  -1.0970   0.0000   0.0000   0.0000   0.3758
  23.200   0.8703   0.31028   0.30649  -0.1325  0.0375  1.0000  -1.0897   0.0000   0.0000   0.0000   0.3762
  23.300   0.8691   0.31091   0.30714  -0.1328  0.0369  1.0000  -1.0833   0.0000   0.0000   0.0000   0.3766
  23.400   0.8680   0.31155   0.30779  -0.1330  0.0364  1.0000  -1.0775   0.0000   0.0000   0.0000   0.3770
  23.500   0.8669   0.31218   0.30844  -0.1333  0.0359  1.0000  -1.0725   0.0000   0.0000   0.0000   0.3773
  23.600   0.8659   0.31281   0.30908  -0.1335  0.0354  1.0000  -1.0681   0.0000   0.0000   0.0000   0.3776
  23.700   0.8650   0.31344   0.30972  -0.1338  0.0349  1.0000  -1.0645   0.0000   0.0000   0.0000   0.3780
  23.800   0.8641   0.31406   0.31035  -0.1340  0.0344  1.0000  -1.0615   0.0000   0.0000   0.0000   0.3782
  23.900   0.8633   0.31468   0.31098  -0.1342  0.0340  1.0000  -1.0592   0.0000   0.0000   0.0000   0.3785
  24.000   0.8626   0.31529   0.31160  -0.1345  0.0336  1.0000  -1.0577   0.0000   0.0000   0.0000   0.3788
  24.100   0.8619   0.31590   0.31222  -0.1347  0.0331  1.0000  -1.0569   0.0000   0.0000   0.0000   0.3790
  24.200   0.8613   0.31649   0.31283  -0.1349  0.0327  1.0000  -1.0571   0.0000   0.0000   0.0000   0.3792
  24.300   0.8607   0.31709   0.31344  -0.1351  0.0324  1.0000  -1.0582   0.0000   0.0000   0.0000   0.3794
  24.400   0.8601   0.31768   0.31404  -0.1353  0.0320  1.0000  -1.0603   0.0000   0.0000   0.0000   0.3796
  24.500   0.8597   0.31826   0.31463  -0.1355  0.0316  1.0000  -1.0636   0.0000   0.0000   0.0000   0.3797
  24.600   0.8593   0.31884   0.31523  -0.1356  0.0313  1.0000  -1.0682   0.0000   0.0000   0.0000   0.3798
  24.700   0.8590   0.31942   0.31582  -0.1358  0.0309  1.0000  -1.0745   0.0000   0.0000   0.0000   0.3798
  24.800   0.8588   0.32002   0.31643  -0.1359  0.0306  1.0000  -1.0826   0.0000   0.0000   0.0000   0.3798
  24.900   0.8587   0.32065   0.31708  -0.1359  0.0302  1.0000  -1.0929   0.0000   0.0000   0.0000   0.3797
  25.000   0.8588   0.32137   0.31781  -0.1359  0.0299  1.0000  -1.1061   0.0000   0.0000   0.0000   0.3794
  25.100   0.8593   0.32229   0.31874  -0.1357  0.0296  1.0000  -1.1233   0.0000   0.0000   0.0000   0.3790
  25.200   0.8606   0.32373   0.32021  -0.1354  0.0292  1.0000  -1.1470   0.0000   0.0000   0.0000   0.3782
  25.300   0.8667   0.33208   0.32851  -0.1343  0.0283  1.0000  -1.1728   0.0000   0.0000   0.0000   0.3758
  25.400   0.8657   0.33267   0.32912  -0.1347  0.0283  1.0000  -1.1631   0.0000   0.0000   0.0000   0.3762
  25.500   0.8648   0.33325   0.32971  -0.1351  0.0282  1.0000  -1.1536   0.0000   0.0000   0.0000   0.3767
  25.600   0.8639   0.33383   0.33030  -0.1355  0.0282  1.0000  -1.1441   0.0000   0.0000   0.0000   0.3771
  25.700   0.8630   0.33439   0.33087  -0.1358  0.0282  1.0000  -1.1347   0.0000   0.0000   0.0000   0.3776
  25.800   0.8621   0.33493   0.33142  -0.1362  0.0282  1.0000  -1.1253   0.0000   0.0000   0.0000   0.3781
  25.900   0.8612   0.33543   0.33193  -0.1366  0.0282  1.0000  -1.1156   0.0000   0.0000   0.0000   0.3785
  26.000   0.8603   0.33593   0.33243  -0.1370  0.0281  1.0000  -1.1061   0.0000   0.0000   0.0000   0.3790
  26.100   0.8594   0.33641   0.33293  -0.1374  0.0281  1.0000  -1.0967   0.0000   0.0000   0.0000   0.3795
  26.200   0.8581   0.33673   0.33326  -0.1379  0.0281  1.0000  -1.0846   0.0000   0.0000   0.0000   0.3801
  26.300   0.8568   0.33703   0.33356  -0.1383  0.0280  1.0000  -1.0721   0.0000   0.0000   0.0000   0.3807
  26.400   0.8555   0.33732   0.33386  -0.1388  0.0280  1.0000  -1.0597   0.0000   0.0000   0.0000   0.3813
  26.500   0.8543   0.33762   0.33417  -0.1392  0.0280  1.0000  -1.0475   0.0000   0.0000   0.0000   0.3819
  26.600   0.8531   0.33792   0.33448  -0.1397  0.0279  1.0000  -1.0353   0.0000   0.0000   0.0000   0.3825
  26.700   0.8519   0.33822   0.33479  -0.1402  0.0279  1.0000  -1.0232   0.0000   0.0000   0.0000   0.3831
  26.800   0.8508   0.33854   0.33512  -0.1407  0.0279  1.0000  -1.0112   0.0000   0.0000   0.0000   0.3837
  26.900   0.8498   0.33886   0.33545  -0.1412  0.0278  1.0000  -0.9992   0.0000   0.0000   0.0000   0.3844
  27.000   0.8488   0.33920   0.33579  -0.1417  0.0277  1.0000  -0.9872   0.0000   0.0000   0.0000   0.3850
  27.100   0.8478   0.33955   0.33616  -0.1422  0.0277  1.0000  -0.9753   0.0000   0.0000   0.0000   0.3856
  27.200   0.8470   0.33992   0.33654  -0.1428  0.0276  1.0000  -0.9632   0.0000   0.0000   0.0000   0.3862
  27.300   0.8462   0.34032   0.33695  -0.1433  0.0275  1.0000  -0.9511   0.0000   0.0000   0.0000   0.3869
  27.400   0.8454   0.34076   0.33739  -0.1439  0.0274  1.0000  -0.9389   0.0000   0.0000   0.0000   0.3875
  27.500   0.8448   0.34124   0.33788  -0.1445  0.0273  1.0000  -0.9266   0.0000   0.0000   0.0000   0.3881
  27.600   0.8444   0.34178   0.33843  -0.1451  0.0272  1.0000  -0.9142   0.0000   0.0000   0.0000   0.3887
  27.700   0.8440   0.34239   0.33905  -0.1457  0.0270  1.0000  -0.9020   0.0000   0.0000   0.0000   0.3893
  27.800   0.8438   0.34307   0.33974  -0.1463  0.0268  1.0000  -0.8901   0.0000   0.0000   0.0000   0.3899
  27.900   0.8437   0.34382   0.34049  -0.1469  0.0265  1.0000  -0.8788   0.0000   0.0000   0.0000   0.3904
  28.000   0.8437   0.34463   0.34139  -0.1475  0.0262  1.0000  -0.8686   0.0000   0.0000   0.0000   0.3909
  28.100   0.8437   0.34546   0.34223  -0.1480  0.0259  1.0000  -0.8596   0.0000   0.0000   0.0000   0.3914
  28.200   0.8437   0.34630   0.34308  -0.1485  0.0255  1.0000  -0.8519   0.0000   0.0000   0.0000   0.3917
  28.300   0.8437   0.34713   0.34392  -0.1490  0.0252  1.0000  -0.8451   0.0000   0.0000   0.0000   0.3921
  28.400   0.8437   0.34795   0.34476  -0.1494  0.0249  1.0000  -0.8393   0.0000   0.0000   0.0000   0.3924
  28.500   0.8437   0.34877   0.34558  -0.1499  0.0245  1.0000  -0.8341   0.0000   0.0000   0.0000   0.3927
  28.600   0.8436   0.34957   0.34639  -0.1503  0.0242  1.0000  -0.8295   0.0000   0.0000   0.0000   0.3930
  28.700   0.8436   0.35037   0.34720  -0.1507  0.0238  1.0000  -0.8253   0.0000   0.0000   0.0000   0.3933
  28.800   0.8435   0.35116   0.34800  -0.1511  0.0235  1.0000  -0.8215   0.0000   0.0000   0.0000   0.3936
  28.900   0.8434   0.35194   0.34879  -0.1515  0.0232  1.0000  -0.8181   0.0000   0.0000   0.0000   0.3939
  29.000   0.8433   0.35272   0.34958  -0.1519  0.0229  1.0000  -0.8149   0.0000   0.0000   0.0000   0.3941
  29.100   0.8432   0.35349   0.35037  -0.1523  0.0226  1.0000  -0.8120   0.0000   0.0000   0.0000   0.3944
  29.200   0.8432   0.35426   0.35115  -0.1527  0.0223  1.0000  -0.8093   0.0000   0.0000   0.0000   0.3946
  29.300   0.8431   0.35503   0.35192  -0.1531  0.0220  1.0000  -0.8069   0.0000   0.0000   0.0000   0.3949
  29.400   0.8430   0.35579   0.35270  -0.1534  0.0217  1.0000  -0.8046   0.0000   0.0000   0.0000   0.3951
  29.500   0.8429   0.35655   0.35346  -0.1538  0.0215  1.0000  -0.8026   0.0000   0.0000   0.0000   0.3954
  29.600   0.8428   0.35730   0.35423  -0.1542  0.0212  1.0000  -0.8007   0.0000   0.0000   0.0000   0.3956
  29.700   0.8427   0.35806   0.35499  -0.1546  0.0209  1.0000  -0.7990   0.0000   0.0000   0.0000   0.3959
  29.800   0.8427   0.35880   0.35575  -0.1550  0.0207  1.0000  -0.7975   0.0000   0.0000   0.0000   0.3961
  29.900   0.8426   0.35955   0.35651  -0.1554  0.0204  1.0000  -0.7962   0.0000   0.0000   0.0000   0.3963
  30.000   0.8425   0.36029   0.35726  -0.1557  0.0202  1.0000  -0.7951   0.0000   0.0000   0.0000   0.3966


