xflr5 v6.61

 Calculated polar for: S4062-095-87

 1 1 Reynolds number fixed          Mach number fixed         

 xtrf =   1.000 (top)        1.000 (bottom)
 Mach =   0.000     Re =     0.719 e 6     Ncrit =   9.000

  alpha     CL        CD       CDp       Cm    Top Xtr Bot Xtr   Cpmin    Chinge    XCp    
 ------- -------- --------- --------- -------- ------- ------- -------- --------- ---------
 -10.000  -0.2903   0.10173   0.09968  -0.0470  0.9707  0.0071  -2.1969   0.0000   0.0000   0.0000   0.0765
  -9.900  -0.2850   0.10029   0.09823  -0.0484  0.9665  0.0072  -2.1712   0.0000   0.0000   0.0000   0.0685
  -9.800  -0.2798   0.09890   0.09683  -0.0498  0.9620  0.0074  -2.1438   0.0000   0.0000   0.0000   0.0604
  -9.700  -0.2748   0.09756   0.09548  -0.0511  0.9574  0.0075  -2.1167   0.0000   0.0000   0.0000   0.0525
  -9.600  -0.2698   0.09636   0.09426  -0.0521  0.9526  0.0077  -2.0804   0.0000   0.0000   0.0000   0.0450
  -9.500  -0.2657   0.09526   0.09315  -0.0529  0.9478  0.0078  -2.0446   0.0000   0.0000   0.0000   0.0393
  -9.400  -0.2627   0.09425   0.09214  -0.0533  0.9430  0.0080  -2.0141   0.0000   0.0000   0.0000   0.0355
  -9.300  -0.2599   0.09323   0.09111  -0.0537  0.9383  0.0081  -1.9867   0.0000   0.0000   0.0000   0.0316
  -9.200  -0.2572   0.09221   0.09007  -0.0542  0.9337  0.0083  -1.9624   0.0000   0.0000   0.0000   0.0279
  -9.100  -0.2547   0.09118   0.08902  -0.0546  0.9293  0.0084  -1.9409   0.0000   0.0000   0.0000   0.0242
  -8.900  -0.2495   0.08903   0.08685  -0.0556  0.9215  0.0088  -1.9043   0.0000   0.0000   0.0000   0.0160
  -8.800  -0.2472   0.08792   0.08574  -0.0560  0.9187  0.0089  -1.8899   0.0000   0.0000   0.0000   0.0120
  -8.700  -0.2450   0.08681   0.08463  -0.0565  0.9156  0.0091  -1.8776   0.0000   0.0000   0.0000   0.0081
  -8.600  -0.2429   0.08568   0.08350  -0.0570  0.9122  0.0093  -1.8672   0.0000   0.0000   0.0000   0.0042
  -8.500  -0.2409   0.08455   0.08236  -0.0575  0.9087  0.0095  -1.8590   0.0000   0.0000   0.0000   0.0003
  -8.400  -0.2391   0.08342   0.08122  -0.0580  0.9052  0.0097  -1.8527   0.0000   0.0000   0.0000  -0.0034
  -8.300  -0.2374   0.08228   0.08006  -0.0584  0.9017  0.0099  -1.8483   0.0000   0.0000   0.0000  -0.0070
  -8.200  -0.2358   0.08113   0.07890  -0.0589  0.8978  0.0101  -1.8456   0.0000   0.0000   0.0000  -0.0106
  -8.100  -0.2339   0.07996   0.07772  -0.0595  0.8934  0.0103  -1.8442   0.0000   0.0000   0.0000  -0.0150
  -8.000  -0.2321   0.07875   0.07650  -0.0602  0.8909  0.0106  -1.8445   0.0000   0.0000   0.0000  -0.0197
  -7.900  -0.2305   0.07751   0.07527  -0.0608  0.8889  0.0108  -1.8469   0.0000   0.0000   0.0000  -0.0243
  -7.800  -0.2290   0.07626   0.07402  -0.0615  0.8865  0.0111  -1.8511   0.0000   0.0000   0.0000  -0.0287
  -7.700  -0.2277   0.07500   0.07277  -0.0621  0.8838  0.0113  -1.8572   0.0000   0.0000   0.0000  -0.0330
  -7.600  -0.2265   0.07373   0.07151  -0.0628  0.8809  0.0116  -1.8652   0.0000   0.0000   0.0000  -0.0371
  -7.500  -0.2256   0.07246   0.07023  -0.0634  0.8778  0.0118  -1.8749   0.0000   0.0000   0.0000  -0.0410
  -7.400  -0.2250   0.07119   0.06895  -0.0640  0.8746  0.0121  -1.8867   0.0000   0.0000   0.0000  -0.0444
  -7.300  -0.2248   0.06992   0.06768  -0.0647  0.8712  0.0123  -1.9006   0.0000   0.0000   0.0000  -0.0472
  -7.200  -0.2251   0.06868   0.06642  -0.0653  0.8676  0.0125  -1.9170   0.0000   0.0000   0.0000  -0.0494
  -7.100  -0.2245   0.06735   0.06509  -0.0663  0.8636  0.0128  -1.9344   0.0000   0.0000   0.0000  -0.0547
  -7.000  -0.2220   0.06582   0.06354  -0.0680  0.8591  0.0131  -1.9529   0.0000   0.0000   0.0000  -0.0652
  -6.900  -0.2189   0.06416   0.06188  -0.0699  0.8564  0.0135  -1.9735   0.0000   0.0000   0.0000  -0.0782
  -6.800  -0.2152   0.06241   0.06012  -0.0720  0.8549  0.0138  -1.9961   0.0000   0.0000   0.0000  -0.0933
  -6.700  -0.2106   0.06064   0.05835  -0.0741  0.8530  0.0143  -2.0156   0.0000   0.0000   0.0000  -0.1109
  -6.600  -0.2048   0.05897   0.05668  -0.0762  0.8509  0.0148  -2.0255   0.0000   0.0000   0.0000  -0.1311
  -6.500  -0.1964   0.05779   0.05549  -0.0777  0.8488  0.0156  -2.0046   0.0000   0.0000   0.0000  -0.1552
  -6.400  -0.1827   0.05791   0.05560  -0.0784  0.8469  0.0166  -1.9043   0.0000   0.0000   0.0000  -0.1889
  -6.300  -0.1750   0.05632   0.05399  -0.0806  0.8446  0.0167  -1.9036   0.0000   0.0000   0.0000  -0.2206
  -6.200  -0.1679   0.05435   0.05199  -0.0830  0.8423  0.0168  -1.9225   0.0000   0.0000   0.0000  -0.2545
  -6.100  -0.1608   0.05217   0.04978  -0.0854  0.8400  0.0169  -1.9509   0.0000   0.0000   0.0000  -0.2916
  -5.600  -0.1368   0.03480   0.03175  -0.0981  0.8267  0.0177  -2.5002   0.0000   0.0000   0.0000  -0.4801
  -5.500  -0.1365   0.02988   0.02657  -0.1004  0.8233  0.0191  -2.6580   0.0000   0.0000   0.0000  -0.4987
  -5.400  -0.1280   0.02921   0.02587  -0.1009  0.8202  0.0200  -2.5650   0.0000   0.0000   0.0000  -0.5513
  -5.300  -0.1187   0.02886   0.02550  -0.1011  0.8189  0.0209  -2.4577   0.0000   0.0000   0.0000  -0.6162
  -5.200  -0.1090   0.02868   0.02533  -0.1013  0.8182  0.0218  -2.3441   0.0000   0.0000   0.0000  -0.6940
  -5.100  -0.0993   0.02817   0.02478  -0.1016  0.8174  0.0227  -2.2622   0.0000   0.0000   0.0000  -0.7880
  -5.000  -0.0895   0.02738   0.02385  -0.1018  0.8164  0.0236  -2.2041   0.0000   0.0000   0.0000  -0.9042
  -4.900  -0.0794   0.02695   0.02339  -0.1021  0.8153  0.0254  -2.1217   0.0000   0.0000   0.0000  -1.0540
  -4.800  -0.0688   0.02647   0.02285  -0.1022  0.8142  0.0276  -2.0534   0.0000   0.0000   0.0000  -1.2572
  -4.700  -0.0568   0.02658   0.02295  -0.1020  0.8129  0.0303  -1.9694   0.0000   0.0000   0.0000  -1.5714
  -4.600  -0.0407   0.02939   0.02584  -0.1010  0.8117  0.0329  -1.7844   0.0000   0.0000   0.0000  -2.2647
  -4.500  -0.0297   0.02891   0.02527  -0.1011  0.8102  0.0331  -1.7421   0.0000   0.0000   0.0000  -3.1917
  -3.700   0.0499   0.01226   0.00685  -0.1016  0.7968  0.0149  -2.1960   0.0000   0.0000   0.0000   2.3132
  -3.600   0.0607   0.01114   0.00555  -0.1013  0.7948  0.0133  -2.2339   0.0000   0.0000   0.0000   1.9387
  -3.500   0.0717   0.01042   0.00468  -0.1010  0.7927  0.0122  -2.2369   0.0000   0.0000   0.0000   1.6757
  -3.400   0.0828   0.00991   0.00404  -0.1008  0.7905  0.0114  -2.2185   0.0000   0.0000   0.0000   1.4816
  -3.300   0.0940   0.00955   0.00357  -0.1007  0.7880  0.0108  -2.1833   0.0000   0.0000   0.0000   1.3322
  -3.200   0.1054   0.00930   0.00324  -0.1006  0.7855  0.0104  -2.1319   0.0000   0.0000   0.0000   1.2142
  -3.100   0.1169   0.00914   0.00300  -0.1005  0.7827  0.0101  -2.0656   0.0000   0.0000   0.0000   1.1191
  -3.000   0.1283   0.00904   0.00284  -0.1005  0.7799  0.0099  -1.9902   0.0000   0.0000   0.0000   1.0411
  -2.900   0.1398   0.00893   0.00268  -0.1005  0.7785  0.0097  -1.9102   0.0000   0.0000   0.0000   0.9758
  -2.800   0.1513   0.00881   0.00253  -0.1005  0.7779  0.0097  -1.8280   0.0000   0.0000   0.0000   0.9203
  -2.700   0.1628   0.00871   0.00240  -0.1005  0.7772  0.0096  -1.7449   0.0000   0.0000   0.0000   0.8728
  -2.600   0.1744   0.00863   0.00229  -0.1005  0.7764  0.0097  -1.6613   0.0000   0.0000   0.0000   0.8315
  -2.500   0.1859   0.00856   0.00219  -0.1006  0.7755  0.0098  -1.5777   0.0000   0.0000   0.0000   0.7953
  -2.400   0.1974   0.00850   0.00210  -0.1006  0.7745  0.0100  -1.4942   0.0000   0.0000   0.0000   0.7634
  -2.300   0.2089   0.00844   0.00202  -0.1006  0.7734  0.0103  -1.4107   0.0000   0.0000   0.0000   0.7350
  -2.200   0.2204   0.00839   0.00195  -0.1006  0.7722  0.0108  -1.3271   0.0000   0.0000   0.0000   0.7096
  -2.100   0.2318   0.00834   0.00189  -0.1006  0.7709  0.0115  -1.2440   0.0000   0.0000   0.0000   0.6867
  -2.000   0.2433   0.00829   0.00185  -0.1006  0.7696  0.0126  -1.1636   0.0000   0.0000   0.0000   0.6660
  -1.900   0.2547   0.00824   0.00182  -0.1007  0.7681  0.0138  -1.0883   0.0000   0.0000   0.0000   0.6473
  -1.800   0.2661   0.00819   0.00179  -0.1007  0.7666  0.0152  -1.0185   0.0000   0.0000   0.0000   0.6303
  -1.700   0.2775   0.00815   0.00177  -0.1007  0.7650  0.0167  -0.9530   0.0000   0.0000   0.0000   0.6146
  -1.600   0.2886   0.00790   0.00170  -0.1008  0.7633  0.0567  -0.8930   0.0000   0.0000   0.0000   0.6008
  -1.500   0.2997   0.00776   0.00167  -0.1009  0.7614  0.0802  -0.8339   0.0000   0.0000   0.0000   0.5878
  -1.400   0.3109   0.00763   0.00165  -0.1009  0.7595  0.1062  -0.7756   0.0000   0.0000   0.0000   0.5758
  -1.300   0.3220   0.00750   0.00164  -0.1010  0.7574  0.1340  -0.7168   0.0000   0.0000   0.0000   0.5646
  -1.200   0.3319   0.00689   0.00169  -0.1013  0.7554  0.3084  -0.6386   0.0000   0.0000   0.0000   0.5559
  -1.100   0.3431   0.00684   0.00167  -0.1013  0.7533  0.3277  -0.5903   0.0000   0.0000   0.0000   0.5458
  -1.000   0.3541   0.00675   0.00166  -0.1013  0.7511  0.3584  -0.5548   0.0000   0.0000   0.0000   0.5365
  -0.900   0.3653   0.00669   0.00165  -0.1014  0.7489  0.3826  -0.5605   0.0000   0.0000   0.0000   0.5277
  -0.800   0.3763   0.00660   0.00165  -0.1014  0.7463  0.4185  -0.5661   0.0000   0.0000   0.0000   0.5196
  -0.700   0.3874   0.00656   0.00166  -0.1014  0.7433  0.4443  -0.5717   0.0000   0.0000   0.0000   0.5118
  -0.600   0.3984   0.00649   0.00168  -0.1015  0.7398  0.4825  -0.5773   0.0000   0.0000   0.0000   0.5045
  -0.500   0.4094   0.00642   0.00173  -0.1015  0.7360  0.5246  -0.5827   0.0000   0.0000   0.0000   0.4977
  -0.400   0.4203   0.00630   0.00172  -0.1015  0.7353  0.5673  -0.5884   0.0000   0.0000   0.0000   0.4911
  -0.300   0.4312   0.00618   0.00171  -0.1014  0.7342  0.6072  -0.5945   0.0000   0.0000   0.0000   0.4847
  -0.200   0.4419   0.00605   0.00171  -0.1013  0.7329  0.6497  -0.6007   0.0000   0.0000   0.0000   0.4787
  -0.100   0.4524   0.00593   0.00171  -0.1012  0.7313  0.6923  -0.6072   0.0000   0.0000   0.0000   0.4730
   0.000   0.4626   0.00580   0.00172  -0.1009  0.7295  0.7364  -0.6149   0.0000   0.0000   0.0000   0.4674
   0.100   0.4723   0.00567   0.00172  -0.1005  0.7273  0.7859  -0.6239   0.0000   0.0000   0.0000   0.4620
   0.200   0.4807   0.00552   0.00173  -0.0998  0.7249  0.8472  -0.6328   0.0000   0.0000   0.0000   0.4566
   0.300   0.4881   0.00536   0.00173  -0.0987  0.7224  0.9174  -0.6411   0.0000   0.0000   0.0000   0.4511
   0.400   0.5099   0.00525   0.00165  -0.1009  0.7195  0.9985  -0.6576   0.0000   0.0000   0.0000   0.4466
   0.500   0.5213   0.00526   0.00163  -0.1009  0.7165  1.0000  -0.6686   0.0000   0.0000   0.0000   0.4423
   0.600   0.5324   0.00527   0.00161  -0.1009  0.7134  1.0000  -0.6804   0.0000   0.0000   0.0000   0.4381
   0.700   0.5436   0.00529   0.00160  -0.1009  0.7106  1.0000  -0.6923   0.0000   0.0000   0.0000   0.4341
   0.800   0.5547   0.00531   0.00159  -0.1009  0.7076  1.0000  -0.7042   0.0000   0.0000   0.0000   0.4302
   0.900   0.5658   0.00534   0.00159  -0.1008  0.7044  1.0000  -0.7160   0.0000   0.0000   0.0000   0.4265
   1.000   0.5769   0.00538   0.00158  -0.1008  0.7003  1.0000  -0.7279   0.0000   0.0000   0.0000   0.4230
   1.100   0.5880   0.00542   0.00160  -0.1008  0.6958  1.0000  -0.7400   0.0000   0.0000   0.0000   0.4196
   1.200   0.5992   0.00548   0.00162  -0.1009  0.6915  1.0000  -0.7538   0.0000   0.0000   0.0000   0.4164
   1.300   0.6105   0.00548   0.00162  -0.1009  0.6906  1.0000  -0.7678   0.0000   0.0000   0.0000   0.4132
   1.400   0.6219   0.00549   0.00163  -0.1009  0.6895  1.0000  -0.7818   0.0000   0.0000   0.0000   0.4102
   1.500   0.6332   0.00549   0.00164  -0.1010  0.6882  1.0000  -0.7958   0.0000   0.0000   0.0000   0.4073
   1.600   0.6445   0.00550   0.00164  -0.1010  0.6864  1.0000  -0.8099   0.0000   0.0000   0.0000   0.4044
   1.700   0.6557   0.00551   0.00165  -0.1011  0.6842  1.0000  -0.8241   0.0000   0.0000   0.0000   0.4017
   1.800   0.6670   0.00552   0.00165  -0.1011  0.6816  1.0000  -0.8382   0.0000   0.0000   0.0000   0.3990
   1.900   0.6782   0.00553   0.00166  -0.1011  0.6786  1.0000  -0.8524   0.0000   0.0000   0.0000   0.3965
   2.000   0.6894   0.00555   0.00167  -0.1011  0.6756  1.0000  -0.8674   0.0000   0.0000   0.0000   0.3940
   2.100   0.7006   0.00557   0.00168  -0.1011  0.6726  1.0000  -0.8840   0.0000   0.0000   0.0000   0.3916
   2.200   0.7118   0.00560   0.00171  -0.1011  0.6696  1.0000  -0.9005   0.0000   0.0000   0.0000   0.3892
   2.300   0.7229   0.00562   0.00172  -0.1011  0.6664  1.0000  -0.9171   0.0000   0.0000   0.0000   0.3869
   2.400   0.7339   0.00566   0.00173  -0.1011  0.6628  1.0000  -0.9338   0.0000   0.0000   0.0000   0.3847
   2.500   0.7448   0.00570   0.00173  -0.1011  0.6584  1.0000  -0.9504   0.0000   0.0000   0.0000   0.3826
   2.600   0.7556   0.00575   0.00175  -0.1010  0.6530  1.0000  -0.9669   0.0000   0.0000   0.0000   0.3805
   2.700   0.7666   0.00582   0.00177  -0.1010  0.6468  1.0000  -0.9848   0.0000   0.0000   0.0000   0.3784
   2.800   0.7778   0.00583   0.00180  -0.1010  0.6445  1.0000  -1.0047   0.0000   0.0000   0.0000   0.3765
   2.900   0.7890   0.00584   0.00182  -0.1011  0.6424  1.0000  -1.0248   0.0000   0.0000   0.0000   0.3746
   3.000   0.8003   0.00586   0.00184  -0.1011  0.6400  1.0000  -1.0449   0.0000   0.0000   0.0000   0.3727
   3.100   0.8115   0.00588   0.00186  -0.1011  0.6372  1.0000  -1.0651   0.0000   0.0000   0.0000   0.3709
   3.200   0.8226   0.00591   0.00189  -0.1012  0.6336  1.0000  -1.0853   0.0000   0.0000   0.0000   0.3692
   3.300   0.8336   0.00594   0.00191  -0.1012  0.6289  1.0000  -1.1056   0.0000   0.0000   0.0000   0.3675
   3.400   0.8445   0.00598   0.00192  -0.1011  0.6231  1.0000  -1.1257   0.0000   0.0000   0.0000   0.3657
   3.500   0.8551   0.00603   0.00194  -0.1010  0.6162  1.0000  -1.1458   0.0000   0.0000   0.0000   0.3641
   3.600   0.8655   0.00611   0.00197  -0.1009  0.6081  1.0000  -1.1656   0.0000   0.0000   0.0000   0.3624
   3.700   0.8760   0.00619   0.00200  -0.1008  0.5996  1.0000  -1.1856   0.0000   0.0000   0.0000   0.3608
   3.800   0.8872   0.00621   0.00204  -0.1009  0.5968  1.0000  -1.2106   0.0000   0.0000   0.0000   0.3593
   3.900   0.8983   0.00624   0.00208  -0.1009  0.5934  1.0000  -1.2389   0.0000   0.0000   0.0000   0.3578
   4.000   0.9093   0.00628   0.00211  -0.1009  0.5886  1.0000  -1.2695   0.0000   0.0000   0.0000   0.3563
   4.100   0.9202   0.00633   0.00215  -0.1009  0.5823  1.0000  -1.3000   0.0000   0.0000   0.0000   0.3549
   4.200   0.9308   0.00639   0.00219  -0.1008  0.5744  1.0000  -1.3304   0.0000   0.0000   0.0000   0.3535
   4.300   0.9409   0.00649   0.00223  -0.1006  0.5641  1.0000  -1.3602   0.0000   0.0000   0.0000   0.3520
   4.400   0.9507   0.00661   0.00229  -0.1004  0.5511  1.0000  -1.3899   0.0000   0.0000   0.0000   0.3506
   4.500   0.9614   0.00667   0.00234  -0.1004  0.5423  1.0000  -1.4209   0.0000   0.0000   0.0000   0.3493
   4.600   0.9711   0.00681   0.00240  -0.1002  0.5242  1.0000  -1.4508   0.0000   0.0000   0.0000   0.3479
   4.700   0.9798   0.00703   0.00248  -0.0998  0.5013  1.0000  -1.4792   0.0000   0.0000   0.0000   0.3465
   4.800   0.9892   0.00719   0.00257  -0.0996  0.4804  1.0000  -1.5089   0.0000   0.0000   0.0000   0.3452
   4.900   0.9972   0.00748   0.00269  -0.0991  0.4522  1.0000  -1.5376   0.0000   0.0000   0.0000   0.3438
   5.000   1.0055   0.00775   0.00283  -0.0987  0.4253  1.0000  -1.5737   0.0000   0.0000   0.0000   0.3425
   5.100   1.0136   0.00804   0.00298  -0.0983  0.3977  1.0000  -1.6095   0.0000   0.0000   0.0000   0.3412
   5.200   1.0209   0.00841   0.00316  -0.0978  0.3665  1.0000  -1.6439   0.0000   0.0000   0.0000   0.3399
   5.300   1.0296   0.00864   0.00330  -0.0975  0.3445  1.0000  -1.6813   0.0000   0.0000   0.0000   0.3387
   5.400   1.0371   0.00899   0.00349  -0.0970  0.3184  1.0000  -1.7166   0.0000   0.0000   0.0000   0.3374
   5.500   1.0466   0.00915   0.00360  -0.0969  0.3050  1.0000  -1.7560   0.0000   0.0000   0.0000   0.3363
   5.600   1.0549   0.00941   0.00376  -0.0965  0.2876  1.0000  -1.8075   0.0000   0.0000   0.0000   0.3351
   5.700   1.0637   0.00965   0.00391  -0.0962  0.2703  1.0000  -1.8831   0.0000   0.0000   0.0000   0.3340
   5.800   1.0730   0.00981   0.00402  -0.0960  0.2597  1.0000  -1.9625   0.0000   0.0000   0.0000   0.3329
   5.900   1.0883   0.00946   0.00417  -0.0965  0.2962  1.0000  -2.1041   0.0000   0.0000   0.0000   0.3320
   6.000   1.0969   0.00970   0.00433  -0.0962  0.2827  1.0000  -2.1894   0.0000   0.0000   0.0000   0.3309
   6.100   1.1062   0.00987   0.00447  -0.0960  0.2708  1.0000  -2.2765   0.0000   0.0000   0.0000   0.3298
   6.200   1.1158   0.01001   0.00458  -0.0958  0.2630  1.0000  -2.3653   0.0000   0.0000   0.0000   0.3288
   6.300   1.1246   0.01021   0.00473  -0.0956  0.2517  1.0000  -2.4510   0.0000   0.0000   0.0000   0.3278
   6.400   1.1328   0.01048   0.00491  -0.0952  0.2368  1.0000  -2.5343   0.0000   0.0000   0.0000   0.3267
   6.500   1.1419   0.01065   0.00504  -0.0950  0.2259  1.0000  -2.6229   0.0000   0.0000   0.0000   0.3257
   6.600   1.1500   0.01091   0.00521  -0.0946  0.2109  1.0000  -2.7075   0.0000   0.0000   0.0000   0.3247
   6.700   1.1572   0.01124   0.00542  -0.0941  0.1905  1.0000  -2.7889   0.0000   0.0000   0.0000   0.3236
   6.800   1.1653   0.01149   0.00559  -0.0937  0.1769  1.0000  -2.8754   0.0000   0.0000   0.0000   0.3226
   6.900   1.1719   0.01187   0.00582  -0.0932  0.1559  1.0000  -2.9555   0.0000   0.0000   0.0000   0.3216
   7.000   1.1800   0.01211   0.00599  -0.0928  0.1438  1.0000  -3.0433   0.0000   0.0000   0.0000   0.3206
   7.100   1.1862   0.01251   0.00623  -0.0922  0.1243  1.0000  -3.1232   0.0000   0.0000   0.0000   0.3195
   7.200   1.1941   0.01276   0.00643  -0.0918  0.1129  1.0000  -3.2117   0.0000   0.0000   0.0000   0.3186
   7.300   1.2003   0.01315   0.00667  -0.0912  0.0970  1.0000  -3.2929   0.0000   0.0000   0.0000   0.3175
   7.400   1.2083   0.01338   0.00686  -0.0908  0.0875  1.0000  -3.3835   0.0000   0.0000   0.0000   0.3166
   7.500   1.2152   0.01370   0.00710  -0.0902  0.0774  1.0000  -3.4696   0.0000   0.0000   0.0000   0.3156
   7.600   1.2225   0.01398   0.00730  -0.0898  0.0676  1.0000  -3.5586   0.0000   0.0000   0.0000   0.3146
   7.700   1.2311   0.01415   0.00747  -0.0895  0.0642  1.0000  -3.6550   0.0000   0.0000   0.0000   0.3137
   7.800   1.2393   0.01435   0.00766  -0.0891  0.0603  1.0000  -3.7500   0.0000   0.0000   0.0000   0.3128
   7.900   1.2469   0.01459   0.00786  -0.0886  0.0558  1.0000  -3.8433   0.0000   0.0000   0.0000   0.3119
   8.000   1.2543   0.01485   0.00808  -0.0882  0.0510  1.0000  -3.9356   0.0000   0.0000   0.0000   0.3109
   8.100   1.2623   0.01505   0.00826  -0.0877  0.0462  1.0000  -4.0322   0.0000   0.0000   0.0000   0.3100
   8.200   1.2707   0.01521   0.00844  -0.0874  0.0444  1.0000  -4.1320   0.0000   0.0000   0.0000   0.3091
   8.300   1.2788   0.01539   0.00861  -0.0870  0.0425  1.0000  -4.2317   0.0000   0.0000   0.0000   0.3083
   8.400   1.2867   0.01558   0.00880  -0.0866  0.0403  1.0000  -4.3308   0.0000   0.0000   0.0000   0.3074
   8.500   1.2942   0.01580   0.00901  -0.0861  0.0380  1.0000  -4.4285   0.0000   0.0000   0.0000   0.3065
   8.600   1.3014   0.01604   0.00924  -0.0856  0.0356  1.0000  -4.5251   0.0000   0.0000   0.0000   0.3056
   8.700   1.3083   0.01629   0.00947  -0.0851  0.0329  1.0000  -4.6209   0.0000   0.0000   0.0000   0.3047
   8.800   1.3150   0.01651   0.00968  -0.0845  0.0298  1.0000  -4.7163   0.0000   0.0000   0.0000   0.3037
   8.900   1.3220   0.01669   0.00987  -0.0839  0.0280  1.0000  -4.8144   0.0000   0.0000   0.0000   0.3028
   9.000   1.3290   0.01687   0.01007  -0.0833  0.0272  1.0000  -4.9134   0.0000   0.0000   0.0000   0.3019
   9.100   1.3357   0.01707   0.01027  -0.0827  0.0263  1.0000  -5.0118   0.0000   0.0000   0.0000   0.3010
   9.200   1.3438   0.01718   0.01052  -0.0822  0.0282  1.0000  -5.0906   0.0000   0.0000   0.0000   0.3001
   9.300   1.3506   0.01737   0.01073  -0.0816  0.0279  1.0000  -5.1874   0.0000   0.0000   0.0000   0.2992
   9.400   1.3573   0.01756   0.01095  -0.0810  0.0273  1.0000  -5.2858   0.0000   0.0000   0.0000   0.2983
   9.500   1.3638   0.01778   0.01117  -0.0804  0.0264  1.0000  -5.3842   0.0000   0.0000   0.0000   0.2975
   9.600   1.3700   0.01801   0.01142  -0.0798  0.0252  1.0000  -5.4816   0.0000   0.0000   0.0000   0.2966
   9.700   1.3758   0.01826   0.01168  -0.0791  0.0236  1.0000  -5.5778   0.0000   0.0000   0.0000   0.2957
   9.800   1.3811   0.01856   0.01197  -0.0784  0.0217  1.0000  -5.6713   0.0000   0.0000   0.0000   0.2948
   9.900   1.3858   0.01890   0.01229  -0.0776  0.0195  1.0000  -5.7616   0.0000   0.0000   0.0000   0.2939
  10.000   1.3903   0.01926   0.01263  -0.0768  0.0170  1.0000  -5.8501   0.0000   0.0000   0.0000   0.2929
  10.100   1.3957   0.01956   0.01294  -0.0761  0.0147  1.0000  -5.9410   0.0000   0.0000   0.0000   0.2921
  10.200   1.4010   0.01986   0.01326  -0.0754  0.0137  1.0000  -6.0357   0.0000   0.0000   0.0000   0.2912
  10.300   1.4056   0.02023   0.01362  -0.0746  0.0119  1.0000  -6.1216   0.0000   0.0000   0.0000   0.2904
  11.100   1.4245   0.02473   0.01851  -0.0666  0.0054  1.0000  -6.4793   0.0000   0.0000   0.0000   0.2827
  11.200   1.4310   0.02497   0.01875  -0.0662  0.0054  1.0000  -6.6112   0.0000   0.0000   0.0000   0.2821
  11.300   1.4376   0.02522   0.01900  -0.0659  0.0053  1.0000  -6.7443   0.0000   0.0000   0.0000   0.2815
  11.400   1.4441   0.02547   0.01926  -0.0655  0.0053  1.0000  -6.8779   0.0000   0.0000   0.0000   0.2808
  11.500   1.4505   0.02574   0.01953  -0.0652  0.0052  1.0000  -7.0111   0.0000   0.0000   0.0000   0.2802
  11.600   1.4567   0.02601   0.01982  -0.0648  0.0051  1.0000  -7.1435   0.0000   0.0000   0.0000   0.2796
  11.700   1.4628   0.02631   0.02012  -0.0644  0.0051  1.0000  -7.2745   0.0000   0.0000   0.0000   0.2790
  11.800   1.4687   0.02662   0.02044  -0.0640  0.0050  1.0000  -7.4038   0.0000   0.0000   0.0000   0.2783
  11.900   1.4742   0.02696   0.02080  -0.0636  0.0049  1.0000  -7.5297   0.0000   0.0000   0.0000   0.2777
  12.000   1.4791   0.02734   0.02120  -0.0631  0.0048  1.0000  -7.6502   0.0000   0.0000   0.0000   0.2771
  12.100   1.4837   0.02774   0.02163  -0.0626  0.0047  1.0000  -7.7678   0.0000   0.0000   0.0000   0.2764
  12.200   1.4883   0.02816   0.02207  -0.0622  0.0046  1.0000  -7.8845   0.0000   0.0000   0.0000   0.2758
  12.300   1.4926   0.02859   0.02251  -0.0616  0.0045  1.0000  -8.0000   0.0000   0.0000   0.0000   0.2752
  12.400   1.4969   0.02902   0.02297  -0.0611  0.0044  1.0000  -8.1150   0.0000   0.0000   0.0000   0.2745
  12.500   1.5012   0.02946   0.02344  -0.0606  0.0043  1.0000  -8.2298   0.0000   0.0000   0.0000   0.2739
  12.600   1.5053   0.02992   0.02392  -0.0601  0.0042  1.0000  -8.3449   0.0000   0.0000   0.0000   0.2733
  12.700   1.5095   0.03039   0.02441  -0.0597  0.0040  1.0000  -8.4602   0.0000   0.0000   0.0000   0.2726
  12.800   1.5134   0.03088   0.02493  -0.0592  0.0039  1.0000  -8.5745   0.0000   0.0000   0.0000   0.2720
  12.900   1.5166   0.03143   0.02551  -0.0587  0.0038  1.0000  -8.6839   0.0000   0.0000   0.0000   0.2714
  13.000   1.5197   0.03200   0.02612  -0.0582  0.0037  1.0000  -8.7926   0.0000   0.0000   0.0000   0.2708
  13.100   1.5230   0.03258   0.02671  -0.0577  0.0035  1.0000  -8.9042   0.0000   0.0000   0.0000   0.2702
  13.200   1.5264   0.03314   0.02731  -0.0572  0.0034  1.0000  -9.0184   0.0000   0.0000   0.0000   0.2697
  13.300   1.5299   0.03371   0.02790  -0.0568  0.0033  1.0000  -9.1349   0.0000   0.0000   0.0000   0.2691
  13.400   1.5334   0.03429   0.02851  -0.0564  0.0031  1.0000  -9.2523   0.0000   0.0000   0.0000   0.2685
  13.500   1.5367   0.03489   0.02912  -0.0559  0.0030  1.0000  -9.3708   0.0000   0.0000   0.0000   0.2680
  13.600   1.5415   0.03534   0.02959  -0.0557  0.0024  1.0000  -9.6017   0.0000   0.0000   0.0000   0.2675
  13.700   1.5440   0.03603   0.03029  -0.0552  0.0022  1.0000  -9.7371   0.0000   0.0000   0.0000   0.2669
  13.800   1.5451   0.03684   0.03114  -0.0547  0.0021  1.0000  -9.8529   0.0000   0.0000   0.0000   0.2664
  13.900   1.5458   0.03771   0.03203  -0.0543  0.0020  1.0000  -9.9625   0.0000   0.0000   0.0000   0.2659
  14.000   1.5466   0.03858   0.03295  -0.0538  0.0019  1.0000  -10.0724   0.0000   0.0000   0.0000   0.2653
  14.100   1.5473   0.03948   0.03389  -0.0533  0.0018  1.0000  -10.1801   0.0000   0.0000   0.0000   0.2648
  14.200   1.5477   0.04042   0.03488  -0.0528  0.0017  1.0000  -10.2836   0.0000   0.0000   0.0000   0.2643
  14.300   1.5476   0.04141   0.03593  -0.0524  0.0016  1.0000  -10.3812   0.0000   0.0000   0.0000   0.2638
  14.400   1.5468   0.04247   0.03706  -0.0519  0.0015  1.0000  -10.4697   0.0000   0.0000   0.0000   0.2633
  14.500   1.5444   0.04371   0.03836  -0.0515  0.0015  1.0000  -10.5389   0.0000   0.0000   0.0000   0.2629
  14.600   1.5423   0.04495   0.03967  -0.0511  0.0014  1.0000  -10.6099   0.0000   0.0000   0.0000   0.2625
  14.700   1.5405   0.04618   0.04096  -0.0508  0.0014  1.0000  -10.6832   0.0000   0.0000   0.0000   0.2621
  14.800   1.5386   0.04741   0.04226  -0.0504  0.0014  1.0000  -10.7545   0.0000   0.0000   0.0000   0.2617
  14.900   1.5363   0.04866   0.04357  -0.0501  0.0013  1.0000  -10.8201   0.0000   0.0000   0.0000   0.2613
  15.000   1.5332   0.05002   0.04501  -0.0498  0.0013  1.0000  -10.8759   0.0000   0.0000   0.0000   0.2610
  15.100   1.5291   0.05158   0.04663  -0.0496  0.0013  1.0000  -10.9189   0.0000   0.0000   0.0000   0.2607
  15.200   1.5259   0.05307   0.04820  -0.0495  0.0013  1.0000  -10.9708   0.0000   0.0000   0.0000   0.2605
  15.300   1.5231   0.05457   0.04977  -0.0494  0.0012  1.0000  -11.0262   0.0000   0.0000   0.0000   0.2603
  15.400   1.5203   0.05611   0.05137  -0.0494  0.0012  1.0000  -11.0804   0.0000   0.0000   0.0000   0.2601
  15.500   1.5172   0.05772   0.05306  -0.0494  0.0012  1.0000  -11.1298   0.0000   0.0000   0.0000   0.2599
  15.600   1.5124   0.05964   0.05504  -0.0496  0.0012  1.0000  -11.1589   0.0000   0.0000   0.0000   0.2599
  15.700   1.5085   0.06148   0.05695  -0.0498  0.0012  1.0000  -11.1960   0.0000   0.0000   0.0000   0.2599
  15.800   1.5050   0.06327   0.05881  -0.0500  0.0012  1.0000  -11.2377   0.0000   0.0000   0.0000   0.2599
  15.900   1.5015   0.06508   0.06069  -0.0502  0.0012  1.0000  -11.2787   0.0000   0.0000   0.0000   0.2599
  16.000   1.4978   0.06697   0.06265  -0.0505  0.0012  1.0000  -11.3153   0.0000   0.0000   0.0000   0.2600
  16.100   1.4923   0.06923   0.06498  -0.0511  0.0012  1.0000  -11.3292   0.0000   0.0000   0.0000   0.2602
  16.200   1.4877   0.07134   0.06716  -0.0516  0.0012  1.0000  -11.3530   0.0000   0.0000   0.0000   0.2605
  16.300   1.4836   0.07338   0.06926  -0.0521  0.0012  1.0000  -11.3813   0.0000   0.0000   0.0000   0.2606
  16.400   1.4795   0.07545   0.07140  -0.0526  0.0011  1.0000  -11.4090   0.0000   0.0000   0.0000   0.2609
  16.500   1.4744   0.07774   0.07377  -0.0533  0.0011  1.0000  -11.4222   0.0000   0.0000   0.0000   0.2613
  16.600   1.4685   0.08023   0.07632  -0.0542  0.0011  1.0000  -11.4237   0.0000   0.0000   0.0000   0.2618
  16.700   1.4636   0.08250   0.07866  -0.0550  0.0011  1.0000  -11.4374   0.0000   0.0000   0.0000   0.2622
  16.800   1.4591   0.08475   0.08098  -0.0558  0.0011  1.0000  -11.4532   0.0000   0.0000   0.0000   0.2626
  16.900   1.4540   0.08714   0.08343  -0.0567  0.0011  1.0000  -11.4600   0.0000   0.0000   0.0000   0.2632
  17.000   1.4473   0.08988   0.08624  -0.0580  0.0011  1.0000  -11.4446   0.0000   0.0000   0.0000   0.2640
  17.100   1.4419   0.09234   0.08877  -0.0590  0.0011  1.0000  -11.4445   0.0000   0.0000   0.0000   0.2647
  17.200   1.4370   0.09475   0.09124  -0.0601  0.0011  1.0000  -11.4476   0.0000   0.0000   0.0000   0.2653
  17.300   1.4312   0.09736   0.09391  -0.0613  0.0011  1.0000  -11.4374   0.0000   0.0000   0.0000   0.2661
  17.400   1.4244   0.10022   0.09684  -0.0628  0.0011  1.0000  -11.4108   0.0000   0.0000   0.0000   0.2672
  17.500   1.4189   0.10279   0.09947  -0.0641  0.0011  1.0000  -11.4001   0.0000   0.0000   0.0000   0.2680
  17.600   1.4136   0.10532   0.10206  -0.0654  0.0011  1.0000  -11.3905   0.0000   0.0000   0.0000   0.2689
  17.700   1.4067   0.10826   0.10507  -0.0670  0.0011  1.0000  -11.3552   0.0000   0.0000   0.0000   0.2700
  17.800   1.4004   0.11109   0.10796  -0.0686  0.0011  1.0000  -11.3243   0.0000   0.0000   0.0000   0.2712
  17.900   1.3948   0.11369   0.11062  -0.0701  0.0011  1.0000  -11.3036   0.0000   0.0000   0.0000   0.2722
  18.000   1.3891   0.11619   0.11317  -0.0716  0.0012  1.0000  -11.2790   0.0000   0.0000   0.0000   0.2733
  18.100   1.3816   0.11912   0.11617  -0.0735  0.0012  1.0000  -11.2216   0.0000   0.0000   0.0000   0.2747
  18.200   1.3757   0.12170   0.11880  -0.0751  0.0012  1.0000  -11.1859   0.0000   0.0000   0.0000   0.2760
  18.300   1.3702   0.12424   0.12140  -0.0767  0.0012  1.0000  -11.1551   0.0000   0.0000   0.0000   0.2771
  18.400   1.3639   0.12706   0.12428  -0.0785  0.0012  1.0000  -11.1089   0.0000   0.0000   0.0000   0.2785
  18.500   1.3566   0.13025   0.12752  -0.0805  0.0012  1.0000  -11.0416   0.0000   0.0000   0.0000   0.2801
  18.600   1.3509   0.13308   0.13040  -0.0822  0.0012  1.0000  -10.9980   0.0000   0.0000   0.0000   0.2815
  18.700   1.3454   0.13591   0.13329  -0.0840  0.0012  1.0000  -10.9554   0.0000   0.0000   0.0000   0.2828
  18.800   1.3386   0.13918   0.13661  -0.0860  0.0012  1.0000  -10.8861   0.0000   0.0000   0.0000   0.2845
  18.900   1.3316   0.14259   0.14008  -0.0881  0.0012  1.0000  -10.8093   0.0000   0.0000   0.0000   0.2862
  19.000   1.3260   0.14566   0.14319  -0.0900  0.0012  1.0000  -10.7554   0.0000   0.0000   0.0000   0.2877
  19.100   1.3205   0.14876   0.14633  -0.0918  0.0012  1.0000  -10.7003   0.0000   0.0000   0.0000   0.2892
  19.200   1.3140   0.15221   0.14984  -0.0938  0.0012  1.0000  -10.6226   0.0000   0.0000   0.0000   0.2910
  19.300   1.3065   0.15608   0.15376  -0.0961  0.0012  1.0000  -10.5208   0.0000   0.0000   0.0000   0.2930
  19.400   1.3009   0.15944   0.15716  -0.0981  0.0012  1.0000  -10.4517   0.0000   0.0000   0.0000   0.2946
  19.500   1.2954   0.16278   0.16055  -0.1000  0.0012  1.0000  -10.3839   0.0000   0.0000   0.0000   0.2962
  19.600   1.2897   0.16630   0.16411  -0.1019  0.0012  1.0000  -10.3069   0.0000   0.0000   0.0000   0.2980
  19.700   1.2813   0.17076   0.16862  -0.1044  0.0012  1.0000  -10.1690   0.0000   0.0000   0.0000   0.3003
  19.800   1.2753   0.17452   0.17242  -0.1065  0.0012  1.0000  -10.0777   0.0000   0.0000   0.0000   0.3022
  19.900   1.2699   0.17815   0.17610  -0.1084  0.0012  1.0000  -9.9955   0.0000   0.0000   0.0000   0.3039
  20.000   1.2642   0.18193   0.17992  -0.1104  0.0012  1.0000  -9.9038   0.0000   0.0000   0.0000   0.3057
  20.100   1.2564   0.18657   0.18460  -0.1128  0.0013  1.0000  -9.7565   0.0000   0.0000   0.0000   0.3081
  20.200   1.2490   0.19115   0.18923  -0.1151  0.0013  1.0000  -9.6151   0.0000   0.0000   0.0000   0.3104
  20.300   1.2432   0.19522   0.19334  -0.1171  0.0013  1.0000  -9.5065   0.0000   0.0000   0.0000   0.3123
  20.400   1.2373   0.19940   0.19755  -0.1191  0.0013  1.0000  -9.3912   0.0000   0.0000   0.0000   0.3143
  20.500   1.2307   0.20395   0.20215  -0.1212  0.0013  1.0000  -9.2518   0.0000   0.0000   0.0000   0.3165
  20.600   1.2205   0.21001   0.20825  -0.1240  0.0013  1.0000  -9.0130   0.0000   0.0000   0.0000   0.3195
  20.700   1.2138   0.21478   0.21306  -0.1261  0.0013  1.0000  -8.8594   0.0000   0.0000   0.0000   0.3218
  20.800   1.2072   0.21962   0.21794  -0.1282  0.0014  1.0000  -8.7006   0.0000   0.0000   0.0000   0.3240
  20.900   1.1987   0.22530   0.22366  -0.1305  0.0014  1.0000  -8.4843   0.0000   0.0000   0.0000   0.3267
  21.000   1.1850   0.23336   0.23177  -0.1336  0.0014  1.0000  -8.1023   0.0000   0.0000   0.0000   0.3308
  21.100   1.1750   0.23998   0.23843  -0.1360  0.0014  1.0000  -7.8148   0.0000   0.0000   0.0000   0.3339


