xflr5 v6.61

 Calculated polar for: S4062-095-87

 1 1 Reynolds number fixed          Mach number fixed         

 xtrf =   1.000 (top)        1.000 (bottom)
 Mach =   0.000     Re =     0.688 e 6     Ncrit =   9.000

  alpha     CL        CD       CDp       Cm    Top Xtr Bot Xtr   Cpmin    Chinge    XCp    
 ------- -------- --------- --------- -------- ------- ------- -------- --------- ---------
 -10.000  -0.2911   0.10311   0.10103  -0.0456  0.9742  0.0076  -2.0530   0.0000   0.0000   0.0000   0.0821
  -9.900  -0.2842   0.10176   0.09967  -0.0471  0.9710  0.0078  -2.0064   0.0000   0.0000   0.0000   0.0728
  -9.800  -0.2782   0.10047   0.09838  -0.0484  0.9669  0.0079  -1.9665   0.0000   0.0000   0.0000   0.0644
  -9.700  -0.2725   0.09918   0.09708  -0.0497  0.9626  0.0081  -1.9312   0.0000   0.0000   0.0000   0.0560
  -9.600  -0.2671   0.09790   0.09578  -0.0509  0.9580  0.0083  -1.9002   0.0000   0.0000   0.0000   0.0477
  -9.500  -0.2622   0.09663   0.09451  -0.0521  0.9533  0.0085  -1.8734   0.0000   0.0000   0.0000   0.0397
  -9.400  -0.2580   0.09543   0.09328  -0.0530  0.9485  0.0086  -1.8515   0.0000   0.0000   0.0000   0.0330
  -9.300  -0.2555   0.09433   0.09218  -0.0535  0.9438  0.0088  -1.8356   0.0000   0.0000   0.0000   0.0290
  -9.200  -0.2530   0.09322   0.09106  -0.0540  0.9390  0.0090  -1.8216   0.0000   0.0000   0.0000   0.0250
  -9.100  -0.2506   0.09211   0.08994  -0.0545  0.9344  0.0092  -1.8096   0.0000   0.0000   0.0000   0.0211
  -9.000  -0.2484   0.09101   0.08882  -0.0550  0.9300  0.0094  -1.7995   0.0000   0.0000   0.0000   0.0173
  -8.900  -0.2461   0.08988   0.08767  -0.0555  0.9256  0.0096  -1.7907   0.0000   0.0000   0.0000   0.0132
  -8.800  -0.2437   0.08871   0.08649  -0.0561  0.9219  0.0098  -1.7833   0.0000   0.0000   0.0000   0.0086
  -8.700  -0.2416   0.08754   0.08533  -0.0566  0.9191  0.0100  -1.7781   0.0000   0.0000   0.0000   0.0046
  -8.600  -0.2396   0.08637   0.08415  -0.0571  0.9160  0.0102  -1.7745   0.0000   0.0000   0.0000   0.0006
  -8.500  -0.2377   0.08518   0.08297  -0.0576  0.9126  0.0104  -1.7724   0.0000   0.0000   0.0000  -0.0034
  -8.400  -0.2360   0.08400   0.08178  -0.0581  0.9091  0.0107  -1.7721   0.0000   0.0000   0.0000  -0.0073
  -8.300  -0.2343   0.08281   0.08058  -0.0586  0.9056  0.0109  -1.7734   0.0000   0.0000   0.0000  -0.0111
  -8.200  -0.2329   0.08163   0.07938  -0.0591  0.9020  0.0112  -1.7761   0.0000   0.0000   0.0000  -0.0147
  -8.100  -0.2315   0.08044   0.07818  -0.0596  0.8982  0.0114  -1.7805   0.0000   0.0000   0.0000  -0.0183
  -8.000  -0.2298   0.07922   0.07694  -0.0603  0.8938  0.0117  -1.7860   0.0000   0.0000   0.0000  -0.0228
  -7.900  -0.2281   0.07794   0.07567  -0.0610  0.8910  0.0120  -1.7932   0.0000   0.0000   0.0000  -0.0278
  -7.800  -0.2266   0.07666   0.07439  -0.0616  0.8889  0.0123  -1.8022   0.0000   0.0000   0.0000  -0.0324
  -7.700  -0.2253   0.07537   0.07310  -0.0623  0.8865  0.0126  -1.8130   0.0000   0.0000   0.0000  -0.0370
  -7.600  -0.2241   0.07407   0.07181  -0.0630  0.8837  0.0129  -1.8254   0.0000   0.0000   0.0000  -0.0414
  -7.500  -0.2231   0.07276   0.07051  -0.0637  0.8808  0.0132  -1.8396   0.0000   0.0000   0.0000  -0.0458
  -7.400  -0.2222   0.07147   0.06921  -0.0644  0.8777  0.0135  -1.8547   0.0000   0.0000   0.0000  -0.0498
  -7.300  -0.2216   0.07019   0.06793  -0.0651  0.8744  0.0139  -1.8709   0.0000   0.0000   0.0000  -0.0534
  -7.200  -0.2213   0.06895   0.06668  -0.0657  0.8710  0.0142  -1.8884   0.0000   0.0000   0.0000  -0.0566
  -7.100  -0.2204   0.06771   0.06543  -0.0666  0.8675  0.0145  -1.9048   0.0000   0.0000   0.0000  -0.0619
  -7.000  -0.2165   0.06643   0.06413  -0.0680  0.8639  0.0150  -1.9095   0.0000   0.0000   0.0000  -0.0733
  -6.900  -0.2098   0.06551   0.06320  -0.0692  0.8599  0.0157  -1.8874   0.0000   0.0000   0.0000  -0.0893
  -5.700  -0.1510   0.03327   0.03018  -0.0993  0.8320  0.0186  -2.6635   0.0000   0.0000   0.0000  -0.4194
  -5.600  -0.1443   0.03195   0.02879  -0.1000  0.8298  0.0195  -2.6084   0.0000   0.0000   0.0000  -0.4546
  -5.500  -0.1359   0.03142   0.02823  -0.1003  0.8274  0.0203  -2.5109   0.0000   0.0000   0.0000  -0.5004
  -5.400  -0.1268   0.03125   0.02805  -0.1005  0.8248  0.0211  -2.3961   0.0000   0.0000   0.0000  -0.5549
  -5.300  -0.1176   0.03102   0.02779  -0.1007  0.8220  0.0220  -2.2926   0.0000   0.0000   0.0000  -0.6198
  -5.200  -0.1081   0.03049   0.02721  -0.1010  0.8192  0.0230  -2.2143   0.0000   0.0000   0.0000  -0.6985
  -5.100  -0.0986   0.02942   0.02599  -0.1014  0.8186  0.0238  -2.1765   0.0000   0.0000   0.0000  -0.7940
  -5.000  -0.0886   0.02882   0.02534  -0.1017  0.8178  0.0256  -2.1057   0.0000   0.0000   0.0000  -0.9144
  -4.900  -0.0781   0.02819   0.02465  -0.1019  0.8169  0.0277  -2.0474   0.0000   0.0000   0.0000  -1.0735
  -4.800  -0.0660   0.02826   0.02470  -0.1017  0.8159  0.0305  -1.9687   0.0000   0.0000   0.0000  -1.3135
  -4.700  -0.0496   0.03100   0.02751  -0.1006  0.8149  0.0329  -1.7906   0.0000   0.0000   0.0000  -1.8064
  -4.600  -0.0389   0.03041   0.02682  -0.1008  0.8136  0.0331  -1.7537   0.0000   0.0000   0.0000  -2.3779
  -4.500  -0.0290   0.02925   0.02555  -0.1012  0.8123  0.0332  -1.7362   0.0000   0.0000   0.0000  -3.2804
  -4.400  -0.0191   0.02805   0.02425  -0.1014  0.8108  0.0332  -1.7191   0.0000   0.0000   0.0000  -5.1163
  -3.800   0.0390   0.01345   0.00811  -0.1022  0.8012  0.0188  -2.1427   0.0000   0.0000   0.0000   2.9051
  -3.700   0.0503   0.01219   0.00670  -0.1018  0.7994  0.0145  -2.2198   0.0000   0.0000   0.0000   2.2996
  -3.600   0.0612   0.01121   0.00555  -0.1015  0.7975  0.0132  -2.2422   0.0000   0.0000   0.0000   1.9286
  -3.500   0.0722   0.01053   0.00474  -0.1012  0.7956  0.0122  -2.2377   0.0000   0.0000   0.0000   1.6687
  -3.400   0.0833   0.01003   0.00412  -0.1010  0.7936  0.0115  -2.2145   0.0000   0.0000   0.0000   1.4768
  -3.300   0.0945   0.00967   0.00366  -0.1008  0.7914  0.0109  -2.1767   0.0000   0.0000   0.0000   1.3290
  -3.200   0.1058   0.00942   0.00331  -0.1007  0.7892  0.0105  -2.1252   0.0000   0.0000   0.0000   1.2122
  -3.100   0.1172   0.00924   0.00306  -0.1006  0.7869  0.0103  -2.0607   0.0000   0.0000   0.0000   1.1179
  -3.000   0.1286   0.00911   0.00287  -0.1006  0.7843  0.0101  -1.9870   0.0000   0.0000   0.0000   1.0403
  -2.900   0.1400   0.00902   0.00273  -0.1006  0.7815  0.0099  -1.9082   0.0000   0.0000   0.0000   0.9754
  -2.800   0.1515   0.00896   0.00262  -0.1006  0.7788  0.0099  -1.8269   0.0000   0.0000   0.0000   0.9203
  -2.700   0.1630   0.00886   0.00248  -0.1006  0.7782  0.0099  -1.7440   0.0000   0.0000   0.0000   0.8728
  -2.600   0.1745   0.00878   0.00237  -0.1007  0.7775  0.0099  -1.6607   0.0000   0.0000   0.0000   0.8315
  -2.500   0.1860   0.00870   0.00227  -0.1007  0.7768  0.0100  -1.5771   0.0000   0.0000   0.0000   0.7954
  -2.400   0.1975   0.00864   0.00217  -0.1007  0.7759  0.0103  -1.4935   0.0000   0.0000   0.0000   0.7635
  -2.300   0.2090   0.00858   0.00209  -0.1007  0.7750  0.0106  -1.4099   0.0000   0.0000   0.0000   0.7351
  -2.200   0.2205   0.00853   0.00202  -0.1007  0.7739  0.0111  -1.3261   0.0000   0.0000   0.0000   0.7097
  -2.100   0.2320   0.00848   0.00196  -0.1007  0.7727  0.0120  -1.2433   0.0000   0.0000   0.0000   0.6869
  -2.000   0.2435   0.00843   0.00192  -0.1007  0.7715  0.0130  -1.1631   0.0000   0.0000   0.0000   0.6662
  -1.900   0.2549   0.00837   0.00190  -0.1008  0.7701  0.0143  -1.0884   0.0000   0.0000   0.0000   0.6475
  -1.800   0.2663   0.00832   0.00187  -0.1008  0.7687  0.0157  -1.0189   0.0000   0.0000   0.0000   0.6305
  -1.700   0.2775   0.00818   0.00183  -0.1009  0.7671  0.0342  -0.9547   0.0000   0.0000   0.0000   0.6151
  -1.600   0.2886   0.00798   0.00178  -0.1010  0.7655  0.0662  -0.8944   0.0000   0.0000   0.0000   0.6012
  -1.500   0.2998   0.00786   0.00175  -0.1010  0.7637  0.0891  -0.8351   0.0000   0.0000   0.0000   0.5882
  -1.400   0.3110   0.00774   0.00173  -0.1011  0.7619  0.1113  -0.7765   0.0000   0.0000   0.0000   0.5761
  -1.300   0.3221   0.00760   0.00172  -0.1011  0.7599  0.1414  -0.7176   0.0000   0.0000   0.0000   0.5649
  -1.200   0.3320   0.00699   0.00178  -0.1014  0.7579  0.3167  -0.6388   0.0000   0.0000   0.0000   0.5562
  -1.100   0.3432   0.00693   0.00176  -0.1014  0.7559  0.3378  -0.5905   0.0000   0.0000   0.0000   0.5461
  -1.000   0.3542   0.00683   0.00175  -0.1015  0.7539  0.3696  -0.5546   0.0000   0.0000   0.0000   0.5369
  -0.900   0.3654   0.00676   0.00173  -0.1015  0.7519  0.3979  -0.5603   0.0000   0.0000   0.0000   0.5281
  -0.800   0.3764   0.00667   0.00173  -0.1015  0.7498  0.4292  -0.5659   0.0000   0.0000   0.0000   0.5198
  -0.700   0.3874   0.00660   0.00172  -0.1015  0.7472  0.4607  -0.5715   0.0000   0.0000   0.0000   0.5121
  -0.500   0.4092   0.00644   0.00176  -0.1015  0.7409  0.5407  -0.5826   0.0000   0.0000   0.0000   0.4979
  -0.400   0.4200   0.00637   0.00181  -0.1015  0.7369  0.5868  -0.5880   0.0000   0.0000   0.0000   0.4913
  -0.300   0.4307   0.00626   0.00181  -0.1014  0.7354  0.6285  -0.5941   0.0000   0.0000   0.0000   0.4850
  -0.200   0.4414   0.00615   0.00181  -0.1013  0.7343  0.6680  -0.6003   0.0000   0.0000   0.0000   0.4790
   0.000   0.4618   0.00589   0.00181  -0.1008  0.7315  0.7585  -0.6144   0.0000   0.0000   0.0000   0.4675
   0.100   0.4709   0.00573   0.00182  -0.1003  0.7296  0.8127  -0.6231   0.0000   0.0000   0.0000   0.4620
   0.200   0.4783   0.00557   0.00182  -0.0992  0.7274  0.8788  -0.6314   0.0000   0.0000   0.0000   0.4565
   0.300   0.4912   0.00542   0.00178  -0.0993  0.7250  0.9570  -0.6429   0.0000   0.0000   0.0000   0.4511
   0.400   0.5101   0.00537   0.00172  -0.1010  0.7223  1.0000  -0.6576   0.0000   0.0000   0.0000   0.4468
   0.500   0.5213   0.00537   0.00170  -0.1010  0.7194  1.0000  -0.6685   0.0000   0.0000   0.0000   0.4424
   0.600   0.5325   0.00538   0.00169  -0.1010  0.7165  1.0000  -0.6804   0.0000   0.0000   0.0000   0.4382
   0.700   0.5436   0.00540   0.00167  -0.1010  0.7136  1.0000  -0.6922   0.0000   0.0000   0.0000   0.4342
   0.800   0.5548   0.00542   0.00166  -0.1009  0.7109  1.0000  -0.7041   0.0000   0.0000   0.0000   0.4303
   0.900   0.5659   0.00544   0.00165  -0.1009  0.7080  1.0000  -0.7160   0.0000   0.0000   0.0000   0.4266
   1.000   0.5770   0.00547   0.00165  -0.1009  0.7046  1.0000  -0.7279   0.0000   0.0000   0.0000   0.4231
   1.100   0.5880   0.00550   0.00164  -0.1009  0.7006  1.0000  -0.7400   0.0000   0.0000   0.0000   0.4197
   1.200   0.5992   0.00555   0.00166  -0.1009  0.6961  1.0000  -0.7537   0.0000   0.0000   0.0000   0.4164
   1.300   0.6104   0.00561   0.00168  -0.1009  0.6916  1.0000  -0.7676   0.0000   0.0000   0.0000   0.4133
   1.400   0.6217   0.00561   0.00169  -0.1010  0.6908  1.0000  -0.7816   0.0000   0.0000   0.0000   0.4102
   1.500   0.6330   0.00562   0.00170  -0.1010  0.6896  1.0000  -0.7956   0.0000   0.0000   0.0000   0.4073
   1.600   0.6443   0.00563   0.00170  -0.1010  0.6882  1.0000  -0.8097   0.0000   0.0000   0.0000   0.4045
   1.700   0.6556   0.00563   0.00171  -0.1011  0.6863  1.0000  -0.8238   0.0000   0.0000   0.0000   0.4017
   1.800   0.6668   0.00564   0.00172  -0.1011  0.6840  1.0000  -0.8380   0.0000   0.0000   0.0000   0.3991
   1.900   0.6781   0.00565   0.00172  -0.1011  0.6813  1.0000  -0.8522   0.0000   0.0000   0.0000   0.3965
   2.000   0.6893   0.00567   0.00173  -0.1011  0.6784  1.0000  -0.8672   0.0000   0.0000   0.0000   0.3940
   2.100   0.7005   0.00568   0.00174  -0.1011  0.6754  1.0000  -0.8838   0.0000   0.0000   0.0000   0.3916
   2.200   0.7117   0.00570   0.00177  -0.1012  0.6726  1.0000  -0.9003   0.0000   0.0000   0.0000   0.3893
   2.300   0.7228   0.00573   0.00178  -0.1012  0.6696  1.0000  -0.9170   0.0000   0.0000   0.0000   0.3870
   2.400   0.7339   0.00576   0.00179  -0.1012  0.6663  1.0000  -0.9336   0.0000   0.0000   0.0000   0.3848
   2.500   0.7449   0.00579   0.00180  -0.1011  0.6625  1.0000  -0.9503   0.0000   0.0000   0.0000   0.3826
   2.600   0.7557   0.00583   0.00180  -0.1011  0.6579  1.0000  -0.9669   0.0000   0.0000   0.0000   0.3805
   2.700   0.7665   0.00589   0.00182  -0.1010  0.6522  1.0000  -0.9846   0.0000   0.0000   0.0000   0.3785
   2.800   0.7775   0.00596   0.00185  -0.1010  0.6459  1.0000  -1.0043   0.0000   0.0000   0.0000   0.3765
   2.900   0.7887   0.00596   0.00187  -0.1010  0.6442  1.0000  -1.0243   0.0000   0.0000   0.0000   0.3746
   3.000   0.7999   0.00598   0.00189  -0.1011  0.6420  1.0000  -1.0445   0.0000   0.0000   0.0000   0.3727
   3.100   0.8112   0.00599   0.00192  -0.1011  0.6396  1.0000  -1.0647   0.0000   0.0000   0.0000   0.3710
   3.200   0.8223   0.00602   0.00194  -0.1011  0.6366  1.0000  -1.0849   0.0000   0.0000   0.0000   0.3692
   3.300   0.8334   0.00604   0.00197  -0.1011  0.6326  1.0000  -1.1052   0.0000   0.0000   0.0000   0.3675
   3.400   0.8444   0.00608   0.00199  -0.1011  0.6274  1.0000  -1.1254   0.0000   0.0000   0.0000   0.3658
   3.500   0.8552   0.00612   0.00200  -0.1011  0.6212  1.0000  -1.1456   0.0000   0.0000   0.0000   0.3641
   3.600   0.8657   0.00618   0.00202  -0.1010  0.6139  1.0000  -1.1656   0.0000   0.0000   0.0000   0.3624
   3.700   0.8761   0.00626   0.00205  -0.1008  0.6057  1.0000  -1.1855   0.0000   0.0000   0.0000   0.3608
   3.800   0.8868   0.00633   0.00209  -0.1008  0.5987  1.0000  -1.2099   0.0000   0.0000   0.0000   0.3593
   3.900   0.8979   0.00635   0.00213  -0.1008  0.5960  1.0000  -1.2383   0.0000   0.0000   0.0000   0.3578
   4.000   0.9090   0.00638   0.00217  -0.1008  0.5922  1.0000  -1.2689   0.0000   0.0000   0.0000   0.3563
   4.100   0.9199   0.00642   0.00220  -0.1008  0.5868  1.0000  -1.2996   0.0000   0.0000   0.0000   0.3549
   4.200   0.9307   0.00648   0.00224  -0.1008  0.5799  1.0000  -1.3302   0.0000   0.0000   0.0000   0.3535
   4.300   0.9411   0.00655   0.00228  -0.1007  0.5710  1.0000  -1.3604   0.0000   0.0000   0.0000   0.3521
   4.400   0.9509   0.00667   0.00233  -0.1005  0.5592  1.0000  -1.3901   0.0000   0.0000   0.0000   0.3506
   4.500   0.9612   0.00676   0.00238  -0.1003  0.5488  1.0000  -1.4205   0.0000   0.0000   0.0000   0.3493
   4.600   0.9717   0.00684   0.00244  -0.1003  0.5372  1.0000  -1.4514   0.0000   0.0000   0.0000   0.3479
   4.700   0.9807   0.00702   0.00250  -0.0999  0.5167  1.0000  -1.4805   0.0000   0.0000   0.0000   0.3465
   4.800   0.9899   0.00719   0.00259  -0.0996  0.4971  1.0000  -1.5098   0.0000   0.0000   0.0000   0.3452
   4.900   0.9988   0.00740   0.00269  -0.0993  0.4733  1.0000  -1.5400   0.0000   0.0000   0.0000   0.3439
   5.000   1.0071   0.00766   0.00281  -0.0989  0.4471  1.0000  -1.5760   0.0000   0.0000   0.0000   0.3425
   5.100   1.0146   0.00800   0.00297  -0.0984  0.4166  1.0000  -1.6109   0.0000   0.0000   0.0000   0.3412
   5.200   1.0229   0.00826   0.00311  -0.0980  0.3902  1.0000  -1.6474   0.0000   0.0000   0.0000   0.3399
   5.300   1.0302   0.00863   0.00330  -0.0975  0.3595  1.0000  -1.6820   0.0000   0.0000   0.0000   0.3387
   5.400   1.0386   0.00888   0.00345  -0.0972  0.3381  1.0000  -1.7191   0.0000   0.0000   0.0000   0.3375
   5.500   1.0466   0.00918   0.00362  -0.0968  0.3151  1.0000  -1.7555   0.0000   0.0000   0.0000   0.3362
   5.600   1.0558   0.00936   0.00374  -0.0966  0.3015  1.0000  -1.8099   0.0000   0.0000   0.0000   0.3351
   5.700   1.0639   0.00965   0.00392  -0.0962  0.2830  1.0000  -1.8831   0.0000   0.0000   0.0000   0.3339
   5.800   1.0729   0.00985   0.00405  -0.0959  0.2681  1.0000  -1.9608   0.0000   0.0000   0.0000   0.3328
   5.900   1.0881   0.00951   0.00420  -0.0965  0.3026  1.0000  -2.1026   0.0000   0.0000   0.0000   0.3319
   6.000   1.0969   0.00972   0.00436  -0.0962  0.2905  1.0000  -2.1893   0.0000   0.0000   0.0000   0.3309
   6.100   1.1055   0.00996   0.00452  -0.0959  0.2755  1.0000  -2.2731   0.0000   0.0000   0.0000   0.3298
   6.200   1.1151   0.01009   0.00464  -0.0957  0.2675  1.0000  -2.3622   0.0000   0.0000   0.0000   0.3287
   6.300   1.1244   0.01026   0.00477  -0.0955  0.2578  1.0000  -2.4498   0.0000   0.0000   0.0000   0.3277
   6.400   1.1327   0.01051   0.00494  -0.0951  0.2452  1.0000  -2.5338   0.0000   0.0000   0.0000   0.3267
   6.500   1.1411   0.01074   0.00511  -0.0948  0.2303  1.0000  -2.6190   0.0000   0.0000   0.0000   0.3256
   6.600   1.1502   0.01092   0.00524  -0.0945  0.2204  1.0000  -2.7082   0.0000   0.0000   0.0000   0.3246
   6.700   1.1573   0.01125   0.00545  -0.0940  0.2028  1.0000  -2.7895   0.0000   0.0000   0.0000   0.3236
   6.800   1.1654   0.01151   0.00562  -0.0937  0.1867  1.0000  -2.8756   0.0000   0.0000   0.0000   0.3226
   6.900   1.1727   0.01181   0.00581  -0.0932  0.1708  1.0000  -2.9594   0.0000   0.0000   0.0000   0.3215
   7.000   1.1800   0.01213   0.00603  -0.0927  0.1531  1.0000  -3.0432   0.0000   0.0000   0.0000   0.3205
   7.100   1.1873   0.01243   0.00623  -0.0923  0.1390  1.0000  -3.1286   0.0000   0.0000   0.0000   0.3195
   7.200   1.1940   0.01278   0.00646  -0.0917  0.1213  1.0000  -3.2112   0.0000   0.0000   0.0000   0.3185
   7.300   1.2014   0.01307   0.00667  -0.0912  0.1095  1.0000  -3.2983   0.0000   0.0000   0.0000   0.3175
   7.400   1.2077   0.01344   0.00691  -0.0906  0.0935  1.0000  -3.3807   0.0000   0.0000   0.0000   0.3165
   7.500   1.2156   0.01368   0.00710  -0.0902  0.0855  1.0000  -3.4718   0.0000   0.0000   0.0000   0.3155
   7.600   1.2221   0.01402   0.00735  -0.0896  0.0752  1.0000  -3.5567   0.0000   0.0000   0.0000   0.3145
   7.700   1.2298   0.01427   0.00755  -0.0892  0.0667  1.0000  -3.6481   0.0000   0.0000   0.0000   0.3136
   7.800   1.2382   0.01445   0.00772  -0.0889  0.0633  1.0000  -3.7446   0.0000   0.0000   0.0000   0.3127
   7.900   1.2462   0.01466   0.00792  -0.0885  0.0592  1.0000  -3.8393   0.0000   0.0000   0.0000   0.3118
   8.000   1.2536   0.01491   0.00813  -0.0880  0.0547  1.0000  -3.9322   0.0000   0.0000   0.0000   0.3108
   8.100   1.2609   0.01517   0.00835  -0.0875  0.0500  1.0000  -4.0250   0.0000   0.0000   0.0000   0.3099
   8.200   1.2689   0.01536   0.00854  -0.0871  0.0458  1.0000  -4.1224   0.0000   0.0000   0.0000   0.3090
   8.300   1.2771   0.01553   0.00871  -0.0867  0.0442  1.0000  -4.2222   0.0000   0.0000   0.0000   0.3081
   8.400   1.2851   0.01571   0.00890  -0.0863  0.0422  1.0000  -4.3217   0.0000   0.0000   0.0000   0.3073
   8.500   1.2928   0.01591   0.00910  -0.0859  0.0401  1.0000  -4.4206   0.0000   0.0000   0.0000   0.3064
   8.600   1.3002   0.01614   0.00931  -0.0854  0.0378  1.0000  -4.5182   0.0000   0.0000   0.0000   0.3055
   8.700   1.3070   0.01638   0.00954  -0.0848  0.0354  1.0000  -4.6135   0.0000   0.0000   0.0000   0.3046
   8.800   1.3131   0.01663   0.00977  -0.0841  0.0324  1.0000  -4.7057   0.0000   0.0000   0.0000   0.3036
   8.900   1.3195   0.01686   0.00999  -0.0835  0.0293  1.0000  -4.7999   0.0000   0.0000   0.0000   0.3026
   9.000   1.3263   0.01705   0.01020  -0.0829  0.0279  1.0000  -4.8977   0.0000   0.0000   0.0000   0.3017
   9.100   1.3331   0.01724   0.01040  -0.0823  0.0272  1.0000  -4.9962   0.0000   0.0000   0.0000   0.3008
   9.200   1.3410   0.01736   0.01065  -0.0818  0.0296  1.0000  -5.0752   0.0000   0.0000   0.0000   0.2999
   9.300   1.3477   0.01757   0.01088  -0.0812  0.0283  1.0000  -5.1688   0.0000   0.0000   0.0000   0.2990
   9.400   1.3544   0.01776   0.01110  -0.0806  0.0278  1.0000  -5.2671   0.0000   0.0000   0.0000   0.2981
   9.500   1.3609   0.01797   0.01133  -0.0800  0.0272  1.0000  -5.3654   0.0000   0.0000   0.0000   0.2973
   9.600   1.3672   0.01820   0.01157  -0.0794  0.0262  1.0000  -5.4633   0.0000   0.0000   0.0000   0.2964
   9.700   1.3732   0.01844   0.01183  -0.0787  0.0249  1.0000  -5.5604   0.0000   0.0000   0.0000   0.2955
   9.800   1.3789   0.01872   0.01210  -0.0780  0.0231  1.0000  -5.6560   0.0000   0.0000   0.0000   0.2946
   9.900   1.3840   0.01904   0.01241  -0.0773  0.0211  1.0000  -5.7484   0.0000   0.0000   0.0000   0.2937
  10.000   1.3883   0.01941   0.01276  -0.0765  0.0188  1.0000  -5.8360   0.0000   0.0000   0.0000   0.2928
  10.100   1.3929   0.01976   0.01311  -0.0757  0.0160  1.0000  -5.9231   0.0000   0.0000   0.0000   0.2919
  10.200   1.3983   0.02007   0.01343  -0.0750  0.0143  1.0000  -6.0150   0.0000   0.0000   0.0000   0.2911
  10.300   1.4032   0.02042   0.01378  -0.0743  0.0128  1.0000  -6.1039   0.0000   0.0000   0.0000   0.2902
  11.200   1.4206   0.02585   0.01968  -0.0650  0.0054  1.0000  -6.4680   0.0000   0.0000   0.0000   0.2816
  11.300   1.4275   0.02608   0.01991  -0.0647  0.0054  1.0000  -6.6034   0.0000   0.0000   0.0000   0.2810
  11.400   1.4343   0.02632   0.02014  -0.0644  0.0054  1.0000  -6.7401   0.0000   0.0000   0.0000   0.2804
  11.500   1.4410   0.02656   0.02039  -0.0641  0.0053  1.0000  -6.8771   0.0000   0.0000   0.0000   0.2798
  11.600   1.4476   0.02681   0.02065  -0.0638  0.0052  1.0000  -7.0137   0.0000   0.0000   0.0000   0.2792
  11.700   1.4539   0.02709   0.02093  -0.0635  0.0052  1.0000  -7.1486   0.0000   0.0000   0.0000   0.2786
  11.800   1.4597   0.02740   0.02125  -0.0631  0.0051  1.0000  -7.2794   0.0000   0.0000   0.0000   0.2780
  11.900   1.4652   0.02773   0.02160  -0.0627  0.0050  1.0000  -7.4069   0.0000   0.0000   0.0000   0.2774
  12.000   1.4704   0.02809   0.02197  -0.0623  0.0050  1.0000  -7.5324   0.0000   0.0000   0.0000   0.2767
  12.100   1.4755   0.02847   0.02236  -0.0618  0.0049  1.0000  -7.6564   0.0000   0.0000   0.0000   0.2761
  12.200   1.4803   0.02885   0.02277  -0.0614  0.0048  1.0000  -7.7784   0.0000   0.0000   0.0000   0.2755
  12.300   1.4850   0.02925   0.02319  -0.0609  0.0047  1.0000  -7.8983   0.0000   0.0000   0.0000   0.2749
  12.400   1.4895   0.02967   0.02363  -0.0604  0.0046  1.0000  -8.0171   0.0000   0.0000   0.0000   0.2743
  12.500   1.4940   0.03011   0.02409  -0.0600  0.0044  1.0000  -8.1351   0.0000   0.0000   0.0000   0.2736
  12.600   1.4983   0.03056   0.02457  -0.0595  0.0043  1.0000  -8.2522   0.0000   0.0000   0.0000   0.2730
  12.700   1.5024   0.03105   0.02508  -0.0590  0.0042  1.0000  -8.3674   0.0000   0.0000   0.0000   0.2724
  12.800   1.5057   0.03159   0.02565  -0.0585  0.0041  1.0000  -8.4772   0.0000   0.0000   0.0000   0.2718
  12.900   1.5089   0.03215   0.02624  -0.0581  0.0040  1.0000  -8.5860   0.0000   0.0000   0.0000   0.2712
  13.000   1.5123   0.03272   0.02683  -0.0576  0.0038  1.0000  -8.6970   0.0000   0.0000   0.0000   0.2706
  13.100   1.5158   0.03328   0.02742  -0.0571  0.0037  1.0000  -8.8105   0.0000   0.0000   0.0000   0.2701
  13.200   1.5193   0.03385   0.02802  -0.0567  0.0036  1.0000  -8.9257   0.0000   0.0000   0.0000   0.2695
  13.300   1.5229   0.03442   0.02861  -0.0563  0.0035  1.0000  -9.0420   0.0000   0.0000   0.0000   0.2689
  13.400   1.5263   0.03500   0.02923  -0.0559  0.0033  1.0000  -9.1589   0.0000   0.0000   0.0000   0.2684
  13.500   1.5297   0.03560   0.02985  -0.0555  0.0032  1.0000  -9.2764   0.0000   0.0000   0.0000   0.2678
  13.600   1.5353   0.03598   0.03026  -0.0553  0.0027  1.0000  -9.4970   0.0000   0.0000   0.0000   0.2674
  13.700   1.5377   0.03667   0.03096  -0.0548  0.0025  1.0000  -9.6419   0.0000   0.0000   0.0000   0.2668
  13.800   1.5390   0.03748   0.03178  -0.0544  0.0023  1.0000  -9.7623   0.0000   0.0000   0.0000   0.2663
  13.900   1.5403   0.03829   0.03262  -0.0540  0.0022  1.0000  -9.8801   0.0000   0.0000   0.0000   0.2658
  14.000   1.5416   0.03912   0.03348  -0.0535  0.0020  1.0000  -9.9966   0.0000   0.0000   0.0000   0.2653
  14.100   1.5426   0.03998   0.03438  -0.0531  0.0019  1.0000  -10.1098   0.0000   0.0000   0.0000   0.2648
  14.200   1.5434   0.04088   0.03533  -0.0526  0.0018  1.0000  -10.2183   0.0000   0.0000   0.0000   0.2643
  14.300   1.5436   0.04184   0.03634  -0.0522  0.0017  1.0000  -10.3207   0.0000   0.0000   0.0000   0.2638
  14.400   1.5428   0.04291   0.03747  -0.0518  0.0017  1.0000  -10.4102   0.0000   0.0000   0.0000   0.2633
  14.500   1.5407   0.04413   0.03874  -0.0514  0.0016  1.0000  -10.4841   0.0000   0.0000   0.0000   0.2629
  14.600   1.5391   0.04532   0.04000  -0.0510  0.0016  1.0000  -10.5618   0.0000   0.0000   0.0000   0.2625
  14.700   1.5377   0.04651   0.04125  -0.0507  0.0015  1.0000  -10.6401   0.0000   0.0000   0.0000   0.2621
  14.800   1.5360   0.04771   0.04252  -0.0503  0.0015  1.0000  -10.7149   0.0000   0.0000   0.0000   0.2617
  14.900   1.5338   0.04894   0.04382  -0.0500  0.0014  1.0000  -10.7835   0.0000   0.0000   0.0000   0.2613
  15.000   1.5306   0.05033   0.04528  -0.0498  0.0014  1.0000  -10.8392   0.0000   0.0000   0.0000   0.2610
  15.100   1.5268   0.05186   0.04687  -0.0496  0.0014  1.0000  -10.8866   0.0000   0.0000   0.0000   0.2608
  15.200   1.5239   0.05333   0.04841  -0.0495  0.0014  1.0000  -10.9423   0.0000   0.0000   0.0000   0.2605
  15.300   1.5213   0.05481   0.04996  -0.0494  0.0013  1.0000  -11.0007   0.0000   0.0000   0.0000   0.2603
  15.400   1.5187   0.05633   0.05155  -0.0493  0.0013  1.0000  -11.0572   0.0000   0.0000   0.0000   0.2601
  15.500   1.5156   0.05795   0.05324  -0.0494  0.0013  1.0000  -11.1074   0.0000   0.0000   0.0000   0.2599
  15.600   1.5109   0.05985   0.05521  -0.0496  0.0013  1.0000  -11.1383   0.0000   0.0000   0.0000   0.2600
  15.700   1.5071   0.06167   0.05709  -0.0498  0.0013  1.0000  -11.1783   0.0000   0.0000   0.0000   0.2599
  15.800   1.5038   0.06344   0.05893  -0.0500  0.0013  1.0000  -11.2221   0.0000   0.0000   0.0000   0.2599
  15.900   1.5004   0.06524   0.06080  -0.0502  0.0013  1.0000  -11.2647   0.0000   0.0000   0.0000   0.2599
  16.000   1.4967   0.06714   0.06277  -0.0505  0.0013  1.0000  -11.3020   0.0000   0.0000   0.0000   0.2600
  16.100   1.4913   0.06938   0.06508  -0.0511  0.0012  1.0000  -11.3172   0.0000   0.0000   0.0000   0.2603
  16.200   1.4868   0.07147   0.06724  -0.0516  0.0012  1.0000  -11.3427   0.0000   0.0000   0.0000   0.2605
  16.300   1.4828   0.07349   0.06933  -0.0521  0.0012  1.0000  -11.3722   0.0000   0.0000   0.0000   0.2607
  16.400   1.4788   0.07555   0.07146  -0.0526  0.0012  1.0000  -11.4010   0.0000   0.0000   0.0000   0.2609
  16.500   1.4737   0.07786   0.07383  -0.0533  0.0012  1.0000  -11.4143   0.0000   0.0000   0.0000   0.2613
  16.600   1.4678   0.08032   0.07636  -0.0542  0.0012  1.0000  -11.4170   0.0000   0.0000   0.0000   0.2618
  16.700   1.4630   0.08258   0.07869  -0.0550  0.0012  1.0000  -11.4315   0.0000   0.0000   0.0000   0.2622
  16.800   1.4585   0.08482   0.08100  -0.0558  0.0012  1.0000  -11.4479   0.0000   0.0000   0.0000   0.2627
  16.900   1.4534   0.08721   0.08345  -0.0567  0.0012  1.0000  -11.4547   0.0000   0.0000   0.0000   0.2632
  17.000   1.4468   0.08994   0.08625  -0.0580  0.0012  1.0000  -11.4400   0.0000   0.0000   0.0000   0.2640
  17.100   1.4415   0.09239   0.08877  -0.0590  0.0012  1.0000  -11.4402   0.0000   0.0000   0.0000   0.2647
  17.200   1.4365   0.09480   0.09124  -0.0601  0.0012  1.0000  -11.4435   0.0000   0.0000   0.0000   0.2653
  17.300   1.4307   0.09741   0.09392  -0.0613  0.0012  1.0000  -11.4330   0.0000   0.0000   0.0000   0.2661
  17.400   1.4239   0.10026   0.09684  -0.0628  0.0012  1.0000  -11.4068   0.0000   0.0000   0.0000   0.2671
  17.500   1.4184   0.10282   0.09946  -0.0641  0.0012  1.0000  -11.3960   0.0000   0.0000   0.0000   0.2680
  17.600   1.4131   0.10535   0.10205  -0.0653  0.0012  1.0000  -11.3862   0.0000   0.0000   0.0000   0.2688
  17.700   1.4063   0.10829   0.10506  -0.0670  0.0012  1.0000  -11.3505   0.0000   0.0000   0.0000   0.2700
  17.800   1.3999   0.11111   0.10794  -0.0686  0.0012  1.0000  -11.3195   0.0000   0.0000   0.0000   0.2712
  17.900   1.3943   0.11371   0.11060  -0.0700  0.0012  1.0000  -11.2983   0.0000   0.0000   0.0000   0.2722
  18.000   1.3886   0.11620   0.11315  -0.0715  0.0012  1.0000  -11.2730   0.0000   0.0000   0.0000   0.2733
  18.100   1.3811   0.11914   0.11615  -0.0734  0.0012  1.0000  -11.2153   0.0000   0.0000   0.0000   0.2747
  18.200   1.3751   0.12172   0.11878  -0.0750  0.0012  1.0000  -11.1790   0.0000   0.0000   0.0000   0.2759
  18.300   1.3696   0.12427   0.12139  -0.0766  0.0012  1.0000  -11.1475   0.0000   0.0000   0.0000   0.2771
  18.400   1.3633   0.12711   0.12429  -0.0784  0.0012  1.0000  -11.1002   0.0000   0.0000   0.0000   0.2785
  18.500   1.3560   0.13029   0.12753  -0.0804  0.0012  1.0000  -11.0324   0.0000   0.0000   0.0000   0.2801
  18.600   1.3503   0.13313   0.13042  -0.0822  0.0012  1.0000  -10.9878   0.0000   0.0000   0.0000   0.2815
  18.700   1.3447   0.13598   0.13332  -0.0839  0.0012  1.0000  -10.9440   0.0000   0.0000   0.0000   0.2828
  18.800   1.3378   0.13926   0.13666  -0.0860  0.0013  1.0000  -10.8732   0.0000   0.0000   0.0000   0.2845
  18.900   1.3308   0.14267   0.14012  -0.0881  0.0013  1.0000  -10.7956   0.0000   0.0000   0.0000   0.2862
  19.000   1.3252   0.14576   0.14326  -0.0899  0.0013  1.0000  -10.7402   0.0000   0.0000   0.0000   0.2877
  19.100   1.3196   0.14887   0.14641  -0.0918  0.0013  1.0000  -10.6833   0.0000   0.0000   0.0000   0.2892
  19.200   1.3130   0.15236   0.14996  -0.0938  0.0013  1.0000  -10.6025   0.0000   0.0000   0.0000   0.2910
  19.300   1.3055   0.15623   0.15388  -0.0961  0.0013  1.0000  -10.5002   0.0000   0.0000   0.0000   0.2930
  19.400   1.2998   0.15960   0.15730  -0.0981  0.0013  1.0000  -10.4290   0.0000   0.0000   0.0000   0.2947
  19.500   1.2942   0.16298   0.16072  -0.1000  0.0013  1.0000  -10.3585   0.0000   0.0000   0.0000   0.2963
  19.600   1.2883   0.16653   0.16432  -0.1020  0.0013  1.0000  -10.2780   0.0000   0.0000   0.0000   0.2981
  19.700   1.2799   0.17103   0.16887  -0.1045  0.0013  1.0000  -10.1368   0.0000   0.0000   0.0000   0.3005
  19.800   1.2738   0.17481   0.17269  -0.1065  0.0013  1.0000  -10.0430   0.0000   0.0000   0.0000   0.3023
  19.900   1.2683   0.17850   0.17642  -0.1085  0.0013  1.0000  -9.9565   0.0000   0.0000   0.0000   0.3041
  20.000   1.2624   0.18235   0.18032  -0.1105  0.0013  1.0000  -9.8589   0.0000   0.0000   0.0000   0.3060
  20.100   1.2540   0.18719   0.18520  -0.1130  0.0013  1.0000  -9.6975   0.0000   0.0000   0.0000   0.3085
  20.200   1.2468   0.19171   0.18977  -0.1152  0.0014  1.0000  -9.5581   0.0000   0.0000   0.0000   0.3107
  20.300   1.2408   0.19587   0.19397  -0.1173  0.0014  1.0000  -9.4424   0.0000   0.0000   0.0000   0.3127
  20.400   1.2345   0.20020   0.19834  -0.1194  0.0014  1.0000  -9.3155   0.0000   0.0000   0.0000   0.3148
  20.500   1.2264   0.20533   0.20352  -0.1217  0.0014  1.0000  -9.1362   0.0000   0.0000   0.0000   0.3173
  20.600   1.2167   0.21123   0.20947  -0.1244  0.0014  1.0000  -8.9049   0.0000   0.0000   0.0000   0.3203
  20.700   1.2095   0.21620   0.21447  -0.1266  0.0014  1.0000  -8.7355   0.0000   0.0000   0.0000   0.3226
  20.800   1.2017   0.22154   0.21986  -0.1288  0.0014  1.0000  -8.5399   0.0000   0.0000   0.0000   0.3252
  20.900   1.1867   0.23004   0.22842  -0.1321  0.0015  1.0000  -8.1234   0.0000   0.0000   0.0000   0.3295
  21.000   1.1745   0.23756   0.23599  -0.1349  0.0015  1.0000  -7.7679   0.0000   0.0000   0.0000   0.3332


