xflr5 v6.61

 Calculated polar for: S4062-095-87

 1 1 Reynolds number fixed          Mach number fixed         

 xtrf =   1.000 (top)        1.000 (bottom)
 Mach =   0.000     Re =     0.500 e 6     Ncrit =   9.000

  alpha     CL        CD       CDp       Cm    Top Xtr Bot Xtr   Cpmin    Chinge    XCp    
 ------- -------- --------- --------- -------- ------- ------- -------- --------- ---------
 -10.000  -0.2942   0.10956   0.10719  -0.0395  1.0000  0.0144  -1.5326   0.0000   0.0000   0.0000   0.1052
  -9.800  -0.2846   0.10683   0.10447  -0.0426  0.9910  0.0154  -1.5578   0.0000   0.0000   0.0000   0.0896
  -9.700  -0.2768   0.10561   0.10326  -0.0448  0.9869  0.0159  -1.5567   0.0000   0.0000   0.0000   0.0774
  -9.600  -0.2683   0.10457   0.10220  -0.0467  0.9832  0.0164  -1.5386   0.0000   0.0000   0.0000   0.0649
  -9.500  -0.2608   0.10328   0.10092  -0.0486  0.9799  0.0166  -1.5289   0.0000   0.0000   0.0000   0.0524
  -9.400  -0.2539   0.10183   0.09946  -0.0505  0.9768  0.0167  -1.5255   0.0000   0.0000   0.0000   0.0395
  -9.300  -0.2471   0.10029   0.09791  -0.0524  0.9739  0.0168  -1.5255   0.0000   0.0000   0.0000   0.0261
  -9.200  -0.2405   0.09871   0.09632  -0.0544  0.9709  0.0168  -1.5276   0.0000   0.0000   0.0000   0.0122
  -9.100  -0.2354   0.09724   0.09485  -0.0558  0.9667  0.0168  -1.5319   0.0000   0.0000   0.0000   0.0009
  -9.000  -0.2305   0.09576   0.09337  -0.0572  0.9624  0.0169  -1.5372   0.0000   0.0000   0.0000  -0.0105
  -8.900  -0.2258   0.09429   0.09189  -0.0586  0.9580  0.0169  -1.5433   0.0000   0.0000   0.0000  -0.0218
  -8.800  -0.2213   0.09282   0.09040  -0.0599  0.9535  0.0169  -1.5502   0.0000   0.0000   0.0000  -0.0331
  -8.700  -0.2173   0.09140   0.08897  -0.0610  0.9492  0.0169  -1.5579   0.0000   0.0000   0.0000  -0.0433
  -8.600  -0.2154   0.09016   0.08773  -0.0616  0.9447  0.0170  -1.5667   0.0000   0.0000   0.0000  -0.0482
  -8.500  -0.2133   0.08890   0.08646  -0.0622  0.9402  0.0170  -1.5759   0.0000   0.0000   0.0000  -0.0537
  -8.400  -0.2113   0.08764   0.08519  -0.0627  0.9357  0.0170  -1.5857   0.0000   0.0000   0.0000  -0.0592
  -8.300  -0.2095   0.08638   0.08392  -0.0633  0.9314  0.0170  -1.5960   0.0000   0.0000   0.0000  -0.0643
  -8.100  -0.2148   0.08167   0.07921  -0.0653  0.9224  0.0173  -1.7631   0.0000   0.0000   0.0000  -0.0659
  -8.000  -0.2248   0.07795   0.07550  -0.0667  0.9187  0.0179  -1.9264   0.0000   0.0000   0.0000  -0.0579
  -7.900  -0.2268   0.07614   0.07370  -0.0673  0.9151  0.0183  -1.9578   0.0000   0.0000   0.0000  -0.0576
  -7.800  -0.2269   0.07480   0.07236  -0.0677  0.9115  0.0187  -1.9574   0.0000   0.0000   0.0000  -0.0589
  -7.700  -0.2263   0.07366   0.07122  -0.0680  0.9080  0.0190  -1.9447   0.0000   0.0000   0.0000  -0.0611
  -7.600  -0.2250   0.07266   0.07021  -0.0682  0.9045  0.0193  -1.9220   0.0000   0.0000   0.0000  -0.0636
  -7.500  -0.2224   0.07191   0.06945  -0.0681  0.9014  0.0197  -1.8761   0.0000   0.0000   0.0000  -0.0667
  -7.400  -0.2201   0.07112   0.06865  -0.0682  0.8980  0.0200  -1.8388   0.0000   0.0000   0.0000  -0.0700
  -7.300  -0.2180   0.07028   0.06780  -0.0684  0.8941  0.0204  -1.8090   0.0000   0.0000   0.0000  -0.0738
  -7.200  -0.2160   0.06941   0.06692  -0.0688  0.8911  0.0208  -1.7834   0.0000   0.0000   0.0000  -0.0783
  -7.100  -0.2140   0.06845   0.06598  -0.0694  0.8891  0.0212  -1.7627   0.0000   0.0000   0.0000  -0.0839
  -7.000  -0.2108   0.06734   0.06487  -0.0703  0.8867  0.0216  -1.7435   0.0000   0.0000   0.0000  -0.0932
  -6.900  -0.2075   0.06615   0.06368  -0.0715  0.8841  0.0220  -1.7293   0.0000   0.0000   0.0000  -0.1040
  -6.800  -0.2041   0.06487   0.06240  -0.0728  0.8814  0.0225  -1.7196   0.0000   0.0000   0.0000  -0.1163
  -6.700  -0.2004   0.06351   0.06103  -0.0743  0.8785  0.0230  -1.7139   0.0000   0.0000   0.0000  -0.1303
  -6.600  -0.1964   0.06206   0.05957  -0.0760  0.8756  0.0236  -1.7119   0.0000   0.0000   0.0000  -0.1461
  -6.500  -0.1922   0.06052   0.05802  -0.0778  0.8727  0.0242  -1.7135   0.0000   0.0000   0.0000  -0.1640
  -6.400  -0.1875   0.05889   0.05637  -0.0797  0.8697  0.0248  -1.7187   0.0000   0.0000   0.0000  -0.1842
  -6.300  -0.1824   0.05717   0.05462  -0.0817  0.8667  0.0255  -1.7276   0.0000   0.0000   0.0000  -0.2073
  -6.200  -0.1768   0.05536   0.05277  -0.0839  0.8634  0.0263  -1.7402   0.0000   0.0000   0.0000  -0.2341
  -6.100  -0.1703   0.05346   0.05082  -0.0863  0.8597  0.0272  -1.7569   0.0000   0.0000   0.0000  -0.2661
  -6.000  -0.1627   0.05144   0.04876  -0.0888  0.8567  0.0282  -1.7784   0.0000   0.0000   0.0000  -0.3053
  -5.900  -0.1539   0.04936   0.04663  -0.0912  0.8553  0.0295  -1.8038   0.0000   0.0000   0.0000  -0.3534
  -5.800  -0.1395   0.04870   0.04583  -0.0925  0.8539  0.0317  -1.7797   0.0000   0.0000   0.0000  -0.4247
  -5.700  -0.1249   0.04847   0.04554  -0.0937  0.8525  0.0328  -1.7410   0.0000   0.0000   0.0000  -0.5121
  -5.600  -0.1162   0.04695   0.04394  -0.0951  0.8507  0.0330  -1.7495   0.0000   0.0000   0.0000  -0.5821
  -5.500  -0.1083   0.04530   0.04221  -0.0964  0.8488  0.0331  -1.7609   0.0000   0.0000   0.0000  -0.6539
  -5.400  -0.1007   0.04363   0.04045  -0.0975  0.8468  0.0331  -1.7708   0.0000   0.0000   0.0000  -0.7329
  -5.300  -0.0930   0.04200   0.03873  -0.0984  0.8448  0.0332  -1.7775   0.0000   0.0000   0.0000  -0.8246
  -5.200  -0.0851   0.04040   0.03704  -0.0993  0.8429  0.0332  -1.7816   0.0000   0.0000   0.0000  -0.9339
  -5.100  -0.0916   0.03132   0.02757  -0.1035  0.8402  0.0360  -2.0710   0.0000   0.0000   0.0000  -0.8969
  -5.000  -0.0834   0.03001   0.02620  -0.1039  0.8384  0.0368  -2.0351   0.0000   0.0000   0.0000  -1.0144
  -4.900  -0.0745   0.02894   0.02507  -0.1042  0.8367  0.0376  -1.9941   0.0000   0.0000   0.0000  -1.1691
  -4.800  -0.0652   0.02798   0.02404  -0.1044  0.8349  0.0383  -1.9517   0.0000   0.0000   0.0000  -1.3740
  -4.000   0.0206   0.01611   0.01053  -0.1037  0.8188  0.0181  -2.2185   0.0000   0.0000   0.0000   5.3497
  -3.900   0.0317   0.01493   0.00924  -0.1034  0.8180  0.0156  -2.2513   0.0000   0.0000   0.0000   3.5594
  -3.800   0.0425   0.01374   0.00787  -0.1033  0.8171  0.0146  -2.2716   0.0000   0.0000   0.0000   2.7109
  -3.700   0.0535   0.01291   0.00691  -0.1031  0.8160  0.0139  -2.2641   0.0000   0.0000   0.0000   2.2008
  -3.600   0.0645   0.01225   0.00615  -0.1029  0.8148  0.0133  -2.2424   0.0000   0.0000   0.0000   1.8639
  -3.500   0.0756   0.01172   0.00553  -0.1027  0.8134  0.0128  -2.2101   0.0000   0.0000   0.0000   1.6250
  -3.400   0.0867   0.01129   0.00501  -0.1026  0.8118  0.0124  -2.1683   0.0000   0.0000   0.0000   1.4469
  -3.300   0.0978   0.01093   0.00458  -0.1024  0.8102  0.0121  -2.1194   0.0000   0.0000   0.0000   1.3086
  -3.200   0.1091   0.01064   0.00422  -0.1023  0.8084  0.0119  -2.0639   0.0000   0.0000   0.0000   1.1984
  -3.100   0.1203   0.01040   0.00391  -0.1022  0.8067  0.0118  -2.0029   0.0000   0.0000   0.0000   1.1084
  -3.000   0.1317   0.01020   0.00366  -0.1022  0.8049  0.0117  -1.9371   0.0000   0.0000   0.0000   1.0336
  -2.900   0.1430   0.01005   0.00345  -0.1021  0.8032  0.0117  -1.8674   0.0000   0.0000   0.0000   0.9706
  -2.800   0.1544   0.00992   0.00327  -0.1020  0.8016  0.0117  -1.7939   0.0000   0.0000   0.0000   0.9169
  -2.700   0.1658   0.00982   0.00312  -0.1020  0.7999  0.0119  -1.7170   0.0000   0.0000   0.0000   0.8706
  -2.600   0.1771   0.00973   0.00299  -0.1019  0.7983  0.0121  -1.6380   0.0000   0.0000   0.0000   0.8303
  -2.500   0.1885   0.00965   0.00287  -0.1019  0.7967  0.0124  -1.5573   0.0000   0.0000   0.0000   0.7950
  -2.400   0.1998   0.00959   0.00277  -0.1018  0.7951  0.0128  -1.4755   0.0000   0.0000   0.0000   0.7637
  -2.300   0.2111   0.00953   0.00268  -0.1018  0.7934  0.0134  -1.3931   0.0000   0.0000   0.0000   0.7357
  -2.200   0.2224   0.00947   0.00261  -0.1018  0.7916  0.0142  -1.3114   0.0000   0.0000   0.0000   0.7107
  -2.100   0.2337   0.00943   0.00255  -0.1017  0.7898  0.0153  -1.2322   0.0000   0.0000   0.0000   0.6882
  -2.000   0.2450   0.00940   0.00251  -0.1017  0.7878  0.0165  -1.1577   0.0000   0.0000   0.0000   0.6678
  -1.900   0.2559   0.00919   0.00245  -0.1018  0.7856  0.0460  -1.0904   0.0000   0.0000   0.0000   0.6499
  -1.800   0.2670   0.00906   0.00244  -0.1019  0.7831  0.0743  -1.0261   0.0000   0.0000   0.0000   0.6335
  -1.700   0.2781   0.00901   0.00248  -0.1020  0.7802  0.0962  -0.9639   0.0000   0.0000   0.0000   0.6184
  -1.600   0.2893   0.00895   0.00249  -0.1020  0.7784  0.1155  -0.9030   0.0000   0.0000   0.0000   0.6043
  -1.500   0.3004   0.00881   0.00249  -0.1021  0.7776  0.1409  -0.8434   0.0000   0.0000   0.0000   0.5913
  -1.400   0.3116   0.00869   0.00247  -0.1022  0.7767  0.1664  -0.7844   0.0000   0.0000   0.0000   0.5791
  -1.300   0.3227   0.00857   0.00247  -0.1023  0.7756  0.1971  -0.7244   0.0000   0.0000   0.0000   0.5679
  -1.200   0.3322   0.00793   0.00257  -0.1025  0.7743  0.3879  -0.6417   0.0000   0.0000   0.0000   0.5594
  -1.100   0.3432   0.00780   0.00256  -0.1025  0.7728  0.4229  -0.5938   0.0000   0.0000   0.0000   0.5494
  -1.000   0.3542   0.00770   0.00254  -0.1025  0.7712  0.4536  -0.5521   0.0000   0.0000   0.0000   0.5400
  -0.900   0.3651   0.00760   0.00253  -0.1025  0.7695  0.4876  -0.5577   0.0000   0.0000   0.0000   0.5311
  -0.800   0.3759   0.00746   0.00253  -0.1025  0.7678  0.5317  -0.5632   0.0000   0.0000   0.0000   0.5228
  -0.700   0.3864   0.00732   0.00254  -0.1024  0.7661  0.5807  -0.5686   0.0000   0.0000   0.0000   0.5150
  -0.600   0.3968   0.00718   0.00255  -0.1022  0.7644  0.6317  -0.5739   0.0000   0.0000   0.0000   0.5076
  -0.500   0.4069   0.00704   0.00256  -0.1020  0.7626  0.6822  -0.5791   0.0000   0.0000   0.0000   0.5004
  -0.400   0.4166   0.00691   0.00256  -0.1016  0.7608  0.7309  -0.5847   0.0000   0.0000   0.0000   0.4936
  -0.300   0.4258   0.00677   0.00256  -0.1011  0.7588  0.7820  -0.5902   0.0000   0.0000   0.0000   0.4869
  -0.200   0.4341   0.00662   0.00256  -0.1002  0.7569  0.8376  -0.5954   0.0000   0.0000   0.0000   0.4804
  -0.100   0.4419   0.00647   0.00254  -0.0992  0.7548  0.9033  -0.6012   0.0000   0.0000   0.0000   0.4738
   0.000   0.4653   0.00634   0.00243  -0.1016  0.7526  0.9954  -0.6154   0.0000   0.0000   0.0000   0.4676
   0.100   0.4769   0.00634   0.00239  -0.1017  0.7499  1.0000  -0.6259   0.0000   0.0000   0.0000   0.4623
   0.200   0.4880   0.00636   0.00236  -0.1016  0.7468  1.0000  -0.6361   0.0000   0.0000   0.0000   0.4573
   0.300   0.4990   0.00639   0.00235  -0.1016  0.7433  1.0000  -0.6464   0.0000   0.0000   0.0000   0.4525
   0.400   0.5101   0.00645   0.00237  -0.1016  0.7390  1.0000  -0.6566   0.0000   0.0000   0.0000   0.4479
   0.500   0.5213   0.00651   0.00240  -0.1016  0.7356  1.0000  -0.6674   0.0000   0.0000   0.0000   0.4436
   0.600   0.5324   0.00649   0.00237  -0.1015  0.7342  1.0000  -0.6792   0.0000   0.0000   0.0000   0.4394
   0.700   0.5436   0.00648   0.00234  -0.1015  0.7325  1.0000  -0.6911   0.0000   0.0000   0.0000   0.4353
   0.800   0.5547   0.00647   0.00232  -0.1015  0.7305  1.0000  -0.7030   0.0000   0.0000   0.0000   0.4314
   0.900   0.5659   0.00646   0.00230  -0.1015  0.7282  1.0000  -0.7149   0.0000   0.0000   0.0000   0.4277
   1.000   0.5770   0.00646   0.00229  -0.1015  0.7258  1.0000  -0.7269   0.0000   0.0000   0.0000   0.4241
   1.100   0.5882   0.00647   0.00228  -0.1015  0.7234  1.0000  -0.7389   0.0000   0.0000   0.0000   0.4207
   1.200   0.5994   0.00647   0.00228  -0.1015  0.7210  1.0000  -0.7527   0.0000   0.0000   0.0000   0.4174
   1.300   0.6105   0.00648   0.00227  -0.1015  0.7185  1.0000  -0.7666   0.0000   0.0000   0.0000   0.4142
   1.400   0.6216   0.00649   0.00226  -0.1014  0.7157  1.0000  -0.7805   0.0000   0.0000   0.0000   0.4111
   1.500   0.6327   0.00650   0.00225  -0.1014  0.7127  1.0000  -0.7944   0.0000   0.0000   0.0000   0.4081
   1.600   0.6438   0.00651   0.00223  -0.1014  0.7097  1.0000  -0.8084   0.0000   0.0000   0.0000   0.4051
   1.700   0.6549   0.00653   0.00222  -0.1013  0.7067  1.0000  -0.8224   0.0000   0.0000   0.0000   0.4023
   1.800   0.6660   0.00656   0.00222  -0.1013  0.7037  1.0000  -0.8364   0.0000   0.0000   0.0000   0.3996
   1.900   0.6770   0.00659   0.00223  -0.1013  0.7002  1.0000  -0.8504   0.0000   0.0000   0.0000   0.3970
   2.000   0.6881   0.00665   0.00225  -0.1013  0.6958  1.0000  -0.8651   0.0000   0.0000   0.0000   0.3945
   2.100   0.6992   0.00672   0.00229  -0.1013  0.6914  1.0000  -0.8816   0.0000   0.0000   0.0000   0.3921
   2.200   0.7103   0.00671   0.00233  -0.1013  0.6900  1.0000  -0.8981   0.0000   0.0000   0.0000   0.3897
   2.300   0.7214   0.00671   0.00233  -0.1013  0.6881  1.0000  -0.9147   0.0000   0.0000   0.0000   0.3874
   2.400   0.7326   0.00672   0.00234  -0.1013  0.6860  1.0000  -0.9314   0.0000   0.0000   0.0000   0.3852
   2.500   0.7437   0.00673   0.00236  -0.1013  0.6837  1.0000  -0.9481   0.0000   0.0000   0.0000   0.3831
   2.600   0.7548   0.00675   0.00238  -0.1013  0.6813  1.0000  -0.9649   0.0000   0.0000   0.0000   0.3810
   2.700   0.7660   0.00677   0.00240  -0.1013  0.6786  1.0000  -0.9825   0.0000   0.0000   0.0000   0.3790
   2.800   0.7770   0.00678   0.00241  -0.1013  0.6754  1.0000  -1.0023   0.0000   0.0000   0.0000   0.3770
   2.900   0.7881   0.00680   0.00241  -0.1013  0.6717  1.0000  -1.0222   0.0000   0.0000   0.0000   0.3750
   3.000   0.7990   0.00682   0.00242  -0.1012  0.6675  1.0000  -1.0421   0.0000   0.0000   0.0000   0.3731
   3.100   0.8099   0.00685   0.00241  -0.1011  0.6629  1.0000  -1.0620   0.0000   0.0000   0.0000   0.3712
   3.200   0.8206   0.00688   0.00242  -0.1010  0.6579  1.0000  -1.0818   0.0000   0.0000   0.0000   0.3694
   3.300   0.8313   0.00694   0.00243  -0.1010  0.6525  1.0000  -1.1017   0.0000   0.0000   0.0000   0.3676
   3.400   0.8422   0.00701   0.00247  -0.1009  0.6471  1.0000  -1.1218   0.0000   0.0000   0.0000   0.3659
   3.500   0.8533   0.00703   0.00251  -0.1009  0.6444  1.0000  -1.1422   0.0000   0.0000   0.0000   0.3642
   3.600   0.8643   0.00705   0.00254  -0.1009  0.6419  1.0000  -1.1626   0.0000   0.0000   0.0000   0.3626
   3.700   0.8753   0.00706   0.00257  -0.1009  0.6383  1.0000  -1.1831   0.0000   0.0000   0.0000   0.3610
   3.800   0.8862   0.00709   0.00260  -0.1009  0.6334  1.0000  -1.2075   0.0000   0.0000   0.0000   0.3595
   3.900   0.8970   0.00711   0.00262  -0.1008  0.6276  1.0000  -1.2358   0.0000   0.0000   0.0000   0.3579
   4.000   0.9077   0.00716   0.00263  -0.1007  0.6212  1.0000  -1.2659   0.0000   0.0000   0.0000   0.3564
   4.100   0.9182   0.00721   0.00266  -0.1006  0.6147  1.0000  -1.2960   0.0000   0.0000   0.0000   0.3549
   4.200   0.9286   0.00728   0.00269  -0.1005  0.6079  1.0000  -1.3261   0.0000   0.0000   0.0000   0.3534
   4.300   0.9389   0.00736   0.00273  -0.1004  0.6002  1.0000  -1.3561   0.0000   0.0000   0.0000   0.3520
   4.400   0.9499   0.00740   0.00278  -0.1003  0.5963  1.0000  -1.3872   0.0000   0.0000   0.0000   0.3506
   4.500   0.9608   0.00743   0.00283  -0.1003  0.5915  1.0000  -1.4185   0.0000   0.0000   0.0000   0.3493
   4.600   0.9715   0.00748   0.00288  -0.1003  0.5846  1.0000  -1.4497   0.0000   0.0000   0.0000   0.3480
   4.700   0.9818   0.00755   0.00292  -0.1001  0.5749  1.0000  -1.4806   0.0000   0.0000   0.0000   0.3467
   4.800   0.9915   0.00765   0.00296  -0.0999  0.5629  1.0000  -1.5108   0.0000   0.0000   0.0000   0.3453
   4.900   1.0010   0.00778   0.00302  -0.0996  0.5502  1.0000  -1.5408   0.0000   0.0000   0.0000   0.3440
   5.000   1.0115   0.00785   0.00308  -0.0995  0.5404  1.0000  -1.5794   0.0000   0.0000   0.0000   0.3427
   5.100   1.0212   0.00796   0.00314  -0.0993  0.5254  1.0000  -1.6186   0.0000   0.0000   0.0000   0.3415
   5.200   1.0296   0.00817   0.00323  -0.0989  0.5065  1.0000  -1.6556   0.0000   0.0000   0.0000   0.3401
   5.300   1.0392   0.00831   0.00332  -0.0986  0.4898  1.0000  -1.6949   0.0000   0.0000   0.0000   0.3389
   5.400   1.0467   0.00859   0.00345  -0.0981  0.4628  1.0000  -1.7307   0.0000   0.0000   0.0000   0.3376
   5.500   1.0549   0.00884   0.00358  -0.0976  0.4378  1.0000  -1.7678   0.0000   0.0000   0.0000   0.3363
   5.600   1.0615   0.00920   0.00377  -0.0970  0.4078  1.0000  -1.8222   0.0000   0.0000   0.0000   0.3350
   5.700   1.0697   0.00945   0.00391  -0.0966  0.3855  1.0000  -1.8964   0.0000   0.0000   0.0000   0.3338
   5.800   1.0767   0.00981   0.00412  -0.0960  0.3602  1.0000  -1.9663   0.0000   0.0000   0.0000   0.3326
   5.900   1.0872   0.00989   0.00448  -0.0959  0.3587  1.0000  -2.0940   0.0000   0.0000   0.0000   0.3315
   6.000   1.0959   0.01010   0.00464  -0.0956  0.3432  1.0000  -2.1815   0.0000   0.0000   0.0000   0.3304
   6.100   1.1034   0.01041   0.00484  -0.0951  0.3246  1.0000  -2.2615   0.0000   0.0000   0.0000   0.3293
   6.200   1.1122   0.01061   0.00500  -0.0948  0.3112  1.0000  -2.3469   0.0000   0.0000   0.0000   0.3282
   6.300   1.1212   0.01079   0.00515  -0.0946  0.3002  1.0000  -2.4335   0.0000   0.0000   0.0000   0.3272
   6.400   1.1293   0.01104   0.00532  -0.0942  0.2872  1.0000  -2.5170   0.0000   0.0000   0.0000   0.3261
   6.500   1.1373   0.01130   0.00552  -0.0938  0.2724  1.0000  -2.6002   0.0000   0.0000   0.0000   0.3250
   6.600   1.1466   0.01145   0.00566  -0.0936  0.2648  1.0000  -2.6902   0.0000   0.0000   0.0000   0.3240
   6.700   1.1552   0.01166   0.00582  -0.0932  0.2544  1.0000  -2.7775   0.0000   0.0000   0.0000   0.3230
   6.800   1.1628   0.01193   0.00601  -0.0928  0.2417  1.0000  -2.8616   0.0000   0.0000   0.0000   0.3220
   6.900   1.1711   0.01216   0.00620  -0.0924  0.2295  1.0000  -2.9489   0.0000   0.0000   0.0000   0.3210
   7.000   1.1801   0.01232   0.00635  -0.0922  0.2220  1.0000  -3.0409   0.0000   0.0000   0.0000   0.3200
   7.100   1.1878   0.01258   0.00654  -0.0917  0.2103  1.0000  -3.1279   0.0000   0.0000   0.0000   0.3190
   7.200   1.1945   0.01292   0.00677  -0.0912  0.1943  1.0000  -3.2108   0.0000   0.0000   0.0000   0.3180
   7.300   1.2030   0.01311   0.00694  -0.0909  0.1847  1.0000  -3.3030   0.0000   0.0000   0.0000   0.3171
   7.400   1.2100   0.01342   0.00715  -0.0903  0.1717  1.0000  -3.3891   0.0000   0.0000   0.0000   0.3161
   7.500   1.2163   0.01377   0.00739  -0.0897  0.1552  1.0000  -3.4724   0.0000   0.0000   0.0000   0.3151
   7.600   1.2242   0.01400   0.00758  -0.0893  0.1457  1.0000  -3.5643   0.0000   0.0000   0.0000   0.3141
   7.700   1.2299   0.01439   0.00783  -0.0887  0.1313  1.0000  -3.6465   0.0000   0.0000   0.0000   0.3131
   7.800   1.2369   0.01467   0.00805  -0.0881  0.1187  1.0000  -3.7354   0.0000   0.0000   0.0000   0.3121
   7.900   1.2432   0.01500   0.00830  -0.0875  0.1072  1.0000  -3.8219   0.0000   0.0000   0.0000   0.3112
   8.000   1.2486   0.01540   0.00858  -0.0868  0.0932  1.0000  -3.9038   0.0000   0.0000   0.0000   0.3102
   8.100   1.2557   0.01566   0.00880  -0.0863  0.0856  1.0000  -3.9960   0.0000   0.0000   0.0000   0.3092
   8.200   1.2612   0.01603   0.00908  -0.0856  0.0758  1.0000  -4.0802   0.0000   0.0000   0.0000   0.3082
   8.300   1.2673   0.01636   0.00935  -0.0849  0.0667  1.0000  -4.1675   0.0000   0.0000   0.0000   0.3072
   8.400   1.2743   0.01660   0.00958  -0.0844  0.0621  1.0000  -4.2610   0.0000   0.0000   0.0000   0.3063
   8.500   1.2806   0.01687   0.00981  -0.0838  0.0575  1.0000  -4.3515   0.0000   0.0000   0.0000   0.3054
   8.600   1.2864   0.01714   0.01005  -0.0830  0.0537  1.0000  -4.4401   0.0000   0.0000   0.0000   0.3044
   8.700   1.2921   0.01742   0.01031  -0.0823  0.0497  1.0000  -4.5280   0.0000   0.0000   0.0000   0.3034
   8.800   1.2984   0.01765   0.01055  -0.0816  0.0460  1.0000  -4.6193   0.0000   0.0000   0.0000   0.3024
   8.900   1.3051   0.01786   0.01078  -0.0810  0.0447  1.0000  -4.7144   0.0000   0.0000   0.0000   0.3015
   9.000   1.3115   0.01809   0.01102  -0.0804  0.0429  1.0000  -4.8087   0.0000   0.0000   0.0000   0.3005
   9.100   1.3175   0.01834   0.01127  -0.0797  0.0407  1.0000  -4.9014   0.0000   0.0000   0.0000   0.2996
   9.200   1.3230   0.01863   0.01154  -0.0790  0.0382  1.0000  -4.9923   0.0000   0.0000   0.0000   0.2987
   9.300   1.3311   0.01875   0.01184  -0.0786  0.0408  1.0000  -5.0686   0.0000   0.0000   0.0000   0.2978
   9.400   1.3371   0.01901   0.01212  -0.0779  0.0393  1.0000  -5.1579   0.0000   0.0000   0.0000   0.2969
   9.500   1.3426   0.01931   0.01241  -0.0772  0.0373  1.0000  -5.2478   0.0000   0.0000   0.0000   0.2960
   9.600   1.3478   0.01963   0.01272  -0.0765  0.0351  1.0000  -5.3366   0.0000   0.0000   0.0000   0.2951
   9.700   1.3528   0.01997   0.01305  -0.0758  0.0325  1.0000  -5.4244   0.0000   0.0000   0.0000   0.2942
   9.800   1.3578   0.02030   0.01340  -0.0750  0.0299  1.0000  -5.5115   0.0000   0.0000   0.0000   0.2933
   9.900   1.3633   0.02062   0.01373  -0.0744  0.0281  1.0000  -5.6014   0.0000   0.0000   0.0000   0.2924
  10.000   1.3696   0.02087   0.01402  -0.0738  0.0274  1.0000  -5.7004   0.0000   0.0000   0.0000   0.2916
  10.100   1.3755   0.02115   0.01433  -0.0733  0.0263  1.0000  -5.7970   0.0000   0.0000   0.0000   0.2908
  10.200   1.3809   0.02148   0.01467  -0.0726  0.0246  1.0000  -5.8894   0.0000   0.0000   0.0000   0.2900
  10.300   1.3853   0.02187   0.01506  -0.0719  0.0222  1.0000  -5.9752   0.0000   0.0000   0.0000   0.2892
  10.400   1.3884   0.02237   0.01551  -0.0711  0.0190  1.0000  -6.0492   0.0000   0.0000   0.0000   0.2883
  10.500   1.3798   0.02384   0.01691  -0.0687  0.0091  1.0000  -5.8744   0.0000   0.0000   0.0000   0.2867
  10.600   1.3822   0.02445   0.01757  -0.0677  0.0085  1.0000  -5.9075   0.0000   0.0000   0.0000   0.2858
  10.700   1.3845   0.02504   0.01824  -0.0668  0.0081  1.0000  -5.9495   0.0000   0.0000   0.0000   0.2849
  10.800   1.3867   0.02566   0.01891  -0.0659  0.0078  1.0000  -5.9953   0.0000   0.0000   0.0000   0.2840
  10.900   1.3890   0.02628   0.01960  -0.0650  0.0075  1.0000  -6.0432   0.0000   0.0000   0.0000   0.2831
  11.000   1.3910   0.02693   0.02032  -0.0641  0.0073  1.0000  -6.0915   0.0000   0.0000   0.0000   0.2822
  11.100   1.3927   0.02761   0.02106  -0.0632  0.0071  1.0000  -6.1390   0.0000   0.0000   0.0000   0.2814
  11.200   1.3939   0.02834   0.02186  -0.0623  0.0069  1.0000  -6.1844   0.0000   0.0000   0.0000   0.2805
  11.300   1.3944   0.02912   0.02271  -0.0614  0.0068  1.0000  -6.2259   0.0000   0.0000   0.0000   0.2797
  11.400   1.3946   0.02992   0.02358  -0.0605  0.0066  1.0000  -6.2650   0.0000   0.0000   0.0000   0.2788
  11.500   1.3945   0.03076   0.02449  -0.0595  0.0065  1.0000  -6.3019   0.0000   0.0000   0.0000   0.2780
  11.600   1.3941   0.03164   0.02545  -0.0586  0.0063  1.0000  -6.3365   0.0000   0.0000   0.0000   0.2772
  11.700   1.3935   0.03259   0.02647  -0.0577  0.0062  1.0000  -6.3678   0.0000   0.0000   0.0000   0.2763
  11.800   1.3920   0.03362   0.02758  -0.0567  0.0061  1.0000  -6.3933   0.0000   0.0000   0.0000   0.2756
  11.900   1.3901   0.03473   0.02877  -0.0558  0.0060  1.0000  -6.4146   0.0000   0.0000   0.0000   0.2748
  12.000   1.3880   0.03589   0.03002  -0.0549  0.0058  1.0000  -6.4325   0.0000   0.0000   0.0000   0.2740
  12.100   1.3856   0.03712   0.03134  -0.0540  0.0057  1.0000  -6.4453   0.0000   0.0000   0.0000   0.2733
  12.200   1.3828   0.03844   0.03275  -0.0531  0.0056  1.0000  -6.4521   0.0000   0.0000   0.0000   0.2725
  12.300   1.3890   0.03874   0.03304  -0.0530  0.0056  1.0000  -6.5878   0.0000   0.0000   0.0000   0.2721
  12.400   1.3957   0.03899   0.03330  -0.0529  0.0055  1.0000  -6.7337   0.0000   0.0000   0.0000   0.2716
  12.500   1.4019   0.03929   0.03360  -0.0528  0.0055  1.0000  -6.8776   0.0000   0.0000   0.0000   0.2712
  12.600   1.4080   0.03960   0.03392  -0.0527  0.0054  1.0000  -7.0215   0.0000   0.0000   0.0000   0.2708
  12.700   1.4141   0.03993   0.03425  -0.0525  0.0054  1.0000  -7.1665   0.0000   0.0000   0.0000   0.2703
  12.800   1.4201   0.04026   0.03458  -0.0524  0.0053  1.0000  -7.3125   0.0000   0.0000   0.0000   0.2699
  12.900   1.4261   0.04061   0.03494  -0.0523  0.0053  1.0000  -7.4583   0.0000   0.0000   0.0000   0.2695
  13.000   1.4318   0.04098   0.03532  -0.0522  0.0052  1.0000  -7.6028   0.0000   0.0000   0.0000   0.2690
  13.100   1.4373   0.04139   0.03573  -0.0520  0.0051  1.0000  -7.7446   0.0000   0.0000   0.0000   0.2686
  13.200   1.4425   0.04183   0.03619  -0.0518  0.0050  1.0000  -7.8830   0.0000   0.0000   0.0000   0.2681
  13.300   1.4473   0.04231   0.03669  -0.0516  0.0049  1.0000  -8.0171   0.0000   0.0000   0.0000   0.2677
  13.400   1.4517   0.04284   0.03724  -0.0514  0.0048  1.0000  -8.1467   0.0000   0.0000   0.0000   0.2672
  13.500   1.4557   0.04342   0.03784  -0.0512  0.0047  1.0000  -8.2713   0.0000   0.0000   0.0000   0.2668
  13.600   1.4587   0.04409   0.03854  -0.0510  0.0046  1.0000  -8.3868   0.0000   0.0000   0.0000   0.2664
  13.700   1.4608   0.04487   0.03935  -0.0507  0.0045  1.0000  -8.4914   0.0000   0.0000   0.0000   0.2660
  13.800   1.4626   0.04568   0.04019  -0.0505  0.0044  1.0000  -8.5936   0.0000   0.0000   0.0000   0.2656
  13.900   1.4646   0.04648   0.04103  -0.0503  0.0043  1.0000  -8.6973   0.0000   0.0000   0.0000   0.2652
  14.000   1.4665   0.04729   0.04188  -0.0501  0.0042  1.0000  -8.8013   0.0000   0.0000   0.0000   0.2648
  14.100   1.4683   0.04812   0.04274  -0.0498  0.0041  1.0000  -8.9030   0.0000   0.0000   0.0000   0.2644
  14.200   1.4696   0.04897   0.04362  -0.0496  0.0040  1.0000  -9.0015   0.0000   0.0000   0.0000   0.2640
  14.300   1.4707   0.04986   0.04455  -0.0494  0.0038  1.0000  -9.0980   0.0000   0.0000   0.0000   0.2636
  14.400   1.4797   0.04990   0.04463  -0.0495  0.0032  1.0000  -9.4172   0.0000   0.0000   0.0000   0.2632
  14.500   1.4797   0.05095   0.04573  -0.0493  0.0031  1.0000  -9.5163   0.0000   0.0000   0.0000   0.2629
  14.600   1.4784   0.05218   0.04701  -0.0492  0.0029  1.0000  -9.5989   0.0000   0.0000   0.0000   0.2626
  14.700   1.4775   0.05341   0.04828  -0.0491  0.0028  1.0000  -9.6847   0.0000   0.0000   0.0000   0.2624
  14.800   1.4769   0.05463   0.04956  -0.0490  0.0027  1.0000  -9.7722   0.0000   0.0000   0.0000   0.2621
  14.900   1.4762   0.05589   0.05087  -0.0489  0.0027  1.0000  -9.8583   0.0000   0.0000   0.0000   0.2619
  15.000   1.4754   0.05720   0.05223  -0.0489  0.0026  1.0000  -9.9416   0.0000   0.0000   0.0000   0.2617
  15.100   1.4741   0.05860   0.05368  -0.0489  0.0025  1.0000  -10.0186   0.0000   0.0000   0.0000   0.2615
  15.200   1.4712   0.06024   0.05539  -0.0491  0.0025  1.0000  -10.0747   0.0000   0.0000   0.0000   0.2614
  15.300   1.4686   0.06189   0.05709  -0.0493  0.0024  1.0000  -10.1333   0.0000   0.0000   0.0000   0.2614
  15.400   1.4666   0.06349   0.05875  -0.0494  0.0024  1.0000  -10.1972   0.0000   0.0000   0.0000   0.2613
  15.500   1.4645   0.06510   0.06042  -0.0496  0.0023  1.0000  -10.2599   0.0000   0.0000   0.0000   0.2613
  15.600   1.4622   0.06676   0.06215  -0.0498  0.0023  1.0000  -10.3184   0.0000   0.0000   0.0000   0.2613
  15.700   1.4590   0.06860   0.06405  -0.0502  0.0022  1.0000  -10.3643   0.0000   0.0000   0.0000   0.2614
  15.800   1.4547   0.07067   0.06619  -0.0507  0.0022  1.0000  -10.3947   0.0000   0.0000   0.0000   0.2616
  15.900   1.4512   0.07262   0.06820  -0.0512  0.0022  1.0000  -10.4329   0.0000   0.0000   0.0000   0.2618
  16.000   1.4479   0.07454   0.07019  -0.0516  0.0022  1.0000  -10.4725   0.0000   0.0000   0.0000   0.2620
  16.100   1.4445   0.07650   0.07221  -0.0521  0.0021  1.0000  -10.5093   0.0000   0.0000   0.0000   0.2622
  16.200   1.4401   0.07866   0.07445  -0.0528  0.0021  1.0000  -10.5323   0.0000   0.0000   0.0000   0.2625
  16.300   1.4348   0.08103   0.07689  -0.0537  0.0021  1.0000  -10.5408   0.0000   0.0000   0.0000   0.2630
  16.400   1.4304   0.08323   0.07916  -0.0544  0.0021  1.0000  -10.5592   0.0000   0.0000   0.0000   0.2634
  16.500   1.4262   0.08540   0.08140  -0.0552  0.0021  1.0000  -10.5784   0.0000   0.0000   0.0000   0.2639
  16.600   1.4218   0.08764   0.08371  -0.0560  0.0020  1.0000  -10.5930   0.0000   0.0000   0.0000   0.2643
  16.700   1.4156   0.09028   0.08642  -0.0572  0.0020  1.0000  -10.5810   0.0000   0.0000   0.0000   0.2651
  16.800   1.4102   0.09275   0.08895  -0.0583  0.0020  1.0000  -10.5780   0.0000   0.0000   0.0000   0.2658
  16.900   1.4052   0.09513   0.09140  -0.0593  0.0020  1.0000  -10.5788   0.0000   0.0000   0.0000   0.2665
  17.000   1.4001   0.09756   0.09390  -0.0604  0.0020  1.0000  -10.5754   0.0000   0.0000   0.0000   0.2672
  17.100   1.3933   0.10042   0.09684  -0.0619  0.0020  1.0000  -10.5444   0.0000   0.0000   0.0000   0.2683
  17.200   1.3875   0.10305   0.09954  -0.0632  0.0020  1.0000  -10.5247   0.0000   0.0000   0.0000   0.2692
  17.300   1.3820   0.10560   0.10215  -0.0645  0.0020  1.0000  -10.5079   0.0000   0.0000   0.0000   0.2701
  17.400   1.3759   0.10832   0.10494  -0.0660  0.0020  1.0000  -10.4798   0.0000   0.0000   0.0000   0.2712
  17.500   1.3688   0.11132   0.10802  -0.0677  0.0020  1.0000  -10.4316   0.0000   0.0000   0.0000   0.2725
  17.600   1.3627   0.11392   0.11068  -0.0692  0.0020  1.0000  -10.3969   0.0000   0.0000   0.0000   0.2736
  17.700   1.3567   0.11642   0.11325  -0.0707  0.0020  1.0000  -10.3622   0.0000   0.0000   0.0000   0.2747
  17.800   1.3494   0.11934   0.11624  -0.0726  0.0020  1.0000  -10.3010   0.0000   0.0000   0.0000   0.2762
  17.900   1.3425   0.12222   0.11919  -0.0744  0.0020  1.0000  -10.2434   0.0000   0.0000   0.0000   0.2776
  18.000   1.3363   0.12499   0.12203  -0.0761  0.0020  1.0000  -10.1932   0.0000   0.0000   0.0000   0.2790
  18.100   1.3299   0.12792   0.12502  -0.0779  0.0020  1.0000  -10.1359   0.0000   0.0000   0.0000   0.2804
  18.200   1.3218   0.13140   0.12857  -0.0801  0.0020  1.0000  -10.0452   0.0000   0.0000   0.0000   0.2823
  18.300   1.3150   0.13457   0.13180  -0.0820  0.0020  1.0000  -9.9736   0.0000   0.0000   0.0000   0.2839
  18.400   1.3084   0.13776   0.13505  -0.0840  0.0020  1.0000  -9.9025   0.0000   0.0000   0.0000   0.2855
  18.500   1.3004   0.14146   0.13882  -0.0863  0.0020  1.0000  -9.7995   0.0000   0.0000   0.0000   0.2876
  18.600   1.2925   0.14521   0.14263  -0.0885  0.0021  1.0000  -9.6942   0.0000   0.0000   0.0000   0.2896
  18.700   1.2855   0.14877   0.14626  -0.0906  0.0021  1.0000  -9.6015   0.0000   0.0000   0.0000   0.2914
  18.800   1.2782   0.15250   0.15005  -0.0928  0.0021  1.0000  -9.4980   0.0000   0.0000   0.0000   0.2934
  18.900   1.2686   0.15707   0.15468  -0.0955  0.0021  1.0000  -9.3424   0.0000   0.0000   0.0000   0.2960
  19.000   1.2608   0.16119   0.15886  -0.0979  0.0021  1.0000  -9.2160   0.0000   0.0000   0.0000   0.2982
  19.100   1.2528   0.16539   0.16312  -0.1002  0.0021  1.0000  -9.0834   0.0000   0.0000   0.0000   0.3005
  19.200   1.2425   0.17058   0.16838  -0.1031  0.0022  1.0000  -8.8886   0.0000   0.0000   0.0000   0.3034
  19.300   1.2330   0.17557   0.17342  -0.1057  0.0022  1.0000  -8.7066   0.0000   0.0000   0.0000   0.3061
  19.400   1.2239   0.18058   0.17850  -0.1083  0.0022  1.0000  -8.5221   0.0000   0.0000   0.0000   0.3088
  19.500   1.2107   0.18720   0.18518  -0.1117  0.0023  1.0000  -8.2306   0.0000   0.0000   0.0000   0.3126
  19.600   1.1989   0.19353   0.19157  -0.1147  0.0023  1.0000  -7.9556   0.0000   0.0000   0.0000   0.3161
  19.700   1.1815   0.20228   0.20040  -0.1187  0.0025  1.0000  -7.5012   0.0000   0.0000   0.0000   0.3211
  19.900   1.0848   0.25097   0.24910  -0.1348  0.0035  1.0000  -4.4016   0.0000   0.0000   0.0000   0.3477
  20.000   1.0790   0.25681   0.25494  -0.1364  0.0034  1.0000  -4.1751   0.0000   0.0000   0.0000   0.3499
  20.100   1.0737   0.26248   0.26059  -0.1379  0.0034  1.0000  -3.9592   0.0000   0.0000   0.0000   0.3519
  20.200   1.0690   0.26785   0.26596  -0.1392  0.0033  1.0000  -3.7612   0.0000   0.0000   0.0000   0.3537
  20.300   1.0649   0.27288   0.27097  -0.1403  0.0033  1.0000  -3.5849   0.0000   0.0000   0.0000   0.3553
  20.400   1.0612   0.27756   0.27565  -0.1414  0.0033  1.0000  -3.4295   0.0000   0.0000   0.0000   0.3568
  20.500   1.0578   0.28194   0.28003  -0.1423  0.0033  1.0000  -3.2921   0.0000   0.0000   0.0000   0.3581
  20.600   1.0547   0.28606   0.28415  -0.1432  0.0033  1.0000  -3.1696   0.0000   0.0000   0.0000   0.3593
  20.700   1.0516   0.28996   0.28804  -0.1440  0.0034  1.0000  -3.0595   0.0000   0.0000   0.0000   0.3604
  20.800   1.0485   0.29365   0.29174  -0.1447  0.0034  1.0000  -2.9593   0.0000   0.0000   0.0000   0.3614
  20.900   1.0453   0.29716   0.29524  -0.1454  0.0035  1.0000  -2.8673   0.0000   0.0000   0.0000   0.3624
  21.000   1.0418   0.30047   0.29856  -0.1460  0.0036  1.0000  -2.7820   0.0000   0.0000   0.0000   0.3634
  21.100   1.0380   0.30359   0.30168  -0.1465  0.0037  1.0000  -2.7020   0.0000   0.0000   0.0000   0.3643
  21.200   1.0336   0.30649   0.30458  -0.1468  0.0037  1.0000  -2.6257   0.0000   0.0000   0.0000   0.3652
  21.300   1.0282   0.30909   0.30720  -0.1471  0.0038  1.0000  -2.5515   0.0000   0.0000   0.0000   0.3662
  21.600   0.9546   0.30124   0.29946  -0.1410  0.0042  1.0000  -2.1900   0.0000   0.0000   0.0000   0.3715
  21.700   0.9470   0.30149   0.29972  -0.1408  0.0043  1.0000  -2.1241   0.0000   0.0000   0.0000   0.3725
  21.800   0.9402   0.30187   0.30011  -0.1407  0.0044  1.0000  -2.0613   0.0000   0.0000   0.0000   0.3734
  21.900   0.9338   0.30232   0.30058  -0.1406  0.0046  1.0000  -1.9981   0.0000   0.0000   0.0000   0.3743
  22.000   0.9273   0.30284   0.30110  -0.1405  0.0048  1.0000  -1.9259   0.0000   0.0000   0.0000   0.3753
  22.100   0.9116   0.30333   0.30160  -0.1395  0.0055  1.0000  -1.6951   0.0000   0.0000   0.0000   0.3770
  22.200   0.9081   0.30390   0.30218  -0.1395  0.0056  1.0000  -1.6641   0.0000   0.0000   0.0000   0.3776
  22.300   0.9052   0.30451   0.30279  -0.1396  0.0056  1.0000  -1.6386   0.0000   0.0000   0.0000   0.3781
  22.400   0.9025   0.30514   0.30343  -0.1397  0.0056  1.0000  -1.6158   0.0000   0.0000   0.0000   0.3786
  22.500   0.9000   0.30579   0.30408  -0.1399  0.0056  1.0000  -1.5947   0.0000   0.0000   0.0000   0.3791
  22.600   0.8977   0.30645   0.30475  -0.1400  0.0056  1.0000  -1.5749   0.0000   0.0000   0.0000   0.3795
  22.700   0.8956   0.30712   0.30543  -0.1402  0.0056  1.0000  -1.5561   0.0000   0.0000   0.0000   0.3800
  22.800   0.8936   0.30781   0.30612  -0.1404  0.0056  1.0000  -1.5382   0.0000   0.0000   0.0000   0.3805
  22.900   0.8918   0.30850   0.30682  -0.1406  0.0056  1.0000  -1.5210   0.0000   0.0000   0.0000   0.3809
  23.000   0.8900   0.30921   0.30753  -0.1408  0.0056  1.0000  -1.5045   0.0000   0.0000   0.0000   0.3813
  23.100   0.8883   0.30992   0.30825  -0.1410  0.0056  1.0000  -1.4886   0.0000   0.0000   0.0000   0.3818
  23.200   0.8868   0.31064   0.30898  -0.1413  0.0056  1.0000  -1.4732   0.0000   0.0000   0.0000   0.3822
  23.300   0.8853   0.31136   0.30971  -0.1415  0.0056  1.0000  -1.4584   0.0000   0.0000   0.0000   0.3826
  23.400   0.8839   0.31209   0.31044  -0.1417  0.0056  1.0000  -1.4440   0.0000   0.0000   0.0000   0.3830
  23.500   0.8825   0.31283   0.31118  -0.1420  0.0056  1.0000  -1.4300   0.0000   0.0000   0.0000   0.3834
  23.600   0.8813   0.31357   0.31193  -0.1422  0.0056  1.0000  -1.4165   0.0000   0.0000   0.0000   0.3838
  23.700   0.8801   0.31431   0.31268  -0.1425  0.0056  1.0000  -1.4033   0.0000   0.0000   0.0000   0.3842
  23.800   0.8789   0.31506   0.31343  -0.1428  0.0056  1.0000  -1.3905   0.0000   0.0000   0.0000   0.3846
  23.900   0.8778   0.31582   0.31419  -0.1430  0.0056  1.0000  -1.3780   0.0000   0.0000   0.0000   0.3850
  24.000   0.8768   0.31657   0.31495  -0.1433  0.0056  1.0000  -1.3659   0.0000   0.0000   0.0000   0.3853
  24.100   0.8758   0.31733   0.31572  -0.1436  0.0056  1.0000  -1.3541   0.0000   0.0000   0.0000   0.3857
  24.200   0.8748   0.31809   0.31648  -0.1439  0.0056  1.0000  -1.3425   0.0000   0.0000   0.0000   0.3861
  24.300   0.8739   0.31886   0.31725  -0.1442  0.0056  1.0000  -1.3313   0.0000   0.0000   0.0000   0.3864
  24.400   0.8731   0.31963   0.31802  -0.1445  0.0056  1.0000  -1.3203   0.0000   0.0000   0.0000   0.3868
  24.500   0.8722   0.32040   0.31880  -0.1448  0.0056  1.0000  -1.3095   0.0000   0.0000   0.0000   0.3871
  24.600   0.8714   0.32117   0.31958  -0.1451  0.0056  1.0000  -1.2991   0.0000   0.0000   0.0000   0.3875
  24.700   0.8707   0.32194   0.32036  -0.1454  0.0056  1.0000  -1.2888   0.0000   0.0000   0.0000   0.3878
  24.800   0.8700   0.32272   0.32114  -0.1457  0.0056  1.0000  -1.2788   0.0000   0.0000   0.0000   0.3882
  24.900   0.8693   0.32350   0.32192  -0.1460  0.0056  1.0000  -1.2690   0.0000   0.0000   0.0000   0.3885
  25.000   0.8686   0.32427   0.32270  -0.1463  0.0056  1.0000  -1.2594   0.0000   0.0000   0.0000   0.3888
  25.100   0.8680   0.32506   0.32349  -0.1466  0.0056  1.0000  -1.2500   0.0000   0.0000   0.0000   0.3892
  25.200   0.8674   0.32584   0.32427  -0.1469  0.0056  1.0000  -1.2407   0.0000   0.0000   0.0000   0.3895
  25.300   0.8668   0.32662   0.32506  -0.1472  0.0056  1.0000  -1.2316   0.0000   0.0000   0.0000   0.3898
  25.400   0.8662   0.32741   0.32585  -0.1475  0.0056  1.0000  -1.2226   0.0000   0.0000   0.0000   0.3901
  25.500   0.8657   0.32819   0.32664  -0.1479  0.0056  1.0000  -1.2138   0.0000   0.0000   0.0000   0.3904
  25.600   0.8651   0.32898   0.32743  -0.1482  0.0056  1.0000  -1.2052   0.0000   0.0000   0.0000   0.3908
  25.700   0.8646   0.32977   0.32823  -0.1485  0.0056  1.0000  -1.1968   0.0000   0.0000   0.0000   0.3911
  25.800   0.8642   0.33056   0.32902  -0.1488  0.0056  1.0000  -1.1885   0.0000   0.0000   0.0000   0.3914
  25.900   0.8637   0.33135   0.32981  -0.1492  0.0056  1.0000  -1.1803   0.0000   0.0000   0.0000   0.3917
  26.000   0.8632   0.33214   0.33061  -0.1495  0.0056  1.0000  -1.1723   0.0000   0.0000   0.0000   0.3920
  26.100   0.8628   0.33293   0.33141  -0.1498  0.0056  1.0000  -1.1645   0.0000   0.0000   0.0000   0.3923
  26.200   0.8624   0.33372   0.33220  -0.1502  0.0056  1.0000  -1.1568   0.0000   0.0000   0.0000   0.3926
  26.300   0.8620   0.33451   0.33300  -0.1505  0.0056  1.0000  -1.1488   0.0000   0.0000   0.0000   0.3929


