xflr5 v6.61

 Calculated polar for: S4062-095-87

 1 1 Reynolds number fixed          Mach number fixed         

 xtrf =   1.000 (top)        1.000 (bottom)
 Mach =   0.000     Re =     0.400 e 6     Ncrit =   9.000

  alpha     CL        CD       CDp       Cm    Top Xtr Bot Xtr   Cpmin    Chinge    XCp    
 ------- -------- --------- --------- -------- ------- ------- -------- --------- ---------
 -10.000  -0.2886   0.11360   0.11096  -0.0419  1.0000  0.0170  -1.5109   0.0000   0.0000   0.0000   0.0944
  -9.900  -0.2870   0.11242   0.10980  -0.0423  1.0000  0.0170  -1.5179   0.0000   0.0000   0.0000   0.0920
  -9.600  -0.2895   0.10487   0.10231  -0.0458  0.9943  0.0176  -1.7319   0.0000   0.0000   0.0000   0.0815
  -9.500  -0.2897   0.10185   0.09929  -0.0473  0.9917  0.0182  -1.7865   0.0000   0.0000   0.0000   0.0766
  -9.400  -0.2853   0.10002   0.09745  -0.0486  0.9894  0.0186  -1.7724   0.0000   0.0000   0.0000   0.0694
  -9.200  -0.2719   0.09739   0.09482  -0.0504  0.9854  0.0195  -1.6662   0.0000   0.0000   0.0000   0.0541
  -9.100  -0.2647   0.09617   0.09361  -0.0513  0.9830  0.0199  -1.6125   0.0000   0.0000   0.0000   0.0456
  -9.000  -0.2578   0.09491   0.09234  -0.0524  0.9806  0.0204  -1.5698   0.0000   0.0000   0.0000   0.0358
  -8.900  -0.2509   0.09359   0.09101  -0.0538  0.9782  0.0209  -1.5354   0.0000   0.0000   0.0000   0.0247
  -8.800  -0.2440   0.09221   0.08963  -0.0553  0.9759  0.0214  -1.5074   0.0000   0.0000   0.0000   0.0123
  -8.700  -0.2370   0.09077   0.08819  -0.0570  0.9735  0.0220  -1.4844   0.0000   0.0000   0.0000  -0.0017
  -8.600  -0.2299   0.08928   0.08670  -0.0588  0.9711  0.0226  -1.4659   0.0000   0.0000   0.0000  -0.0171
  -8.500  -0.2248   0.08794   0.08535  -0.0601  0.9670  0.0232  -1.4545   0.0000   0.0000   0.0000  -0.0288
  -8.400  -0.2197   0.08657   0.08398  -0.0614  0.9629  0.0238  -1.4461   0.0000   0.0000   0.0000  -0.0411
  -8.300  -0.2149   0.08520   0.08260  -0.0628  0.9589  0.0244  -1.4406   0.0000   0.0000   0.0000  -0.0538
  -8.200  -0.2104   0.08384   0.08123  -0.0641  0.9550  0.0251  -1.4380   0.0000   0.0000   0.0000  -0.0664
  -8.100  -0.2062   0.08250   0.07988  -0.0653  0.9511  0.0257  -1.4380   0.0000   0.0000   0.0000  -0.0788
  -8.000  -0.2038   0.08130   0.07868  -0.0661  0.9468  0.0263  -1.4416   0.0000   0.0000   0.0000  -0.0864
  -7.900  -0.2023   0.08017   0.07755  -0.0667  0.9421  0.0269  -1.4478   0.0000   0.0000   0.0000  -0.0914
  -7.800  -0.2008   0.07901   0.07639  -0.0673  0.9373  0.0276  -1.4558   0.0000   0.0000   0.0000  -0.0968
  -7.700  -0.1993   0.07786   0.07523  -0.0680  0.9327  0.0282  -1.4660   0.0000   0.0000   0.0000  -0.1025
  -7.600  -0.1979   0.07672   0.07408  -0.0686  0.9282  0.0289  -1.4786   0.0000   0.0000   0.0000  -0.1083
  -7.400  -0.1944   0.07456   0.07190  -0.0704  0.9200  0.0303  -1.5089   0.0000   0.0000   0.0000  -0.1234
  -7.300  -0.1926   0.07362   0.07098  -0.0714  0.9159  0.0310  -1.5245   0.0000   0.0000   0.0000  -0.1319
  -7.200  -0.1888   0.07304   0.07040  -0.0722  0.9119  0.0318  -1.5226   0.0000   0.0000   0.0000  -0.1435
  -7.100  -0.1866   0.07226   0.06962  -0.0730  0.9079  0.0322  -1.5257   0.0000   0.0000   0.0000  -0.1520
  -7.000  -0.1832   0.07127   0.06861  -0.0742  0.9044  0.0324  -1.5301   0.0000   0.0000   0.0000  -0.1661
  -6.900  -0.1796   0.07008   0.06741  -0.0757  0.9009  0.0326  -1.5377   0.0000   0.0000   0.0000  -0.1827
  -6.800  -0.1757   0.06875   0.06607  -0.0774  0.8975  0.0327  -1.5484   0.0000   0.0000   0.0000  -0.2012
  -6.700  -0.1714   0.06731   0.06460  -0.0792  0.8938  0.0328  -1.5615   0.0000   0.0000   0.0000  -0.2231
  -6.600  -0.1665   0.06571   0.06299  -0.0814  0.8909  0.0329  -1.5770   0.0000   0.0000   0.0000  -0.2499
  -6.500  -0.1612   0.06396   0.06122  -0.0836  0.8887  0.0330  -1.5949   0.0000   0.0000   0.0000  -0.2799
  -6.400  -0.1557   0.06213   0.05937  -0.0858  0.8862  0.0330  -1.6151   0.0000   0.0000   0.0000  -0.3127
  -6.300  -0.1499   0.06023   0.05744  -0.0880  0.8834  0.0331  -1.6375   0.0000   0.0000   0.0000  -0.3482
  -6.200  -0.1441   0.05829   0.05546  -0.0900  0.8805  0.0331  -1.6619   0.0000   0.0000   0.0000  -0.3865
  -6.100  -0.1378   0.05631   0.05332  -0.0921  0.8775  0.0332  -1.6944   0.0000   0.0000   0.0000  -0.4308
  -6.000  -0.1323   0.05440   0.05135  -0.0937  0.8747  0.0332  -1.7178   0.0000   0.0000   0.0000  -0.4711
  -5.900  -0.1267   0.05254   0.04943  -0.0951  0.8721  0.0332  -1.7389   0.0000   0.0000   0.0000  -0.5136
  -5.700  -0.1320   0.04196   0.03867  -0.1014  0.8660  0.0349  -2.0546   0.0000   0.0000   0.0000  -0.5307
  -5.600  -0.1279   0.03969   0.03633  -0.1023  0.8635  0.0358  -2.0616   0.0000   0.0000   0.0000  -0.5629
  -5.500  -0.1214   0.03828   0.03486  -0.1029  0.8611  0.0365  -2.0358   0.0000   0.0000   0.0000  -0.6106
  -5.400  -0.1140   0.03824   0.03475  -0.1026  0.8586  0.0379  -1.9294   0.0000   0.0000   0.0000  -0.6636
  -5.300  -0.1057   0.03713   0.03360  -0.1031  0.8566  0.0385  -1.8969   0.0000   0.0000   0.0000  -0.7396
  -5.200  -0.0971   0.03593   0.03235  -0.1036  0.8555  0.0391  -1.8683   0.0000   0.0000   0.0000  -0.8327
  -5.100  -0.0883   0.03471   0.03106  -0.1042  0.8541  0.0397  -1.8431   0.0000   0.0000   0.0000  -0.9470
  -4.200   0.0030   0.01734   0.01161  -0.1057  0.8383  0.0189  -2.3463   0.0000   0.0000   0.0000  35.5842
  -4.100   0.0150   0.01779   0.01209  -0.1055  0.8367  0.0178  -2.2377   0.0000   0.0000   0.0000   7.3925
  -4.000   0.0255   0.01666   0.01084  -0.1053  0.8351  0.0161  -2.2506   0.0000   0.0000   0.0000   4.4279
  -3.900   0.0359   0.01535   0.00933  -0.1051  0.8334  0.0154  -2.2730   0.0000   0.0000   0.0000   3.2141
  -3.800   0.0466   0.01447   0.00829  -0.1048  0.8319  0.0148  -2.2641   0.0000   0.0000   0.0000   2.5299
  -3.700   0.0573   0.01377   0.00747  -0.1046  0.8303  0.0144  -2.2414   0.0000   0.0000   0.0000   2.0982
  -3.600   0.0681   0.01319   0.00679  -0.1044  0.8286  0.0140  -2.2094   0.0000   0.0000   0.0000   1.8019
  -3.500   0.0789   0.01272   0.00622  -0.1041  0.8267  0.0137  -2.1701   0.0000   0.0000   0.0000   1.5863
  -3.400   0.0897   0.01233   0.00574  -0.1039  0.8246  0.0134  -2.1244   0.0000   0.0000   0.0000   1.4224
  -3.300   0.1006   0.01203   0.00536  -0.1038  0.8221  0.0133  -2.0729   0.0000   0.0000   0.0000   1.2936
  -3.200   0.1116   0.01182   0.00509  -0.1037  0.8192  0.0131  -2.0166   0.0000   0.0000   0.0000   1.1898
  -3.100   0.1228   0.01155   0.00476  -0.1036  0.8183  0.0131  -1.9555   0.0000   0.0000   0.0000   1.1028
  -3.000   0.1340   0.01132   0.00448  -0.1035  0.8171  0.0131  -1.8906   0.0000   0.0000   0.0000   1.0304
  -2.900   0.1453   0.01114   0.00424  -0.1035  0.8158  0.0131  -1.8227   0.0000   0.0000   0.0000   0.9690
  -2.800   0.1567   0.01099   0.00404  -0.1034  0.8144  0.0133  -1.7521   0.0000   0.0000   0.0000   0.9164
  -2.700   0.1680   0.01086   0.00387  -0.1034  0.8129  0.0135  -1.6793   0.0000   0.0000   0.0000   0.8709
  -2.600   0.1794   0.01076   0.00373  -0.1033  0.8114  0.0138  -1.6046   0.0000   0.0000   0.0000   0.8312
  -2.500   0.1907   0.01067   0.00361  -0.1033  0.8099  0.0143  -1.5285   0.0000   0.0000   0.0000   0.7962
  -2.400   0.2020   0.01059   0.00350  -0.1033  0.8082  0.0149  -1.4510   0.0000   0.0000   0.0000   0.7652
  -2.300   0.2133   0.01052   0.00342  -0.1032  0.8066  0.0157  -1.3733   0.0000   0.0000   0.0000   0.7375
  -2.200   0.2246   0.01047   0.00334  -0.1032  0.8049  0.0168  -1.2967   0.0000   0.0000   0.0000   0.7127
  -2.100   0.2359   0.01039   0.00327  -0.1032  0.8032  0.0230  -1.2254   0.0000   0.0000   0.0000   0.6904
  -2.000   0.2468   0.01015   0.00318  -0.1032  0.8015  0.0544  -1.1579   0.0000   0.0000   0.0000   0.6709
  -1.900   0.2576   0.00990   0.00314  -0.1033  0.7998  0.0952  -1.0928   0.0000   0.0000   0.0000   0.6534
  -1.800   0.2687   0.00981   0.00311  -0.1033  0.7981  0.1124  -1.0289   0.0000   0.0000   0.0000   0.6366
  -1.700   0.2797   0.00968   0.00309  -0.1034  0.7964  0.1359  -0.9672   0.0000   0.0000   0.0000   0.6213
  -1.600   0.2908   0.00960   0.00307  -0.1034  0.7948  0.1546  -0.9066   0.0000   0.0000   0.0000   0.6070
  -1.500   0.3018   0.00948   0.00305  -0.1034  0.7932  0.1794  -0.8473   0.0000   0.0000   0.0000   0.5940
  -1.400   0.3128   0.00938   0.00305  -0.1034  0.7915  0.2062  -0.7883   0.0000   0.0000   0.0000   0.5818
  -1.300   0.3234   0.00916   0.00307  -0.1035  0.7897  0.2657  -0.7288   0.0000   0.0000   0.0000   0.5709
  -1.200   0.3325   0.00859   0.00318  -0.1035  0.7878  0.4474  -0.6437   0.0000   0.0000   0.0000   0.5621
  -1.100   0.3432   0.00850   0.00318  -0.1034  0.7856  0.4839  -0.5962   0.0000   0.0000   0.0000   0.5520
  -1.000   0.3537   0.00842   0.00321  -0.1033  0.7830  0.5261  -0.5498   0.0000   0.0000   0.0000   0.5427
  -0.900   0.3639   0.00837   0.00331  -0.1032  0.7796  0.5749  -0.5548   0.0000   0.0000   0.0000   0.5340
  -0.800   0.3740   0.00823   0.00334  -0.1030  0.7781  0.6292  -0.5600   0.0000   0.0000   0.0000   0.5256
  -0.700   0.3836   0.00806   0.00334  -0.1026  0.7770  0.6857  -0.5650   0.0000   0.0000   0.0000   0.5176
  -0.600   0.3928   0.00789   0.00335  -0.1021  0.7758  0.7417  -0.5698   0.0000   0.0000   0.0000   0.5099
  -0.500   0.4014   0.00775   0.00337  -0.1014  0.7746  0.7966  -0.5746   0.0000   0.0000   0.0000   0.5025
  -0.400   0.4091   0.00761   0.00338  -0.1004  0.7732  0.8547  -0.5795   0.0000   0.0000   0.0000   0.4952
  -0.300   0.4208   0.00746   0.00335  -0.1002  0.7718  0.9291  -0.5862   0.0000   0.0000   0.0000   0.4877
  -0.200   0.4441   0.00738   0.00325  -0.1027  0.7704  1.0000  -0.5984   0.0000   0.0000   0.0000   0.4808
  -0.100   0.4552   0.00738   0.00323  -0.1027  0.7685  1.0000  -0.6064   0.0000   0.0000   0.0000   0.4750
   0.000   0.4664   0.00739   0.00321  -0.1027  0.7665  1.0000  -0.6146   0.0000   0.0000   0.0000   0.4695
   0.100   0.4774   0.00739   0.00318  -0.1027  0.7643  1.0000  -0.6248   0.0000   0.0000   0.0000   0.4642
   0.200   0.4885   0.00738   0.00315  -0.1026  0.7619  1.0000  -0.6351   0.0000   0.0000   0.0000   0.4591
   0.300   0.4996   0.00737   0.00311  -0.1026  0.7594  1.0000  -0.6453   0.0000   0.0000   0.0000   0.4543
   0.400   0.5107   0.00736   0.00306  -0.1025  0.7569  1.0000  -0.6557   0.0000   0.0000   0.0000   0.4496
   0.500   0.5217   0.00735   0.00302  -0.1024  0.7544  1.0000  -0.6665   0.0000   0.0000   0.0000   0.4451
   0.600   0.5328   0.00733   0.00297  -0.1023  0.7517  1.0000  -0.6783   0.0000   0.0000   0.0000   0.4407
   0.700   0.5438   0.00733   0.00292  -0.1022  0.7488  1.0000  -0.6901   0.0000   0.0000   0.0000   0.4366
   0.800   0.5548   0.00733   0.00289  -0.1021  0.7456  1.0000  -0.7020   0.0000   0.0000   0.0000   0.4326
   0.900   0.5658   0.00737   0.00288  -0.1021  0.7419  1.0000  -0.7139   0.0000   0.0000   0.0000   0.4288
   1.000   0.5769   0.00746   0.00293  -0.1020  0.7375  1.0000  -0.7257   0.0000   0.0000   0.0000   0.4252
   1.100   0.5879   0.00748   0.00293  -0.1020  0.7351  1.0000  -0.7376   0.0000   0.0000   0.0000   0.4217
   1.200   0.5990   0.00746   0.00291  -0.1020  0.7334  1.0000  -0.7512   0.0000   0.0000   0.0000   0.4184
   1.300   0.6100   0.00746   0.00290  -0.1020  0.7316  1.0000  -0.7650   0.0000   0.0000   0.0000   0.4151
   1.400   0.6211   0.00746   0.00290  -0.1019  0.7296  1.0000  -0.7788   0.0000   0.0000   0.0000   0.4120
   1.500   0.6322   0.00746   0.00290  -0.1019  0.7273  1.0000  -0.7927   0.0000   0.0000   0.0000   0.4090
   1.600   0.6433   0.00747   0.00289  -0.1019  0.7248  1.0000  -0.8066   0.0000   0.0000   0.0000   0.4061
   1.700   0.6543   0.00747   0.00289  -0.1019  0.7221  1.0000  -0.8206   0.0000   0.0000   0.0000   0.4033
   1.800   0.6654   0.00747   0.00288  -0.1018  0.7192  1.0000  -0.8346   0.0000   0.0000   0.0000   0.4006
   1.900   0.6765   0.00747   0.00287  -0.1018  0.7165  1.0000  -0.8487   0.0000   0.0000   0.0000   0.3979
   2.000   0.6875   0.00748   0.00286  -0.1017  0.7138  1.0000  -0.8633   0.0000   0.0000   0.0000   0.3954
   2.100   0.6986   0.00749   0.00285  -0.1017  0.7110  1.0000  -0.8798   0.0000   0.0000   0.0000   0.3929
   2.200   0.7097   0.00749   0.00287  -0.1017  0.7080  1.0000  -0.8963   0.0000   0.0000   0.0000   0.3904
   2.300   0.7207   0.00750   0.00285  -0.1016  0.7047  1.0000  -0.9129   0.0000   0.0000   0.0000   0.3881
   2.400   0.7317   0.00753   0.00284  -0.1015  0.7010  1.0000  -0.9295   0.0000   0.0000   0.0000   0.3857
   2.500   0.7427   0.00758   0.00285  -0.1015  0.6966  1.0000  -0.9462   0.0000   0.0000   0.0000   0.3835
   2.600   0.7538   0.00766   0.00290  -0.1015  0.6917  1.0000  -0.9629   0.0000   0.0000   0.0000   0.3814
   2.700   0.7648   0.00767   0.00292  -0.1014  0.6901  1.0000  -0.9799   0.0000   0.0000   0.0000   0.3794
   2.800   0.7758   0.00768   0.00294  -0.1014  0.6884  1.0000  -0.9996   0.0000   0.0000   0.0000   0.3774
   2.900   0.7868   0.00769   0.00297  -0.1014  0.6863  1.0000  -1.0193   0.0000   0.0000   0.0000   0.3755
   3.000   0.7978   0.00770   0.00299  -0.1014  0.6836  1.0000  -1.0392   0.0000   0.0000   0.0000   0.3736
   3.100   0.8087   0.00771   0.00300  -0.1014  0.6805  1.0000  -1.0591   0.0000   0.0000   0.0000   0.3717
   3.200   0.8196   0.00772   0.00301  -0.1013  0.6768  1.0000  -1.0791   0.0000   0.0000   0.0000   0.3699
   3.300   0.8305   0.00773   0.00302  -0.1013  0.6725  1.0000  -1.0992   0.0000   0.0000   0.0000   0.3681
   3.400   0.8414   0.00774   0.00301  -0.1012  0.6680  1.0000  -1.1194   0.0000   0.0000   0.0000   0.3663
   3.500   0.8523   0.00776   0.00301  -0.1011  0.6635  1.0000  -1.1396   0.0000   0.0000   0.0000   0.3646
   3.600   0.8631   0.00778   0.00301  -0.1010  0.6591  1.0000  -1.1599   0.0000   0.0000   0.0000   0.3629
   3.700   0.8738   0.00783   0.00302  -0.1009  0.6545  1.0000  -1.1802   0.0000   0.0000   0.0000   0.3612
   3.800   0.8845   0.00789   0.00305  -0.1008  0.6488  1.0000  -1.2040   0.0000   0.0000   0.0000   0.3596
   3.900   0.8954   0.00794   0.00309  -0.1008  0.6444  1.0000  -1.2321   0.0000   0.0000   0.0000   0.3581
   4.000   0.9062   0.00795   0.00313  -0.1007  0.6409  1.0000  -1.2623   0.0000   0.0000   0.0000   0.3566
   4.100   0.9169   0.00796   0.00316  -0.1007  0.6362  1.0000  -1.2927   0.0000   0.0000   0.0000   0.3551
   4.200   0.9276   0.00798   0.00319  -0.1006  0.6305  1.0000  -1.3231   0.0000   0.0000   0.0000   0.3537
   4.300   0.9383   0.00802   0.00322  -0.1005  0.6244  1.0000  -1.3537   0.0000   0.0000   0.0000   0.3522
   4.400   0.9489   0.00806   0.00324  -0.1004  0.6182  1.0000  -1.3844   0.0000   0.0000   0.0000   0.3508
   4.500   0.9593   0.00811   0.00326  -0.1002  0.6116  1.0000  -1.4150   0.0000   0.0000   0.0000   0.3494
   4.600   0.9695   0.00819   0.00329  -0.1000  0.6042  1.0000  -1.4455   0.0000   0.0000   0.0000   0.3480
   4.700   0.9799   0.00826   0.00335  -0.0999  0.5977  1.0000  -1.4765   0.0000   0.0000   0.0000   0.3467
   4.800   0.9906   0.00829   0.00341  -0.0999  0.5925  1.0000  -1.5080   0.0000   0.0000   0.0000   0.3454
   4.900   1.0011   0.00834   0.00346  -0.0998  0.5844  1.0000  -1.5394   0.0000   0.0000   0.0000   0.3441
   5.000   1.0112   0.00841   0.00350  -0.0996  0.5735  1.0000  -1.5747   0.0000   0.0000   0.0000   0.3428
   5.100   1.0206   0.00852   0.00353  -0.0992  0.5606  1.0000  -1.6134   0.0000   0.0000   0.0000   0.3415
   5.200   1.0301   0.00864   0.00360  -0.0990  0.5488  1.0000  -1.6524   0.0000   0.0000   0.0000   0.3402
   5.300   1.0403   0.00871   0.00367  -0.0988  0.5376  1.0000  -1.6929   0.0000   0.0000   0.0000   0.3390
   5.400   1.0496   0.00885   0.00374  -0.0985  0.5213  1.0000  -1.7321   0.0000   0.0000   0.0000   0.3377
   5.500   1.0576   0.00906   0.00383  -0.0980  0.5019  1.0000  -1.7691   0.0000   0.0000   0.0000   0.3364
   5.600   1.0666   0.00923   0.00393  -0.0976  0.4812  1.0000  -1.8328   0.0000   0.0000   0.0000   0.3352
   5.700   1.0734   0.00954   0.00407  -0.0970  0.4549  1.0000  -1.9019   0.0000   0.0000   0.0000   0.3339
   5.800   1.0817   0.00977   0.00421  -0.0965  0.4322  1.0000  -1.9771   0.0000   0.0000   0.0000   0.3327
   6.000   1.0972   0.01031   0.00486  -0.0955  0.3923  1.0000  -2.1832   0.0000   0.0000   0.0000   0.3302
   6.100   1.1041   0.01065   0.00506  -0.0949  0.3702  1.0000  -2.2613   0.0000   0.0000   0.0000   0.3290
   6.200   1.1121   0.01090   0.00525  -0.0945  0.3525  1.0000  -2.3435   0.0000   0.0000   0.0000   0.3279
   6.300   1.1197   0.01118   0.00544  -0.0940  0.3350  1.0000  -2.4246   0.0000   0.0000   0.0000   0.3268
   6.400   1.1267   0.01151   0.00566  -0.0935  0.3165  1.0000  -2.5028   0.0000   0.0000   0.0000   0.3257
   6.500   1.1358   0.01167   0.00582  -0.0932  0.3065  1.0000  -2.5910   0.0000   0.0000   0.0000   0.3246
   6.600   1.1439   0.01191   0.00600  -0.0928  0.2942  1.0000  -2.6758   0.0000   0.0000   0.0000   0.3236
   6.700   1.1512   0.01220   0.00620  -0.0923  0.2803  1.0000  -2.7573   0.0000   0.0000   0.0000   0.3225
   6.800   1.1596   0.01242   0.00639  -0.0920  0.2693  1.0000  -2.8443   0.0000   0.0000   0.0000   0.3215
   6.900   1.1683   0.01260   0.00656  -0.0917  0.2602  1.0000  -2.9337   0.0000   0.0000   0.0000   0.3205
   7.000   1.1759   0.01286   0.00676  -0.0912  0.2490  1.0000  -3.0192   0.0000   0.0000   0.0000   0.3195
   7.100   1.1829   0.01317   0.00698  -0.0907  0.2358  1.0000  -3.1021   0.0000   0.0000   0.0000   0.3185
   7.200   1.1914   0.01336   0.00717  -0.0903  0.2269  1.0000  -3.1929   0.0000   0.0000   0.0000   0.3175
   7.300   1.1997   0.01357   0.00735  -0.0900  0.2181  1.0000  -3.2840   0.0000   0.0000   0.0000   0.3165
   7.400   1.2069   0.01385   0.00757  -0.0895  0.2076  1.0000  -3.3703   0.0000   0.0000   0.0000   0.3155
   7.500   1.2136   0.01417   0.00780  -0.0889  0.1951  1.0000  -3.4545   0.0000   0.0000   0.0000   0.3145
   7.600   1.2218   0.01436   0.00799  -0.0885  0.1871  1.0000  -3.5478   0.0000   0.0000   0.0000   0.3136
   7.700   1.2293   0.01460   0.00820  -0.0881  0.1774  1.0000  -3.6384   0.0000   0.0000   0.0000   0.3127
   7.800   1.2352   0.01496   0.00846  -0.0874  0.1653  1.0000  -3.7215   0.0000   0.0000   0.0000   0.3116
   7.900   1.2420   0.01525   0.00869  -0.0868  0.1534  1.0000  -3.8095   0.0000   0.0000   0.0000   0.3107
   8.000   1.2493   0.01550   0.00890  -0.0864  0.1438  1.0000  -3.9013   0.0000   0.0000   0.0000   0.3097
   8.100   1.2544   0.01590   0.00918  -0.0856  0.1312  1.0000  -3.9826   0.0000   0.0000   0.0000   0.3087
   8.200   1.2605   0.01621   0.00944  -0.0850  0.1197  1.0000  -4.0695   0.0000   0.0000   0.0000   0.3078
   8.300   1.2668   0.01651   0.00968  -0.0844  0.1099  1.0000  -4.1585   0.0000   0.0000   0.0000   0.3068
   8.400   1.2711   0.01694   0.00999  -0.0835  0.0980  1.0000  -4.2373   0.0000   0.0000   0.0000   0.3058
   8.500   1.2768   0.01724   0.01025  -0.0828  0.0895  1.0000  -4.3237   0.0000   0.0000   0.0000   0.3048
   8.600   1.2817   0.01756   0.01051  -0.0819  0.0815  1.0000  -4.4075   0.0000   0.0000   0.0000   0.3037
   8.700   1.2854   0.01796   0.01082  -0.0809  0.0725  1.0000  -4.4848   0.0000   0.0000   0.0000   0.3026
   8.800   1.2906   0.01828   0.01111  -0.0802  0.0658  1.0000  -4.5700   0.0000   0.0000   0.0000   0.3016
   8.900   1.2960   0.01857   0.01139  -0.0794  0.0611  1.0000  -4.6580   0.0000   0.0000   0.0000   0.3007
   9.000   1.3007   0.01892   0.01169  -0.0786  0.0563  1.0000  -4.7422   0.0000   0.0000   0.0000   0.2997
   9.100   1.3052   0.01929   0.01202  -0.0778  0.0515  1.0000  -4.8252   0.0000   0.0000   0.0000   0.2987
   9.200   1.3104   0.01962   0.01233  -0.0770  0.0469  1.0000  -4.9116   0.0000   0.0000   0.0000   0.2977
   9.300   1.3166   0.01988   0.01261  -0.0764  0.0449  1.0000  -5.0052   0.0000   0.0000   0.0000   0.2969
   9.400   1.3243   0.02004   0.01298  -0.0759  0.0502  1.0000  -5.0715   0.0000   0.0000   0.0000   0.2960
   9.500   1.3286   0.02043   0.01339  -0.0751  0.0462  1.0000  -5.1474   0.0000   0.0000   0.0000   0.2950
   9.600   1.3350   0.02067   0.01366  -0.0745  0.0447  1.0000  -5.2428   0.0000   0.0000   0.0000   0.2942
   9.700   1.3409   0.02095   0.01396  -0.0740  0.0427  1.0000  -5.3373   0.0000   0.0000   0.0000   0.2934
   9.800   1.3462   0.02128   0.01429  -0.0733  0.0401  1.0000  -5.4282   0.0000   0.0000   0.0000   0.2925
   9.900   1.3509   0.02167   0.01465  -0.0726  0.0373  1.0000  -5.5159   0.0000   0.0000   0.0000   0.2917
  10.000   1.3551   0.02208   0.01504  -0.0719  0.0345  1.0000  -5.6003   0.0000   0.0000   0.0000   0.2908
  10.100   1.3593   0.02251   0.01546  -0.0711  0.0317  1.0000  -5.6819   0.0000   0.0000   0.0000   0.2899
  10.200   1.3630   0.02297   0.01595  -0.0703  0.0287  1.0000  -5.7560   0.0000   0.0000   0.0000   0.2890
  10.300   1.3688   0.02327   0.01628  -0.0698  0.0276  1.0000  -5.8497   0.0000   0.0000   0.0000   0.2882
  10.400   1.3746   0.02358   0.01662  -0.0693  0.0263  1.0000  -5.9434   0.0000   0.0000   0.0000   0.2875
  10.500   1.3793   0.02398   0.01702  -0.0686  0.0236  1.0000  -6.0249   0.0000   0.0000   0.0000   0.2867
  10.600   1.3707   0.02551   0.01847  -0.0664  0.0120  1.0000  -5.8616   0.0000   0.0000   0.0000   0.2852
  10.700   1.3729   0.02613   0.01915  -0.0655  0.0112  1.0000  -5.8993   0.0000   0.0000   0.0000   0.2843
  10.800   1.3755   0.02674   0.01979  -0.0647  0.0107  1.0000  -5.9491   0.0000   0.0000   0.0000   0.2835
  10.900   1.3782   0.02734   0.02044  -0.0639  0.0103  1.0000  -6.0041   0.0000   0.0000   0.0000   0.2827
  11.000   1.3810   0.02794   0.02109  -0.0631  0.0099  1.0000  -6.0621   0.0000   0.0000   0.0000   0.2818
  11.100   1.3836   0.02856   0.02175  -0.0624  0.0096  1.0000  -6.1209   0.0000   0.0000   0.0000   0.2810
  11.200   1.3857   0.02921   0.02245  -0.0616  0.0094  1.0000  -6.1783   0.0000   0.0000   0.0000   0.2803
  11.300   1.3876   0.02988   0.02317  -0.0608  0.0091  1.0000  -6.2354   0.0000   0.0000   0.0000   0.2795
  11.400   1.3894   0.03055   0.02389  -0.0601  0.0089  1.0000  -6.2920   0.0000   0.0000   0.0000   0.2787
  11.500   1.3911   0.03124   0.02462  -0.0593  0.0086  1.0000  -6.3482   0.0000   0.0000   0.0000   0.2779
  11.600   1.3927   0.03196   0.02539  -0.0586  0.0084  1.0000  -6.4038   0.0000   0.0000   0.0000   0.2772
  11.700   1.3942   0.03270   0.02619  -0.0578  0.0082  1.0000  -6.4582   0.0000   0.0000   0.0000   0.2764
  11.800   1.3951   0.03351   0.02705  -0.0571  0.0080  1.0000  -6.5090   0.0000   0.0000   0.0000   0.2757
  11.900   1.3956   0.03436   0.02796  -0.0564  0.0078  1.0000  -6.5568   0.0000   0.0000   0.0000   0.2750
  12.000   1.3960   0.03524   0.02890  -0.0557  0.0076  1.0000  -6.6037   0.0000   0.0000   0.0000   0.2743
  12.100   1.3962   0.03616   0.02988  -0.0550  0.0075  1.0000  -6.6488   0.0000   0.0000   0.0000   0.2736
  12.200   1.3963   0.03711   0.03089  -0.0543  0.0073  1.0000  -6.6919   0.0000   0.0000   0.0000   0.2730
  12.300   1.3961   0.03811   0.03195  -0.0536  0.0071  1.0000  -6.7321   0.0000   0.0000   0.0000   0.2723
  12.400   1.3952   0.03918   0.03309  -0.0530  0.0069  1.0000  -6.7674   0.0000   0.0000   0.0000   0.2717
  12.500   1.3936   0.04032   0.03431  -0.0523  0.0068  1.0000  -6.7971   0.0000   0.0000   0.0000   0.2711
  12.600   1.3918   0.04150   0.03556  -0.0517  0.0066  1.0000  -6.8244   0.0000   0.0000   0.0000   0.2705
  12.700   1.3900   0.04273   0.03686  -0.0510  0.0065  1.0000  -6.8484   0.0000   0.0000   0.0000   0.2699
  12.800   1.3878   0.04400   0.03822  -0.0504  0.0063  1.0000  -6.8678   0.0000   0.0000   0.0000   0.2693
  12.900   1.3851   0.04535   0.03966  -0.0498  0.0062  1.0000  -6.8812   0.0000   0.0000   0.0000   0.2687
  13.000   1.3816   0.04680   0.04120  -0.0491  0.0061  1.0000  -6.8871   0.0000   0.0000   0.0000   0.2682
  13.100   1.3770   0.04836   0.04285  -0.0486  0.0059  1.0000  -6.8851   0.0000   0.0000   0.0000   0.2677
  13.200   1.3720   0.04995   0.04454  -0.0480  0.0058  1.0000  -6.8766   0.0000   0.0000   0.0000   0.2672
  13.300   1.3666   0.05166   0.04636  -0.0474  0.0057  1.0000  -6.8606   0.0000   0.0000   0.0000   0.2668
  13.400   1.3621   0.05335   0.04813  -0.0469  0.0056  1.0000  -6.8559   0.0000   0.0000   0.0000   0.2664
  13.500   1.3676   0.05371   0.04849  -0.0470  0.0056  1.0000  -7.0043   0.0000   0.0000   0.0000   0.2661
  13.600   1.3730   0.05411   0.04890  -0.0470  0.0055  1.0000  -7.1506   0.0000   0.0000   0.0000   0.2658
  13.700   1.3776   0.05462   0.04942  -0.0471  0.0055  1.0000  -7.2892   0.0000   0.0000   0.0000   0.2655
  13.800   1.3813   0.05527   0.05009  -0.0472  0.0054  1.0000  -7.4176   0.0000   0.0000   0.0000   0.2653
  13.900   1.3848   0.05595   0.05079  -0.0473  0.0054  1.0000  -7.5443   0.0000   0.0000   0.0000   0.2650
  14.000   1.3885   0.05663   0.05149  -0.0473  0.0053  1.0000  -7.6722   0.0000   0.0000   0.0000   0.2648
  14.100   1.3922   0.05733   0.05221  -0.0474  0.0052  1.0000  -7.8006   0.0000   0.0000   0.0000   0.2646
  14.200   1.3957   0.05807   0.05297  -0.0475  0.0051  1.0000  -7.9268   0.0000   0.0000   0.0000   0.2643
  14.300   1.3989   0.05886   0.05378  -0.0476  0.0051  1.0000  -8.0490   0.0000   0.0000   0.0000   0.2641
  14.400   1.4017   0.05971   0.05466  -0.0476  0.0050  1.0000  -8.1659   0.0000   0.0000   0.0000   0.2639
  14.500   1.4040   0.06063   0.05562  -0.0477  0.0049  1.0000  -8.2770   0.0000   0.0000   0.0000   0.2636
  14.600   1.4051   0.06175   0.05678  -0.0479  0.0048  1.0000  -8.3723   0.0000   0.0000   0.0000   0.2635
  14.700   1.4052   0.06303   0.05809  -0.0481  0.0047  1.0000  -8.4557   0.0000   0.0000   0.0000   0.2634
  14.800   1.4055   0.06429   0.05940  -0.0482  0.0046  1.0000  -8.5399   0.0000   0.0000   0.0000   0.2633
  14.900   1.4058   0.06556   0.06072  -0.0484  0.0045  1.0000  -8.6242   0.0000   0.0000   0.0000   0.2633
  15.000   1.4060   0.06687   0.06208  -0.0486  0.0044  1.0000  -8.7061   0.0000   0.0000   0.0000   0.2632
  15.100   1.4131   0.06719   0.06246  -0.0489  0.0039  1.0000  -8.9877   0.0000   0.0000   0.0000   0.2630
  15.200   1.4122   0.06868   0.06401  -0.0492  0.0037  1.0000  -9.0693   0.0000   0.0000   0.0000   0.2630
  15.300   1.4099   0.07040   0.06579  -0.0495  0.0036  1.0000  -9.1271   0.0000   0.0000   0.0000   0.2630
  15.400   1.4065   0.07233   0.06779  -0.0500  0.0036  1.0000  -9.1675   0.0000   0.0000   0.0000   0.2633
  15.500   1.4035   0.07421   0.06973  -0.0505  0.0035  1.0000  -9.2110   0.0000   0.0000   0.0000   0.2634
  15.600   1.4006   0.07609   0.07168  -0.0509  0.0034  1.0000  -9.2533   0.0000   0.0000   0.0000   0.2636
  15.700   1.3975   0.07800   0.07366  -0.0514  0.0033  1.0000  -9.2909   0.0000   0.0000   0.0000   0.2639
  15.800   1.3937   0.08005   0.07578  -0.0520  0.0033  1.0000  -9.3185   0.0000   0.0000   0.0000   0.2642
  15.900   1.3888   0.08236   0.07817  -0.0529  0.0032  1.0000  -9.3293   0.0000   0.0000   0.0000   0.2647
  16.000   1.3845   0.08457   0.08044  -0.0537  0.0032  1.0000  -9.3455   0.0000   0.0000   0.0000   0.2652
  16.100   1.3803   0.08673   0.08268  -0.0544  0.0031  1.0000  -9.3623   0.0000   0.0000   0.0000   0.2656
  16.200   1.3760   0.08893   0.08495  -0.0552  0.0031  1.0000  -9.3755   0.0000   0.0000   0.0000   0.2661
  16.300   1.3706   0.09143   0.08752  -0.0563  0.0031  1.0000  -9.3709   0.0000   0.0000   0.0000   0.2669
  16.400   1.3652   0.09393   0.09010  -0.0575  0.0031  1.0000  -9.3638   0.0000   0.0000   0.0000   0.2677
  16.500   1.3602   0.09633   0.09257  -0.0586  0.0030  1.0000  -9.3606   0.0000   0.0000   0.0000   0.2684
  16.600   1.3551   0.09875   0.09506  -0.0597  0.0030  1.0000  -9.3546   0.0000   0.0000   0.0000   0.2692
  16.700   1.3490   0.10148   0.09787  -0.0611  0.0030  1.0000  -9.3305   0.0000   0.0000   0.0000   0.2702
  16.800   1.3430   0.10419   0.10065  -0.0625  0.0030  1.0000  -9.3059   0.0000   0.0000   0.0000   0.2713
  16.900   1.3375   0.10678   0.10332  -0.0639  0.0030  1.0000  -9.2848   0.0000   0.0000   0.0000   0.2723
  17.000   1.3318   0.10941   0.10602  -0.0653  0.0030  1.0000  -9.2585   0.0000   0.0000   0.0000   0.2734
  17.100   1.3249   0.11228   0.10896  -0.0671  0.0030  1.0000  -9.2114   0.0000   0.0000   0.0000   0.2748
  17.200   1.3187   0.11491   0.11166  -0.0687  0.0029  1.0000  -9.1724   0.0000   0.0000   0.0000   0.2761
  17.300   1.3127   0.11753   0.11434  -0.0703  0.0029  1.0000  -9.1335   0.0000   0.0000   0.0000   0.2774
  17.400   1.3059   0.12049   0.11738  -0.0722  0.0029  1.0000  -9.0770   0.0000   0.0000   0.0000   0.2789
  17.500   1.2991   0.12355   0.12050  -0.0742  0.0030  1.0000  -9.0164   0.0000   0.0000   0.0000   0.2805
  17.600   1.2928   0.12651   0.12353  -0.0760  0.0030  1.0000  -8.9610   0.0000   0.0000   0.0000   0.2820
  17.700   1.2861   0.12964   0.12673  -0.0780  0.0030  1.0000  -8.8965   0.0000   0.0000   0.0000   0.2837
  17.800   1.2785   0.13320   0.13036  -0.0802  0.0030  1.0000  -8.8099   0.0000   0.0000   0.0000   0.2857
  17.900   1.2717   0.13654   0.13376  -0.0823  0.0030  1.0000  -8.7343   0.0000   0.0000   0.0000   0.2875
  18.000   1.2650   0.13996   0.13724  -0.0844  0.0030  1.0000  -8.6548   0.0000   0.0000   0.0000   0.2893
  18.100   1.2567   0.14396   0.14131  -0.0869  0.0030  1.0000  -8.5426   0.0000   0.0000   0.0000   0.2916
  18.200   1.2494   0.14774   0.14516  -0.0891  0.0031  1.0000  -8.4417   0.0000   0.0000   0.0000   0.2937
  18.300   1.2422   0.15157   0.14904  -0.0914  0.0031  1.0000  -8.3388   0.0000   0.0000   0.0000   0.2958
  18.400   1.2334   0.15603   0.15356  -0.0940  0.0032  1.0000  -8.1975   0.0000   0.0000   0.0000   0.2984
  18.500   1.2253   0.16037   0.15796  -0.0965  0.0032  1.0000  -8.0613   0.0000   0.0000   0.0000   0.3009
  18.600   1.2174   0.16474   0.16238  -0.0989  0.0033  1.0000  -7.9222   0.0000   0.0000   0.0000   0.3033
  18.700   1.2076   0.16988   0.16759  -0.1018  0.0034  1.0000  -7.7183   0.0000   0.0000   0.0000   0.3063
  18.800   1.1964   0.17563   0.17332  -0.1048  0.0037  1.0000  -7.4458   0.0000   0.0000   0.0000   0.3096
  18.900   1.1844   0.18181   0.17956  -0.1079  0.0038  1.0000  -7.1973   0.0000   0.0000   0.0000   0.3132
  19.000   1.1673   0.19021   0.18803  -0.1120  0.0040  1.0000  -6.8044   0.0000   0.0000   0.0000   0.3182
  19.300   1.0660   0.24299   0.24086  -0.1305  0.0051  1.0000  -3.7839   0.0000   0.0000   0.0000   0.3473
  19.400   1.0659   0.24583   0.24369  -0.1315  0.0050  1.0000  -3.7693   0.0000   0.0000   0.0000   0.3480
  19.500   1.0655   0.24883   0.24669  -0.1324  0.0049  1.0000  -3.7439   0.0000   0.0000   0.0000   0.3489
  19.600   1.0649   0.25199   0.24986  -0.1334  0.0048  1.0000  -3.7068   0.0000   0.0000   0.0000   0.3498
  19.700   1.0638   0.25533   0.25319  -0.1344  0.0047  1.0000  -3.6577   0.0000   0.0000   0.0000   0.3507
  19.800   1.0625   0.25881   0.25667  -0.1354  0.0046  1.0000  -3.5974   0.0000   0.0000   0.0000   0.3517
  19.900   1.0610   0.26242   0.26028  -0.1364  0.0046  1.0000  -3.5273   0.0000   0.0000   0.0000   0.3528
  20.000   1.0592   0.26614   0.26400  -0.1374  0.0045  1.0000  -3.4484   0.0000   0.0000   0.0000   0.3538
  20.100   1.0573   0.26990   0.26775  -0.1384  0.0044  1.0000  -3.3647   0.0000   0.0000   0.0000   0.3549
  20.200   1.0553   0.27365   0.27150  -0.1393  0.0044  1.0000  -3.2795   0.0000   0.0000   0.0000   0.3560
  20.300   1.0532   0.27736   0.27521  -0.1402  0.0043  1.0000  -3.1950   0.0000   0.0000   0.0000   0.3570
  20.400   1.0511   0.28100   0.27885  -0.1410  0.0043  1.0000  -3.1124   0.0000   0.0000   0.0000   0.3580
  20.500   1.0489   0.28456   0.28240  -0.1418  0.0043  1.0000  -3.0326   0.0000   0.0000   0.0000   0.3590
  20.600   1.0466   0.28803   0.28587  -0.1425  0.0043  1.0000  -2.9558   0.0000   0.0000   0.0000   0.3599
  20.700   1.0441   0.29140   0.28925  -0.1432  0.0043  1.0000  -2.8819   0.0000   0.0000   0.0000   0.3608
  20.800   1.0414   0.29467   0.29252  -0.1439  0.0043  1.0000  -2.8107   0.0000   0.0000   0.0000   0.3617
  20.900   1.0385   0.29783   0.29568  -0.1444  0.0044  1.0000  -2.7418   0.0000   0.0000   0.0000   0.3625
  21.000   1.0351   0.30085   0.29871  -0.1449  0.0044  1.0000  -2.6746   0.0000   0.0000   0.0000   0.3634
  21.100   1.0312   0.30373   0.30159  -0.1453  0.0045  1.0000  -2.6080   0.0000   0.0000   0.0000   0.3643
  21.200   1.0264   0.30640   0.30427  -0.1456  0.0046  1.0000  -2.5409   0.0000   0.0000   0.0000   0.3652
  21.300   1.0203   0.30878   0.30666  -0.1458  0.0046  1.0000  -2.4708   0.0000   0.0000   0.0000   0.3661
  21.400   0.9668   0.30054   0.29851  -0.1405  0.0048  1.0000  -2.2620   0.0000   0.0000   0.0000   0.3692
  21.500   0.9553   0.30027   0.29826  -0.1399  0.0049  1.0000  -2.1773   0.0000   0.0000   0.0000   0.3703
  21.600   0.9455   0.30039   0.29839  -0.1394  0.0050  1.0000  -2.0921   0.0000   0.0000   0.0000   0.3715
  22.200   0.9256   0.30190   0.30000  -0.1390  0.0061  1.0000  -2.0193   0.0000   0.0000   0.0000   0.3735
  22.300   0.9232   0.30311   0.30121  -0.1393  0.0065  1.0000  -1.9410   0.0000   0.0000   0.0000   0.3742
  22.400   0.9155   0.30506   0.30316  -0.1396  0.0070  1.0000  -1.7472   0.0000   0.0000   0.0000   0.3760
  22.500   0.9115   0.30603   0.30414  -0.1398  0.0072  1.0000  -1.6829   0.0000   0.0000   0.0000   0.3769
  22.600   0.9084   0.30684   0.30496  -0.1401  0.0072  1.0000  -1.6412   0.0000   0.0000   0.0000   0.3776
  22.700   0.9057   0.30760   0.30573  -0.1403  0.0073  1.0000  -1.6097   0.0000   0.0000   0.0000   0.3782
  22.800   0.9033   0.30833   0.30646  -0.1405  0.0073  1.0000  -1.5841   0.0000   0.0000   0.0000   0.3788
  22.900   0.9011   0.30904   0.30718  -0.1407  0.0073  1.0000  -1.5625   0.0000   0.0000   0.0000   0.3793
  23.000   0.8991   0.30974   0.30788  -0.1410  0.0073  1.0000  -1.5441   0.0000   0.0000   0.0000   0.3798
  23.100   0.8973   0.31043   0.30858  -0.1412  0.0073  1.0000  -1.5280   0.0000   0.0000   0.0000   0.3803
  23.200   0.8956   0.31111   0.30927  -0.1414  0.0073  1.0000  -1.5139   0.0000   0.0000   0.0000   0.3808
  23.300   0.8940   0.31179   0.30995  -0.1417  0.0072  1.0000  -1.5015   0.0000   0.0000   0.0000   0.3812
  23.400   0.8925   0.31247   0.31063  -0.1419  0.0072  1.0000  -1.4905   0.0000   0.0000   0.0000   0.3816
  23.500   0.8911   0.31314   0.31131  -0.1422  0.0072  1.0000  -1.4809   0.0000   0.0000   0.0000   0.3820
  23.600   0.8898   0.31380   0.31198  -0.1425  0.0071  1.0000  -1.4725   0.0000   0.0000   0.0000   0.3824
  23.700   0.8885   0.31447   0.31265  -0.1427  0.0071  1.0000  -1.4652   0.0000   0.0000   0.0000   0.3828
  23.800   0.8874   0.31513   0.31332  -0.1430  0.0070  1.0000  -1.4589   0.0000   0.0000   0.0000   0.3832
  23.900   0.8862   0.31578   0.31398  -0.1433  0.0070  1.0000  -1.4535   0.0000   0.0000   0.0000   0.3835
  24.000   0.8852   0.31643   0.31464  -0.1435  0.0070  1.0000  -1.4491   0.0000   0.0000   0.0000   0.3839
  24.100   0.8842   0.31708   0.31529  -0.1438  0.0069  1.0000  -1.4455   0.0000   0.0000   0.0000   0.3842
  24.200   0.8833   0.31773   0.31594  -0.1441  0.0069  1.0000  -1.4428   0.0000   0.0000   0.0000   0.3845
  24.300   0.8824   0.31836   0.31658  -0.1443  0.0068  1.0000  -1.4409   0.0000   0.0000   0.0000   0.3848
  24.400   0.8815   0.31900   0.31722  -0.1446  0.0068  1.0000  -1.4397   0.0000   0.0000   0.0000   0.3851
  24.500   0.8807   0.31963   0.31786  -0.1449  0.0067  1.0000  -1.4393   0.0000   0.0000   0.0000   0.3854
  24.600   0.8800   0.32025   0.31849  -0.1451  0.0066  1.0000  -1.4395   0.0000   0.0000   0.0000   0.3857
  24.700   0.8792   0.32087   0.31911  -0.1454  0.0066  1.0000  -1.4404   0.0000   0.0000   0.0000   0.3860
  24.800   0.8785   0.32148   0.31973  -0.1457  0.0065  1.0000  -1.4419   0.0000   0.0000   0.0000   0.3862
  24.900   0.8779   0.32209   0.32035  -0.1459  0.0065  1.0000  -1.4439   0.0000   0.0000   0.0000   0.3865
  25.000   0.8772   0.32270   0.32096  -0.1462  0.0064  1.0000  -1.4464   0.0000   0.0000   0.0000   0.3867
  25.100   0.8766   0.32330   0.32157  -0.1464  0.0064  1.0000  -1.4492   0.0000   0.0000   0.0000   0.3869
  25.200   0.8760   0.32390   0.32218  -0.1466  0.0063  1.0000  -1.4522   0.0000   0.0000   0.0000   0.3871
  25.300   0.8753   0.32451   0.32279  -0.1468  0.0063  1.0000  -1.4553   0.0000   0.0000   0.0000   0.3873
  25.400   0.8746   0.32517   0.32345  -0.1471  0.0062  1.0000  -1.4531   0.0000   0.0000   0.0000   0.3876
  25.500   0.8737   0.32585   0.32415  -0.1473  0.0061  1.0000  -1.4483   0.0000   0.0000   0.0000   0.3878
  25.600   0.8727   0.32657   0.32486  -0.1476  0.0061  1.0000  -1.4406   0.0000   0.0000   0.0000   0.3881
  25.700   0.8715   0.32735   0.32565  -0.1478  0.0060  1.0000  -1.4254   0.0000   0.0000   0.0000   0.3885
  25.800   0.8697   0.32826   0.32656  -0.1479  0.0059  1.0000  -1.3954   0.0000   0.0000   0.0000   0.3889
  26.000   0.8624   0.33137   0.32966  -0.1481  0.0056  1.0000  -1.2096   0.0000   0.0000   0.0000   0.3905
  26.100   0.8619   0.33217   0.33046  -0.1484  0.0056  1.0000  -1.2015   0.0000   0.0000   0.0000   0.3908
  26.200   0.8615   0.33297   0.33126  -0.1487  0.0056  1.0000  -1.1936   0.0000   0.0000   0.0000   0.3911
  26.300   0.8611   0.33377   0.33207  -0.1491  0.0056  1.0000  -1.1857   0.0000   0.0000   0.0000   0.3914
  26.400   0.8607   0.33457   0.33287  -0.1494  0.0056  1.0000  -1.1781   0.0000   0.0000   0.0000   0.3917
  26.500   0.8604   0.33537   0.33368  -0.1498  0.0056  1.0000  -1.1704   0.0000   0.0000   0.0000   0.3920
  26.600   0.8600   0.33617   0.33448  -0.1501  0.0056  1.0000  -1.1628   0.0000   0.0000   0.0000   0.3923
  26.700   0.8596   0.33697   0.33528  -0.1505  0.0056  1.0000  -1.1554   0.0000   0.0000   0.0000   0.3926
  26.800   0.8593   0.33777   0.33609  -0.1508  0.0056  1.0000  -1.1480   0.0000   0.0000   0.0000   0.3929
  26.900   0.8590   0.33857   0.33689  -0.1512  0.0056  1.0000  -1.1408   0.0000   0.0000   0.0000   0.3932
  27.000   0.8587   0.33937   0.33770  -0.1515  0.0056  1.0000  -1.1337   0.0000   0.0000   0.0000   0.3935
  27.100   0.8584   0.34017   0.33850  -0.1519  0.0056  1.0000  -1.1268   0.0000   0.0000   0.0000   0.3938
  27.200   0.8581   0.34097   0.33931  -0.1522  0.0056  1.0000  -1.1199   0.0000   0.0000   0.0000   0.3940
  27.300   0.8578   0.34177   0.34011  -0.1526  0.0056  1.0000  -1.1131   0.0000   0.0000   0.0000   0.3943


