xflr5 v6.61

 Calculated polar for: S4062-095-87

 1 1 Reynolds number fixed          Mach number fixed         

 xtrf =   1.000 (top)        1.000 (bottom)
 Mach =   0.000     Re =     0.625 e 6     Ncrit =   9.000

  alpha     CL        CD       CDp       Cm    Top Xtr Bot Xtr   Cpmin    Chinge    XCp    
 ------- -------- --------- --------- -------- ------- ------- -------- --------- ---------
 -10.000  -0.2908   0.10629   0.10414  -0.0423  0.9820  0.0089  -1.7399   0.0000   0.0000   0.0000   0.0936
  -9.900  -0.2847   0.10478   0.10262  -0.0440  0.9785  0.0091  -1.7212   0.0000   0.0000   0.0000   0.0845
  -9.800  -0.2784   0.10323   0.10108  -0.0457  0.9752  0.0093  -1.7043   0.0000   0.0000   0.0000   0.0748
  -9.700  -0.2720   0.10167   0.09951  -0.0475  0.9720  0.0096  -1.6893   0.0000   0.0000   0.0000   0.0643
  -9.600  -0.2662   0.10016   0.09799  -0.0490  0.9682  0.0098  -1.6772   0.0000   0.0000   0.0000   0.0545
  -9.500  -0.2610   0.09869   0.09651  -0.0505  0.9639  0.0101  -1.6678   0.0000   0.0000   0.0000   0.0452
  -9.400  -0.2560   0.09724   0.09505  -0.0518  0.9594  0.0104  -1.6604   0.0000   0.0000   0.0000   0.0361
  -9.300  -0.2515   0.09582   0.09362  -0.0531  0.9548  0.0107  -1.6551   0.0000   0.0000   0.0000   0.0273
  -9.100  -0.2450   0.09323   0.09101  -0.0548  0.9454  0.0112  -1.6518   0.0000   0.0000   0.0000   0.0146
  -9.000  -0.2429   0.09203   0.08980  -0.0554  0.9406  0.0115  -1.6532   0.0000   0.0000   0.0000   0.0104
  -8.900  -0.2408   0.09082   0.08858  -0.0560  0.9360  0.0118  -1.6559   0.0000   0.0000   0.0000   0.0061
  -8.800  -0.2388   0.08960   0.08734  -0.0565  0.9316  0.0121  -1.6597   0.0000   0.0000   0.0000   0.0018
  -8.700  -0.2367   0.08837   0.08609  -0.0571  0.9273  0.0124  -1.6650   0.0000   0.0000   0.0000  -0.0026
  -8.600  -0.2345   0.08711   0.08482  -0.0578  0.9228  0.0127  -1.6718   0.0000   0.0000   0.0000  -0.0078
  -8.500  -0.2327   0.08586   0.08357  -0.0584  0.9201  0.0131  -1.6805   0.0000   0.0000   0.0000  -0.0122
  -8.400  -0.2310   0.08461   0.08233  -0.0590  0.9169  0.0134  -1.6909   0.0000   0.0000   0.0000  -0.0166
  -8.300  -0.2293   0.08337   0.08108  -0.0596  0.9135  0.0138  -1.7031   0.0000   0.0000   0.0000  -0.0211
  -8.200  -0.2276   0.08214   0.07985  -0.0602  0.9099  0.0142  -1.7166   0.0000   0.0000   0.0000  -0.0256
  -8.100  -0.2257   0.08095   0.07865  -0.0608  0.9063  0.0146  -1.7293   0.0000   0.0000   0.0000  -0.0304
  -8.000  -0.2232   0.07985   0.07753  -0.0614  0.9026  0.0151  -1.7369   0.0000   0.0000   0.0000  -0.0359
  -7.900  -0.2188   0.07904   0.07671  -0.0619  0.8990  0.0157  -1.7237   0.0000   0.0000   0.0000  -0.0437
  -7.800  -0.2125   0.07861   0.07626  -0.0624  0.8950  0.0163  -1.6872   0.0000   0.0000   0.0000  -0.0547
  -7.700  -0.2081   0.07784   0.07548  -0.0631  0.8915  0.0166  -1.6698   0.0000   0.0000   0.0000  -0.0644
  -7.600  -0.2053   0.07679   0.07444  -0.0638  0.8895  0.0167  -1.6683   0.0000   0.0000   0.0000  -0.0718
  -7.500  -0.2031   0.07564   0.07329  -0.0645  0.8871  0.0168  -1.6730   0.0000   0.0000   0.0000  -0.0785
  -7.400  -0.2013   0.07443   0.07209  -0.0652  0.8844  0.0168  -1.6810   0.0000   0.0000   0.0000  -0.0849
  -7.300  -0.1998   0.07319   0.07085  -0.0659  0.8815  0.0168  -1.6915   0.0000   0.0000   0.0000  -0.0907
  -7.200  -0.1988   0.07194   0.06960  -0.0666  0.8784  0.0169  -1.7040   0.0000   0.0000   0.0000  -0.0958
  -7.100  -0.1982   0.07070   0.06836  -0.0673  0.8752  0.0169  -1.7185   0.0000   0.0000   0.0000  -0.1001
  -7.000  -0.1970   0.06939   0.06704  -0.0683  0.8720  0.0169  -1.7345   0.0000   0.0000   0.0000  -0.1072
  -6.900  -0.1944   0.06787   0.06552  -0.0698  0.8688  0.0169  -1.7519   0.0000   0.0000   0.0000  -0.1195
  -6.800  -0.1914   0.06627   0.06390  -0.0716  0.8653  0.0170  -1.7711   0.0000   0.0000   0.0000  -0.1341
  -6.700  -0.1877   0.06458   0.06218  -0.0735  0.8613  0.0170  -1.7924   0.0000   0.0000   0.0000  -0.1517
  -6.600  -0.1833   0.06277   0.06035  -0.0757  0.8571  0.0170  -1.8162   0.0000   0.0000   0.0000  -0.1732
  -6.500  -0.1785   0.06078   0.05836  -0.0781  0.8557  0.0170  -1.8432   0.0000   0.0000   0.0000  -0.1976
  -6.400  -0.1732   0.05868   0.05624  -0.0805  0.8540  0.0170  -1.8736   0.0000   0.0000   0.0000  -0.2254
  -6.300  -0.1705   0.05484   0.05239  -0.0845  0.8517  0.0171  -1.9995   0.0000   0.0000   0.0000  -0.2562
  -6.200  -0.1770   0.04590   0.04330  -0.0923  0.8486  0.0178  -2.4095   0.0000   0.0000   0.0000  -0.2818
  -6.100  -0.1770   0.04154   0.03882  -0.0954  0.8460  0.0185  -2.5527   0.0000   0.0000   0.0000  -0.2997
  -6.000  -0.1720   0.03989   0.03712  -0.0966  0.8439  0.0192  -2.5257   0.0000   0.0000   0.0000  -0.3221
  -5.900  -0.1651   0.03905   0.03624  -0.0972  0.8420  0.0198  -2.4516   0.0000   0.0000   0.0000  -0.3496
  -5.800  -0.1572   0.03873   0.03591  -0.0974  0.8402  0.0205  -2.3483   0.0000   0.0000   0.0000  -0.3805
  -5.700  -0.1491   0.03847   0.03564  -0.0976  0.8383  0.0213  -2.2464   0.0000   0.0000   0.0000  -0.4155
  -5.600  -0.1408   0.03781   0.03495  -0.0980  0.8364  0.0221  -2.1725   0.0000   0.0000   0.0000  -0.4571
  -5.500  -0.1324   0.03687   0.03395  -0.0986  0.8345  0.0230  -2.1188   0.0000   0.0000   0.0000  -0.5061
  -5.400  -0.1237   0.03573   0.03274  -0.0992  0.8325  0.0241  -2.0805   0.0000   0.0000   0.0000  -0.5641
  -5.300  -0.1149   0.03425   0.03107  -0.1000  0.8304  0.0250  -2.0704   0.0000   0.0000   0.0000  -0.6330
  -5.200  -0.1055   0.03317   0.02990  -0.1005  0.8281  0.0268  -2.0360   0.0000   0.0000   0.0000  -0.7169
  -5.100  -0.0949   0.03230   0.02895  -0.1008  0.8257  0.0290  -2.0007   0.0000   0.0000   0.0000  -0.8274
  -5.000  -0.0798   0.03378   0.03043  -0.1000  0.8233  0.0321  -1.8771   0.0000   0.0000   0.0000  -1.0218
  -4.900  -0.0661   0.03471   0.03130  -0.0997  0.8205  0.0330  -1.7866   0.0000   0.0000   0.0000  -1.2802
  -4.800  -0.0563   0.03365   0.03013  -0.1002  0.8189  0.0331  -1.7695   0.0000   0.0000   0.0000  -1.5531
  -4.700  -0.0469   0.03235   0.02873  -0.1007  0.8181  0.0332  -1.7582   0.0000   0.0000   0.0000  -1.9243
  -4.600  -0.0471   0.02455   0.02042  -0.1034  0.8170  0.0357  -2.0083   0.0000   0.0000   0.0000  -1.9755
  -4.500  -0.0379   0.02319   0.01899  -0.1037  0.8160  0.0369  -1.9728   0.0000   0.0000   0.0000  -2.5215
  -4.400  -0.0279   0.02226   0.01800  -0.1039  0.8148  0.0378  -1.9265   0.0000   0.0000   0.0000  -3.5266
  -4.300  -0.0175   0.02140   0.01707  -0.1040  0.8136  0.0385  -1.8821   0.0000   0.0000   0.0000  -5.7698
  -4.200  -0.0069   0.02056   0.01615  -0.1041  0.8123  0.0392  -1.8411   0.0000   0.0000   0.0000  -14.9711
  -4.100   0.0038   0.01972   0.01524  -0.1041  0.8108  0.0397  -1.8023   0.0000   0.0000   0.0000  27.9909
  -3.900   0.0283   0.01394   0.00853  -0.1027  0.8080  0.0197  -2.2078   0.0000   0.0000   0.0000   3.9211
  -3.800   0.0404   0.01352   0.00807  -0.1024  0.8063  0.0155  -2.2089   0.0000   0.0000   0.0000   2.8182
  -3.700   0.0512   0.01225   0.00660  -0.1021  0.8047  0.0140  -2.2490   0.0000   0.0000   0.0000   2.2702
  -3.600   0.0621   0.01143   0.00565  -0.1018  0.8029  0.0130  -2.2510   0.0000   0.0000   0.0000   1.9085
  -3.500   0.0732   0.01082   0.00492  -0.1016  0.8011  0.0123  -2.2343   0.0000   0.0000   0.0000   1.6548
  -3.400   0.0843   0.01035   0.00435  -0.1014  0.7993  0.0117  -2.2032   0.0000   0.0000   0.0000   1.4670
  -3.300   0.0955   0.00999   0.00389  -0.1013  0.7974  0.0112  -2.1610   0.0000   0.0000   0.0000   1.3222
  -3.200   0.1068   0.00972   0.00354  -0.1011  0.7956  0.0109  -2.1084   0.0000   0.0000   0.0000   1.2074
  -3.100   0.1181   0.00951   0.00326  -0.1010  0.7937  0.0107  -2.0468   0.0000   0.0000   0.0000   1.1145
  -3.000   0.1294   0.00935   0.00304  -0.1010  0.7919  0.0105  -1.9766   0.0000   0.0000   0.0000   1.0379
  -2.900   0.1408   0.00923   0.00285  -0.1009  0.7899  0.0104  -1.9007   0.0000   0.0000   0.0000   0.9737
  -2.800   0.1522   0.00914   0.00271  -0.1009  0.7878  0.0104  -1.8213   0.0000   0.0000   0.0000   0.9191
  -2.700   0.1635   0.00908   0.00259  -0.1009  0.7854  0.0104  -1.7401   0.0000   0.0000   0.0000   0.8722
  -2.600   0.1750   0.00903   0.00250  -0.1009  0.7828  0.0105  -1.6577   0.0000   0.0000   0.0000   0.8313
  -2.500   0.1864   0.00901   0.00243  -0.1009  0.7798  0.0107  -1.5748   0.0000   0.0000   0.0000   0.7955
  -2.400   0.1979   0.00897   0.00236  -0.1009  0.7784  0.0110  -1.4914   0.0000   0.0000   0.0000   0.7638
  -2.300   0.2094   0.00890   0.00227  -0.1009  0.7778  0.0114  -1.4075   0.0000   0.0000   0.0000   0.7355
  -2.200   0.2209   0.00885   0.00221  -0.1009  0.7770  0.0120  -1.3236   0.0000   0.0000   0.0000   0.7101
  -2.100   0.2323   0.00879   0.00215  -0.1010  0.7761  0.0129  -1.2411   0.0000   0.0000   0.0000   0.6873
  -2.000   0.2438   0.00873   0.00211  -0.1010  0.7751  0.0140  -1.1620   0.0000   0.0000   0.0000   0.6667
  -1.900   0.2552   0.00868   0.00208  -0.1010  0.7740  0.0153  -1.0884   0.0000   0.0000   0.0000   0.6481
  -1.800   0.2666   0.00863   0.00205  -0.1011  0.7729  0.0168  -1.0198   0.0000   0.0000   0.0000   0.6310
  -1.700   0.2776   0.00837   0.00199  -0.1012  0.7715  0.0561  -0.9577   0.0000   0.0000   0.0000   0.6161
  -1.600   0.2888   0.00823   0.00196  -0.1012  0.7701  0.0791  -0.8969   0.0000   0.0000   0.0000   0.6020
  -1.500   0.3000   0.00809   0.00194  -0.1013  0.7685  0.1056  -0.8376   0.0000   0.0000   0.0000   0.5890
  -1.400   0.3111   0.00797   0.00192  -0.1014  0.7668  0.1309  -0.7790   0.0000   0.0000   0.0000   0.5770
  -1.300   0.3223   0.00786   0.00192  -0.1015  0.7649  0.1573  -0.7194   0.0000   0.0000   0.0000   0.5657
  -1.200   0.3322   0.00725   0.00198  -0.1017  0.7631  0.3320  -0.6393   0.0000   0.0000   0.0000   0.5570
  -1.100   0.3432   0.00714   0.00197  -0.1018  0.7612  0.3652  -0.5913   0.0000   0.0000   0.0000   0.5470
  -1.000   0.3544   0.00706   0.00195  -0.1018  0.7593  0.3916  -0.5540   0.0000   0.0000   0.0000   0.5376
  -0.900   0.3654   0.00695   0.00194  -0.1018  0.7575  0.4255  -0.5596   0.0000   0.0000   0.0000   0.5289
  -0.800   0.3765   0.00687   0.00193  -0.1018  0.7557  0.4554  -0.5653   0.0000   0.0000   0.0000   0.5206
  -0.700   0.3874   0.00678   0.00192  -0.1018  0.7538  0.4896  -0.5709   0.0000   0.0000   0.0000   0.5128
  -0.600   0.3982   0.00666   0.00192  -0.1018  0.7517  0.5349  -0.5765   0.0000   0.0000   0.0000   0.5054
  -0.500   0.4088   0.00654   0.00193  -0.1017  0.7494  0.5818  -0.5820   0.0000   0.0000   0.0000   0.4985
  -0.400   0.4194   0.00643   0.00193  -0.1016  0.7467  0.6267  -0.5874   0.0000   0.0000   0.0000   0.4918
  -0.300   0.4298   0.00636   0.00195  -0.1014  0.7434  0.6686  -0.5934   0.0000   0.0000   0.0000   0.4854
  -0.200   0.4401   0.00629   0.00198  -0.1012  0.7393  0.7130  -0.5994   0.0000   0.0000   0.0000   0.4794
   0.000   0.4589   0.00605   0.00203  -0.1003  0.7348  0.8137  -0.6127   0.0000   0.0000   0.0000   0.4677
   0.100   0.4664   0.00588   0.00203  -0.0992  0.7336  0.8786  -0.6204   0.0000   0.0000   0.0000   0.4619
   0.200   0.4803   0.00572   0.00198  -0.0995  0.7321  0.9587  -0.6325   0.0000   0.0000   0.0000   0.4562
   0.300   0.4988   0.00567   0.00192  -0.1011  0.7300  1.0000  -0.6469   0.0000   0.0000   0.0000   0.4516
   0.400   0.5101   0.00566   0.00190  -0.1011  0.7278  1.0000  -0.6573   0.0000   0.0000   0.0000   0.4471
   0.500   0.5213   0.00566   0.00188  -0.1011  0.7253  1.0000  -0.6682   0.0000   0.0000   0.0000   0.4427
   0.600   0.5325   0.00566   0.00186  -0.1011  0.7226  1.0000  -0.6801   0.0000   0.0000   0.0000   0.4385
   0.700   0.5437   0.00567   0.00184  -0.1011  0.7199  1.0000  -0.6920   0.0000   0.0000   0.0000   0.4345
   0.800   0.5549   0.00568   0.00183  -0.1011  0.7172  1.0000  -0.7039   0.0000   0.0000   0.0000   0.4306
   0.900   0.5660   0.00569   0.00182  -0.1011  0.7146  1.0000  -0.7159   0.0000   0.0000   0.0000   0.4269
   1.000   0.5772   0.00571   0.00181  -0.1011  0.7119  1.0000  -0.7278   0.0000   0.0000   0.0000   0.4234
   1.100   0.5883   0.00573   0.00180  -0.1011  0.7089  1.0000  -0.7399   0.0000   0.0000   0.0000   0.4199
   1.200   0.5994   0.00575   0.00179  -0.1010  0.7056  1.0000  -0.7537   0.0000   0.0000   0.0000   0.4166
   1.300   0.6104   0.00578   0.00179  -0.1010  0.7018  1.0000  -0.7674   0.0000   0.0000   0.0000   0.4134
   1.400   0.6215   0.00583   0.00180  -0.1010  0.6976  1.0000  -0.7812   0.0000   0.0000   0.0000   0.4104
   1.500   0.6327   0.00589   0.00182  -0.1010  0.6934  1.0000  -0.7951   0.0000   0.0000   0.0000   0.4074
   1.600   0.6439   0.00592   0.00184  -0.1011  0.6911  1.0000  -0.8092   0.0000   0.0000   0.0000   0.4046
   1.700   0.6552   0.00592   0.00185  -0.1011  0.6899  1.0000  -0.8233   0.0000   0.0000   0.0000   0.4019
   1.800   0.6664   0.00592   0.00186  -0.1011  0.6884  1.0000  -0.8374   0.0000   0.0000   0.0000   0.3992
   1.900   0.6777   0.00593   0.00187  -0.1011  0.6863  1.0000  -0.8516   0.0000   0.0000   0.0000   0.3966
   2.000   0.6889   0.00594   0.00187  -0.1011  0.6839  1.0000  -0.8666   0.0000   0.0000   0.0000   0.3941
   2.100   0.7001   0.00595   0.00188  -0.1012  0.6813  1.0000  -0.8831   0.0000   0.0000   0.0000   0.3917
   2.200   0.7113   0.00596   0.00192  -0.1012  0.6787  1.0000  -0.8997   0.0000   0.0000   0.0000   0.3894
   2.300   0.7225   0.00598   0.00193  -0.1012  0.6759  1.0000  -0.9164   0.0000   0.0000   0.0000   0.3871
   2.400   0.7336   0.00600   0.00194  -0.1012  0.6730  1.0000  -0.9331   0.0000   0.0000   0.0000   0.3849
   2.500   0.7448   0.00603   0.00195  -0.1012  0.6699  1.0000  -0.9499   0.0000   0.0000   0.0000   0.3828
   2.600   0.7558   0.00605   0.00196  -0.1012  0.6663  1.0000  -0.9666   0.0000   0.0000   0.0000   0.3807
   2.700   0.7667   0.00609   0.00196  -0.1011  0.6620  1.0000  -0.9844   0.0000   0.0000   0.0000   0.3786
   2.800   0.7775   0.00613   0.00197  -0.1011  0.6569  1.0000  -1.0040   0.0000   0.0000   0.0000   0.3766
   2.900   0.7883   0.00619   0.00199  -0.1010  0.6509  1.0000  -1.0236   0.0000   0.0000   0.0000   0.3746
   3.000   0.7992   0.00625   0.00202  -0.1010  0.6455  1.0000  -1.0434   0.0000   0.0000   0.0000   0.3728
   3.100   0.8104   0.00626   0.00204  -0.1010  0.6437  1.0000  -1.0636   0.0000   0.0000   0.0000   0.3710
   3.200   0.8216   0.00628   0.00207  -0.1011  0.6417  1.0000  -1.0838   0.0000   0.0000   0.0000   0.3692
   3.300   0.8328   0.00629   0.00210  -0.1011  0.6390  1.0000  -1.1042   0.0000   0.0000   0.0000   0.3675
   3.400   0.8439   0.00632   0.00212  -0.1011  0.6353  1.0000  -1.1245   0.0000   0.0000   0.0000   0.3658
   3.500   0.8549   0.00635   0.00214  -0.1011  0.6304  1.0000  -1.1449   0.0000   0.0000   0.0000   0.3641
   3.600   0.8657   0.00638   0.00216  -0.1010  0.6245  1.0000  -1.1652   0.0000   0.0000   0.0000   0.3625
   3.700   0.8763   0.00643   0.00218  -0.1009  0.6177  1.0000  -1.1854   0.0000   0.0000   0.0000   0.3609
   3.800   0.8868   0.00650   0.00220  -0.1008  0.6102  1.0000  -1.2095   0.0000   0.0000   0.0000   0.3593
   3.900   0.8972   0.00658   0.00224  -0.1007  0.6025  1.0000  -1.2370   0.0000   0.0000   0.0000   0.3577
   4.000   0.9081   0.00663   0.00228  -0.1007  0.5977  1.0000  -1.2674   0.0000   0.0000   0.0000   0.3563
   4.100   0.9192   0.00666   0.00232  -0.1007  0.5944  1.0000  -1.2982   0.0000   0.0000   0.0000   0.3549
   4.200   0.9301   0.00669   0.00236  -0.1007  0.5896  1.0000  -1.3291   0.0000   0.0000   0.0000   0.3535
   4.300   0.9409   0.00674   0.00240  -0.1007  0.5831  1.0000  -1.3599   0.0000   0.0000   0.0000   0.3521
   4.400   0.9514   0.00681   0.00244  -0.1006  0.5745  1.0000  -1.3905   0.0000   0.0000   0.0000   0.3507
   4.500   0.9614   0.00691   0.00249  -0.1004  0.5634  1.0000  -1.4204   0.0000   0.0000   0.0000   0.3493
   4.600   0.9711   0.00704   0.00255  -0.1001  0.5508  1.0000  -1.4503   0.0000   0.0000   0.0000   0.3479
   4.700   0.9817   0.00710   0.00260  -0.1001  0.5416  1.0000  -1.4816   0.0000   0.0000   0.0000   0.3466
   4.800   0.9915   0.00722   0.00266  -0.0999  0.5254  1.0000  -1.5119   0.0000   0.0000   0.0000   0.3453
   4.900   1.0000   0.00744   0.00275  -0.0995  0.5037  1.0000  -1.5408   0.0000   0.0000   0.0000   0.3439
   5.000   1.0098   0.00757   0.00282  -0.0993  0.4876  1.0000  -1.5800   0.0000   0.0000   0.0000   0.3426
   5.100   1.0175   0.00787   0.00296  -0.0988  0.4590  1.0000  -1.6151   0.0000   0.0000   0.0000   0.3413
   5.200   1.0260   0.00810   0.00308  -0.0984  0.4339  1.0000  -1.6523   0.0000   0.0000   0.0000   0.3400
   5.300   1.0332   0.00845   0.00325  -0.0979  0.4028  1.0000  -1.6868   0.0000   0.0000   0.0000   0.3387
   5.400   1.0407   0.00879   0.00343  -0.0974  0.3742  1.0000  -1.7221   0.0000   0.0000   0.0000   0.3374
   5.500   1.0488   0.00906   0.00359  -0.0970  0.3506  1.0000  -1.7590   0.0000   0.0000   0.0000   0.3362
   5.600   1.0567   0.00936   0.00377  -0.0966  0.3290  1.0000  -1.8107   0.0000   0.0000   0.0000   0.3350
   5.700   1.0653   0.00960   0.00391  -0.0963  0.3108  1.0000  -1.8859   0.0000   0.0000   0.0000   0.3339
   5.800   1.0740   0.00982   0.00405  -0.0960  0.2950  1.0000  -1.9626   0.0000   0.0000   0.0000   0.3328
   5.900   1.0870   0.00968   0.00431  -0.0962  0.3142  1.0000  -2.0964   0.0000   0.0000   0.0000   0.3318
   6.000   1.0965   0.00983   0.00444  -0.0960  0.3044  1.0000  -2.1865   0.0000   0.0000   0.0000   0.3307
   6.100   1.1053   0.01004   0.00459  -0.0957  0.2924  1.0000  -2.2721   0.0000   0.0000   0.0000   0.3296
   6.200   1.1136   0.01029   0.00476  -0.0954  0.2778  1.0000  -2.3550   0.0000   0.0000   0.0000   0.3286
   6.300   1.1230   0.01044   0.00490  -0.0951  0.2684  1.0000  -2.4433   0.0000   0.0000   0.0000   0.3275
   6.400   1.1322   0.01061   0.00503  -0.0949  0.2590  1.0000  -2.5313   0.0000   0.0000   0.0000   0.3265
   6.500   1.1405   0.01085   0.00520  -0.0946  0.2469  1.0000  -2.6161   0.0000   0.0000   0.0000   0.3255
   6.600   1.1486   0.01111   0.00538  -0.0942  0.2318  1.0000  -2.7005   0.0000   0.0000   0.0000   0.3244
   6.700   1.1578   0.01127   0.00552  -0.0940  0.2235  1.0000  -2.7911   0.0000   0.0000   0.0000   0.3235
   6.800   1.1656   0.01154   0.00569  -0.0935  0.2090  1.0000  -2.8760   0.0000   0.0000   0.0000   0.3224
   6.900   1.1728   0.01186   0.00591  -0.0931  0.1906  1.0000  -2.9589   0.0000   0.0000   0.0000   0.3214
   7.000   1.1810   0.01210   0.00608  -0.0927  0.1786  1.0000  -3.0474   0.0000   0.0000   0.0000   0.3204
   7.100   1.1874   0.01247   0.00631  -0.0921  0.1605  1.0000  -3.1284   0.0000   0.0000   0.0000   0.3194
   7.200   1.1955   0.01271   0.00649  -0.0917  0.1480  1.0000  -3.2178   0.0000   0.0000   0.0000   0.3184
   7.300   1.2018   0.01308   0.00672  -0.0911  0.1320  1.0000  -3.2998   0.0000   0.0000   0.0000   0.3174
   7.400   1.2091   0.01337   0.00693  -0.0907  0.1181  1.0000  -3.3873   0.0000   0.0000   0.0000   0.3164
   7.500   1.2156   0.01371   0.00717  -0.0901  0.1052  1.0000  -3.4719   0.0000   0.0000   0.0000   0.3154
   7.600   1.2224   0.01403   0.00740  -0.0895  0.0916  1.0000  -3.5580   0.0000   0.0000   0.0000   0.3144
   7.700   1.2297   0.01431   0.00762  -0.0891  0.0829  1.0000  -3.6478   0.0000   0.0000   0.0000   0.3135
   7.800   1.2357   0.01467   0.00789  -0.0884  0.0723  1.0000  -3.7317   0.0000   0.0000   0.0000   0.3124
   7.900   1.2435   0.01490   0.00808  -0.0880  0.0655  1.0000  -3.8253   0.0000   0.0000   0.0000   0.3115
   8.000   1.2515   0.01510   0.00827  -0.0876  0.0617  1.0000  -3.9213   0.0000   0.0000   0.0000   0.3106
   8.100   1.2591   0.01533   0.00848  -0.0871  0.0577  1.0000  -4.0157   0.0000   0.0000   0.0000   0.3097
   8.200   1.2661   0.01559   0.00871  -0.0866  0.0534  1.0000  -4.1080   0.0000   0.0000   0.0000   0.3088
   8.300   1.2733   0.01584   0.00893  -0.0861  0.0487  1.0000  -4.2014   0.0000   0.0000   0.0000   0.3078
   8.400   1.2811   0.01604   0.00913  -0.0857  0.0455  1.0000  -4.2994   0.0000   0.0000   0.0000   0.3070
   8.500   1.2890   0.01622   0.00932  -0.0852  0.0439  1.0000  -4.3988   0.0000   0.0000   0.0000   0.3061
   8.600   1.2966   0.01641   0.00952  -0.0848  0.0420  1.0000  -4.4974   0.0000   0.0000   0.0000   0.3052
   8.700   1.3035   0.01662   0.00972  -0.0842  0.0400  1.0000  -4.5936   0.0000   0.0000   0.0000   0.3043
   8.800   1.3099   0.01685   0.00994  -0.0836  0.0376  1.0000  -4.6874   0.0000   0.0000   0.0000   0.3033
   8.900   1.3156   0.01712   0.01019  -0.0828  0.0349  1.0000  -4.7775   0.0000   0.0000   0.0000   0.3023
   9.000   1.3211   0.01740   0.01045  -0.0820  0.0319  1.0000  -4.8675   0.0000   0.0000   0.0000   0.3013
   9.100   1.3273   0.01763   0.01069  -0.0813  0.0294  1.0000  -4.9616   0.0000   0.0000   0.0000   0.3004
   9.200   1.3359   0.01771   0.01092  -0.0810  0.0334  1.0000  -5.0470   0.0000   0.0000   0.0000   0.2996
   9.300   1.3422   0.01794   0.01116  -0.0803  0.0321  1.0000  -5.1372   0.0000   0.0000   0.0000   0.2986
   9.400   1.3482   0.01819   0.01142  -0.0797  0.0300  1.0000  -5.2289   0.0000   0.0000   0.0000   0.2977
   9.500   1.3544   0.01843   0.01169  -0.0790  0.0282  1.0000  -5.3223   0.0000   0.0000   0.0000   0.2968
   9.600   1.3609   0.01865   0.01193  -0.0784  0.0277  1.0000  -5.4213   0.0000   0.0000   0.0000   0.2960
   9.700   1.3673   0.01888   0.01218  -0.0778  0.0269  1.0000  -5.5199   0.0000   0.0000   0.0000   0.2951
   9.800   1.3733   0.01913   0.01245  -0.0772  0.0257  1.0000  -5.6173   0.0000   0.0000   0.0000   0.2943
   9.900   1.3789   0.01941   0.01274  -0.0766  0.0241  1.0000  -5.7121   0.0000   0.0000   0.0000   0.2934
  10.000   1.3840   0.01974   0.01306  -0.0758  0.0221  1.0000  -5.8041   0.0000   0.0000   0.0000   0.2925
  10.100   1.3884   0.02011   0.01341  -0.0751  0.0198  1.0000  -5.8921   0.0000   0.0000   0.0000   0.2916
  10.200   1.3925   0.02052   0.01380  -0.0743  0.0169  1.0000  -5.9757   0.0000   0.0000   0.0000   0.2907
  10.300   1.3975   0.02087   0.01416  -0.0736  0.0144  1.0000  -6.0603   0.0000   0.0000   0.0000   0.2899
  11.500   1.4144   0.02888   0.02283  -0.0614  0.0055  1.0000  -6.5189   0.0000   0.0000   0.0000   0.2787
  11.600   1.4210   0.02912   0.02307  -0.0611  0.0054  1.0000  -6.6562   0.0000   0.0000   0.0000   0.2781
  11.700   1.4277   0.02936   0.02331  -0.0608  0.0054  1.0000  -6.7947   0.0000   0.0000   0.0000   0.2776
  11.800   1.4342   0.02961   0.02356  -0.0606  0.0053  1.0000  -6.9342   0.0000   0.0000   0.0000   0.2770
  11.900   1.4407   0.02986   0.02382  -0.0603  0.0053  1.0000  -7.0738   0.0000   0.0000   0.0000   0.2764
  12.000   1.4470   0.03014   0.02409  -0.0600  0.0052  1.0000  -7.2129   0.0000   0.0000   0.0000   0.2759
  12.100   1.4532   0.03043   0.02439  -0.0597  0.0052  1.0000  -7.3508   0.0000   0.0000   0.0000   0.2753
  12.200   1.4591   0.03074   0.02472  -0.0594  0.0051  1.0000  -7.4869   0.0000   0.0000   0.0000   0.2747
  12.300   1.4648   0.03108   0.02507  -0.0590  0.0050  1.0000  -7.6206   0.0000   0.0000   0.0000   0.2742
  12.400   1.4700   0.03146   0.02546  -0.0587  0.0049  1.0000  -7.7507   0.0000   0.0000   0.0000   0.2736
  12.500   1.4746   0.03190   0.02592  -0.0583  0.0048  1.0000  -7.8741   0.0000   0.0000   0.0000   0.2730
  12.600   1.4788   0.03238   0.02642  -0.0579  0.0047  1.0000  -7.9938   0.0000   0.0000   0.0000   0.2725
  12.700   1.4829   0.03287   0.02694  -0.0575  0.0046  1.0000  -8.1124   0.0000   0.0000   0.0000   0.2719
  12.800   1.4870   0.03338   0.02746  -0.0571  0.0045  1.0000  -8.2308   0.0000   0.0000   0.0000   0.2713
  12.900   1.4910   0.03390   0.02801  -0.0567  0.0044  1.0000  -8.3486   0.0000   0.0000   0.0000   0.2708
  13.000   1.4949   0.03444   0.02857  -0.0563  0.0043  1.0000  -8.4656   0.0000   0.0000   0.0000   0.2702
  13.100   1.4987   0.03499   0.02915  -0.0559  0.0041  1.0000  -8.5821   0.0000   0.0000   0.0000   0.2697
  13.200   1.5023   0.03556   0.02975  -0.0555  0.0040  1.0000  -8.6979   0.0000   0.0000   0.0000   0.2691
  13.300   1.5058   0.03616   0.03037  -0.0551  0.0039  1.0000  -8.8129   0.0000   0.0000   0.0000   0.2686
  13.400   1.5087   0.03681   0.03106  -0.0547  0.0038  1.0000  -8.9230   0.0000   0.0000   0.0000   0.2680
  13.500   1.5108   0.03753   0.03181  -0.0543  0.0036  1.0000  -9.0271   0.0000   0.0000   0.0000   0.2675
  13.600   1.5130   0.03825   0.03256  -0.0539  0.0035  1.0000  -9.1329   0.0000   0.0000   0.0000   0.2670
  13.700   1.5155   0.03895   0.03330  -0.0535  0.0034  1.0000  -9.2429   0.0000   0.0000   0.0000   0.2665
  13.800   1.5230   0.03915   0.03352  -0.0535  0.0028  1.0000  -9.5125   0.0000   0.0000   0.0000   0.2661
  13.900   1.5256   0.03985   0.03423  -0.0531  0.0026  1.0000  -9.6527   0.0000   0.0000   0.0000   0.2656
  14.000   1.5278   0.04060   0.03500  -0.0528  0.0025  1.0000  -9.7823   0.0000   0.0000   0.0000   0.2651
  14.100   1.5296   0.04139   0.03582  -0.0524  0.0023  1.0000  -9.9058   0.0000   0.0000   0.0000   0.2646
  14.200   1.5309   0.04224   0.03670  -0.0521  0.0022  1.0000  -10.0234   0.0000   0.0000   0.0000   0.2642
  14.300   1.5309   0.04322   0.03773  -0.0517  0.0021  1.0000  -10.1252   0.0000   0.0000   0.0000   0.2637
  14.400   1.5300   0.04431   0.03887  -0.0513  0.0021  1.0000  -10.2152   0.0000   0.0000   0.0000   0.2633
  14.500   1.5294   0.04539   0.03999  -0.0510  0.0020  1.0000  -10.3080   0.0000   0.0000   0.0000   0.2629
  14.600   1.5288   0.04648   0.04113  -0.0507  0.0019  1.0000  -10.4007   0.0000   0.0000   0.0000   0.2625
  14.700   1.5280   0.04759   0.04230  -0.0504  0.0018  1.0000  -10.4894   0.0000   0.0000   0.0000   0.2621
  14.800   1.5268   0.04873   0.04349  -0.0501  0.0018  1.0000  -10.5714   0.0000   0.0000   0.0000   0.2617
  14.900   1.5248   0.04996   0.04478  -0.0498  0.0017  1.0000  -10.6445   0.0000   0.0000   0.0000   0.2613
  15.000   1.5214   0.05142   0.04631  -0.0496  0.0017  1.0000  -10.6998   0.0000   0.0000   0.0000   0.2611
  15.100   1.5187   0.05285   0.04780  -0.0495  0.0017  1.0000  -10.7612   0.0000   0.0000   0.0000   0.2609
  15.200   1.5165   0.05427   0.04928  -0.0494  0.0016  1.0000  -10.8266   0.0000   0.0000   0.0000   0.2606
  15.300   1.5143   0.05572   0.05080  -0.0493  0.0016  1.0000  -10.8914   0.0000   0.0000   0.0000   0.2604
  15.400   1.5119   0.05723   0.05237  -0.0493  0.0016  1.0000  -10.9527   0.0000   0.0000   0.0000   0.2602
  15.500   1.5083   0.05895   0.05416  -0.0494  0.0015  1.0000  -10.9979   0.0000   0.0000   0.0000   0.2601
  15.600   1.5043   0.06078   0.05606  -0.0496  0.0015  1.0000  -11.0371   0.0000   0.0000   0.0000   0.2601
  15.700   1.5011   0.06252   0.05787  -0.0498  0.0015  1.0000  -11.0847   0.0000   0.0000   0.0000   0.2601
  15.800   1.4980   0.06426   0.05968  -0.0500  0.0015  1.0000  -11.1333   0.0000   0.0000   0.0000   0.2601
  15.900   1.4949   0.06604   0.06153  -0.0502  0.0015  1.0000  -11.1791   0.0000   0.0000   0.0000   0.2601
  16.000   1.4907   0.06804   0.06360  -0.0507  0.0015  1.0000  -11.2114   0.0000   0.0000   0.0000   0.2602
  16.100   1.4857   0.07022   0.06584  -0.0512  0.0015  1.0000  -11.2321   0.0000   0.0000   0.0000   0.2605
  16.200   1.4817   0.07224   0.06794  -0.0517  0.0014  1.0000  -11.2628   0.0000   0.0000   0.0000   0.2607
  16.300   1.4778   0.07425   0.07001  -0.0522  0.0014  1.0000  -11.2949   0.0000   0.0000   0.0000   0.2609
  16.400   1.4739   0.07630   0.07213  -0.0527  0.0014  1.0000  -11.3248   0.0000   0.0000   0.0000   0.2611
  16.500   1.4683   0.07871   0.07461  -0.0535  0.0014  1.0000  -11.3313   0.0000   0.0000   0.0000   0.2616
  16.600   1.4630   0.08107   0.07704  -0.0544  0.0014  1.0000  -11.3407   0.0000   0.0000   0.0000   0.2620
  16.700   1.4584   0.08329   0.07933  -0.0551  0.0014  1.0000  -11.3577   0.0000   0.0000   0.0000   0.2624
  16.800   1.4539   0.08553   0.08164  -0.0559  0.0014  1.0000  -11.3744   0.0000   0.0000   0.0000   0.2629
  16.900   1.4483   0.08803   0.08421  -0.0570  0.0014  1.0000  -11.3737   0.0000   0.0000   0.0000   0.2635
  17.000   1.4421   0.09067   0.08691  -0.0581  0.0014  1.0000  -11.3638   0.0000   0.0000   0.0000   0.2643
  17.100   1.4370   0.09308   0.08939  -0.0592  0.0014  1.0000  -11.3659   0.0000   0.0000   0.0000   0.2649
  17.200   1.4320   0.09548   0.09186  -0.0602  0.0014  1.0000  -11.3686   0.0000   0.0000   0.0000   0.2656
  17.300   1.4257   0.09822   0.09467  -0.0616  0.0014  1.0000  -11.3496   0.0000   0.0000   0.0000   0.2665
  17.400   1.4193   0.10096   0.09747  -0.0630  0.0014  1.0000  -11.3285   0.0000   0.0000   0.0000   0.2674
  17.500   1.4139   0.10350   0.10007  -0.0642  0.0014  1.0000  -11.3181   0.0000   0.0000   0.0000   0.2683
  17.600   1.4086   0.10604   0.10268  -0.0655  0.0014  1.0000  -11.3064   0.0000   0.0000   0.0000   0.2692
  17.700   1.4014   0.10906   0.10577  -0.0673  0.0014  1.0000  -11.2642   0.0000   0.0000   0.0000   0.2704
  17.800   1.3953   0.11180   0.10857  -0.0688  0.0014  1.0000  -11.2360   0.0000   0.0000   0.0000   0.2715
  17.900   1.3897   0.11435   0.11118  -0.0702  0.0014  1.0000  -11.2134   0.0000   0.0000   0.0000   0.2725
  18.000   1.3835   0.11693   0.11383  -0.0718  0.0014  1.0000  -11.1792   0.0000   0.0000   0.0000   0.2737
  18.100   1.3763   0.11982   0.11677  -0.0737  0.0014  1.0000  -11.1232   0.0000   0.0000   0.0000   0.2751
  18.200   1.3703   0.12240   0.11941  -0.0753  0.0014  1.0000  -11.0868   0.0000   0.0000   0.0000   0.2763
  18.300   1.3647   0.12500   0.12206  -0.0769  0.0014  1.0000  -11.0523   0.0000   0.0000   0.0000   0.2775
  18.400   1.3578   0.12803   0.12516  -0.0788  0.0014  1.0000  -10.9916   0.0000   0.0000   0.0000   0.2791
  18.500   1.3509   0.13111   0.12830  -0.0808  0.0014  1.0000  -10.9292   0.0000   0.0000   0.0000   0.2806
  18.600   1.3452   0.13397   0.13121  -0.0825  0.0014  1.0000  -10.8825   0.0000   0.0000   0.0000   0.2820
  18.700   1.3394   0.13688   0.13418  -0.0843  0.0014  1.0000  -10.8335   0.0000   0.0000   0.0000   0.2834
  18.800   1.3319   0.14038   0.13774  -0.0865  0.0014  1.0000  -10.7476   0.0000   0.0000   0.0000   0.2852
  18.900   1.3253   0.14370   0.14111  -0.0885  0.0014  1.0000  -10.6751   0.0000   0.0000   0.0000   0.2869
  19.000   1.3195   0.14683   0.14429  -0.0903  0.0014  1.0000  -10.6151   0.0000   0.0000   0.0000   0.2884
  19.100   1.3137   0.15003   0.14754  -0.0922  0.0014  1.0000  -10.5502   0.0000   0.0000   0.0000   0.2900
  19.200   1.3060   0.15388   0.15145  -0.0945  0.0015  1.0000  -10.4452   0.0000   0.0000   0.0000   0.2920
  19.300   1.2991   0.15758   0.15520  -0.0967  0.0015  1.0000  -10.3512   0.0000   0.0000   0.0000   0.2939
  19.400   1.2932   0.16103   0.15870  -0.0986  0.0015  1.0000  -10.2731   0.0000   0.0000   0.0000   0.2956
  19.500   1.2872   0.16456   0.16228  -0.1006  0.0015  1.0000  -10.1910   0.0000   0.0000   0.0000   0.2973
  19.600   1.2798   0.16865   0.16643  -0.1029  0.0015  1.0000  -10.0727   0.0000   0.0000   0.0000   0.2994
  19.700   1.2719   0.17301   0.17084  -0.1053  0.0015  1.0000  -9.9375   0.0000   0.0000   0.0000   0.3017
  19.800   1.2657   0.17688   0.17475  -0.1073  0.0015  1.0000  -9.8355   0.0000   0.0000   0.0000   0.3036
  19.900   1.2594   0.18083   0.17875  -0.1094  0.0015  1.0000  -9.7282   0.0000   0.0000   0.0000   0.3056
  20.000   1.2521   0.18521   0.18318  -0.1117  0.0015  1.0000  -9.5923   0.0000   0.0000   0.0000   0.3078
  20.100   1.2424   0.19061   0.18863  -0.1144  0.0016  1.0000  -9.3904   0.0000   0.0000   0.0000   0.3106
  20.200   1.2353   0.19516   0.19323  -0.1166  0.0016  1.0000  -9.2440   0.0000   0.0000   0.0000   0.3129
  20.300   1.2278   0.19992   0.19803  -0.1189  0.0016  1.0000  -9.0830   0.0000   0.0000   0.0000   0.3152
  20.400   1.2167   0.20622   0.20439  -0.1218  0.0016  1.0000  -8.8172   0.0000   0.0000   0.0000   0.3185
  20.500   1.2057   0.21262   0.21085  -0.1246  0.0016  1.0000  -8.5423   0.0000   0.0000   0.0000   0.3218
  20.600   1.1948   0.21912   0.21741  -0.1273  0.0017  1.0000  -8.2564   0.0000   0.0000   0.0000   0.3251
  20.800   1.0577   0.29087   0.28918  -0.1454  0.0026  1.0000  -3.2431   0.0000   0.0000   0.0000   0.3606
  20.900   1.0531   0.29536   0.29366  -0.1462  0.0027  1.0000  -3.0796   0.0000   0.0000   0.0000   0.3619
  21.000   1.0488   0.29940   0.29770  -0.1469  0.0028  1.0000  -2.9420   0.0000   0.0000   0.0000   0.3632
  21.100   1.0443   0.30309   0.30139  -0.1475  0.0030  1.0000  -2.8220   0.0000   0.0000   0.0000   0.3643
  21.200   1.0394   0.30644   0.30474  -0.1479  0.0031  1.0000  -2.7146   0.0000   0.0000   0.0000   0.3654
  21.300   1.0338   0.30942   0.30773  -0.1482  0.0032  1.0000  -2.6164   0.0000   0.0000   0.0000   0.3664
  21.400   1.0264   0.31187   0.31019  -0.1483  0.0034  1.0000  -2.5222   0.0000   0.0000   0.0000   0.3675
  21.500   0.9672   0.30176   0.30016  -0.1425  0.0035  1.0000  -2.2934   0.0000   0.0000   0.0000   0.3711
  21.600   0.9575   0.30182   0.30024  -0.1421  0.0036  1.0000  -2.2092   0.0000   0.0000   0.0000   0.3722
  21.700   0.9497   0.30210   0.30053  -0.1419  0.0038  1.0000  -2.1359   0.0000   0.0000   0.0000   0.3732
  21.800   0.9430   0.30249   0.30093  -0.1418  0.0039  1.0000  -2.0705   0.0000   0.0000   0.0000   0.3741
  21.900   0.9370   0.30295   0.30140  -0.1417  0.0041  1.0000  -2.0093   0.0000   0.0000   0.0000   0.3750
  22.000   0.9312   0.30347   0.30192  -0.1417  0.0044  1.0000  -1.9479   0.0000   0.0000   0.0000   0.3759
  22.100   0.9249   0.30402   0.30248  -0.1416  0.0047  1.0000  -1.8747   0.0000   0.0000   0.0000   0.3768
  22.200   0.9095   0.30471   0.30317  -0.1408  0.0055  1.0000  -1.6397   0.0000   0.0000   0.0000   0.3788
  22.300   0.9063   0.30532   0.30380  -0.1409  0.0055  1.0000  -1.6085   0.0000   0.0000   0.0000   0.3793
  22.400   0.9034   0.30596   0.30444  -0.1410  0.0055  1.0000  -1.5830   0.0000   0.0000   0.0000   0.3798
  22.500   0.9009   0.30661   0.30510  -0.1411  0.0055  1.0000  -1.5603   0.0000   0.0000   0.0000   0.3803
  22.600   0.8986   0.30728   0.30577  -0.1413  0.0055  1.0000  -1.5396   0.0000   0.0000   0.0000   0.3808
  22.700   0.8965   0.30795   0.30645  -0.1415  0.0055  1.0000  -1.5202   0.0000   0.0000   0.0000   0.3813
  22.800   0.8945   0.30864   0.30714  -0.1417  0.0055  1.0000  -1.5019   0.0000   0.0000   0.0000   0.3818
  22.900   0.8926   0.30934   0.30784  -0.1419  0.0055  1.0000  -1.4845   0.0000   0.0000   0.0000   0.3822
  23.000   0.8909   0.31004   0.30855  -0.1421  0.0055  1.0000  -1.4678   0.0000   0.0000   0.0000   0.3826
  23.100   0.8892   0.31075   0.30927  -0.1423  0.0055  1.0000  -1.4519   0.0000   0.0000   0.0000   0.3831
  23.200   0.8876   0.31147   0.30999  -0.1425  0.0055  1.0000  -1.4366   0.0000   0.0000   0.0000   0.3835
  23.300   0.8862   0.31219   0.31072  -0.1428  0.0055  1.0000  -1.4218   0.0000   0.0000   0.0000   0.3839
  23.400   0.8848   0.31292   0.31145  -0.1430  0.0055  1.0000  -1.4076   0.0000   0.0000   0.0000   0.3843
  23.500   0.8834   0.31365   0.31219  -0.1433  0.0055  1.0000  -1.3938   0.0000   0.0000   0.0000   0.3847
  23.600   0.8822   0.31439   0.31293  -0.1435  0.0055  1.0000  -1.3804   0.0000   0.0000   0.0000   0.3851
  23.700   0.8810   0.31513   0.31368  -0.1438  0.0055  1.0000  -1.3675   0.0000   0.0000   0.0000   0.3855
  23.800   0.8798   0.31588   0.31443  -0.1440  0.0055  1.0000  -1.3549   0.0000   0.0000   0.0000   0.3859
  23.900   0.8788   0.31663   0.31518  -0.1443  0.0055  1.0000  -1.3427   0.0000   0.0000   0.0000   0.3863
  24.000   0.8777   0.31738   0.31594  -0.1446  0.0055  1.0000  -1.3308   0.0000   0.0000   0.0000   0.3866
  24.100   0.8767   0.31813   0.31670  -0.1449  0.0055  1.0000  -1.3192   0.0000   0.0000   0.0000   0.3870
  24.200   0.8758   0.31889   0.31746  -0.1452  0.0055  1.0000  -1.3079   0.0000   0.0000   0.0000   0.3874
  24.300   0.8749   0.31965   0.31823  -0.1454  0.0055  1.0000  -1.2968   0.0000   0.0000   0.0000   0.3877
  24.400   0.8740   0.32042   0.31899  -0.1457  0.0055  1.0000  -1.2860   0.0000   0.0000   0.0000   0.3881
  24.500   0.8732   0.32118   0.31976  -0.1460  0.0055  1.0000  -1.2754   0.0000   0.0000   0.0000   0.3884
  24.600   0.8724   0.32195   0.32054  -0.1463  0.0055  1.0000  -1.2651   0.0000   0.0000   0.0000   0.3888
  24.700   0.8717   0.32272   0.32131  -0.1466  0.0055  1.0000  -1.2551   0.0000   0.0000   0.0000   0.3891
  24.800   0.8709   0.32349   0.32209  -0.1469  0.0055  1.0000  -1.2452   0.0000   0.0000   0.0000   0.3894
  24.900   0.8702   0.32427   0.32286  -0.1472  0.0055  1.0000  -1.2356   0.0000   0.0000   0.0000   0.3898
  25.000   0.8696   0.32504   0.32364  -0.1475  0.0055  1.0000  -1.2262   0.0000   0.0000   0.0000   0.3901
  25.100   0.8690   0.32582   0.32442  -0.1479  0.0055  1.0000  -1.2170   0.0000   0.0000   0.0000   0.3904
  25.200   0.8683   0.32660   0.32521  -0.1482  0.0055  1.0000  -1.2080   0.0000   0.0000   0.0000   0.3907
  25.300   0.8678   0.32738   0.32599  -0.1485  0.0055  1.0000  -1.1992   0.0000   0.0000   0.0000   0.3911
  25.400   0.8672   0.32816   0.32678  -0.1488  0.0055  1.0000  -1.1906   0.0000   0.0000   0.0000   0.3914


