xflr5 v6.61

 Calculated polar for: S4110

 1 1 Reynolds number fixed          Mach number fixed         

 xtrf =   1.000 (top)        1.000 (bottom)
 Mach =   0.000     Re =     0.450 e 6     Ncrit =   9.000

  alpha     CL        CD       CDp       Cm    Top Xtr Bot Xtr   Cpmin    Chinge    XCp    
 ------- -------- --------- --------- -------- ------- ------- -------- --------- ---------
 -10.000  -0.4000   0.10727   0.10465  -0.0278  1.0000  0.0208  -1.8128   0.0000   0.0000   0.0000   0.1742
  -9.900  -0.3978   0.10607   0.10346  -0.0280  1.0000  0.0210  -1.7989   0.0000   0.0000   0.0000   0.1734
  -9.800  -0.3956   0.10490   0.10229  -0.0282  1.0000  0.0211  -1.7852   0.0000   0.0000   0.0000   0.1726
  -9.700  -0.3935   0.10374   0.10114  -0.0283  1.0000  0.0213  -1.7721   0.0000   0.0000   0.0000   0.1718
  -9.600  -0.3913   0.10260   0.10001  -0.0285  1.0000  0.0215  -1.7581   0.0000   0.0000   0.0000   0.1711
  -9.500  -0.3891   0.10148   0.09889  -0.0287  1.0000  0.0216  -1.7440   0.0000   0.0000   0.0000   0.1703
  -9.400  -0.3870   0.10036   0.09777  -0.0288  1.0000  0.0218  -1.7311   0.0000   0.0000   0.0000   0.1696
  -9.300  -0.3851   0.09924   0.09667  -0.0290  1.0000  0.0219  -1.7195   0.0000   0.0000   0.0000   0.1688
  -9.200  -0.3833   0.09813   0.09556  -0.0292  1.0000  0.0221  -1.7090   0.0000   0.0000   0.0000   0.1681
  -9.100  -0.3816   0.09703   0.09447  -0.0294  1.0000  0.0223  -1.6998   0.0000   0.0000   0.0000   0.1673
  -9.000  -0.3800   0.09593   0.09338  -0.0296  1.0000  0.0224  -1.6918   0.0000   0.0000   0.0000   0.1666
  -8.900  -0.3786   0.09482   0.09228  -0.0298  1.0000  0.0226  -1.6848   0.0000   0.0000   0.0000   0.1659
  -8.800  -0.3772   0.09371   0.09118  -0.0300  1.0000  0.0228  -1.6788   0.0000   0.0000   0.0000   0.1651
  -8.700  -0.3759   0.09260   0.09008  -0.0302  1.0000  0.0230  -1.6738   0.0000   0.0000   0.0000   0.1644
  -8.600  -0.3748   0.09149   0.08898  -0.0304  1.0000  0.0231  -1.6699   0.0000   0.0000   0.0000   0.1637
  -8.500  -0.3739   0.09038   0.08788  -0.0306  1.0000  0.0233  -1.6671   0.0000   0.0000   0.0000   0.1631
  -8.400  -0.3731   0.08927   0.08678  -0.0307  1.0000  0.0235  -1.6653   0.0000   0.0000   0.0000   0.1625
  -8.300  -0.3725   0.08817   0.08569  -0.0309  1.0000  0.0237  -1.6645   0.0000   0.0000   0.0000   0.1620
  -8.200  -0.3722   0.08707   0.08461  -0.0311  1.0000  0.0239  -1.6648   0.0000   0.0000   0.0000   0.1616
  -8.100  -0.3721   0.08599   0.08355  -0.0312  1.0000  0.0241  -1.6662   0.0000   0.0000   0.0000   0.1614
  -8.000  -0.3723   0.08492   0.08250  -0.0312  1.0000  0.0243  -1.6687   0.0000   0.0000   0.0000   0.1614
  -7.900  -0.3729   0.08388   0.08146  -0.0312  1.0000  0.0245  -1.6724   0.0000   0.0000   0.0000   0.1616
  -7.800  -0.3740   0.08285   0.08046  -0.0312  1.0000  0.0247  -1.6772   0.0000   0.0000   0.0000   0.1621
  -7.700  -0.3756   0.08187   0.07949  -0.0310  1.0000  0.0249  -1.6834   0.0000   0.0000   0.0000   0.1631
  -7.600  -0.3780   0.08094   0.07859  -0.0307  1.0000  0.0250  -1.6910   0.0000   0.0000   0.0000   0.1647
  -7.500  -0.3815   0.08009   0.07776  -0.0301  1.0000  0.0252  -1.7004   0.0000   0.0000   0.0000   0.1670
  -7.400  -0.3864   0.07936   0.07706  -0.0292  1.0000  0.0253  -1.7118   0.0000   0.0000   0.0000   0.1704
  -7.300  -0.3929   0.07877   0.07649  -0.0280  1.0000  0.0254  -1.7254   0.0000   0.0000   0.0000   0.1749
  -7.200  -0.4008   0.07829   0.07604  -0.0265  1.0000  0.0254  -1.7407   0.0000   0.0000   0.0000   0.1802
  -7.100  -0.4080   0.07771   0.07550  -0.0253  1.0000  0.0255  -1.7555   0.0000   0.0000   0.0000   0.1846
  -7.000  -0.4145   0.07706   0.07487  -0.0243  1.0000  0.0255  -1.7700   0.0000   0.0000   0.0000   0.1880
  -6.900  -0.4105   0.07539   0.07321  -0.0264  0.9991  0.0258  -1.7763   0.0000   0.0000   0.0000   0.1825
  -6.800  -0.3995   0.07302   0.07083  -0.0306  0.9975  0.0263  -1.7801   0.0000   0.0000   0.0000   0.1701
  -6.700  -0.3887   0.07060   0.06840  -0.0349  0.9958  0.0268  -1.7875   0.0000   0.0000   0.0000   0.1569
  -6.600  -0.3776   0.06810   0.06589  -0.0393  0.9938  0.0274  -1.7982   0.0000   0.0000   0.0000   0.1425
  -6.500  -0.3656   0.06544   0.06322  -0.0441  0.9918  0.0279  -1.8127   0.0000   0.0000   0.0000   0.1260
  -6.400  -0.3525   0.06263   0.06038  -0.0492  0.9900  0.0286  -1.8311   0.0000   0.0000   0.0000   0.1071
  -6.300  -0.3383   0.05967   0.05738  -0.0544  0.9886  0.0294  -1.8535   0.0000   0.0000   0.0000   0.0857
  -6.200  -0.3231   0.05658   0.05424  -0.0598  0.9874  0.0303  -1.8813   0.0000   0.0000   0.0000   0.0614
  -6.100  -0.3117   0.05392   0.05153  -0.0635  0.9844  0.0311  -1.9105   0.0000   0.0000   0.0000   0.0425
  -6.000  -0.2978   0.05142   0.04897  -0.0672  0.9820  0.0322  -1.9327   0.0000   0.0000   0.0000   0.0207
  -5.900  -0.2812   0.05014   0.04762  -0.0696  0.9803  0.0338  -1.9153   0.0000   0.0000   0.0000  -0.0013
  -5.800  -0.2630   0.04976   0.04718  -0.0714  0.9790  0.0349  -1.8683   0.0000   0.0000   0.0000  -0.0254
  -5.700  -0.2487   0.04777   0.04510  -0.0741  0.9775  0.0351  -1.8707   0.0000   0.0000   0.0000  -0.0523
  -5.600  -0.2348   0.04560   0.04284  -0.0768  0.9761  0.0352  -1.8775   0.0000   0.0000   0.0000  -0.0817
  -5.500  -0.2209   0.04341   0.04054  -0.0794  0.9749  0.0353  -1.8839   0.0000   0.0000   0.0000  -0.1144
  -5.200  -0.1976   0.02164   0.01722  -0.0893  0.9651  0.0209  -2.8110   0.0000   0.0000   0.0000  -0.2091
  -5.100  -0.1827   0.02207   0.01768  -0.0896  0.9638  0.0200  -2.6992   0.0000   0.0000   0.0000  -0.2479
  -5.000  -0.1697   0.02030   0.01575  -0.0903  0.9623  0.0180  -2.7375   0.0000   0.0000   0.0000  -0.2899
  -4.900  -0.1569   0.01800   0.01314  -0.0912  0.9608  0.0173  -2.7993   0.0000   0.0000   0.0000  -0.3397
  -4.800  -0.1435   0.01646   0.01136  -0.0919  0.9597  0.0168  -2.8144   0.0000   0.0000   0.0000  -0.3992
  -4.700  -0.1300   0.01523   0.00994  -0.0924  0.9585  0.0164  -2.8104   0.0000   0.0000   0.0000  -0.4705
  -4.600  -0.1163   0.01421   0.00875  -0.0929  0.9574  0.0161  -2.7932   0.0000   0.0000   0.0000  -0.5592
  -4.500  -0.1025   0.01335   0.00774  -0.0934  0.9564  0.0158  -2.7651   0.0000   0.0000   0.0000  -0.6733
  -4.400  -0.0885   0.01262   0.00689  -0.0939  0.9553  0.0156  -2.7281   0.0000   0.0000   0.0000  -0.8247
  -4.300  -0.0744   0.01200   0.00617  -0.0944  0.9542  0.0155  -2.6837   0.0000   0.0000   0.0000  -1.0336
  -4.200  -0.0604   0.01147   0.00555  -0.0949  0.9530  0.0155  -2.6349   0.0000   0.0000   0.0000  -1.3392
  -4.100  -0.0497   0.01107   0.00507  -0.0946  0.9503  0.0156  -2.5918   0.0000   0.0000   0.0000  -1.6772
  -4.000  -0.0398   0.01068   0.00450  -0.0942  0.9469  0.0161  -2.5689   0.0000   0.0000   0.0000  -2.1466
  -3.900  -0.0283   0.01038   0.00413  -0.0941  0.9440  0.0166  -2.5177   0.0000   0.0000   0.0000  -3.1154
  -3.800  -0.0161   0.01011   0.00379  -0.0942  0.9415  0.0176  -2.4683   0.0000   0.0000   0.0000  -5.6481
  -3.700  -0.0038   0.00966   0.00336  -0.0943  0.9393  0.0300  -2.4745   0.0000   0.0000   0.0000  -24.8655
  -3.600   0.0085   0.00946   0.00327  -0.0945  0.9372  0.0454  -2.3901   0.0000   0.0000   0.0000  11.4488
  -3.500   0.0210   0.00937   0.00322  -0.0947  0.9352  0.0527  -2.2872   0.0000   0.0000   0.0000   4.8058
  -3.400   0.0337   0.00932   0.00317  -0.0950  0.9332  0.0558  -2.1799   0.0000   0.0000   0.0000   3.0903
  -3.300   0.0468   0.00931   0.00315  -0.0953  0.9313  0.0571  -2.0700   0.0000   0.0000   0.0000   2.3041
  -3.200   0.0598   0.00917   0.00300  -0.0956  0.9292  0.0629  -1.9693   0.0000   0.0000   0.0000   1.8626
  -3.100   0.0719   0.00907   0.00292  -0.0958  0.9267  0.0685  -1.8708   0.0000   0.0000   0.0000   1.5920
  -3.000   0.0817   0.00899   0.00288  -0.0954  0.9232  0.0725  -1.7823   0.0000   0.0000   0.0000   1.4276
  -2.900   0.0921   0.00892   0.00283  -0.0952  0.9196  0.0763  -1.6915   0.0000   0.0000   0.0000   1.2915
  -2.800   0.1030   0.00886   0.00277  -0.0951  0.9162  0.0797  -1.5998   0.0000   0.0000   0.0000   1.1798
  -2.700   0.1141   0.00883   0.00274  -0.0950  0.9130  0.0830  -1.5057   0.0000   0.0000   0.0000   1.0882
  -2.600   0.1254   0.00876   0.00268  -0.0950  0.9100  0.0901  -1.4152   0.0000   0.0000   0.0000   1.0121
  -2.500   0.1370   0.00861   0.00261  -0.0951  0.9070  0.1031  -1.3267   0.0000   0.0000   0.0000   0.9481
  -2.400   0.1487   0.00852   0.00256  -0.0951  0.9041  0.1115  -1.2372   0.0000   0.0000   0.0000   0.8932
  -2.300   0.1606   0.00849   0.00250  -0.0952  0.9009  0.1158  -1.1489   0.0000   0.0000   0.0000   0.8456
  -2.200   0.1722   0.00831   0.00240  -0.0953  0.8975  0.1367  -1.0686   0.0000   0.0000   0.0000   0.8056
  -2.100   0.1824   0.00821   0.00235  -0.0950  0.8943  0.1496  -1.0094   0.0000   0.0000   0.0000   0.7733
  -2.000   0.1927   0.00809   0.00230  -0.0948  0.8908  0.1718  -0.9622   0.0000   0.0000   0.0000   0.7441
  -1.900   0.2033   0.00798   0.00226  -0.0947  0.8871  0.1922  -0.9145   0.0000   0.0000   0.0000   0.7176
  -1.800   0.2138   0.00782   0.00222  -0.0946  0.8835  0.2247  -0.8674   0.0000   0.0000   0.0000   0.6939
  -1.700   0.2246   0.00768   0.00218  -0.0945  0.8798  0.2577  -0.8204   0.0000   0.0000   0.0000   0.6721
  -1.600   0.2355   0.00755   0.00214  -0.0944  0.8761  0.2920  -0.7734   0.0000   0.0000   0.0000   0.6521
  -1.500   0.2464   0.00741   0.00210  -0.0944  0.8723  0.3319  -0.7271   0.0000   0.0000   0.0000   0.6339
  -1.400   0.2574   0.00726   0.00208  -0.0943  0.8682  0.3753  -0.6812   0.0000   0.0000   0.0000   0.6172
  -1.300   0.2684   0.00714   0.00208  -0.0943  0.8638  0.4194  -0.6360   0.0000   0.0000   0.0000   0.6019
  -1.200   0.2785   0.00699   0.00208  -0.0941  0.8607  0.4660  -0.5978   0.0000   0.0000   0.0000   0.5883
  -1.100   0.2885   0.00684   0.00208  -0.0938  0.8570  0.5144  -0.5691   0.0000   0.0000   0.0000   0.5756
  -1.000   0.2986   0.00670   0.00208  -0.0936  0.8531  0.5610  -0.5403   0.0000   0.0000   0.0000   0.5636
  -0.900   0.3087   0.00658   0.00209  -0.0933  0.8490  0.6052  -0.5114   0.0000   0.0000   0.0000   0.5523
  -0.800   0.3186   0.00645   0.00209  -0.0929  0.8449  0.6486  -0.4822   0.0000   0.0000   0.0000   0.5416
  -0.700   0.3286   0.00634   0.00208  -0.0926  0.8408  0.6858  -0.4834   0.0000   0.0000   0.0000   0.5315
  -0.600   0.3386   0.00626   0.00203  -0.0921  0.8366  0.7217  -0.4928   0.0000   0.0000   0.0000   0.5219
  -0.500   0.3482   0.00617   0.00203  -0.0916  0.8321  0.7636  -0.5026   0.0000   0.0000   0.0000   0.5128
  -0.400   0.3575   0.00610   0.00205  -0.0910  0.8268  0.8044  -0.5129   0.0000   0.0000   0.0000   0.5041
  -0.300   0.3656   0.00600   0.00206  -0.0901  0.8235  0.8429  -0.5226   0.0000   0.0000   0.0000   0.4959
  -0.200   0.3733   0.00590   0.00205  -0.0891  0.8195  0.8855  -0.5321   0.0000   0.0000   0.0000   0.4880
  -0.100   0.3849   0.00579   0.00202  -0.0888  0.8152  0.9395  -0.5440   0.0000   0.0000   0.0000   0.4800
   0.000   0.4075   0.00571   0.00194  -0.0911  0.8108  1.0000  -0.5639   0.0000   0.0000   0.0000   0.4729
   0.100   0.4183   0.00572   0.00191  -0.0910  0.8058  1.0000  -0.5770   0.0000   0.0000   0.0000   0.4666
   0.200   0.4291   0.00574   0.00189  -0.0908  0.8009  1.0000  -0.5903   0.0000   0.0000   0.0000   0.4607
   0.300   0.4400   0.00577   0.00187  -0.0907  0.7959  1.0000  -0.6035   0.0000   0.0000   0.0000   0.4550
   0.400   0.4509   0.00581   0.00187  -0.0906  0.7904  1.0000  -0.6169   0.0000   0.0000   0.0000   0.4497
   0.500   0.4619   0.00585   0.00187  -0.0905  0.7852  1.0000  -0.6327   0.0000   0.0000   0.0000   0.4446
   0.600   0.4726   0.00585   0.00187  -0.0903  0.7813  1.0000  -0.6483   0.0000   0.0000   0.0000   0.4398
   0.700   0.4833   0.00586   0.00187  -0.0902  0.7766  1.0000  -0.6641   0.0000   0.0000   0.0000   0.4352
   0.800   0.4941   0.00588   0.00186  -0.0900  0.7713  1.0000  -0.6799   0.0000   0.0000   0.0000   0.4307
   0.900   0.5049   0.00590   0.00185  -0.0899  0.7657  1.0000  -0.6958   0.0000   0.0000   0.0000   0.4265
   1.000   0.5157   0.00593   0.00184  -0.0897  0.7597  1.0000  -0.7143   0.0000   0.0000   0.0000   0.4224
   1.100   0.5263   0.00596   0.00183  -0.0895  0.7532  1.0000  -0.7334   0.0000   0.0000   0.0000   0.4184
   1.200   0.5370   0.00602   0.00182  -0.0893  0.7458  1.0000  -0.7525   0.0000   0.0000   0.0000   0.4146
   1.300   0.5478   0.00605   0.00183  -0.0892  0.7406  1.0000  -0.7718   0.0000   0.0000   0.0000   0.4110
   1.400   0.5587   0.00606   0.00184  -0.0891  0.7359  1.0000  -0.7913   0.0000   0.0000   0.0000   0.4076
   1.500   0.5695   0.00608   0.00185  -0.0890  0.7303  1.0000  -0.8108   0.0000   0.0000   0.0000   0.4042
   1.600   0.5802   0.00611   0.00186  -0.0888  0.7234  1.0000  -0.8304   0.0000   0.0000   0.0000   0.4010
   1.700   0.5908   0.00615   0.00185  -0.0886  0.7156  1.0000  -0.8499   0.0000   0.0000   0.0000   0.3979
   1.800   0.6012   0.00621   0.00185  -0.0884  0.7071  1.0000  -0.8694   0.0000   0.0000   0.0000   0.3948
   1.900   0.6116   0.00628   0.00186  -0.0881  0.6976  1.0000  -0.8889   0.0000   0.0000   0.0000   0.3918
   2.000   0.6224   0.00630   0.00188  -0.0880  0.6922  1.0000  -0.9090   0.0000   0.0000   0.0000   0.3891
   2.100   0.6332   0.00633   0.00190  -0.0879  0.6848  1.0000  -0.9290   0.0000   0.0000   0.0000   0.3864
   2.200   0.6437   0.00638   0.00191  -0.0877  0.6755  1.0000  -0.9490   0.0000   0.0000   0.0000   0.3837
   2.300   0.6540   0.00644   0.00192  -0.0875  0.6650  1.0000  -0.9697   0.0000   0.0000   0.0000   0.3811
   2.400   0.6639   0.00653   0.00193  -0.0871  0.6536  1.0000  -0.9936   0.0000   0.0000   0.0000   0.3786
   2.500   0.6746   0.00658   0.00196  -0.0870  0.6460  1.0000  -1.0183   0.0000   0.0000   0.0000   0.3762
   2.600   0.6854   0.00662   0.00199  -0.0869  0.6383  1.0000  -1.0433   0.0000   0.0000   0.0000   0.3739
   2.700   0.6960   0.00668   0.00202  -0.0867  0.6289  1.0000  -1.0682   0.0000   0.0000   0.0000   0.3717
   2.800   0.7062   0.00676   0.00210  -0.0865  0.6181  1.0000  -1.0947   0.0000   0.0000   0.0000   0.3695
   2.900   0.7160   0.00686   0.00213  -0.0862  0.6061  1.0000  -1.1193   0.0000   0.0000   0.0000   0.3673
   3.000   0.7266   0.00693   0.00217  -0.0860  0.5974  1.0000  -1.1447   0.0000   0.0000   0.0000   0.3652
   3.100   0.7372   0.00698   0.00220  -0.0859  0.5879  1.0000  -1.1701   0.0000   0.0000   0.0000   0.3632
   3.200   0.7474   0.00707   0.00224  -0.0857  0.5760  1.0000  -1.1953   0.0000   0.0000   0.0000   0.3613
   3.300   0.7571   0.00719   0.00228  -0.0853  0.5621  1.0000  -1.2198   0.0000   0.0000   0.0000   0.3593
   3.400   0.7670   0.00730   0.00233  -0.0851  0.5491  1.0000  -1.2448   0.0000   0.0000   0.0000   0.3574
   3.500   0.7773   0.00738   0.00238  -0.0849  0.5359  1.0000  -1.2703   0.0000   0.0000   0.0000   0.3556
   3.600   0.7868   0.00752   0.00243  -0.0846  0.5185  1.0000  -1.3007   0.0000   0.0000   0.0000   0.3538
   3.700   0.7961   0.00768   0.00250  -0.0842  0.5010  1.0000  -1.3315   0.0000   0.0000   0.0000   0.3520
   3.800   0.8063   0.00778   0.00256  -0.0840  0.4871  1.0000  -1.3641   0.0000   0.0000   0.0000   0.3503
   3.900   0.8159   0.00793   0.00262  -0.0837  0.4704  1.0000  -1.3958   0.0000   0.0000   0.0000   0.3486
   4.000   0.8251   0.00810   0.00270  -0.0834  0.4531  1.0000  -1.4335   0.0000   0.0000   0.0000   0.3470
   4.100   0.8354   0.00820   0.00277  -0.0832  0.4409  1.0000  -1.4759   0.0000   0.0000   0.0000   0.3454
   4.200   0.8450   0.00836   0.00285  -0.0829  0.4248  1.0000  -1.5175   0.0000   0.0000   0.0000   0.3439
   4.300   0.8540   0.00856   0.00295  -0.0826  0.4061  1.0000  -1.5580   0.0000   0.0000   0.0000   0.3423
   4.400   0.8642   0.00867   0.00303  -0.0824  0.3942  1.0000  -1.6013   0.0000   0.0000   0.0000   0.3409
   4.500   0.8738   0.00884   0.00312  -0.0821  0.3779  1.0000  -1.6435   0.0000   0.0000   0.0000   0.3395
   4.600   0.8826   0.00907   0.00324  -0.0818  0.3575  1.0000  -1.6846   0.0000   0.0000   0.0000   0.3380
   4.700   0.8926   0.00920   0.00333  -0.0816  0.3445  1.0000  -1.7284   0.0000   0.0000   0.0000   0.3367
   4.800   0.9018   0.00941   0.00343  -0.0813  0.3269  1.0000  -1.7708   0.0000   0.0000   0.0000   0.3353
   4.900   0.9109   0.00962   0.00356  -0.0810  0.3087  1.0000  -1.8133   0.0000   0.0000   0.0000   0.3340
   5.000   0.9208   0.00976   0.00366  -0.0808  0.2965  1.0000  -1.8579   0.0000   0.0000   0.0000   0.3327
   5.100   0.9301   0.00997   0.00378  -0.0805  0.2820  1.0000  -1.9014   0.0000   0.0000   0.0000   0.3314
   5.200   0.9393   0.01018   0.00391  -0.0802  0.2658  1.0000  -1.9449   0.0000   0.0000   0.0000   0.3302
   5.300   0.9495   0.01030   0.00402  -0.0800  0.2573  1.0000  -1.9908   0.0000   0.0000   0.0000   0.3290
   5.400   0.9590   0.01048   0.00414  -0.0798  0.2459  1.0000  -2.0358   0.0000   0.0000   0.0000   0.3278
   5.500   0.9681   0.01071   0.00427  -0.0795  0.2321  1.0000  -2.0800   0.0000   0.0000   0.0000   0.3266
   5.600   0.9778   0.01088   0.00440  -0.0793  0.2207  1.0000  -2.1258   0.0000   0.0000   0.0000   0.3255
   5.700   0.9875   0.01104   0.00453  -0.0791  0.2109  1.0000  -2.1840   0.0000   0.0000   0.0000   0.3244
   5.800   0.9965   0.01128   0.00467  -0.0788  0.1984  1.0000  -2.2449   0.0000   0.0000   0.0000   0.3232
   5.900   1.0057   0.01150   0.00482  -0.0785  0.1841  1.0000  -2.3064   0.0000   0.0000   0.0000   0.3221
   6.000   1.0157   0.01162   0.00494  -0.0783  0.1786  1.0000  -2.3720   0.0000   0.0000   0.0000   0.3211
   6.100   1.0254   0.01179   0.00508  -0.0781  0.1714  1.0000  -2.4366   0.0000   0.0000   0.0000   0.3200
   6.200   1.0345   0.01201   0.00523  -0.0778  0.1629  1.0000  -2.5002   0.0000   0.0000   0.0000   0.3190
   6.300   1.0436   0.01225   0.00540  -0.0775  0.1519  1.0000  -2.5634   0.0000   0.0000   0.0000   0.3179
   6.400   1.0535   0.01238   0.00573  -0.0773  0.1467  1.0000  -2.6450   0.0000   0.0000   0.0000   0.3169
   6.500   1.0635   0.01250   0.00587  -0.0772  0.1430  1.0000  -2.7169   0.0000   0.0000   0.0000   0.3160
   6.600   1.0732   0.01267   0.00602  -0.0770  0.1380  1.0000  -2.7867   0.0000   0.0000   0.0000   0.3150
   6.700   1.0824   0.01287   0.00619  -0.0767  0.1322  1.0000  -2.8550   0.0000   0.0000   0.0000   0.3140
   6.800   1.0914   0.01311   0.00637  -0.0764  0.1253  1.0000  -2.9220   0.0000   0.0000   0.0000   0.3130
   6.900   1.1001   0.01337   0.00661  -0.0760  0.1170  1.0000  -2.9868   0.0000   0.0000   0.0000   0.3120
   7.000   1.1100   0.01350   0.00675  -0.0758  0.1144  1.0000  -3.0583   0.0000   0.0000   0.0000   0.3111
   7.100   1.1201   0.01360   0.00689  -0.0757  0.1123  1.0000  -3.1312   0.0000   0.0000   0.0000   0.3102
   7.200   1.1298   0.01374   0.00704  -0.0755  0.1090  1.0000  -3.2032   0.0000   0.0000   0.0000   0.3094
   7.300   1.1392   0.01392   0.00720  -0.0752  0.1047  1.0000  -3.2743   0.0000   0.0000   0.0000   0.3085
   7.400   1.1480   0.01416   0.00738  -0.0749  0.0994  1.0000  -3.3439   0.0000   0.0000   0.0000   0.3076
   7.500   1.1564   0.01445   0.00762  -0.0745  0.0921  1.0000  -3.4294   0.0000   0.0000   0.0000   0.3067
   7.600   1.1648   0.01474   0.00790  -0.0741  0.0863  1.0000  -3.5247   0.0000   0.0000   0.0000   0.3057
   7.700   1.1750   0.01481   0.00801  -0.0740  0.0849  1.0000  -3.6352   0.0000   0.0000   0.0000   0.3049
   7.800   1.1848   0.01493   0.00816  -0.0738  0.0827  1.0000  -3.7440   0.0000   0.0000   0.0000   0.3041
   7.900   1.1942   0.01509   0.00832  -0.0736  0.0794  1.0000  -3.8515   0.0000   0.0000   0.0000   0.3033
   8.000   1.2031   0.01531   0.00851  -0.0733  0.0753  1.0000  -3.9569   0.0000   0.0000   0.0000   0.3025
   8.100   1.2113   0.01560   0.00874  -0.0729  0.0702  1.0000  -4.0589   0.0000   0.0000   0.0000   0.3016
   8.200   1.2179   0.01608   0.00919  -0.0722  0.0625  1.0000  -4.1451   0.0000   0.0000   0.0000   0.3006
   8.300   1.2275   0.01621   0.00933  -0.0720  0.0609  1.0000  -4.2589   0.0000   0.0000   0.0000   0.2998
   8.400   1.2374   0.01630   0.00945  -0.0718  0.0593  1.0000  -4.3765   0.0000   0.0000   0.0000   0.2991
   8.500   1.2468   0.01644   0.00960  -0.0716  0.0567  1.0000  -4.4915   0.0000   0.0000   0.0000   0.2983
   8.600   1.2556   0.01665   0.00979  -0.0713  0.0536  1.0000  -4.6034   0.0000   0.0000   0.0000   0.2976
   8.700   1.2637   0.01693   0.01002  -0.0710  0.0501  1.0000  -4.7113   0.0000   0.0000   0.0000   0.2968
   8.800   1.2708   0.01733   0.01037  -0.0704  0.0455  1.0000  -4.8090   0.0000   0.0000   0.0000   0.2959
   8.900   1.2758   0.01796   0.01105  -0.0694  0.0409  1.0000  -4.8823   0.0000   0.0000   0.0000   0.2948
   9.000   1.2852   0.01808   0.01119  -0.0692  0.0405  1.0000  -5.0028   0.0000   0.0000   0.0000   0.2941
   9.100   1.2944   0.01822   0.01136  -0.0690  0.0398  1.0000  -5.1225   0.0000   0.0000   0.0000   0.2933
   9.200   1.3034   0.01838   0.01155  -0.0687  0.0390  1.0000  -5.2407   0.0000   0.0000   0.0000   0.2926
   9.300   1.3121   0.01857   0.01177  -0.0683  0.0379  1.0000  -5.3576   0.0000   0.0000   0.0000   0.2919
   9.400   1.3206   0.01878   0.01200  -0.0680  0.0366  1.0000  -5.4738   0.0000   0.0000   0.0000   0.2911
   9.500   1.3289   0.01900   0.01224  -0.0676  0.0351  1.0000  -5.5890   0.0000   0.0000   0.0000   0.2904
   9.600   1.3363   0.01932   0.01265  -0.0671  0.0331  1.0000  -5.7042   0.0000   0.0000   0.0000   0.2896
   9.700   1.3432   0.01969   0.01299  -0.0666  0.0309  1.0000  -5.8093   0.0000   0.0000   0.0000   0.2888
   9.800   1.3460   0.02047   0.01379  -0.0653  0.0269  1.0000  -5.8629   0.0000   0.0000   0.0000   0.2876
   9.900   1.3448   0.02167   0.01513  -0.0635  0.0243  1.0000  -5.8699   0.0000   0.0000   0.0000   0.2861
  10.000   1.3530   0.02186   0.01535  -0.0631  0.0241  1.0000  -5.9887   0.0000   0.0000   0.0000   0.2854
  10.100   1.3610   0.02207   0.01558  -0.0627  0.0238  1.0000  -6.1060   0.0000   0.0000   0.0000   0.2847
  10.200   1.3686   0.02230   0.01585  -0.0622  0.0235  1.0000  -6.2209   0.0000   0.0000   0.0000   0.2840
  10.300   1.3759   0.02256   0.01614  -0.0617  0.0232  1.0000  -6.3334   0.0000   0.0000   0.0000   0.2832
  10.400   1.3829   0.02284   0.01646  -0.0612  0.0228  1.0000  -6.4435   0.0000   0.0000   0.0000   0.2824
  10.500   1.3897   0.02314   0.01680  -0.0606  0.0223  1.0000  -6.5566   0.0000   0.0000   0.0000   0.2817
  10.600   1.3959   0.02344   0.01714  -0.0599  0.0219  1.0000  -6.6772   0.0000   0.0000   0.0000   0.2808
  10.700   1.4018   0.02375   0.01750  -0.0592  0.0214  1.0000  -6.7951   0.0000   0.0000   0.0000   0.2800
  10.800   1.4074   0.02407   0.01785  -0.0585  0.0209  1.0000  -6.9123   0.0000   0.0000   0.0000   0.2791
  10.900   1.4128   0.02439   0.01821  -0.0577  0.0204  1.0000  -7.0291   0.0000   0.0000   0.0000   0.2783
  11.000   1.4182   0.02471   0.01856  -0.0569  0.0199  1.0000  -7.1465   0.0000   0.0000   0.0000   0.2774
  11.100   1.4235   0.02502   0.01890  -0.0562  0.0193  1.0000  -7.2651   0.0000   0.0000   0.0000   0.2766
  11.200   1.4289   0.02532   0.01922  -0.0554  0.0187  1.0000  -7.3857   0.0000   0.0000   0.0000   0.2758
  11.300   1.4342   0.02561   0.01953  -0.0547  0.0181  1.0000  -7.5079   0.0000   0.0000   0.0000   0.2750
  11.400   1.4393   0.02592   0.01986  -0.0540  0.0174  1.0000  -7.6273   0.0000   0.0000   0.0000   0.2742
  11.500   1.4436   0.02629   0.02023  -0.0532  0.0165  1.0000  -7.7388   0.0000   0.0000   0.0000   0.2734
  11.600   1.4453   0.02687   0.02082  -0.0521  0.0153  1.0000  -7.8179   0.0000   0.0000   0.0000   0.2724
  11.700   1.4345   0.02854   0.02262  -0.0495  0.0133  1.0000  -7.7328   0.0000   0.0000   0.0000   0.2707
  11.800   1.4143   0.03133   0.02568  -0.0461  0.0120  1.0000  -7.5292   0.0000   0.0000   0.0000   0.2687
  11.900   1.4202   0.03155   0.02593  -0.0456  0.0119  1.0000  -7.6575   0.0000   0.0000   0.0000   0.2681
  12.000   1.4250   0.03189   0.02629  -0.0450  0.0118  1.0000  -7.7732   0.0000   0.0000   0.0000   0.2674
  12.100   1.4288   0.03234   0.02678  -0.0444  0.0117  1.0000  -7.8771   0.0000   0.0000   0.0000   0.2667
  12.200   1.4318   0.03289   0.02738  -0.0437  0.0116  1.0000  -7.9701   0.0000   0.0000   0.0000   0.2660
  12.300   1.4339   0.03353   0.02808  -0.0430  0.0114  1.0000  -8.0536   0.0000   0.0000   0.0000   0.2653
  12.400   1.4350   0.03427   0.02889  -0.0421  0.0113  1.0000  -8.1255   0.0000   0.0000   0.0000   0.2645
  12.500   1.4352   0.03509   0.02977  -0.0413  0.0112  1.0000  -8.1881   0.0000   0.0000   0.0000   0.2637
  12.600   1.4350   0.03597   0.03073  -0.0405  0.0111  1.0000  -8.2452   0.0000   0.0000   0.0000   0.2630
  12.700   1.4344   0.03693   0.03177  -0.0397  0.0110  1.0000  -8.2971   0.0000   0.0000   0.0000   0.2623
  12.800   1.4331   0.03798   0.03290  -0.0389  0.0109  1.0000  -8.3416   0.0000   0.0000   0.0000   0.2616
  12.900   1.4315   0.03909   0.03409  -0.0382  0.0108  1.0000  -8.3823   0.0000   0.0000   0.0000   0.2610
  13.000   1.4297   0.04025   0.03534  -0.0375  0.0108  1.0000  -8.4203   0.0000   0.0000   0.0000   0.2604
  13.100   1.4274   0.04149   0.03667  -0.0369  0.0107  1.0000  -8.4527   0.0000   0.0000   0.0000   0.2598
  13.200   1.4245   0.04281   0.03808  -0.0363  0.0107  1.0000  -8.4795   0.0000   0.0000   0.0000   0.2593
  13.300   1.4215   0.04418   0.03954  -0.0358  0.0106  1.0000  -8.5043   0.0000   0.0000   0.0000   0.2588
  13.400   1.4182   0.04561   0.04106  -0.0354  0.0106  1.0000  -8.5256   0.0000   0.0000   0.0000   0.2584
  13.500   1.4141   0.04713   0.04268  -0.0351  0.0106  1.0000  -8.5395   0.0000   0.0000   0.0000   0.2580
  13.600   1.4099   0.04871   0.04434  -0.0348  0.0105  1.0000  -8.5511   0.0000   0.0000   0.0000   0.2577
  13.700   1.4055   0.05034   0.04607  -0.0346  0.0105  1.0000  -8.5605   0.0000   0.0000   0.0000   0.2575
  13.800   1.4002   0.05208   0.04790  -0.0345  0.0105  1.0000  -8.5619   0.0000   0.0000   0.0000   0.2574
  13.900   1.3944   0.05385   0.04975  -0.0345  0.0105  1.0000  -8.5590   0.0000   0.0000   0.0000   0.2573
  14.000   1.3888   0.05567   0.05167  -0.0346  0.0105  1.0000  -8.5550   0.0000   0.0000   0.0000   0.2572
  14.100   1.3824   0.05766   0.05375  -0.0349  0.0105  1.0000  -8.5444   0.0000   0.0000   0.0000   0.2574
  14.200   1.3761   0.05973   0.05590  -0.0352  0.0105  1.0000  -8.5323   0.0000   0.0000   0.0000   0.2576
  14.300   1.3700   0.06186   0.05812  -0.0357  0.0105  1.0000  -8.5199   0.0000   0.0000   0.0000   0.2578
  14.400   1.3630   0.06418   0.06053  -0.0364  0.0105  1.0000  -8.4988   0.0000   0.0000   0.0000   0.2583
  14.500   1.3561   0.06656   0.06300  -0.0372  0.0105  1.0000  -8.4769   0.0000   0.0000   0.0000   0.2588
  14.600   1.3493   0.06901   0.06554  -0.0381  0.0105  1.0000  -8.4528   0.0000   0.0000   0.0000   0.2594
  14.700   1.3415   0.07169   0.06830  -0.0393  0.0105  1.0000  -8.4189   0.0000   0.0000   0.0000   0.2602
  14.800   1.3342   0.07438   0.07107  -0.0404  0.0105  1.0000  -8.3858   0.0000   0.0000   0.0000   0.2611
  14.900   1.3264   0.07725   0.07403  -0.0418  0.0105  1.0000  -8.3452   0.0000   0.0000   0.0000   0.2622
  15.000   1.3182   0.08026   0.07711  -0.0434  0.0105  1.0000  -8.2990   0.0000   0.0000   0.0000   0.2634
  15.100   1.3103   0.08328   0.08021  -0.0450  0.0105  1.0000  -8.2520   0.0000   0.0000   0.0000   0.2646
  15.200   1.3014   0.08661   0.08363  -0.0470  0.0105  1.0000  -8.1914   0.0000   0.0000   0.0000   0.2661
  15.300   1.2930   0.08989   0.08699  -0.0489  0.0105  1.0000  -8.1321   0.0000   0.0000   0.0000   0.2677
  15.400   1.2837   0.09346   0.09063  -0.0511  0.0106  1.0000  -8.0601   0.0000   0.0000   0.0000   0.2695
  15.500   1.2746   0.09704   0.09429  -0.0533  0.0106  1.0000  -7.9855   0.0000   0.0000   0.0000   0.2714
  15.600   1.2651   0.10081   0.09813  -0.0557  0.0106  1.0000  -7.9016   0.0000   0.0000   0.0000   0.2734
  15.700   1.2553   0.10472   0.10211  -0.0583  0.0106  1.0000  -7.8091   0.0000   0.0000   0.0000   0.2757
  15.800   1.2453   0.10869   0.10615  -0.0609  0.0107  1.0000  -7.7111   0.0000   0.0000   0.0000   0.2780
  15.900   1.2348   0.11295   0.11048  -0.0637  0.0107  1.0000  -7.5984   0.0000   0.0000   0.0000   0.2806
  16.000   1.2244   0.11716   0.11475  -0.0665  0.0107  1.0000  -7.4830   0.0000   0.0000   0.0000   0.2832
  16.100   1.2130   0.12175   0.11940  -0.0696  0.0108  1.0000  -7.3470   0.0000   0.0000   0.0000   0.2862
  16.200   1.2018   0.12604   0.12375  -0.0726  0.0108  1.0000  -7.2081   0.0000   0.0000   0.0000   0.2891
  16.300   1.1892   0.13085   0.12862  -0.0760  0.0109  1.0000  -7.0371   0.0000   0.0000   0.0000   0.2926
  16.400   1.1760   0.13595   0.13378  -0.0794  0.0109  1.0000  -6.8472   0.0000   0.0000   0.0000   0.2962
  16.500   1.1606   0.14192   0.13981  -0.0833  0.0110  1.0000  -6.6079   0.0000   0.0000   0.0000   0.3005
  16.600   1.1406   0.14959   0.14753  -0.0881  0.0111  1.0000  -6.2670   0.0000   0.0000   0.0000   0.3061
  16.700   1.1073   0.16192   0.15991  -0.0951  0.0114  1.0000  -5.6300   0.0000   0.0000   0.0000   0.3153
  16.800   1.0389   0.18894   0.18689  -0.1077  0.0119  1.0000  -4.0242   0.0000   0.0000   0.0000   0.3345
  18.700   1.0104   0.26168   0.25957  -0.1307  0.0238  1.0000  -2.2637   0.0000   0.0000   0.0000   0.3594
  18.800   1.0119   0.26375   0.26164  -0.1316  0.0236  1.0000  -2.2615   0.0000   0.0000   0.0000   0.3599
  18.900   1.0139   0.26544   0.26333  -0.1324  0.0234  1.0000  -2.2667   0.0000   0.0000   0.0000   0.3604
  19.000   1.0178   0.26636   0.26426  -0.1345  0.0203  1.0000  -2.2541   0.0000   0.0000   0.0000   0.3618
  19.100   1.0193   0.26838   0.26628  -0.1354  0.0187  1.0000  -2.2651   0.0000   0.0000   0.0000   0.3623
  19.200   1.0205   0.27044   0.26840  -0.1361  0.0178  1.0000  -2.2679   0.0000   0.0000   0.0000   0.3627
  19.300   1.0216   0.27252   0.27049  -0.1368  0.0172  1.0000  -2.2744   0.0000   0.0000   0.0000   0.3631
  19.400   1.0227   0.27451   0.27248  -0.1375  0.0167  1.0000  -2.2877   0.0000   0.0000   0.0000   0.3634
  19.500   1.0240   0.27640   0.27438  -0.1381  0.0162  1.0000  -2.3067   0.0000   0.0000   0.0000   0.3637
  19.600   1.0253   0.27818   0.27617  -0.1387  0.0157  1.0000  -2.3315   0.0000   0.0000   0.0000   0.3639
  19.700   1.0267   0.27985   0.27785  -0.1392  0.0153  1.0000  -2.3628   0.0000   0.0000   0.0000   0.3640
  19.800   1.0283   0.28138   0.27939  -0.1397  0.0149  1.0000  -2.4020   0.0000   0.0000   0.0000   0.3641
  19.900   1.0300   0.28276   0.28077  -0.1401  0.0145  1.0000  -2.4504   0.0000   0.0000   0.0000   0.3640
  20.000   1.0320   0.28395   0.28197  -0.1404  0.0141  1.0000  -2.5102   0.0000   0.0000   0.0000   0.3638
  20.100   1.0343   0.28491   0.28295  -0.1406  0.0138  1.0000  -2.5844   0.0000   0.0000   0.0000   0.3634
  20.200   1.0364   0.28595   0.28400  -0.1408  0.0135  1.0000  -2.6570   0.0000   0.0000   0.0000   0.3631
  20.300   1.0368   0.28766   0.28572  -0.1412  0.0131  1.0000  -2.6931   0.0000   0.0000   0.0000   0.3632
  20.400   1.0351   0.29027   0.28833  -0.1417  0.0127  1.0000  -2.6836   0.0000   0.0000   0.0000   0.3637
  20.500   1.0168   0.30017   0.29820  -0.1429  0.0120  1.0000  -2.2848   0.0000   0.0000   0.0000   0.3677
  20.600   1.0153   0.30259   0.30062  -0.1434  0.0120  1.0000  -2.2518   0.0000   0.0000   0.0000   0.3683
  20.700   1.0135   0.30493   0.30297  -0.1439  0.0120  1.0000  -2.2180   0.0000   0.0000   0.0000   0.3689
  20.800   1.0112   0.30718   0.30523  -0.1443  0.0120  1.0000  -2.1835   0.0000   0.0000   0.0000   0.3696
  20.900   1.0083   0.30930   0.30736  -0.1447  0.0120  1.0000  -2.1481   0.0000   0.0000   0.0000   0.3702
  21.000   1.0045   0.31122   0.30928  -0.1449  0.0120  1.0000  -2.1108   0.0000   0.0000   0.0000   0.3709
  21.100   0.9511   0.30197   0.30012  -0.1394  0.0120  1.0000  -1.9474   0.0000   0.0000   0.0000   0.3738
  21.200   0.9426   0.30163   0.29980  -0.1390  0.0120  1.0000  -1.9007   0.0000   0.0000   0.0000   0.3747
  21.300   0.9361   0.30163   0.29982  -0.1388  0.0120  1.0000  -1.8598   0.0000   0.0000   0.0000   0.3754
  21.400   0.9306   0.30181   0.30001  -0.1387  0.0120  1.0000  -1.8226   0.0000   0.0000   0.0000   0.3762
  21.500   0.9259   0.30210   0.30031  -0.1387  0.0119  1.0000  -1.7880   0.0000   0.0000   0.0000   0.3768
  21.600   0.9217   0.30246   0.30068  -0.1387  0.0119  1.0000  -1.7556   0.0000   0.0000   0.0000   0.3775
  21.700   0.9179   0.30287   0.30110  -0.1388  0.0119  1.0000  -1.7250   0.0000   0.0000   0.0000   0.3781
  21.800   0.9144   0.30332   0.30157  -0.1389  0.0119  1.0000  -1.6961   0.0000   0.0000   0.0000   0.3787
  21.900   0.9113   0.30381   0.30206  -0.1390  0.0119  1.0000  -1.6686   0.0000   0.0000   0.0000   0.3792
  22.000   0.9084   0.30433   0.30259  -0.1391  0.0119  1.0000  -1.6425   0.0000   0.0000   0.0000   0.3798
  22.100   0.9057   0.30487   0.30314  -0.1393  0.0119  1.0000  -1.6175   0.0000   0.0000   0.0000   0.3803
  22.200   0.9032   0.30543   0.30370  -0.1395  0.0119  1.0000  -1.5936   0.0000   0.0000   0.0000   0.3809
  22.300   0.9009   0.30600   0.30428  -0.1397  0.0119  1.0000  -1.5708   0.0000   0.0000   0.0000   0.3814
  22.400   0.8987   0.30659   0.30488  -0.1399  0.0119  1.0000  -1.5488   0.0000   0.0000   0.0000   0.3819
  22.500   0.8966   0.30719   0.30549  -0.1401  0.0119  1.0000  -1.5276   0.0000   0.0000   0.0000   0.3823
  22.600   0.8947   0.30779   0.30610  -0.1403  0.0119  1.0000  -1.5071   0.0000   0.0000   0.0000   0.3828
  22.700   0.8929   0.30841   0.30673  -0.1406  0.0119  1.0000  -1.4874   0.0000   0.0000   0.0000   0.3833
  22.800   0.8912   0.30904   0.30736  -0.1408  0.0119  1.0000  -1.4684   0.0000   0.0000   0.0000   0.3838
  22.900   0.8896   0.30967   0.30800  -0.1411  0.0119  1.0000  -1.4500   0.0000   0.0000   0.0000   0.3842
  23.000   0.8881   0.31031   0.30865  -0.1414  0.0118  1.0000  -1.4323   0.0000   0.0000   0.0000   0.3847
  23.100   0.8866   0.31096   0.30930  -0.1416  0.0118  1.0000  -1.4152   0.0000   0.0000   0.0000   0.3851
  23.200   0.8853   0.31161   0.30996  -0.1419  0.0118  1.0000  -1.3986   0.0000   0.0000   0.0000   0.3855
  23.300   0.8840   0.31227   0.31062  -0.1422  0.0118  1.0000  -1.3825   0.0000   0.0000   0.0000   0.3860
  23.400   0.8827   0.31293   0.31129  -0.1425  0.0118  1.0000  -1.3669   0.0000   0.0000   0.0000   0.3864
  23.500   0.8816   0.31359   0.31196  -0.1428  0.0118  1.0000  -1.3518   0.0000   0.0000   0.0000   0.3868
  23.600   0.8805   0.31426   0.31264  -0.1431  0.0118  1.0000  -1.3372   0.0000   0.0000   0.0000   0.3872
  23.700   0.8794   0.31493   0.31331  -0.1434  0.0118  1.0000  -1.3230   0.0000   0.0000   0.0000   0.3876
  23.800   0.8784   0.31561   0.31399  -0.1437  0.0118  1.0000  -1.3092   0.0000   0.0000   0.0000   0.3880
  23.900   0.8775   0.31629   0.31468  -0.1440  0.0118  1.0000  -1.2957   0.0000   0.0000   0.0000   0.3884
  24.000   0.8766   0.31697   0.31537  -0.1443  0.0118  1.0000  -1.2827   0.0000   0.0000   0.0000   0.3888
  24.100   0.8757   0.31765   0.31605  -0.1446  0.0118  1.0000  -1.2700   0.0000   0.0000   0.0000   0.3892
  24.200   0.8749   0.31834   0.31675  -0.1450  0.0118  1.0000  -1.2576   0.0000   0.0000   0.0000   0.3895
  24.300   0.8741   0.31902   0.31744  -0.1453  0.0118  1.0000  -1.2454   0.0000   0.0000   0.0000   0.3899
  24.400   0.8733   0.31971   0.31813  -0.1456  0.0118  1.0000  -1.2334   0.0000   0.0000   0.0000   0.3903
  24.500   0.8726   0.32040   0.31883  -0.1460  0.0117  1.0000  -1.2216   0.0000   0.0000   0.0000   0.3907
  24.600   0.8719   0.32110   0.31953  -0.1463  0.0117  1.0000  -1.2102   0.0000   0.0000   0.0000   0.3910
  24.700   0.8712   0.32179   0.32023  -0.1466  0.0117  1.0000  -1.1991   0.0000   0.0000   0.0000   0.3914
  24.800   0.8706   0.32249   0.32093  -0.1470  0.0117  1.0000  -1.1882   0.0000   0.0000   0.0000   0.3918
  24.900   0.8700   0.32319   0.32163  -0.1473  0.0117  1.0000  -1.1776   0.0000   0.0000   0.0000   0.3921
  25.000   0.8694   0.32388   0.32234  -0.1477  0.0117  1.0000  -1.1672   0.0000   0.0000   0.0000   0.3925
  25.100   0.8689   0.32458   0.32304  -0.1480  0.0117  1.0000  -1.1572   0.0000   0.0000   0.0000   0.3928
  25.200   0.8684   0.32528   0.32375  -0.1484  0.0117  1.0000  -1.1475   0.0000   0.0000   0.0000   0.3932
  25.300   0.8679   0.32598   0.32445  -0.1488  0.0117  1.0000  -1.1382   0.0000   0.0000   0.0000   0.3935
  25.400   0.8675   0.32668   0.32515  -0.1492  0.0116  1.0000  -1.1292   0.0000   0.0000   0.0000   0.3939
  25.500   0.8671   0.32737   0.32585  -0.1496  0.0116  1.0000  -1.1300   0.0000   0.0000   0.0000   0.3942
  25.600   0.8667   0.32808   0.32657  -0.1500  0.0116  1.0000  -1.1337   0.0000   0.0000   0.0000   0.3946
  25.700   0.8664   0.32880   0.32729  -0.1504  0.0115  1.0000  -1.1374   0.0000   0.0000   0.0000   0.3950
  25.800   0.8661   0.32952   0.32802  -0.1509  0.0115  1.0000  -1.1410   0.0000   0.0000   0.0000   0.3954
  25.900   0.8659   0.33025   0.32875  -0.1513  0.0114  1.0000  -1.1444   0.0000   0.0000   0.0000   0.3958
  26.000   0.8656   0.33099   0.32950  -0.1518  0.0114  1.0000  -1.1477   0.0000   0.0000   0.0000   0.3962


