xflr5 v6.61

 Calculated polar for: S4110

 1 1 Reynolds number fixed          Mach number fixed         

 xtrf =   1.000 (top)        1.000 (bottom)
 Mach =   0.000     Re =     0.100 e 6     Ncrit =   9.000

  alpha     CL        CD       CDp       Cm    Top Xtr Bot Xtr   Cpmin    Chinge    XCp    
 ------- -------- --------- --------- -------- ------- ------- -------- --------- ---------
 -10.000  -0.3847   0.11813   0.11267  -0.0220  1.0000  0.0687  -1.2205   0.0000   0.0000   0.0000   0.1871
  -9.900  -0.3827   0.11695   0.11151  -0.0224  1.0000  0.0694  -1.2198   0.0000   0.0000   0.0000   0.1859
  -9.800  -0.3807   0.11578   0.11035  -0.0227  1.0000  0.0702  -1.2200   0.0000   0.0000   0.0000   0.1847
  -9.700  -0.3789   0.11462   0.10920  -0.0231  1.0000  0.0709  -1.2209   0.0000   0.0000   0.0000   0.1834
  -9.600  -0.3772   0.11347   0.10806  -0.0235  1.0000  0.0717  -1.2226   0.0000   0.0000   0.0000   0.1822
  -9.500  -0.3755   0.11232   0.10693  -0.0239  1.0000  0.0725  -1.2252   0.0000   0.0000   0.0000   0.1808
  -9.400  -0.3740   0.11119   0.10582  -0.0244  1.0000  0.0733  -1.2286   0.0000   0.0000   0.0000   0.1795
  -9.300  -0.3727   0.11008   0.10472  -0.0248  1.0000  0.0742  -1.2330   0.0000   0.0000   0.0000   0.1781
  -9.200  -0.3714   0.10899   0.10365  -0.0253  1.0000  0.0751  -1.2386   0.0000   0.0000   0.0000   0.1767
  -9.100  -0.3705   0.10794   0.10262  -0.0258  1.0000  0.0759  -1.2455   0.0000   0.0000   0.0000   0.1752
  -9.000  -0.3698   0.10695   0.10164  -0.0264  1.0000  0.0769  -1.2541   0.0000   0.0000   0.0000   0.1736
  -8.900  -0.3694   0.10602   0.10074  -0.0270  1.0000  0.0778  -1.2651   0.0000   0.0000   0.0000   0.1720
  -8.800  -0.3696   0.10522   0.09996  -0.0277  1.0000  0.0788  -1.2791   0.0000   0.0000   0.0000   0.1701
  -8.700  -0.3703   0.10459   0.09936  -0.0286  1.0000  0.0798  -1.2973   0.0000   0.0000   0.0000   0.1680
  -8.600  -0.3718   0.10418   0.09898  -0.0296  1.0000  0.0807  -1.3195   0.0000   0.0000   0.0000   0.1656
  -8.500  -0.3738   0.10398   0.09882  -0.0307  1.0000  0.0816  -1.3434   0.0000   0.0000   0.0000   0.1634
  -8.400  -0.3761   0.10380   0.09868  -0.0317  1.0000  0.0822  -1.3660   0.0000   0.0000   0.0000   0.1615
  -8.300  -0.3788   0.10350   0.09842  -0.0324  1.0000  0.0826  -1.3867   0.0000   0.0000   0.0000   0.1603
  -8.200  -0.3805   0.10305   0.09801  -0.0328  1.0000  0.0829  -1.4010   0.0000   0.0000   0.0000   0.1597
  -8.100  -0.3823   0.10248   0.09748  -0.0331  1.0000  0.0831  -1.4136   0.0000   0.0000   0.0000   0.1595
  -8.000  -0.3843   0.10184   0.09688  -0.0333  1.0000  0.0833  -1.4260   0.0000   0.0000   0.0000   0.1596
  -7.900  -0.3862   0.10110   0.09618  -0.0336  1.0000  0.0834  -1.4386   0.0000   0.0000   0.0000   0.1594
  -7.800  -0.3868   0.10017   0.09528  -0.0343  1.0000  0.0836  -1.4511   0.0000   0.0000   0.0000   0.1578
  -7.700  -0.3870   0.09916   0.09429  -0.0352  1.0000  0.0837  -1.4639   0.0000   0.0000   0.0000   0.1557
  -7.600  -0.3871   0.09809   0.09325  -0.0360  1.0000  0.0838  -1.4769   0.0000   0.0000   0.0000   0.1536
  -7.500  -0.3872   0.09697   0.09215  -0.0369  1.0000  0.0838  -1.4901   0.0000   0.0000   0.0000   0.1516
  -7.400  -0.3872   0.09581   0.09101  -0.0376  1.0000  0.0839  -1.5033   0.0000   0.0000   0.0000   0.1496
  -7.300  -0.3872   0.09463   0.08984  -0.0384  1.0000  0.0840  -1.5166   0.0000   0.0000   0.0000   0.1479
  -7.200  -0.3872   0.09343   0.08865  -0.0390  1.0000  0.0840  -1.5297   0.0000   0.0000   0.0000   0.1464
  -7.100  -0.3873   0.09222   0.08746  -0.0395  1.0000  0.0841  -1.5425   0.0000   0.0000   0.0000   0.1451
  -7.000  -0.3873   0.09101   0.08625  -0.0399  1.0000  0.0841  -1.5550   0.0000   0.0000   0.0000   0.1441
  -6.900  -0.4014   0.08446   0.07983  -0.0398  1.0000  0.0860  -1.6247   0.0000   0.0000   0.0000   0.1481
  -6.800  -0.4018   0.08242   0.07783  -0.0384  1.0000  0.0868  -1.6114   0.0000   0.0000   0.0000   0.1516
  -6.700  -0.4005   0.08096   0.07639  -0.0369  1.0000  0.0875  -1.5884   0.0000   0.0000   0.0000   0.1553
  -6.600  -0.3995   0.07970   0.07516  -0.0356  1.0000  0.0882  -1.5691   0.0000   0.0000   0.0000   0.1583
  -6.500  -0.3987   0.07856   0.07404  -0.0345  1.0000  0.0888  -1.5532   0.0000   0.0000   0.0000   0.1608
  -6.400  -0.3983   0.07747   0.07298  -0.0336  1.0000  0.0895  -1.5404   0.0000   0.0000   0.0000   0.1630
  -6.300  -0.3978   0.07643   0.07196  -0.0328  1.0000  0.0901  -1.5291   0.0000   0.0000   0.0000   0.1650
  -6.200  -0.3974   0.07541   0.07096  -0.0321  1.0000  0.0908  -1.5189   0.0000   0.0000   0.0000   0.1668
  -6.100  -0.3971   0.07440   0.06996  -0.0315  1.0000  0.0915  -1.5110   0.0000   0.0000   0.0000   0.1682
  -6.000  -0.3969   0.07337   0.06896  -0.0311  1.0000  0.0922  -1.5051   0.0000   0.0000   0.0000   0.1694
  -5.900  -0.3967   0.07234   0.06794  -0.0307  1.0000  0.0929  -1.5008   0.0000   0.0000   0.0000   0.1702
  -5.800  -0.3964   0.07128   0.06690  -0.0305  1.0000  0.0936  -1.4979   0.0000   0.0000   0.0000   0.1708
  -5.700  -0.3959   0.07020   0.06582  -0.0304  1.0000  0.0944  -1.4963   0.0000   0.0000   0.0000   0.1710
  -5.600  -0.3952   0.06908   0.06471  -0.0305  1.0000  0.0951  -1.4957   0.0000   0.0000   0.0000   0.1708
  -5.500  -0.3941   0.06793   0.06356  -0.0306  1.0000  0.0960  -1.4962   0.0000   0.0000   0.0000   0.1703
  -5.400  -0.3927   0.06673   0.06236  -0.0309  1.0000  0.0968  -1.4976   0.0000   0.0000   0.0000   0.1694
  -5.300  -0.3909   0.06548   0.06111  -0.0313  1.0000  0.0977  -1.4998   0.0000   0.0000   0.0000   0.1680
  -5.200  -0.3886   0.06420   0.05982  -0.0318  1.0000  0.0985  -1.5029   0.0000   0.0000   0.0000   0.1662
  -5.100  -0.3857   0.06285   0.05846  -0.0325  1.0000  0.0994  -1.5069   0.0000   0.0000   0.0000   0.1640
  -4.600  -0.3377   0.04593   0.04051  -0.0470  1.0000  0.0548  -2.0190   0.0000   0.0000   0.0000   0.1084
  -4.500  -0.3315   0.04335   0.03784  -0.0480  1.0000  0.0530  -2.0440   0.0000   0.0000   0.0000   0.1027
  -4.400  -0.3236   0.04112   0.03549  -0.0490  1.0000  0.0514  -2.0677   0.0000   0.0000   0.0000   0.0961
  -4.300  -0.3143   0.03895   0.03315  -0.0500  1.0000  0.0499  -2.0958   0.0000   0.0000   0.0000   0.0883
  -4.200  -0.3039   0.03677   0.03076  -0.0510  1.0000  0.0484  -2.1291   0.0000   0.0000   0.0000   0.0794
  -4.100  -0.2925   0.03461   0.02835  -0.0520  1.0000  0.0471  -2.1668   0.0000   0.0000   0.0000   0.0693
  -4.000  -0.2803   0.03252   0.02599  -0.0529  1.0000  0.0459  -2.2056   0.0000   0.0000   0.0000   0.0581
  -3.900  -0.2677   0.03062   0.02379  -0.0538  1.0000  0.0451  -2.2397   0.0000   0.0000   0.0000   0.0459
  -3.800  -0.2549   0.02897   0.02185  -0.0544  1.0000  0.0447  -2.2644   0.0000   0.0000   0.0000   0.0331
  -3.700  -0.2425   0.02758   0.02020  -0.0549  1.0000  0.0447  -2.2784   0.0000   0.0000   0.0000   0.0200
  -3.600  -0.2304   0.02640   0.01880  -0.0552  1.0000  0.0451  -2.2840   0.0000   0.0000   0.0000   0.0066
  -3.500  -0.2186   0.02539   0.01759  -0.0554  1.0000  0.0459  -2.2845   0.0000   0.0000   0.0000  -0.0074
  -3.400  -0.2071   0.02451   0.01653  -0.0555  1.0000  0.0471  -2.2828   0.0000   0.0000   0.0000  -0.0222
  -3.300  -0.1957   0.02371   0.01557  -0.0556  1.0000  0.0491  -2.2835   0.0000   0.0000   0.0000  -0.0382
  -3.200  -0.1844   0.02302   0.01472  -0.0555  1.0000  0.0521  -2.2893   0.0000   0.0000   0.0000  -0.0554
  -3.100  -0.1743   0.02286   0.01442  -0.0552  1.0000  0.0566  -2.2995   0.0000   0.0000   0.0000  -0.0709
  -3.000  -0.1607   0.02117   0.01248  -0.0559  1.0000  0.0654  -2.3215   0.0000   0.0000   0.0000  -0.1022
  -2.900  -0.1516   0.02107   0.01243  -0.0557  1.0000  0.0739  -2.2808   0.0000   0.0000   0.0000  -0.1221
  -2.800  -0.1449   0.02181   0.01316  -0.0551  1.0000  0.0834  -2.2049   0.0000   0.0000   0.0000  -0.1353
  -2.500  -0.1160   0.02068   0.01209  -0.0554  1.0000  0.1210  -2.0399   0.0000   0.0000   0.0000  -0.2331
  -2.400  -0.1074   0.02047   0.01201  -0.0555  1.0000  0.1323  -1.9635   0.0000   0.0000   0.0000  -0.2721
  -2.300  -0.0985   0.02043   0.01197  -0.0553  1.0000  0.1409  -1.8975   0.0000   0.0000   0.0000  -0.3166
  -2.200  -0.0886   0.02019   0.01165  -0.0551  1.0000  0.1464  -1.8424   0.0000   0.0000   0.0000  -0.3785
  -2.100  -0.0789   0.02004   0.01142  -0.0549  1.0000  0.1506  -1.7840   0.0000   0.0000   0.0000  -0.4525
  -2.000  -0.0664   0.01943   0.01076  -0.0553  0.9996  0.1572  -1.7238   0.0000   0.0000   0.0000  -0.5900
  -1.900  -0.0494   0.01897   0.01036  -0.0565  0.9976  0.1673  -1.6360   0.0000   0.0000   0.0000  -0.9026
  -1.800  -0.0323   0.01882   0.01022  -0.0578  0.9951  0.1774  -1.5417   0.0000   0.0000   0.0000  -1.5530
  -1.700  -0.0150   0.01872   0.01008  -0.0591  0.9922  0.1882  -1.4492   0.0000   0.0000   0.0000  -3.7067
  -1.600   0.0024   0.01838   0.00984  -0.0604  0.9899  0.2068  -1.3592   0.0000   0.0000   0.0000  26.0039
  -1.500   0.0208   0.01827   0.00981  -0.0619  0.9877  0.2325  -1.2600   0.0000   0.0000   0.0000   3.2443
  -1.400   0.0359   0.01786   0.00965  -0.0628  0.9848  0.2735  -1.1800   0.0000   0.0000   0.0000   2.0079
  -1.300   0.0508   0.01724   0.00957  -0.0638  0.9825  0.3772  -1.1316   0.0000   0.0000   0.0000   1.5109
  -1.200   0.0635   0.01653   0.00971  -0.0639  0.9807  0.5806  -1.0819   0.0000   0.0000   0.0000   1.2607
  -1.100   0.0716   0.01610   0.00986  -0.0625  0.9782  0.7434  -1.0389   0.0000   0.0000   0.0000   1.1277
  -1.000   0.0876   0.01574   0.00979  -0.0629  0.9746  1.0000  -0.9783   0.0000   0.0000   0.0000   0.9702
  -0.900   0.1073   0.01596   0.00985  -0.0647  0.9724  1.0000  -0.9114   0.0000   0.0000   0.0000   0.8542
  -0.800   0.1191   0.01602   0.00982  -0.0650  0.9677  1.0000  -0.8629   0.0000   0.0000   0.0000   0.7973
  -0.700   0.1344   0.01614   0.00984  -0.0660  0.9634  1.0000  -0.8067   0.0000   0.0000   0.0000   0.7420
  -0.600   0.1519   0.01628   0.00987  -0.0673  0.9596  1.0000  -0.7463   0.0000   0.0000   0.0000   0.6941
  -0.500   0.1710   0.01644   0.00993  -0.0690  0.9564  1.0000  -0.6831   0.0000   0.0000   0.0000   0.6538
  -0.400   0.1915   0.01661   0.01002  -0.0709  0.9538  1.0000  -0.6184   0.0000   0.0000   0.0000   0.6203
  -0.300   0.2063   0.01673   0.01007  -0.0718  0.9500  1.0000  -0.5718   0.0000   0.0000   0.0000   0.5976
  -0.200   0.2168   0.01681   0.01009  -0.0718  0.9448  1.0000  -0.5439   0.0000   0.0000   0.0000   0.5809
  -0.100   0.2310   0.01691   0.01014  -0.0725  0.9405  1.0000  -0.5103   0.0000   0.0000   0.0000   0.5636
   0.000   0.2477   0.01702   0.01019  -0.0737  0.9367  1.0000  -0.4717   0.0000   0.0000   0.0000   0.5469
   0.100   0.2666   0.01712   0.01014  -0.0752  0.9333  1.0000  -0.4625   0.0000   0.0000   0.0000   0.5315
   0.200   0.2871   0.01722   0.01019  -0.0770  0.9305  1.0000  -0.4793   0.0000   0.0000   0.0000   0.5174
   0.300   0.3088   0.01733   0.01025  -0.0790  0.9280  1.0000  -0.4969   0.0000   0.0000   0.0000   0.5049
   0.400   0.3146   0.01740   0.01030  -0.0781  0.9215  1.0000  -0.5042   0.0000   0.0000   0.0000   0.4973
   0.500   0.3263   0.01747   0.01033  -0.0783  0.9158  1.0000  -0.5166   0.0000   0.0000   0.0000   0.4888
   0.600   0.3421   0.01752   0.01035  -0.0792  0.9112  1.0000  -0.5327   0.0000   0.0000   0.0000   0.4802
   0.700   0.3602   0.01755   0.01036  -0.0805  0.9075  1.0000  -0.5506   0.0000   0.0000   0.0000   0.4720
   0.800   0.3799   0.01756   0.01035  -0.0820  0.9041  1.0000  -0.5698   0.0000   0.0000   0.0000   0.4644
   0.900   0.4013   0.01755   0.01032  -0.0838  0.9013  1.0000  -0.5918   0.0000   0.0000   0.0000   0.4572
   1.000   0.4241   0.01753   0.01032  -0.0858  0.8990  1.0000  -0.6169   0.0000   0.0000   0.0000   0.4507
   1.100   0.4291   0.01766   0.01042  -0.0847  0.8922  1.0000  -0.6273   0.0000   0.0000   0.0000   0.4458
   1.200   0.4383   0.01772   0.01047  -0.0844  0.8856  1.0000  -0.6413   0.0000   0.0000   0.0000   0.4407
   1.300   0.4535   0.01771   0.01046  -0.0850  0.8806  1.0000  -0.6604   0.0000   0.0000   0.0000   0.4356
   1.400   0.4716   0.01765   0.01039  -0.0861  0.8765  1.0000  -0.6822   0.0000   0.0000   0.0000   0.4307
   1.500   0.4920   0.01754   0.01027  -0.0875  0.8730  1.0000  -0.7098   0.0000   0.0000   0.0000   0.4259
   1.600   0.5127   0.01738   0.01011  -0.0889  0.8698  1.0000  -0.7388   0.0000   0.0000   0.0000   0.4214
   1.700   0.5340   0.01721   0.00994  -0.0903  0.8669  1.0000  -0.7685   0.0000   0.0000   0.0000   0.4170
   1.800   0.5549   0.01707   0.00979  -0.0916  0.8643  1.0000  -0.7981   0.0000   0.0000   0.0000   0.4130
   1.900   0.5533   0.01731   0.01004  -0.0895  0.8543  1.0000  -0.8045   0.0000   0.0000   0.0000   0.4095
   2.000   0.5643   0.01729   0.01002  -0.0893  0.8476  1.0000  -0.8241   0.0000   0.0000   0.0000   0.4059
   2.100   0.5793   0.01717   0.00991  -0.0896  0.8423  1.0000  -0.8482   0.0000   0.0000   0.0000   0.4023
   2.200   0.5962   0.01698   0.00973  -0.0901  0.8377  1.0000  -0.8745   0.0000   0.0000   0.0000   0.3988
   2.300   0.6137   0.01678   0.00953  -0.0908  0.8337  1.0000  -0.9016   0.0000   0.0000   0.0000   0.3954
   2.400   0.6321   0.01656   0.00933  -0.0915  0.8301  1.0000  -0.9299   0.0000   0.0000   0.0000   0.3922
   2.500   0.6477   0.01645   0.00921  -0.0918  0.8256  1.0000  -0.9557   0.0000   0.0000   0.0000   0.3891
   2.600   0.6506   0.01661   0.00940  -0.0903  0.8159  1.0000  -0.9700   0.0000   0.0000   0.0000   0.3861
   2.700   0.6609   0.01655   0.00935  -0.0898  0.8081  1.0000  -0.9943   0.0000   0.0000   0.0000   0.3831
   2.800   0.6744   0.01638   0.00919  -0.0897  0.8017  1.0000  -1.0230   0.0000   0.0000   0.0000   0.3802
   2.900   0.6896   0.01616   0.00897  -0.0899  0.7961  1.0000  -1.0541   0.0000   0.0000   0.0000   0.3773
   3.000   0.7055   0.01592   0.00884  -0.0900  0.7908  1.0000  -1.0881   0.0000   0.0000   0.0000   0.3745
   3.100   0.7196   0.01580   0.00870  -0.0899  0.7849  1.0000  -1.1184   0.0000   0.0000   0.0000   0.3719
   3.200   0.7250   0.01589   0.00883  -0.0888  0.7749  1.0000  -1.1366   0.0000   0.0000   0.0000   0.3693
   3.300   0.7350   0.01582   0.00877  -0.0882  0.7658  1.0000  -1.1614   0.0000   0.0000   0.0000   0.3668
   3.400   0.7475   0.01566   0.00861  -0.0879  0.7578  1.0000  -1.1897   0.0000   0.0000   0.0000   0.3643
   3.500   0.7609   0.01546   0.00839  -0.0877  0.7506  1.0000  -1.2198   0.0000   0.0000   0.0000   0.3618
   3.600   0.7758   0.01529   0.00817  -0.0876  0.7436  1.0000  -1.2520   0.0000   0.0000   0.0000   0.3594
   3.700   0.7824   0.01536   0.00829  -0.0867  0.7331  1.0000  -1.2757   0.0000   0.0000   0.0000   0.3572
   3.800   0.7917   0.01532   0.00827  -0.0860  0.7222  1.0000  -1.3066   0.0000   0.0000   0.0000   0.3550
   3.900   0.8028   0.01520   0.00813  -0.0855  0.7122  1.0000  -1.3413   0.0000   0.0000   0.0000   0.3527
   4.000   0.8158   0.01506   0.00793  -0.0852  0.7030  1.0000  -1.3794   0.0000   0.0000   0.0000   0.3506
   4.100   0.8264   0.01505   0.00790  -0.0847  0.6926  1.0000  -1.4212   0.0000   0.0000   0.0000   0.3485
   4.200   0.8345   0.01507   0.00797  -0.0839  0.6798  1.0000  -1.4584   0.0000   0.0000   0.0000   0.3465
   4.300   0.8446   0.01501   0.00789  -0.0833  0.6670  1.0000  -1.5009   0.0000   0.0000   0.0000   0.3445
   4.400   0.8566   0.01493   0.00771  -0.0829  0.6548  1.0000  -1.5484   0.0000   0.0000   0.0000   0.3425
   4.500   0.8657   0.01498   0.00776  -0.0822  0.6414  1.0000  -1.5888   0.0000   0.0000   0.0000   0.3407
   4.600   0.8744   0.01501   0.00781  -0.0815  0.6262  1.0000  -1.6287   0.0000   0.0000   0.0000   0.3388
   4.700   0.8849   0.01501   0.00773  -0.0810  0.6115  1.0000  -1.6733   0.0000   0.0000   0.0000   0.3370
   4.800   0.8950   0.01509   0.00774  -0.0805  0.5972  1.0000  -1.7170   0.0000   0.0000   0.0000   0.3353
   4.900   0.9034   0.01518   0.00785  -0.0798  0.5804  1.0000  -1.7567   0.0000   0.0000   0.0000   0.3336
   5.000   0.9128   0.01526   0.00783  -0.0791  0.5631  1.0000  -1.7999   0.0000   0.0000   0.0000   0.3319
   5.100   0.9220   0.01540   0.00789  -0.0785  0.5455  1.0000  -1.8422   0.0000   0.0000   0.0000   0.3302
   5.200   0.9302   0.01553   0.00799  -0.0778  0.5254  1.0000  -1.8824   0.0000   0.0000   0.0000   0.3286
   5.300   0.9388   0.01575   0.00800  -0.0770  0.5049  1.0000  -1.9247   0.0000   0.0000   0.0000   0.3269
   5.400   0.9468   0.01592   0.00817  -0.0764  0.4839  1.0000  -1.9643   0.0000   0.0000   0.0000   0.3254
   5.500   0.9545   0.01617   0.00825  -0.0755  0.4617  1.0000  -2.0044   0.0000   0.0000   0.0000   0.3238
   5.600   0.9624   0.01643   0.00844  -0.0749  0.4403  1.0000  -2.0443   0.0000   0.0000   0.0000   0.3223
   5.700   0.9697   0.01672   0.00859  -0.0741  0.4181  1.0000  -2.0836   0.0000   0.0000   0.0000   0.3208
   5.800   0.9773   0.01707   0.00880  -0.0734  0.3975  1.0000  -2.1227   0.0000   0.0000   0.0000   0.3194
   5.900   0.9849   0.01737   0.00904  -0.0727  0.3773  1.0000  -2.1716   0.0000   0.0000   0.0000   0.3180
   6.000   0.9918   0.01789   0.00930  -0.0720  0.3573  1.0000  -2.2242   0.0000   0.0000   0.0000   0.3167
   6.100   1.0002   0.01815   0.00960  -0.0715  0.3407  1.0000  -2.2799   0.0000   0.0000   0.0000   0.3154
   6.200   1.0074   0.01855   0.00986  -0.0708  0.3237  1.0000  -2.3340   0.0000   0.0000   0.0000   0.3142
   6.300   1.0149   0.01909   0.01023  -0.0702  0.3070  1.0000  -2.3875   0.0000   0.0000   0.0000   0.3129
   6.400   1.0232   0.01937   0.01055  -0.0697  0.2930  1.0000  -2.4440   0.0000   0.0000   0.0000   0.3118
   6.500   1.0304   0.01977   0.01083  -0.0691  0.2790  1.0000  -2.4991   0.0000   0.0000   0.0000   0.3106
   6.600   1.0382   0.02043   0.01168  -0.0685  0.2642  1.0000  -2.5647   0.0000   0.0000   0.0000   0.3095
   6.700   1.0465   0.02065   0.01201  -0.0681  0.2538  1.0000  -2.6295   0.0000   0.0000   0.0000   0.3084
   6.800   1.0544   0.02097   0.01233  -0.0676  0.2429  1.0000  -2.6903   0.0000   0.0000   0.0000   0.3073
   6.900   1.0618   0.02148   0.01271  -0.0670  0.2323  1.0000  -2.7481   0.0000   0.0000   0.0000   0.3062
   7.000   1.0706   0.02223   0.01337  -0.0667  0.2218  1.0000  -2.8050   0.0000   0.0000   0.0000   0.3053
   7.100   1.0792   0.02251   0.01375  -0.0662  0.2148  1.0000  -2.8642   0.0000   0.0000   0.0000   0.3042
   7.200   1.0876   0.02284   0.01412  -0.0658  0.2067  1.0000  -2.9233   0.0000   0.0000   0.0000   0.3032
   7.300   1.0954   0.02321   0.01447  -0.0653  0.1989  1.0000  -2.9823   0.0000   0.0000   0.0000   0.3022
   7.400   1.1030   0.02388   0.01500  -0.0648  0.1901  1.0000  -3.0391   0.0000   0.0000   0.0000   0.3013
   7.500   1.1118   0.02463   0.01574  -0.0645  0.1818  1.0000  -3.0950   0.0000   0.0000   0.0000   0.3004
   7.600   1.1197   0.02483   0.01604  -0.0640  0.1756  1.0000  -3.1538   0.0000   0.0000   0.0000   0.2994
   7.700   1.1274   0.02510   0.01635  -0.0635  0.1685  1.0000  -3.2130   0.0000   0.0000   0.0000   0.2985
   7.800   1.1348   0.02543   0.01666  -0.0630  0.1618  1.0000  -3.2724   0.0000   0.0000   0.0000   0.2975
   7.900   1.1422   0.02604   0.01718  -0.0625  0.1552  1.0000  -3.3289   0.0000   0.0000   0.0000   0.2966
   8.000   1.1517   0.02740   0.01848  -0.0624  0.1474  1.0000  -3.3938   0.0000   0.0000   0.0000   0.2960
   8.100   1.1597   0.02769   0.01890  -0.0619  0.1436  1.0000  -3.4769   0.0000   0.0000   0.0000   0.2950
   8.200   1.1678   0.02811   0.01942  -0.0613  0.1387  1.0000  -3.5589   0.0000   0.0000   0.0000   0.2941
   8.300   1.1757   0.02858   0.01994  -0.0608  0.1336  1.0000  -3.6415   0.0000   0.0000   0.0000   0.2932
   8.400   1.1834   0.02905   0.02042  -0.0603  0.1287  1.0000  -3.7254   0.0000   0.0000   0.0000   0.2923
   8.500   1.1908   0.02962   0.02097  -0.0598  0.1241  1.0000  -3.8094   0.0000   0.0000   0.0000   0.2914
   8.600   1.1994   0.03112   0.02241  -0.0597  0.1181  1.0000  -3.8831   0.0000   0.0000   0.0000   0.2908
   8.700   1.2072   0.03249   0.02389  -0.0593  0.1139  1.0000  -3.9464   0.0000   0.0000   0.0000   0.2901
   8.800   1.2143   0.03273   0.02424  -0.0586  0.1106  1.0000  -4.0278   0.0000   0.0000   0.0000   0.2891
   8.900   1.2209   0.03302   0.02462  -0.0580  0.1063  1.0000  -4.1091   0.0000   0.0000   0.0000   0.2882
   9.000   1.2273   0.03325   0.02489  -0.0573  0.1016  1.0000  -4.1951   0.0000   0.0000   0.0000   0.2873
   9.100   1.2334   0.03345   0.02506  -0.0567  0.0973  1.0000  -4.2864   0.0000   0.0000   0.0000   0.2864
   9.200   1.2396   0.03388   0.02544  -0.0562  0.0935  1.0000  -4.3758   0.0000   0.0000   0.0000   0.2856
   9.300   1.2466   0.03527   0.02682  -0.0559  0.0897  1.0000  -4.4451   0.0000   0.0000   0.0000   0.2850
   9.400   1.2520   0.03789   0.02959  -0.0555  0.0862  1.0000  -4.4721   0.0000   0.0000   0.0000   0.2844
   9.500   1.2584   0.03827   0.03012  -0.0548  0.0847  1.0000  -4.5452   0.0000   0.0000   0.0000   0.2834
   9.600   1.2645   0.03887   0.03085  -0.0540  0.0828  1.0000  -4.6119   0.0000   0.0000   0.0000   0.2825
   9.700   1.2702   0.03961   0.03173  -0.0533  0.0806  1.0000  -4.6727   0.0000   0.0000   0.0000   0.2816
   9.800   1.2755   0.04045   0.03269  -0.0525  0.0783  1.0000  -4.7299   0.0000   0.0000   0.0000   0.2807
   9.900   1.2804   0.04132   0.03368  -0.0518  0.0760  1.0000  -4.7840   0.0000   0.0000   0.0000   0.2798
  10.000   1.2849   0.04218   0.03465  -0.0510  0.0738  1.0000  -4.8375   0.0000   0.0000   0.0000   0.2790
  10.100   1.2894   0.04303   0.03557  -0.0502  0.0717  1.0000  -4.8932   0.0000   0.0000   0.0000   0.2781
  10.200   1.2939   0.04389   0.03648  -0.0495  0.0699  1.0000  -4.9508   0.0000   0.0000   0.0000   0.2773
  10.300   1.2981   0.04484   0.03748  -0.0488  0.0682  1.0000  -5.0076   0.0000   0.0000   0.0000   0.2765
  10.400   1.3020   0.04599   0.03868  -0.0481  0.0668  1.0000  -5.0584   0.0000   0.0000   0.0000   0.2757
  10.500   1.3044   0.04752   0.04050  -0.0473  0.0657  1.0000  -5.0993   0.0000   0.0000   0.0000   0.2749
  10.600   1.3052   0.04928   0.04237  -0.0465  0.0648  1.0000  -5.1199   0.0000   0.0000   0.0000   0.2741
  10.700   1.3042   0.05123   0.04448  -0.0455  0.0641  1.0000  -5.1256   0.0000   0.0000   0.0000   0.2733
  10.800   1.3019   0.05326   0.04666  -0.0445  0.0636  1.0000  -5.1216   0.0000   0.0000   0.0000   0.2725
  10.900   1.2983   0.05531   0.04887  -0.0434  0.0633  1.0000  -5.1113   0.0000   0.0000   0.0000   0.2717
  11.000   1.2933   0.05737   0.05110  -0.0423  0.0629  1.0000  -5.0951   0.0000   0.0000   0.0000   0.2708
  11.100   1.2872   0.05942   0.05330  -0.0411  0.0627  1.0000  -5.0743   0.0000   0.0000   0.0000   0.2700
  11.200   1.2800   0.06133   0.05535  -0.0399  0.0625  1.0000  -5.0511   0.0000   0.0000   0.0000   0.2691
  11.300   1.2720   0.06312   0.05726  -0.0385  0.0623  1.0000  -5.0270   0.0000   0.0000   0.0000   0.2681
  11.400   1.2636   0.06486   0.05911  -0.0373  0.0622  1.0000  -5.0023   0.0000   0.0000   0.0000   0.2672
  11.500   1.2549   0.06656   0.06093  -0.0361  0.0622  1.0000  -4.9771   0.0000   0.0000   0.0000   0.2664
  11.600   1.2461   0.06827   0.06274  -0.0352  0.0621  1.0000  -4.9515   0.0000   0.0000   0.0000   0.2657
  11.700   1.2371   0.06998   0.06454  -0.0343  0.0621  1.0000  -4.9257   0.0000   0.0000   0.0000   0.2652
  11.800   1.2281   0.07169   0.06635  -0.0337  0.0621  1.0000  -4.8995   0.0000   0.0000   0.0000   0.2647
  11.900   1.2191   0.07345   0.06820  -0.0332  0.0621  1.0000  -4.8728   0.0000   0.0000   0.0000   0.2644
  12.000   1.2101   0.07526   0.07010  -0.0330  0.0621  1.0000  -4.8455   0.0000   0.0000   0.0000   0.2643
  12.100   1.2012   0.07713   0.07204  -0.0329  0.0621  1.0000  -4.8174   0.0000   0.0000   0.0000   0.2643
  12.200   1.1923   0.07903   0.07403  -0.0331  0.0622  1.0000  -4.7886   0.0000   0.0000   0.0000   0.2645
  12.300   1.1833   0.08097   0.07604  -0.0334  0.0622  1.0000  -4.7590   0.0000   0.0000   0.0000   0.2648
  12.400   1.1744   0.08293   0.07808  -0.0338  0.0623  1.0000  -4.7283   0.0000   0.0000   0.0000   0.2653
  12.500   1.1655   0.08500   0.08021  -0.0345  0.0624  1.0000  -4.6956   0.0000   0.0000   0.0000   0.2659
  12.600   1.1566   0.08718   0.08247  -0.0354  0.0626  1.0000  -4.6595   0.0000   0.0000   0.0000   0.2667
  12.700   1.1472   0.08954   0.08471  -0.0365  0.0627  1.0000  -4.6280   0.0000   0.0000   0.0000   0.2679
  12.800   1.1383   0.09195   0.08718  -0.0379  0.0630  1.0000  -4.5861   0.0000   0.0000   0.0000   0.2691
  12.900   1.1288   0.09455   0.08986  -0.0396  0.0634  1.0000  -4.5338   0.0000   0.0000   0.0000   0.2708
  13.000   0.9974   0.12988   0.12528  -0.0677  0.0758  1.0000  -3.0891   0.0000   0.0000   0.0000   0.3048
  13.100   0.9892   0.13419   0.12957  -0.0701  0.0767  1.0000  -2.9881   0.0000   0.0000   0.0000   0.3078
  13.200   0.9829   0.13801   0.13337  -0.0722  0.0774  1.0000  -2.9063   0.0000   0.0000   0.0000   0.3102
  13.300   0.9779   0.14151   0.13685  -0.0739  0.0782  1.0000  -2.8379   0.0000   0.0000   0.0000   0.3124
  13.400   0.9740   0.14476   0.14009  -0.0755  0.0791  1.0000  -2.7805   0.0000   0.0000   0.0000   0.3143
  13.500   0.9710   0.14778   0.14310  -0.0769  0.0800  1.0000  -2.7328   0.0000   0.0000   0.0000   0.3159
  13.600   0.9688   0.15057   0.14589  -0.0780  0.0810  1.0000  -2.6947   0.0000   0.0000   0.0000   0.3172
  13.700   0.9675   0.15322   0.14854  -0.0790  0.0821  1.0000  -2.6664   0.0000   0.0000   0.0000   0.3182
  13.800   0.9670   0.15587   0.15119  -0.0795  0.0834  1.0000  -2.6494   0.0000   0.0000   0.0000   0.3187
  13.900   0.9638   0.16810   0.16348  -0.0842  0.1194  1.0000  -2.3199   0.0000   0.0000   0.0000   0.3243
  14.000   0.9652   0.17028   0.16567  -0.0848  0.1192  1.0000  -2.3204   0.0000   0.0000   0.0000   0.3247
  14.100   0.9674   0.17250   0.16790  -0.0852  0.1188  1.0000  -2.3282   0.0000   0.0000   0.0000   0.3249
  14.200   0.9704   0.17486   0.17027  -0.0855  0.1184  1.0000  -2.3427   0.0000   0.0000   0.0000   0.3247
  14.300   0.9743   0.17751   0.17294  -0.0855  0.1179  1.0000  -2.3640   0.0000   0.0000   0.0000   0.3243
  14.400   0.9763   0.18149   0.17694  -0.0856  0.1169  1.0000  -2.3737   0.0000   0.0000   0.0000   0.3241
  14.500   0.9681   0.18986   0.18524  -0.0872  0.1155  1.0000  -2.2945   0.0000   0.0000   0.0000   0.3265
  14.600   0.9685   0.19202   0.18740  -0.0883  0.1155  1.0000  -2.2834   0.0000   0.0000   0.0000   0.3275
  14.700   0.9689   0.19412   0.18950  -0.0893  0.1154  1.0000  -2.2721   0.0000   0.0000   0.0000   0.3284
  14.800   0.9693   0.19615   0.19153  -0.0904  0.1153  1.0000  -2.2607   0.0000   0.0000   0.0000   0.3294
  14.900   0.9696   0.19810   0.19348  -0.0915  0.1152  1.0000  -2.2489   0.0000   0.0000   0.0000   0.3303
  15.000   0.9698   0.19987   0.19525  -0.0926  0.1151  1.0000  -2.2360   0.0000   0.0000   0.0000   0.3314
  15.100   0.9698   0.20141   0.19679  -0.0938  0.1150  1.0000  -2.2215   0.0000   0.0000   0.0000   0.3325
  15.200   0.9695   0.20262   0.19799  -0.0951  0.1147  1.0000  -2.2049   0.0000   0.0000   0.0000   0.3338
  15.300   0.9683   0.20330   0.19867  -0.0967  0.1142  1.0000  -2.1816   0.0000   0.0000   0.0000   0.3354
  15.400   0.9644   0.20351   0.19886  -0.0989  0.1134  1.0000  -2.1397   0.0000   0.0000   0.0000   0.3380
  15.500   0.9591   0.20341   0.19873  -0.1014  0.1120  1.0000  -2.0858   0.0000   0.0000   0.0000   0.3411
  15.600   0.9538   0.20367   0.19897  -0.1037  0.1100  1.0000  -2.0362   0.0000   0.0000   0.0000   0.3439
  15.700   0.9515   0.20467   0.19996  -0.1055  0.1072  1.0000  -2.0065   0.0000   0.0000   0.0000   0.3459
  15.800   0.9517   0.20600   0.20130  -0.1066  0.1038  1.0000  -1.9980   0.0000   0.0000   0.0000   0.3470
  15.900   0.9540   0.20718   0.20249  -0.1072  0.0996  1.0000  -2.0149   0.0000   0.0000   0.0000   0.3471
  16.000   0.9903   0.20864   0.20411  -0.0979  0.0879  1.0000  -2.4310   0.0000   0.0000   0.0000   0.3331
  16.300   0.9850   0.22193   0.21735  -0.1013  0.0864  1.0000  -2.3126   0.0000   0.0000   0.0000   0.3369
  16.400   0.9856   0.22409   0.21951  -0.1023  0.0863  1.0000  -2.2928   0.0000   0.0000   0.0000   0.3378
  16.500   0.9861   0.22617   0.22158  -0.1034  0.0862  1.0000  -2.2725   0.0000   0.0000   0.0000   0.3387
  16.600   0.9865   0.22814   0.22356  -0.1046  0.0861  1.0000  -2.2520   0.0000   0.0000   0.0000   0.3397
  16.700   0.9869   0.22998   0.22539  -0.1057  0.0860  1.0000  -2.2310   0.0000   0.0000   0.0000   0.3407
  16.800   0.9872   0.23162   0.22703  -0.1069  0.0857  1.0000  -2.2093   0.0000   0.0000   0.0000   0.3418
  16.900   0.9866   0.23295   0.22836  -0.1083  0.0854  1.0000  -2.1814   0.0000   0.0000   0.0000   0.3432
  17.000   0.9846   0.23383   0.22923  -0.1101  0.0849  1.0000  -2.1436   0.0000   0.0000   0.0000   0.3450
  17.100   0.9804   0.23412   0.22950  -0.1123  0.0840  1.0000  -2.0925   0.0000   0.0000   0.0000   0.3476
  17.200   0.9758   0.23443   0.22979  -0.1147  0.0824  1.0000  -2.0351   0.0000   0.0000   0.0000   0.3505
  17.300   0.9741   0.23572   0.23108  -0.1165  0.0802  1.0000  -1.9971   0.0000   0.0000   0.0000   0.3524
  17.400   0.9742   0.23755   0.23290  -0.1177  0.0782  1.0000  -1.9782   0.0000   0.0000   0.0000   0.3535
  17.500   0.9751   0.23951   0.23487  -0.1186  0.0765  1.0000  -1.9683   0.0000   0.0000   0.0000   0.3542
  17.600   0.9762   0.24151   0.23687  -0.1194  0.0749  1.0000  -1.9631   0.0000   0.0000   0.0000   0.3547
  17.700   0.9776   0.24351   0.23889  -0.1201  0.0736  1.0000  -1.9611   0.0000   0.0000   0.0000   0.3551
  17.800   0.9791   0.24551   0.24090  -0.1207  0.0724  1.0000  -1.9618   0.0000   0.0000   0.0000   0.3554
  17.900   0.9807   0.24751   0.24291  -0.1213  0.0713  1.0000  -1.9648   0.0000   0.0000   0.0000   0.3557
  18.000   0.9824   0.24951   0.24491  -0.1218  0.0702  1.0000  -1.9699   0.0000   0.0000   0.0000   0.3558
  18.100   0.9842   0.25150   0.24691  -0.1222  0.0693  1.0000  -1.9773   0.0000   0.0000   0.0000   0.3559
  18.200   0.9862   0.25349   0.24891  -0.1226  0.0685  1.0000  -1.9873   0.0000   0.0000   0.0000   0.3559
  18.300   0.9883   0.25549   0.25092  -0.1230  0.0676  1.0000  -1.9999   0.0000   0.0000   0.0000   0.3558
  18.400   0.9906   0.25751   0.25296  -0.1232  0.0669  1.0000  -2.0157   0.0000   0.0000   0.0000   0.3556
  18.500   0.9932   0.25957   0.25504  -0.1234  0.0662  1.0000  -2.0352   0.0000   0.0000   0.0000   0.3553
  18.600   0.9962   0.26172   0.25720  -0.1234  0.0655  1.0000  -2.0595   0.0000   0.0000   0.0000   0.3548
  18.700   0.9999   0.26403   0.25954  -0.1233  0.0648  1.0000  -2.0900   0.0000   0.0000   0.0000   0.3540
  18.800   1.0046   0.26669   0.26222  -0.1229  0.0642  1.0000  -2.1304   0.0000   0.0000   0.0000   0.3529
  18.900   1.0120   0.27032   0.26588  -0.1220  0.0634  1.0000  -2.1899   0.0000   0.0000   0.0000   0.3510
  19.000   1.0139   0.28215   0.27768  -0.1211  0.0617  1.0000  -2.1816   0.0000   0.0000   0.0000   0.3498
  19.100   1.0144   0.28442   0.27995  -0.1219  0.0616  1.0000  -2.1695   0.0000   0.0000   0.0000   0.3504
  19.200   1.0147   0.28665   0.28219  -0.1227  0.0616  1.0000  -2.1572   0.0000   0.0000   0.0000   0.3510
  19.400   1.0152   0.29112   0.28682  -0.1242  0.0615  1.0000  -2.1130   0.0000   0.0000   0.0000   0.3522
  19.500   1.0153   0.29324   0.28895  -0.1250  0.0615  1.0000  -2.0990   0.0000   0.0000   0.0000   0.3529
  19.600   1.0153   0.29531   0.29103  -0.1257  0.0614  1.0000  -2.0852   0.0000   0.0000   0.0000   0.3535
  19.700   1.0151   0.29733   0.29305  -0.1265  0.0614  1.0000  -2.0713   0.0000   0.0000   0.0000   0.3541
  19.800   1.0148   0.29929   0.29502  -0.1272  0.0613  1.0000  -2.0573   0.0000   0.0000   0.0000   0.3547
  19.900   1.0144   0.30119   0.29693  -0.1280  0.0612  1.0000  -2.0427   0.0000   0.0000   0.0000   0.3554
  20.000   1.0136   0.30298   0.29873  -0.1287  0.0612  1.0000  -2.0262   0.0000   0.0000   0.0000   0.3561
  20.100   1.0118   0.30459   0.30035  -0.1295  0.0611  1.0000  -2.0049   0.0000   0.0000   0.0000   0.3569
  20.200   1.0096   0.30608   0.30184  -0.1303  0.0610  1.0000  -1.9822   0.0000   0.0000   0.0000   0.3579
  20.300   1.0065   0.30736   0.30313  -0.1311  0.0608  1.0000  -1.9556   0.0000   0.0000   0.0000   0.3589
  20.400   1.0026   0.30846   0.30424  -0.1319  0.0607  1.0000  -1.9258   0.0000   0.0000   0.0000   0.3601
  20.500   0.9983   0.30941   0.30520  -0.1327  0.0605  1.0000  -1.8941   0.0000   0.0000   0.0000   0.3614
  20.600   0.9933   0.31020   0.30600  -0.1334  0.0603  1.0000  -1.8599   0.0000   0.0000   0.0000   0.3626
  20.700   0.9878   0.31080   0.30661  -0.1341  0.0600  1.0000  -1.8231   0.0000   0.0000   0.0000   0.3640
  20.800   0.9816   0.31123   0.30706  -0.1348  0.0596  1.0000  -1.7834   0.0000   0.0000   0.0000   0.3654
  20.900   0.9658   0.30984   0.30572  -0.1339  0.0592  1.0000  -1.7256   0.0000   0.0000   0.0000   0.3668
  21.000   0.9382   0.30505   0.30101  -0.1312  0.0591  1.0000  -1.6467   0.0000   0.0000   0.0000   0.3682
  21.100   0.9278   0.30369   0.29968  -0.1309  0.0586  1.0000  -1.6012   0.0000   0.0000   0.0000   0.3695
  21.200   0.9206   0.30310   0.29912  -0.1310  0.0579  1.0000  -1.5649   0.0000   0.0000   0.0000   0.3706
  21.300   0.9151   0.30294   0.29898  -0.1311  0.0571  1.0000  -1.5354   0.0000   0.0000   0.0000   0.3716
  21.400   0.9104   0.30299   0.29906  -0.1312  0.0563  1.0000  -1.5106   0.0000   0.0000   0.0000   0.3723
  21.500   0.9064   0.30317   0.29925  -0.1313  0.0555  1.0000  -1.4891   0.0000   0.0000   0.0000   0.3730
  21.600   0.9028   0.30342   0.29953  -0.1314  0.0548  1.0000  -1.4700   0.0000   0.0000   0.0000   0.3736
  21.700   0.8995   0.30371   0.29984  -0.1315  0.0540  1.0000  -1.4527   0.0000   0.0000   0.0000   0.3742
  21.800   0.8965   0.30404   0.30019  -0.1316  0.0533  1.0000  -1.4368   0.0000   0.0000   0.0000   0.3747
  21.900   0.8937   0.30440   0.30058  -0.1317  0.0526  1.0000  -1.4221   0.0000   0.0000   0.0000   0.3751
  22.000   0.8912   0.30479   0.30098  -0.1318  0.0519  1.0000  -1.4084   0.0000   0.0000   0.0000   0.3756
  22.100   0.8889   0.30519   0.30140  -0.1319  0.0513  1.0000  -1.3957   0.0000   0.0000   0.0000   0.3760
  22.200   0.8867   0.30561   0.30184  -0.1321  0.0506  1.0000  -1.3838   0.0000   0.0000   0.0000   0.3764
  22.300   0.8847   0.30603   0.30228  -0.1322  0.0500  1.0000  -1.3728   0.0000   0.0000   0.0000   0.3768
  22.400   0.8829   0.30647   0.30274  -0.1323  0.0494  1.0000  -1.3626   0.0000   0.0000   0.0000   0.3771
  22.500   0.8812   0.30692   0.30320  -0.1325  0.0488  1.0000  -1.3533   0.0000   0.0000   0.0000   0.3774
  22.600   0.8796   0.30737   0.30367  -0.1326  0.0482  1.0000  -1.3448   0.0000   0.0000   0.0000   0.3777
  22.700   0.8782   0.30782   0.30414  -0.1327  0.0476  1.0000  -1.3374   0.0000   0.0000   0.0000   0.3780
  22.800   0.8769   0.30828   0.30461  -0.1329  0.0470  1.0000  -1.3309   0.0000   0.0000   0.0000   0.3782
  22.900   0.8757   0.30874   0.30509  -0.1330  0.0465  1.0000  -1.3256   0.0000   0.0000   0.0000   0.3784
  23.000   0.8746   0.30920   0.30557  -0.1331  0.0459  1.0000  -1.3215   0.0000   0.0000   0.0000   0.3786
  23.100   0.8736   0.30967   0.30606  -0.1332  0.0454  1.0000  -1.3192   0.0000   0.0000   0.0000   0.3787
  23.200   0.8729   0.31015   0.30656  -0.1332  0.0448  1.0000  -1.3198   0.0000   0.0000   0.0000   0.3787
  23.300   0.8724   0.31065   0.30708  -0.1332  0.0443  1.0000  -1.3244   0.0000   0.0000   0.0000   0.3786
  23.400   0.8723   0.31125   0.30769  -0.1330  0.0436  1.0000  -1.3356   0.0000   0.0000   0.0000   0.3783
  23.500   0.8732   0.31219   0.30866  -0.1326  0.0429  1.0000  -1.3592   0.0000   0.0000   0.0000   0.3775
  23.600   0.8921   0.32752   0.32396  -0.1307  0.0409  1.0000  -1.4601   0.0000   0.0000   0.0000   0.3720
  23.700   0.8892   0.32730   0.32375  -0.1311  0.0409  1.0000  -1.4378   0.0000   0.0000   0.0000   0.3727
  23.800   0.8864   0.32704   0.32351  -0.1314  0.0408  1.0000  -1.4157   0.0000   0.0000   0.0000   0.3735
  23.900   0.8837   0.32676   0.32325  -0.1317  0.0408  1.0000  -1.3941   0.0000   0.0000   0.0000   0.3742
  24.000   0.8806   0.32629   0.32278  -0.1321  0.0407  1.0000  -1.3700   0.0000   0.0000   0.0000   0.3750
  24.100   0.8770   0.32563   0.32214  -0.1325  0.0407  1.0000  -1.3434   0.0000   0.0000   0.0000   0.3760
  24.200   0.8736   0.32505   0.32156  -0.1330  0.0406  1.0000  -1.3177   0.0000   0.0000   0.0000   0.3769
  24.300   0.8706   0.32457   0.32110  -0.1334  0.0405  1.0000  -1.2931   0.0000   0.0000   0.0000   0.3778
  24.400   0.8679   0.32421   0.32075  -0.1339  0.0405  1.0000  -1.2698   0.0000   0.0000   0.0000   0.3787
  24.500   0.8655   0.32398   0.32053  -0.1343  0.0404  1.0000  -1.2478   0.0000   0.0000   0.0000   0.3795
  24.600   0.8632   0.32379   0.32036  -0.1348  0.0403  1.0000  -1.2262   0.0000   0.0000   0.0000   0.3803
  24.700   0.8611   0.32363   0.32020  -0.1353  0.0402  1.0000  -1.2047   0.0000   0.0000   0.0000   0.3812
  24.800   0.8592   0.32349   0.32007  -0.1358  0.0401  1.0000  -1.1834   0.0000   0.0000   0.0000   0.3820
  24.900   0.8573   0.32339   0.31998  -0.1364  0.0400  1.0000  -1.1620   0.0000   0.0000   0.0000   0.3829
  25.000   0.8557   0.32335   0.31995  -0.1370  0.0398  1.0000  -1.1406   0.0000   0.0000   0.0000   0.3837
  25.100   0.8543   0.32340   0.32001  -0.1377  0.0396  1.0000  -1.1191   0.0000   0.0000   0.0000   0.3846
  25.200   0.8532   0.32358   0.32020  -0.1384  0.0393  1.0000  -1.0977   0.0000   0.0000   0.0000   0.3855
  25.300   0.8524   0.32392   0.32055  -0.1391  0.0390  1.0000  -1.0769   0.0000   0.0000   0.0000   0.3863
  25.400   0.8519   0.32443   0.32107  -0.1398  0.0385  1.0000  -1.0578   0.0000   0.0000   0.0000   0.3870
  25.500   0.8516   0.32507   0.32171  -0.1404  0.0380  1.0000  -1.0410   0.0000   0.0000   0.0000   0.3876
  25.600   0.8513   0.32577   0.32243  -0.1409  0.0374  1.0000  -1.0268   0.0000   0.0000   0.0000   0.3882
  25.700   0.8511   0.32650   0.32316  -0.1414  0.0368  1.0000  -1.0146   0.0000   0.0000   0.0000   0.3886
  25.800   0.8508   0.32722   0.32389  -0.1419  0.0363  1.0000  -1.0040   0.0000   0.0000   0.0000   0.3890
  25.900   0.8506   0.32793   0.32462  -0.1423  0.0357  1.0000  -0.9946   0.0000   0.0000   0.0000   0.3894
  26.000   0.8503   0.32865   0.32534  -0.1427  0.0352  1.0000  -0.9861   0.0000   0.0000   0.0000   0.3898
  26.100   0.8501   0.32935   0.32606  -0.1431  0.0346  1.0000  -0.9784   0.0000   0.0000   0.0000   0.3901
  26.200   0.8498   0.33005   0.32677  -0.1435  0.0341  1.0000  -0.9713   0.0000   0.0000   0.0000   0.3904
  26.300   0.8495   0.33074   0.32747  -0.1438  0.0336  1.0000  -0.9647   0.0000   0.0000   0.0000   0.3907
  26.400   0.8493   0.33143   0.32817  -0.1442  0.0332  1.0000  -0.9586   0.0000   0.0000   0.0000   0.3910
  26.500   0.8491   0.33211   0.32887  -0.1446  0.0327  1.0000  -0.9607   0.0000   0.0000   0.0000   0.3913
  26.600   0.8489   0.33279   0.32956  -0.1449  0.0322  1.0000  -0.9665   0.0000   0.0000   0.0000   0.3916
  26.700   0.8486   0.33347   0.33025  -0.1453  0.0318  1.0000  -0.9724   0.0000   0.0000   0.0000   0.3919
  26.800   0.8484   0.33414   0.33093  -0.1457  0.0314  1.0000  -0.9785   0.0000   0.0000   0.0000   0.3921
  26.900   0.8483   0.33480   0.33161  -0.1460  0.0310  1.0000  -0.9847   0.0000   0.0000   0.0000   0.3924
  27.000   0.8481   0.33546   0.33228  -0.1464  0.0305  1.0000  -0.9911   0.0000   0.0000   0.0000   0.3926
  27.100   0.8479   0.33612   0.33295  -0.1467  0.0301  1.0000  -0.9976   0.0000   0.0000   0.0000   0.3929
  27.200   0.8478   0.33677   0.33361  -0.1470  0.0298  1.0000  -1.0043   0.0000   0.0000   0.0000   0.3931
  27.300   0.8476   0.33741   0.33426  -0.1474  0.0294  1.0000  -1.0111   0.0000   0.0000   0.0000   0.3933
  27.400   0.8475   0.33805   0.33491  -0.1477  0.0290  1.0000  -1.0182   0.0000   0.0000   0.0000   0.3935
  27.500   0.8474   0.33868   0.33555  -0.1480  0.0286  1.0000  -1.0255   0.0000   0.0000   0.0000   0.3937
  27.600   0.8472   0.33930   0.33618  -0.1483  0.0282  1.0000  -1.0332   0.0000   0.0000   0.0000   0.3939
  27.700   0.8471   0.33990   0.33680  -0.1486  0.0279  1.0000  -1.0414   0.0000   0.0000   0.0000   0.3940
  27.800   0.8470   0.34050   0.33741  -0.1489  0.0275  1.0000  -1.0501   0.0000   0.0000   0.0000   0.3942
  27.900   0.8470   0.34110   0.33802  -0.1492  0.0272  1.0000  -1.0595   0.0000   0.0000   0.0000   0.3943
  28.000   0.8469   0.34166   0.33869  -0.1493  0.0267  1.0000  -1.0656   0.0000   0.0000   0.0000   0.3943
  28.100   0.8469   0.34226   0.33930  -0.1495  0.0264  1.0000  -1.0764   0.0000   0.0000   0.0000   0.3942
  28.200   0.8470   0.34291   0.33996  -0.1496  0.0260  1.0000  -1.0900   0.0000   0.0000   0.0000   0.3941
  28.300   0.8472   0.34370   0.34076  -0.1496  0.0257  1.0000  -1.1073   0.0000   0.0000   0.0000   0.3938
  28.400   0.8482   0.34513   0.34222  -0.1492  0.0252  1.0000  -1.1377   0.0000   0.0000   0.0000   0.3930
  28.700   0.8514   0.35450   0.35157  -0.1491  0.0242  1.0000  -1.1376   0.0000   0.0000   0.0000   0.3917
  28.800   0.8491   0.35376   0.35083  -0.1497  0.0242  1.0000  -1.1120   0.0000   0.0000   0.0000   0.3927
  28.900   0.8472   0.35326   0.35034  -0.1503  0.0241  1.0000  -1.0876   0.0000   0.0000   0.0000   0.3936
  29.000   0.8457   0.35311   0.35019  -0.1509  0.0240  1.0000  -1.0660   0.0000   0.0000   0.0000   0.3943
  29.100   0.8446   0.35320   0.35029  -0.1514  0.0240  1.0000  -1.0465   0.0000   0.0000   0.0000   0.3950
  29.200   0.8437   0.35334   0.35044  -0.1520  0.0239  1.0000  -1.0270   0.0000   0.0000   0.0000   0.3957
  29.300   0.8428   0.35353   0.35064  -0.1526  0.0238  1.0000  -1.0077   0.0000   0.0000   0.0000   0.3963
  29.400   0.8421   0.35380   0.35091  -0.1532  0.0237  1.0000  -0.9885   0.0000   0.0000   0.0000   0.3970
  29.500   0.8415   0.35414   0.35126  -0.1538  0.0236  1.0000  -0.9693   0.0000   0.0000   0.0000   0.3976
  29.600   0.8411   0.35459   0.35171  -0.1545  0.0234  1.0000  -0.9502   0.0000   0.0000   0.0000   0.3983
  29.700   0.8410   0.35516   0.35229  -0.1551  0.0232  1.0000  -0.9313   0.0000   0.0000   0.0000   0.3989
  29.800   0.8410   0.35585   0.35299  -0.1558  0.0230  1.0000  -0.9131   0.0000   0.0000   0.0000   0.3995
  29.900   0.8412   0.35667   0.35381  -0.1564  0.0227  1.0000  -0.8961   0.0000   0.0000   0.0000   0.4000
  30.000   0.8414   0.35755   0.35470  -0.1570  0.0223  1.0000  -0.8812   0.0000   0.0000   0.0000   0.4004


