xflr5 v6.61

 Calculated polar for: S4110

 1 1 Reynolds number fixed          Mach number fixed         

 xtrf =   1.000 (top)        1.000 (bottom)
 Mach =   0.000     Re =     0.500 e 6     Ncrit =   9.000

  alpha     CL        CD       CDp       Cm    Top Xtr Bot Xtr   Cpmin    Chinge    XCp    
 ------- -------- --------- --------- -------- ------- ------- -------- --------- ---------
 -10.000  -0.3786   0.11301   0.11049  -0.0269  1.0000  0.0190  -1.5514   0.0000   0.0000   0.0000   0.1725
  -9.900  -0.3768   0.11165   0.10914  -0.0274  1.0000  0.0190  -1.5590   0.0000   0.0000   0.0000   0.1710
  -9.800  -0.3750   0.11030   0.10779  -0.0278  1.0000  0.0190  -1.5668   0.0000   0.0000   0.0000   0.1696
  -9.700  -0.3884   0.10459   0.10212  -0.0295  1.0000  0.0196  -1.8149   0.0000   0.0000   0.0000   0.1678
  -9.600  -0.3920   0.10198   0.09952  -0.0301  1.0000  0.0200  -1.8821   0.0000   0.0000   0.0000   0.1671
  -9.500  -0.3923   0.10031   0.09786  -0.0304  1.0000  0.0202  -1.8996   0.0000   0.0000   0.0000   0.1663
  -9.400  -0.3919   0.09887   0.09642  -0.0307  1.0000  0.0204  -1.9065   0.0000   0.0000   0.0000   0.1655
  -9.300  -0.3913   0.09753   0.09510  -0.0310  1.0000  0.0206  -1.9084   0.0000   0.0000   0.0000   0.1648
  -9.200  -0.3905   0.09626   0.09383  -0.0313  1.0000  0.0208  -1.9078   0.0000   0.0000   0.0000   0.1640
  -9.100  -0.3896   0.09503   0.09261  -0.0315  1.0000  0.0209  -1.9056   0.0000   0.0000   0.0000   0.1633
  -9.000  -0.3886   0.09381   0.09141  -0.0318  1.0000  0.0211  -1.9025   0.0000   0.0000   0.0000   0.1625
  -8.900  -0.3872   0.09268   0.09028  -0.0319  1.0000  0.0212  -1.8926   0.0000   0.0000   0.0000   0.1620
  -8.800  -0.3858   0.09158   0.08919  -0.0320  1.0000  0.0213  -1.8817   0.0000   0.0000   0.0000   0.1615
  -8.700  -0.3846   0.09049   0.08811  -0.0321  1.0000  0.0215  -1.8716   0.0000   0.0000   0.0000   0.1610
  -8.600  -0.3834   0.08940   0.08703  -0.0322  1.0000  0.0216  -1.8624   0.0000   0.0000   0.0000   0.1606
  -8.500  -0.3824   0.08833   0.08597  -0.0323  1.0000  0.0218  -1.8542   0.0000   0.0000   0.0000   0.1602
  -8.400  -0.3816   0.08726   0.08492  -0.0324  1.0000  0.0219  -1.8470   0.0000   0.0000   0.0000   0.1599
  -8.300  -0.3810   0.08622   0.08388  -0.0325  1.0000  0.0221  -1.8399   0.0000   0.0000   0.0000   0.1597
  -8.200  -0.3806   0.08519   0.08286  -0.0325  1.0000  0.0222  -1.8342   0.0000   0.0000   0.0000   0.1597
  -8.100  -0.3805   0.08416   0.08186  -0.0325  1.0000  0.0224  -1.8300   0.0000   0.0000   0.0000   0.1598
  -8.000  -0.3808   0.08316   0.08087  -0.0324  1.0000  0.0225  -1.8274   0.0000   0.0000   0.0000   0.1602
  -7.900  -0.3816   0.08218   0.07990  -0.0323  1.0000  0.0226  -1.8264   0.0000   0.0000   0.0000   0.1608
  -7.800  -0.3830   0.08123   0.07897  -0.0320  1.0000  0.0228  -1.8274   0.0000   0.0000   0.0000   0.1619
  -7.700  -0.3852   0.08033   0.07810  -0.0316  1.0000  0.0229  -1.8304   0.0000   0.0000   0.0000   0.1635
  -7.600  -0.3885   0.07951   0.07730  -0.0310  1.0000  0.0230  -1.8361   0.0000   0.0000   0.0000   0.1659
  -7.500  -0.3932   0.07880   0.07661  -0.0301  1.0000  0.0231  -1.8449   0.0000   0.0000   0.0000   0.1693
  -7.400  -0.3998   0.07822   0.07606  -0.0289  1.0000  0.0232  -1.8573   0.0000   0.0000   0.0000   0.1739
  -7.300  -0.4077   0.07773   0.07560  -0.0274  1.0000  0.0232  -1.8723   0.0000   0.0000   0.0000   0.1791
  -7.200  -0.4145   0.07713   0.07502  -0.0262  1.0000  0.0232  -1.8858   0.0000   0.0000   0.0000   0.1832
  -7.100  -0.4197   0.07637   0.07429  -0.0255  0.9999  0.0233  -1.8973   0.0000   0.0000   0.0000   0.1856
  -7.000  -0.4088   0.07420   0.07211  -0.0293  0.9985  0.0237  -1.8866   0.0000   0.0000   0.0000   0.1749
  -6.900  -0.3981   0.07201   0.06992  -0.0331  0.9970  0.0240  -1.8802   0.0000   0.0000   0.0000   0.1633
  -6.800  -0.3877   0.06979   0.06769  -0.0370  0.9954  0.0244  -1.8775   0.0000   0.0000   0.0000   0.1512
  -6.700  -0.3770   0.06747   0.06536  -0.0410  0.9935  0.0248  -1.8779   0.0000   0.0000   0.0000   0.1377
  -6.600  -0.3654   0.06502   0.06290  -0.0454  0.9917  0.0252  -1.8812   0.0000   0.0000   0.0000   0.1224
  -6.500  -0.3530   0.06243   0.06028  -0.0500  0.9900  0.0257  -1.8878   0.0000   0.0000   0.0000   0.1049
  -6.400  -0.3397   0.05970   0.05752  -0.0548  0.9887  0.0262  -1.8980   0.0000   0.0000   0.0000   0.0850
  -6.300  -0.3257   0.05684   0.05463  -0.0598  0.9875  0.0268  -1.9121   0.0000   0.0000   0.0000   0.0628
  -6.200  -0.3150   0.05427   0.05202  -0.0634  0.9847  0.0274  -1.9302   0.0000   0.0000   0.0000   0.0450
  -6.100  -0.3030   0.05156   0.04925  -0.0673  0.9821  0.0280  -1.9509   0.0000   0.0000   0.0000   0.0243
  -6.000  -0.2897   0.04877   0.04639  -0.0711  0.9800  0.0288  -1.9740   0.0000   0.0000   0.0000   0.0006
  -5.900  -0.2756   0.04597   0.04350  -0.0748  0.9782  0.0297  -1.9990   0.0000   0.0000   0.0000  -0.0256
  -5.800  -0.2609   0.04335   0.04079  -0.0781  0.9767  0.0307  -2.0201   0.0000   0.0000   0.0000  -0.0538
  -5.700  -0.2457   0.04116   0.03850  -0.0808  0.9755  0.0318  -2.0280   0.0000   0.0000   0.0000  -0.0835
  -5.600  -0.2296   0.03982   0.03707  -0.0827  0.9747  0.0332  -2.0078   0.0000   0.0000   0.0000  -0.1148
  -5.200  -0.1866   0.02107   0.01685  -0.0919  0.9639  0.0225  -2.7261   0.0000   0.0000   0.0000  -0.2497
  -5.000  -0.1591   0.01853   0.01395  -0.0926  0.9609  0.0174  -2.7864   0.0000   0.0000   0.0000  -0.3407
  -4.900  -0.1465   0.01668   0.01184  -0.0932  0.9595  0.0167  -2.8250   0.0000   0.0000   0.0000  -0.3954
  -4.800  -0.1334   0.01529   0.01024  -0.0937  0.9582  0.0162  -2.8344   0.0000   0.0000   0.0000  -0.4622
  -4.700  -0.1201   0.01415   0.00892  -0.0942  0.9569  0.0158  -2.8277   0.0000   0.0000   0.0000  -0.5450
  -4.600  -0.1066   0.01321   0.00782  -0.0946  0.9557  0.0154  -2.8080   0.0000   0.0000   0.0000  -0.6490
  -4.500  -0.0931   0.01243   0.00691  -0.0950  0.9545  0.0151  -2.7774   0.0000   0.0000   0.0000  -0.7829
  -4.400  -0.0795   0.01177   0.00615  -0.0954  0.9532  0.0149  -2.7372   0.0000   0.0000   0.0000  -0.9642
  -4.300  -0.0680   0.01127   0.00555  -0.0953  0.9509  0.0148  -2.6951   0.0000   0.0000   0.0000  -1.1690
  -4.200  -0.0585   0.01087   0.00507  -0.0948  0.9474  0.0148  -2.6537   0.0000   0.0000   0.0000  -1.3895
  -4.100  -0.0476   0.01049   0.00461  -0.0947  0.9443  0.0148  -2.6083   0.0000   0.0000   0.0000  -1.7640
  -4.000  -0.0358   0.01011   0.00406  -0.0946  0.9416  0.0153  -2.5774   0.0000   0.0000   0.0000  -2.4190
  -3.900  -0.0238   0.00983   0.00372  -0.0947  0.9391  0.0157  -2.5217   0.0000   0.0000   0.0000  -3.7683
  -3.800  -0.0116   0.00959   0.00340  -0.0947  0.9369  0.0167  -2.4702   0.0000   0.0000   0.0000  -7.9929
  -3.700   0.0008   0.00926   0.00304  -0.0948  0.9348  0.0252  -2.4582   0.0000   0.0000   0.0000  115.3723
  -3.600   0.0132   0.00904   0.00294  -0.0950  0.9328  0.0418  -2.3770   0.0000   0.0000   0.0000   7.5041
  -3.500   0.0258   0.00891   0.00289  -0.0953  0.9307  0.0507  -2.2742   0.0000   0.0000   0.0000   3.9758
  -3.400   0.0386   0.00886   0.00284  -0.0956  0.9285  0.0547  -2.1675   0.0000   0.0000   0.0000   2.7490
  -3.300   0.0497   0.00884   0.00281  -0.0955  0.9257  0.0565  -2.0674   0.0000   0.0000   0.0000   2.1888
  -3.200   0.0599   0.00882   0.00280  -0.0952  0.9222  0.0578  -1.9719   0.0000   0.0000   0.0000   1.8539
  -3.100   0.0704   0.00870   0.00267  -0.0950  0.9187  0.0633  -1.8823   0.0000   0.0000   0.0000   1.6106
  -3.000   0.0812   0.00861   0.00260  -0.0949  0.9152  0.0685  -1.7899   0.0000   0.0000   0.0000   1.4272
  -2.900   0.0923   0.00853   0.00254  -0.0948  0.9119  0.0728  -1.6964   0.0000   0.0000   0.0000   1.2847
  -2.800   0.1037   0.00845   0.00249  -0.0948  0.9088  0.0768  -1.6024   0.0000   0.0000   0.0000   1.1701
  -2.700   0.1153   0.00840   0.00243  -0.0948  0.9059  0.0805  -1.5086   0.0000   0.0000   0.0000   1.0775
  -2.600   0.1270   0.00838   0.00240  -0.0949  0.9029  0.0836  -1.4134   0.0000   0.0000   0.0000   1.0013
  -2.500   0.1388   0.00827   0.00232  -0.0949  0.8995  0.0955  -1.3248   0.0000   0.0000   0.0000   0.9381
  -2.400   0.1496   0.00817   0.00230  -0.0949  0.8963  0.1070  -1.2390   0.0000   0.0000   0.0000   0.8875
  -2.300   0.1600   0.00811   0.00226  -0.0947  0.8930  0.1140  -1.1562   0.0000   0.0000   0.0000   0.8447
  -2.200   0.1706   0.00801   0.00219  -0.0945  0.8894  0.1272  -1.0770   0.0000   0.0000   0.0000   0.8066
  -2.100   0.1812   0.00788   0.00214  -0.0944  0.8858  0.1433  -1.0115   0.0000   0.0000   0.0000   0.7732
  -2.000   0.1921   0.00780   0.00209  -0.0943  0.8822  0.1576  -0.9627   0.0000   0.0000   0.0000   0.7428
  -1.900   0.2029   0.00766   0.00204  -0.0942  0.8786  0.1825  -0.9144   0.0000   0.0000   0.0000   0.7160
  -1.800   0.2139   0.00756   0.00199  -0.0941  0.8749  0.2074  -0.8662   0.0000   0.0000   0.0000   0.6915
  -1.700   0.2250   0.00744   0.00195  -0.0941  0.8712  0.2350  -0.8185   0.0000   0.0000   0.0000   0.6695
  -1.600   0.2361   0.00731   0.00192  -0.0941  0.8669  0.2714  -0.7713   0.0000   0.0000   0.0000   0.6497
  -1.500   0.2469   0.00719   0.00191  -0.0940  0.8630  0.3073  -0.7253   0.0000   0.0000   0.0000   0.6318
  -1.400   0.2573   0.00707   0.00189  -0.0939  0.8597  0.3415  -0.6807   0.0000   0.0000   0.0000   0.6156
  -1.300   0.2677   0.00693   0.00188  -0.0938  0.8560  0.3820  -0.6369   0.0000   0.0000   0.0000   0.6008
  -1.200   0.2781   0.00678   0.00187  -0.0936  0.8521  0.4249  -0.5986   0.0000   0.0000   0.0000   0.5870
  -1.100   0.2885   0.00664   0.00186  -0.0935  0.8480  0.4708  -0.5693   0.0000   0.0000   0.0000   0.5742
  -1.000   0.2990   0.00651   0.00186  -0.0933  0.8438  0.5180  -0.5401   0.0000   0.0000   0.0000   0.5622
  -0.900   0.3094   0.00639   0.00185  -0.0931  0.8398  0.5622  -0.5106   0.0000   0.0000   0.0000   0.5509
  -0.800   0.3199   0.00629   0.00185  -0.0928  0.8357  0.6037  -0.4807   0.0000   0.0000   0.0000   0.5402
  -0.700   0.3303   0.00620   0.00184  -0.0926  0.8310  0.6386  -0.4845   0.0000   0.0000   0.0000   0.5302
  -0.600   0.3408   0.00614   0.00181  -0.0924  0.8263  0.6721  -0.4941   0.0000   0.0000   0.0000   0.5208
  -0.500   0.3504   0.00602   0.00183  -0.0919  0.8232  0.7152  -0.5040   0.0000   0.0000   0.0000   0.5120
  -0.400   0.3597   0.00591   0.00184  -0.0914  0.8192  0.7580  -0.5143   0.0000   0.0000   0.0000   0.5036
  -0.300   0.3686   0.00580   0.00185  -0.0907  0.8147  0.7985  -0.5244   0.0000   0.0000   0.0000   0.4956
  -0.200   0.3771   0.00570   0.00186  -0.0899  0.8099  0.8374  -0.5344   0.0000   0.0000   0.0000   0.4878
  -0.100   0.3849   0.00561   0.00185  -0.0889  0.8050  0.8813  -0.5440   0.0000   0.0000   0.0000   0.4802
   0.000   0.3951   0.00552   0.00182  -0.0883  0.8002  0.9333  -0.5558   0.0000   0.0000   0.0000   0.4727
   0.100   0.4174   0.00546   0.00174  -0.0906  0.7956  0.9944  -0.5767   0.0000   0.0000   0.0000   0.4661
   0.200   0.4290   0.00549   0.00172  -0.0906  0.7901  1.0000  -0.5905   0.0000   0.0000   0.0000   0.4602
   0.300   0.4400   0.00553   0.00172  -0.0905  0.7852  1.0000  -0.6038   0.0000   0.0000   0.0000   0.4546
   0.400   0.4508   0.00553   0.00173  -0.0904  0.7817  1.0000  -0.6171   0.0000   0.0000   0.0000   0.4494
   0.500   0.4617   0.00554   0.00173  -0.0903  0.7772  1.0000  -0.6327   0.0000   0.0000   0.0000   0.4443
   0.600   0.4725   0.00556   0.00172  -0.0902  0.7720  1.0000  -0.6485   0.0000   0.0000   0.0000   0.4395
   0.700   0.4833   0.00558   0.00171  -0.0900  0.7665  1.0000  -0.6643   0.0000   0.0000   0.0000   0.4349
   0.800   0.4941   0.00560   0.00170  -0.0899  0.7608  1.0000  -0.6801   0.0000   0.0000   0.0000   0.4304
   0.900   0.5048   0.00564   0.00169  -0.0897  0.7546  1.0000  -0.6960   0.0000   0.0000   0.0000   0.4261
   1.000   0.5154   0.00569   0.00168  -0.0895  0.7474  1.0000  -0.7146   0.0000   0.0000   0.0000   0.4220
   1.100   0.5262   0.00573   0.00168  -0.0894  0.7415  1.0000  -0.7337   0.0000   0.0000   0.0000   0.4181
   1.200   0.5372   0.00574   0.00169  -0.0893  0.7370  1.0000  -0.7530   0.0000   0.0000   0.0000   0.4144
   1.300   0.5480   0.00576   0.00170  -0.0892  0.7317  1.0000  -0.7724   0.0000   0.0000   0.0000   0.4109
   1.400   0.5589   0.00579   0.00170  -0.0890  0.7257  1.0000  -0.7919   0.0000   0.0000   0.0000   0.4074
   1.500   0.5696   0.00582   0.00170  -0.0889  0.7185  1.0000  -0.8113   0.0000   0.0000   0.0000   0.4040
   1.600   0.5801   0.00587   0.00170  -0.0887  0.7104  1.0000  -0.8307   0.0000   0.0000   0.0000   0.4008
   1.700   0.5904   0.00594   0.00170  -0.0884  0.7011  1.0000  -0.8500   0.0000   0.0000   0.0000   0.3976
   1.800   0.6012   0.00598   0.00172  -0.0883  0.6945  1.0000  -0.8698   0.0000   0.0000   0.0000   0.3946
   1.900   0.6120   0.00600   0.00174  -0.0882  0.6880  1.0000  -0.8897   0.0000   0.0000   0.0000   0.3918
   2.000   0.6227   0.00604   0.00175  -0.0880  0.6798  1.0000  -0.9097   0.0000   0.0000   0.0000   0.3890
   2.100   0.6332   0.00610   0.00176  -0.0878  0.6700  1.0000  -0.9295   0.0000   0.0000   0.0000   0.3863
   2.200   0.6432   0.00618   0.00177  -0.0875  0.6588  1.0000  -0.9490   0.0000   0.0000   0.0000   0.3836
   2.300   0.6535   0.00625   0.00179  -0.0873  0.6488  1.0000  -0.9698   0.0000   0.0000   0.0000   0.3810
   2.400   0.6644   0.00628   0.00182  -0.0872  0.6418  1.0000  -0.9946   0.0000   0.0000   0.0000   0.3786
   2.500   0.6751   0.00633   0.00184  -0.0871  0.6333  1.0000  -1.0195   0.0000   0.0000   0.0000   0.3762
   2.600   0.6856   0.00640   0.00187  -0.0869  0.6233  1.0000  -1.0441   0.0000   0.0000   0.0000   0.3739
   2.700   0.6956   0.00649   0.00189  -0.0866  0.6122  1.0000  -1.0684   0.0000   0.0000   0.0000   0.3716
   2.800   0.7057   0.00658   0.00198  -0.0864  0.6011  1.0000  -1.0946   0.0000   0.0000   0.0000   0.3694
   2.900   0.7165   0.00663   0.00201  -0.0863  0.5933  1.0000  -1.1205   0.0000   0.0000   0.0000   0.3673
   3.000   0.7271   0.00669   0.00205  -0.0861  0.5828  1.0000  -1.1458   0.0000   0.0000   0.0000   0.3653
   3.100   0.7371   0.00679   0.00208  -0.0859  0.5704  1.0000  -1.1707   0.0000   0.0000   0.0000   0.3632
   3.200   0.7467   0.00692   0.00213  -0.0855  0.5559  1.0000  -1.1950   0.0000   0.0000   0.0000   0.3612
   3.300   0.7572   0.00700   0.00217  -0.0854  0.5454  1.0000  -1.2205   0.0000   0.0000   0.0000   0.3594
   3.400   0.7674   0.00709   0.00222  -0.0852  0.5311  1.0000  -1.2458   0.0000   0.0000   0.0000   0.3575
   3.500   0.7766   0.00725   0.00227  -0.0848  0.5129  1.0000  -1.2701   0.0000   0.0000   0.0000   0.3556
   3.600   0.7865   0.00737   0.00233  -0.0846  0.4975  1.0000  -1.3010   0.0000   0.0000   0.0000   0.3538
   3.700   0.7966   0.00748   0.00239  -0.0843  0.4824  1.0000  -1.3331   0.0000   0.0000   0.0000   0.3521
   3.800   0.8060   0.00765   0.00246  -0.0840  0.4651  1.0000  -1.3643   0.0000   0.0000   0.0000   0.3504
   3.900   0.8157   0.00779   0.00253  -0.0838  0.4501  1.0000  -1.3963   0.0000   0.0000   0.0000   0.3487
   4.000   0.8259   0.00789   0.00260  -0.0836  0.4371  1.0000  -1.4357   0.0000   0.0000   0.0000   0.3472
   4.100   0.8355   0.00806   0.00268  -0.0833  0.4206  1.0000  -1.4767   0.0000   0.0000   0.0000   0.3456
   4.200   0.8449   0.00823   0.00277  -0.0830  0.4034  1.0000  -1.5177   0.0000   0.0000   0.0000   0.3440
   4.300   0.8551   0.00835   0.00284  -0.0828  0.3913  1.0000  -1.5607   0.0000   0.0000   0.0000   0.3426
   4.400   0.8645   0.00852   0.00293  -0.0826  0.3745  1.0000  -1.6026   0.0000   0.0000   0.0000   0.3411
   4.500   0.8737   0.00872   0.00304  -0.0823  0.3556  1.0000  -1.6441   0.0000   0.0000   0.0000   0.3396
   4.600   0.8837   0.00886   0.00313  -0.0821  0.3421  1.0000  -1.6877   0.0000   0.0000   0.0000   0.3383
   4.700   0.8929   0.00907   0.00323  -0.0818  0.3242  1.0000  -1.7298   0.0000   0.0000   0.0000   0.3369
   4.800   0.9024   0.00926   0.00335  -0.0815  0.3073  1.0000  -1.7727   0.0000   0.0000   0.0000   0.3355
   4.900   0.9123   0.00940   0.00344  -0.0813  0.2950  1.0000  -1.8171   0.0000   0.0000   0.0000   0.3342
   5.000   0.9216   0.00960   0.00355  -0.0811  0.2806  1.0000  -1.8605   0.0000   0.0000   0.0000   0.3329
   5.100   0.9311   0.00980   0.00368  -0.0808  0.2652  1.0000  -1.9043   0.0000   0.0000   0.0000   0.3317
   5.200   0.9412   0.00992   0.00378  -0.0806  0.2568  1.0000  -1.9500   0.0000   0.0000   0.0000   0.3305
   5.300   0.9508   0.01009   0.00389  -0.0804  0.2456  1.0000  -1.9950   0.0000   0.0000   0.0000   0.3293
   5.400   0.9601   0.01031   0.00401  -0.0801  0.2319  1.0000  -2.0393   0.0000   0.0000   0.0000   0.3281
   5.500   0.9699   0.01046   0.00414  -0.0799  0.2209  1.0000  -2.0851   0.0000   0.0000   0.0000   0.3269
   5.600   0.9797   0.01061   0.00426  -0.0798  0.2115  1.0000  -2.1315   0.0000   0.0000   0.0000   0.3258
   5.700   0.9888   0.01084   0.00439  -0.0795  0.1989  1.0000  -2.1903   0.0000   0.0000   0.0000   0.3247
   5.800   0.9981   0.01106   0.00454  -0.0792  0.1843  1.0000  -2.2517   0.0000   0.0000   0.0000   0.3235
   5.900   1.0082   0.01118   0.00465  -0.0790  0.1788  1.0000  -2.3170   0.0000   0.0000   0.0000   0.3225
   6.000   1.0179   0.01134   0.00478  -0.0788  0.1716  1.0000  -2.3815   0.0000   0.0000   0.0000   0.3214
   6.100   1.0272   0.01155   0.00492  -0.0786  0.1630  1.0000  -2.4450   0.0000   0.0000   0.0000   0.3203
   6.200   1.0364   0.01177   0.00507  -0.0783  0.1518  1.0000  -2.5085   0.0000   0.0000   0.0000   0.3193
   6.300   1.0463   0.01190   0.00521  -0.0781  0.1464  1.0000  -2.5753   0.0000   0.0000   0.0000   0.3183
   6.400   1.0564   0.01202   0.00552  -0.0779  0.1431  1.0000  -2.6583   0.0000   0.0000   0.0000   0.3173
   6.500   1.0662   0.01217   0.00566  -0.0777  0.1380  1.0000  -2.7290   0.0000   0.0000   0.0000   0.3163
   6.600   1.0755   0.01237   0.00581  -0.0775  0.1322  1.0000  -2.7977   0.0000   0.0000   0.0000   0.3153
   6.700   1.0846   0.01259   0.00598  -0.0772  0.1251  1.0000  -2.8652   0.0000   0.0000   0.0000   0.3143
   6.800   1.0936   0.01283   0.00619  -0.0769  0.1168  1.0000  -2.9312   0.0000   0.0000   0.0000   0.3133
   6.900   1.1037   0.01294   0.00633  -0.0767  0.1145  1.0000  -3.0030   0.0000   0.0000   0.0000   0.3124
   7.000   1.1137   0.01305   0.00646  -0.0765  0.1124  1.0000  -3.0757   0.0000   0.0000   0.0000   0.3115
   7.100   1.1235   0.01318   0.00660  -0.0764  0.1092  1.0000  -3.1476   0.0000   0.0000   0.0000   0.3106
   7.200   1.1330   0.01336   0.00676  -0.0761  0.1049  1.0000  -3.2188   0.0000   0.0000   0.0000   0.3098
   7.300   1.1420   0.01358   0.00693  -0.0758  0.0997  1.0000  -3.2887   0.0000   0.0000   0.0000   0.3088
   7.400   1.1506   0.01385   0.00714  -0.0755  0.0924  1.0000  -3.3564   0.0000   0.0000   0.0000   0.3079
   7.500   1.1593   0.01411   0.00740  -0.0751  0.0864  1.0000  -3.4503   0.0000   0.0000   0.0000   0.3070
   7.600   1.1695   0.01419   0.00750  -0.0750  0.0851  1.0000  -3.5600   0.0000   0.0000   0.0000   0.3062
   7.700   1.1794   0.01430   0.00764  -0.0748  0.0830  1.0000  -3.6687   0.0000   0.0000   0.0000   0.3054
   7.800   1.1889   0.01446   0.00780  -0.0746  0.0798  1.0000  -3.7761   0.0000   0.0000   0.0000   0.3045
   7.900   1.1979   0.01466   0.00797  -0.0743  0.0756  1.0000  -3.8819   0.0000   0.0000   0.0000   0.3037
   8.000   1.2063   0.01494   0.00818  -0.0739  0.0702  1.0000  -3.9848   0.0000   0.0000   0.0000   0.3029
   8.100   1.2137   0.01534   0.00855  -0.0734  0.0625  1.0000  -4.0773   0.0000   0.0000   0.0000   0.3019
   8.200   1.2234   0.01545   0.00868  -0.0732  0.0609  1.0000  -4.1915   0.0000   0.0000   0.0000   0.3011
   8.300   1.2332   0.01556   0.00880  -0.0730  0.0592  1.0000  -4.3081   0.0000   0.0000   0.0000   0.3004
   8.400   1.2425   0.01571   0.00896  -0.0728  0.0566  1.0000  -4.4221   0.0000   0.0000   0.0000   0.2996
   8.500   1.2513   0.01593   0.00915  -0.0725  0.0533  1.0000  -4.5331   0.0000   0.0000   0.0000   0.2988
   8.600   1.2595   0.01621   0.00938  -0.0721  0.0497  1.0000  -4.6407   0.0000   0.0000   0.0000   0.2980
   8.700   1.2669   0.01659   0.00973  -0.0716  0.0448  1.0000  -4.7391   0.0000   0.0000   0.0000   0.2971
   8.800   1.2733   0.01707   0.01024  -0.0708  0.0408  1.0000  -4.8260   0.0000   0.0000   0.0000   0.2961
   8.900   1.2828   0.01719   0.01038  -0.0706  0.0404  1.0000  -4.9464   0.0000   0.0000   0.0000   0.2954
   9.000   1.2920   0.01733   0.01055  -0.0704  0.0397  1.0000  -5.0658   0.0000   0.0000   0.0000   0.2947
   9.100   1.3011   0.01750   0.01074  -0.0701  0.0388  1.0000  -5.1842   0.0000   0.0000   0.0000   0.2939
   9.200   1.3099   0.01768   0.01095  -0.0698  0.0376  1.0000  -5.3018   0.0000   0.0000   0.0000   0.2932
   9.300   1.3185   0.01789   0.01118  -0.0695  0.0363  1.0000  -5.4187   0.0000   0.0000   0.0000   0.2925
   9.400   1.3269   0.01812   0.01141  -0.0691  0.0348  1.0000  -5.5343   0.0000   0.0000   0.0000   0.2917
   9.500   1.3348   0.01838   0.01167  -0.0687  0.0331  1.0000  -5.6475   0.0000   0.0000   0.0000   0.2909
   9.600   1.3416   0.01878   0.01213  -0.0681  0.0307  1.0000  -5.7578   0.0000   0.0000   0.0000   0.2901
   9.700   1.3441   0.01962   0.01302  -0.0667  0.0260  1.0000  -5.8052   0.0000   0.0000   0.0000   0.2889
   9.800   1.3477   0.02032   0.01381  -0.0656  0.0242  1.0000  -5.8667   0.0000   0.0000   0.0000   0.2878
   9.900   1.3564   0.02048   0.01399  -0.0653  0.0239  1.0000  -5.9901   0.0000   0.0000   0.0000   0.2871
  10.000   1.3647   0.02067   0.01420  -0.0649  0.0236  1.0000  -6.1109   0.0000   0.0000   0.0000   0.2864
  10.100   1.3727   0.02089   0.01445  -0.0645  0.0232  1.0000  -6.2285   0.0000   0.0000   0.0000   0.2856
  10.200   1.3803   0.02114   0.01473  -0.0641  0.0227  1.0000  -6.3431   0.0000   0.0000   0.0000   0.2849
  10.300   1.3876   0.02141   0.01504  -0.0635  0.0222  1.0000  -6.4554   0.0000   0.0000   0.0000   0.2841
  10.400   1.3946   0.02170   0.01536  -0.0630  0.0217  1.0000  -6.5658   0.0000   0.0000   0.0000   0.2833
  10.500   1.4014   0.02200   0.01570  -0.0624  0.0212  1.0000  -6.6888   0.0000   0.0000   0.0000   0.2826
  10.600   1.4081   0.02231   0.01605  -0.0618  0.0207  1.0000  -6.8136   0.0000   0.0000   0.0000   0.2818
  10.700   1.4146   0.02261   0.01639  -0.0612  0.0201  1.0000  -6.9385   0.0000   0.0000   0.0000   0.2810
  10.800   1.4208   0.02291   0.01672  -0.0606  0.0196  1.0000  -7.0626   0.0000   0.0000   0.0000   0.2802
  10.900   1.4267   0.02320   0.01704  -0.0599  0.0191  1.0000  -7.1862   0.0000   0.0000   0.0000   0.2794
  11.000   1.4325   0.02349   0.01735  -0.0591  0.0185  1.0000  -7.3105   0.0000   0.0000   0.0000   0.2785
  11.100   1.4381   0.02379   0.01767  -0.0584  0.0179  1.0000  -7.4334   0.0000   0.0000   0.0000   0.2777
  11.200   1.4433   0.02410   0.01799  -0.0576  0.0172  1.0000  -7.5537   0.0000   0.0000   0.0000   0.2769
  11.300   1.4478   0.02447   0.01837  -0.0568  0.0164  1.0000  -7.6661   0.0000   0.0000   0.0000   0.2760
  11.400   1.4502   0.02500   0.01892  -0.0556  0.0153  1.0000  -7.7521   0.0000   0.0000   0.0000   0.2750
  11.500   1.4417   0.02640   0.02044  -0.0530  0.0132  1.0000  -7.6992   0.0000   0.0000   0.0000   0.2733
  11.600   1.4294   0.02824   0.02248  -0.0502  0.0120  1.0000  -7.5990   0.0000   0.0000   0.0000   0.2715
  11.700   1.4374   0.02828   0.02252  -0.0499  0.0118  1.0000  -7.7529   0.0000   0.0000   0.0000   0.2709
  11.800   1.4442   0.02844   0.02269  -0.0494  0.0117  1.0000  -7.8923   0.0000   0.0000   0.0000   0.2703
  11.900   1.4495   0.02873   0.02300  -0.0488  0.0115  1.0000  -8.0145   0.0000   0.0000   0.0000   0.2696
  12.000   1.4534   0.02914   0.02345  -0.0481  0.0113  1.0000  -8.1199   0.0000   0.0000   0.0000   0.2688
  12.100   1.4562   0.02967   0.02404  -0.0472  0.0111  1.0000  -8.2105   0.0000   0.0000   0.0000   0.2680
  12.200   1.4580   0.03030   0.02473  -0.0463  0.0109  1.0000  -8.2894   0.0000   0.0000   0.0000   0.2672
  12.300   1.4589   0.03102   0.02552  -0.0453  0.0107  1.0000  -8.3580   0.0000   0.0000   0.0000   0.2663
  12.400   1.4592   0.03181   0.02638  -0.0444  0.0105  1.0000  -8.4202   0.0000   0.0000   0.0000   0.2655
  12.500   1.4592   0.03265   0.02730  -0.0434  0.0104  1.0000  -8.4776   0.0000   0.0000   0.0000   0.2646
  12.600   1.4584   0.03356   0.02829  -0.0424  0.0103  1.0000  -8.5280   0.0000   0.0000   0.0000   0.2638
  12.700   1.4571   0.03451   0.02932  -0.0414  0.0102  1.0000  -8.5735   0.0000   0.0000   0.0000   0.2630
  12.800   1.4557   0.03551   0.03041  -0.0405  0.0101  1.0000  -8.6172   0.0000   0.0000   0.0000   0.2622
  12.900   1.4539   0.03658   0.03156  -0.0396  0.0101  1.0000  -8.6570   0.0000   0.0000   0.0000   0.2615
  13.000   1.4517   0.03771   0.03278  -0.0388  0.0100  1.0000  -8.6927   0.0000   0.0000   0.0000   0.2608
  13.100   1.4494   0.03889   0.03405  -0.0381  0.0099  1.0000  -8.7272   0.0000   0.0000   0.0000   0.2602
  13.200   1.4470   0.04013   0.03537  -0.0374  0.0099  1.0000  -8.7587   0.0000   0.0000   0.0000   0.2596
  13.300   1.4438   0.04145   0.03678  -0.0368  0.0099  1.0000  -8.7841   0.0000   0.0000   0.0000   0.2590
  13.400   1.4406   0.04281   0.03823  -0.0363  0.0098  1.0000  -8.8088   0.0000   0.0000   0.0000   0.2585
  13.500   1.4375   0.04420   0.03971  -0.0358  0.0098  1.0000  -8.8332   0.0000   0.0000   0.0000   0.2581
  13.600   1.4337   0.04568   0.04127  -0.0354  0.0098  1.0000  -8.8519   0.0000   0.0000   0.0000   0.2577
  13.700   1.4296   0.04720   0.04288  -0.0351  0.0097  1.0000  -8.8686   0.0000   0.0000   0.0000   0.2574
  13.800   1.4257   0.04875   0.04452  -0.0349  0.0097  1.0000  -8.8856   0.0000   0.0000   0.0000   0.2571
  13.900   1.4212   0.05038   0.04624  -0.0348  0.0097  1.0000  -8.8978   0.0000   0.0000   0.0000   0.2569
  14.000   1.4161   0.05209   0.04803  -0.0347  0.0097  1.0000  -8.9042   0.0000   0.0000   0.0000   0.2568
  14.100   1.4110   0.05378   0.04981  -0.0347  0.0096  1.0000  -8.9100   0.0000   0.0000   0.0000   0.2567
  14.200   1.4056   0.05558   0.05169  -0.0349  0.0096  1.0000  -8.9124   0.0000   0.0000   0.0000   0.2567
  14.300   1.3996   0.05753   0.05372  -0.0352  0.0096  1.0000  -8.9084   0.0000   0.0000   0.0000   0.2568
  14.400   1.3941   0.05950   0.05578  -0.0355  0.0096  1.0000  -8.9068   0.0000   0.0000   0.0000   0.2570
  14.500   1.3884   0.06158   0.05794  -0.0360  0.0096  1.0000  -8.9016   0.0000   0.0000   0.0000   0.2573
  14.600   1.3818   0.06385   0.06029  -0.0367  0.0096  1.0000  -8.8875   0.0000   0.0000   0.0000   0.2577
  14.700   1.3758   0.06612   0.06264  -0.0375  0.0095  1.0000  -8.8759   0.0000   0.0000   0.0000   0.2582
  14.800   1.3693   0.06853   0.06513  -0.0384  0.0095  1.0000  -8.8581   0.0000   0.0000   0.0000   0.2588
  14.900   1.3621   0.07113   0.06781  -0.0395  0.0095  1.0000  -8.8315   0.0000   0.0000   0.0000   0.2595
  15.000   1.3554   0.07372   0.07047  -0.0406  0.0095  1.0000  -8.8073   0.0000   0.0000   0.0000   0.2603
  15.100   1.3478   0.07656   0.07340  -0.0420  0.0095  1.0000  -8.7705   0.0000   0.0000   0.0000   0.2613
  15.200   1.3401   0.07948   0.07640  -0.0435  0.0095  1.0000  -8.7306   0.0000   0.0000   0.0000   0.2624
  15.300   1.3326   0.08242   0.07941  -0.0450  0.0095  1.0000  -8.6896   0.0000   0.0000   0.0000   0.2635
  15.400   1.3237   0.08574   0.08282  -0.0469  0.0096  1.0000  -8.6298   0.0000   0.0000   0.0000   0.2650
  15.500   1.3155   0.08895   0.08610  -0.0487  0.0096  1.0000  -8.5745   0.0000   0.0000   0.0000   0.2664
  15.600   1.3062   0.09251   0.08974  -0.0509  0.0096  1.0000  -8.5016   0.0000   0.0000   0.0000   0.2682
  15.700   1.2970   0.09609   0.09340  -0.0531  0.0096  1.0000  -8.4262   0.0000   0.0000   0.0000   0.2700
  15.800   1.2874   0.09983   0.09721  -0.0554  0.0097  1.0000  -8.3409   0.0000   0.0000   0.0000   0.2719
  15.900   1.2770   0.10384   0.10129  -0.0580  0.0097  1.0000  -8.2407   0.0000   0.0000   0.0000   0.2742
  16.000   1.2669   0.10779   0.10532  -0.0606  0.0097  1.0000  -8.1391   0.0000   0.0000   0.0000   0.2764
  16.100   1.2553   0.11224   0.10984  -0.0635  0.0098  1.0000  -8.0119   0.0000   0.0000   0.0000   0.2791
  16.200   1.2445   0.11649   0.11415  -0.0663  0.0099  1.0000  -7.8889   0.0000   0.0000   0.0000   0.2816
  16.300   1.2318   0.12134   0.11908  -0.0696  0.0099  1.0000  -7.7319   0.0000   0.0000   0.0000   0.2848
  16.400   1.2200   0.12573   0.12353  -0.0726  0.0100  1.0000  -7.5822   0.0000   0.0000   0.0000   0.2877
  16.500   1.2063   0.13071   0.12858  -0.0761  0.0101  1.0000  -7.3938   0.0000   0.0000   0.0000   0.2912
  16.600   1.1930   0.13571   0.13364  -0.0795  0.0102  1.0000  -7.2029   0.0000   0.0000   0.0000   0.2947
  16.700   1.1779   0.14157   0.13955  -0.0833  0.0103  1.0000  -6.9681   0.0000   0.0000   0.0000   0.2989
  16.800   1.1610   0.14821   0.14624  -0.0875  0.0103  1.0000  -6.6884   0.0000   0.0000   0.0000   0.3036
  16.900   1.1429   0.15549   0.15357  -0.0918  0.0105  1.0000  -6.3650   0.0000   0.0000   0.0000   0.3087
  17.000   1.1042   0.17016   0.16828  -0.0998  0.0107  1.0000  -5.5763   0.0000   0.0000   0.0000   0.3194
  17.100   1.0536   0.19136   0.18944  -0.1094  0.0111  1.0000  -4.3251   0.0000   0.0000   0.0000   0.3339
  17.200   1.0404   0.19958   0.19764  -0.1127  0.0113  1.0000  -3.9278   0.0000   0.0000   0.0000   0.3387
  17.300   1.0322   0.20590   0.20395  -0.1151  0.0115  1.0000  -3.6595   0.0000   0.0000   0.0000   0.3420
  17.400   1.0185   0.21492   0.21287  -0.1181  0.0119  1.0000  -3.2372   0.0000   0.0000   0.0000   0.3468
  19.500   1.0388   0.26642   0.26455  -0.1357  0.0131  1.0000  -2.9266   0.0000   0.0000   0.0000   0.3586
  19.600   1.0382   0.26916   0.26729  -0.1364  0.0128  1.0000  -2.9087   0.0000   0.0000   0.0000   0.3593
  19.700   1.0356   0.27297   0.27110  -0.1374  0.0126  1.0000  -2.8337   0.0000   0.0000   0.0000   0.3604
  19.800   1.0214   0.28296   0.28105  -0.1392  0.0120  1.0000  -2.4472   0.0000   0.0000   0.0000   0.3644
  19.900   1.0214   0.28553   0.28363  -0.1399  0.0120  1.0000  -2.4228   0.0000   0.0000   0.0000   0.3650
  20.000   1.0212   0.28809   0.28620  -0.1407  0.0120  1.0000  -2.3972   0.0000   0.0000   0.0000   0.3656
  20.100   1.0209   0.29065   0.28875  -0.1413  0.0120  1.0000  -2.3701   0.0000   0.0000   0.0000   0.3661
  20.200   1.0205   0.29318   0.29130  -0.1420  0.0120  1.0000  -2.3416   0.0000   0.0000   0.0000   0.3667
  20.300   1.0198   0.29570   0.29382  -0.1427  0.0119  1.0000  -2.3117   0.0000   0.0000   0.0000   0.3673
  20.400   1.0190   0.29820   0.29633  -0.1433  0.0119  1.0000  -2.2805   0.0000   0.0000   0.0000   0.3679
  20.500   1.0178   0.30067   0.29880  -0.1438  0.0119  1.0000  -2.2481   0.0000   0.0000   0.0000   0.3685
  20.600   1.0164   0.30309   0.30123  -0.1444  0.0119  1.0000  -2.2148   0.0000   0.0000   0.0000   0.3691
  20.700   1.0146   0.30545   0.30359  -0.1449  0.0119  1.0000  -2.1809   0.0000   0.0000   0.0000   0.3697
  20.800   1.0123   0.30772   0.30587  -0.1453  0.0119  1.0000  -2.1460   0.0000   0.0000   0.0000   0.3704
  20.900   1.0093   0.30986   0.30802  -0.1456  0.0119  1.0000  -2.1101   0.0000   0.0000   0.0000   0.3710
  21.000   1.0055   0.31180   0.30997  -0.1458  0.0119  1.0000  -2.0728   0.0000   0.0000   0.0000   0.3717
  21.100   0.9507   0.30225   0.30051  -0.1402  0.0119  1.0000  -1.9057   0.0000   0.0000   0.0000   0.3747
  21.200   0.9424   0.30195   0.30023  -0.1398  0.0119  1.0000  -1.8601   0.0000   0.0000   0.0000   0.3756
  21.300   0.9360   0.30198   0.30026  -0.1396  0.0119  1.0000  -1.8201   0.0000   0.0000   0.0000   0.3763
  21.400   0.9306   0.30217   0.30046  -0.1395  0.0119  1.0000  -1.7837   0.0000   0.0000   0.0000   0.3770
  21.500   0.9259   0.30246   0.30077  -0.1395  0.0119  1.0000  -1.7500   0.0000   0.0000   0.0000   0.3777
  21.600   0.9218   0.30282   0.30113  -0.1395  0.0119  1.0000  -1.7184   0.0000   0.0000   0.0000   0.3783
  21.700   0.9180   0.30323   0.30156  -0.1396  0.0119  1.0000  -1.6887   0.0000   0.0000   0.0000   0.3789
  21.800   0.9146   0.30368   0.30202  -0.1397  0.0118  1.0000  -1.6606   0.0000   0.0000   0.0000   0.3795
  21.900   0.9115   0.30417   0.30251  -0.1398  0.0118  1.0000  -1.6340   0.0000   0.0000   0.0000   0.3801
  22.000   0.9086   0.30468   0.30304  -0.1399  0.0118  1.0000  -1.6086   0.0000   0.0000   0.0000   0.3806
  22.100   0.9060   0.30522   0.30358  -0.1401  0.0118  1.0000  -1.5843   0.0000   0.0000   0.0000   0.3811
  22.200   0.9035   0.30577   0.30414  -0.1403  0.0118  1.0000  -1.5610   0.0000   0.0000   0.0000   0.3817
  22.300   0.9012   0.30634   0.30472  -0.1405  0.0118  1.0000  -1.5388   0.0000   0.0000   0.0000   0.3822
  22.400   0.8990   0.30693   0.30531  -0.1407  0.0118  1.0000  -1.5174   0.0000   0.0000   0.0000   0.3827
  22.500   0.8970   0.30752   0.30591  -0.1409  0.0118  1.0000  -1.4970   0.0000   0.0000   0.0000   0.3832
  22.600   0.8951   0.30813   0.30653  -0.1411  0.0118  1.0000  -1.4773   0.0000   0.0000   0.0000   0.3836
  22.700   0.8933   0.30874   0.30715  -0.1413  0.0118  1.0000  -1.4583   0.0000   0.0000   0.0000   0.3841
  22.800   0.8916   0.30937   0.30778  -0.1416  0.0118  1.0000  -1.4401   0.0000   0.0000   0.0000   0.3846
  22.900   0.8901   0.31000   0.30842  -0.1419  0.0118  1.0000  -1.4225   0.0000   0.0000   0.0000   0.3850
  23.000   0.8886   0.31064   0.30906  -0.1421  0.0118  1.0000  -1.4055   0.0000   0.0000   0.0000   0.3854
  23.100   0.8872   0.31128   0.30971  -0.1424  0.0118  1.0000  -1.3890   0.0000   0.0000   0.0000   0.3859
  23.200   0.8858   0.31193   0.31036  -0.1427  0.0118  1.0000  -1.3731   0.0000   0.0000   0.0000   0.3863
  23.300   0.8846   0.31258   0.31102  -0.1429  0.0118  1.0000  -1.3577   0.0000   0.0000   0.0000   0.3867
  23.400   0.8834   0.31324   0.31169  -0.1432  0.0118  1.0000  -1.3429   0.0000   0.0000   0.0000   0.3871
  23.500   0.8822   0.31390   0.31236  -0.1435  0.0117  1.0000  -1.3284   0.0000   0.0000   0.0000   0.3875
  23.600   0.8812   0.31457   0.31303  -0.1438  0.0117  1.0000  -1.3144   0.0000   0.0000   0.0000   0.3879
  23.700   0.8801   0.31523   0.31370  -0.1441  0.0117  1.0000  -1.3008   0.0000   0.0000   0.0000   0.3883
  23.800   0.8791   0.31591   0.31438  -0.1444  0.0117  1.0000  -1.2873   0.0000   0.0000   0.0000   0.3887
  23.900   0.8782   0.31658   0.31506  -0.1448  0.0117  1.0000  -1.2742   0.0000   0.0000   0.0000   0.3891
  24.000   0.8773   0.31726   0.31574  -0.1451  0.0117  1.0000  -1.2614   0.0000   0.0000   0.0000   0.3895
  24.100   0.8764   0.31794   0.31643  -0.1454  0.0117  1.0000  -1.2490   0.0000   0.0000   0.0000   0.3899
  24.200   0.8756   0.31862   0.31712  -0.1457  0.0117  1.0000  -1.2370   0.0000   0.0000   0.0000   0.3903
  24.300   0.8749   0.31931   0.31781  -0.1461  0.0117  1.0000  -1.2253   0.0000   0.0000   0.0000   0.3907
  24.400   0.8741   0.31999   0.31850  -0.1464  0.0117  1.0000  -1.2139   0.0000   0.0000   0.0000   0.3910
  24.500   0.8734   0.32068   0.31919  -0.1467  0.0117  1.0000  -1.2028   0.0000   0.0000   0.0000   0.3914
  24.600   0.8728   0.32137   0.31989  -0.1471  0.0116  1.0000  -1.1920   0.0000   0.0000   0.0000   0.3917
  24.700   0.8721   0.32207   0.32059  -0.1474  0.0116  1.0000  -1.1814   0.0000   0.0000   0.0000   0.3921
  24.800   0.8716   0.32276   0.32129  -0.1478  0.0116  1.0000  -1.1712   0.0000   0.0000   0.0000   0.3925
  24.900   0.8710   0.32345   0.32199  -0.1481  0.0116  1.0000  -1.1614   0.0000   0.0000   0.0000   0.3928
  25.000   0.8705   0.32415   0.32269  -0.1485  0.0116  1.0000  -1.1520   0.0000   0.0000   0.0000   0.3932
  25.100   0.8700   0.32485   0.32339  -0.1489  0.0116  1.0000  -1.1419   0.0000   0.0000   0.0000   0.3935
  25.200   0.8696   0.32556   0.32411  -0.1493  0.0115  1.0000  -1.1318   0.0000   0.0000   0.0000   0.3939
  25.300   0.8692   0.32627   0.32483  -0.1497  0.0115  1.0000  -1.1220   0.0000   0.0000   0.0000   0.3943
  25.400   0.8689   0.32700   0.32555  -0.1501  0.0114  1.0000  -1.1172   0.0000   0.0000   0.0000   0.3947
  25.500   0.8687   0.32773   0.32629  -0.1506  0.0114  1.0000  -1.1219   0.0000   0.0000   0.0000   0.3951
  25.600   0.8685   0.32847   0.32704  -0.1510  0.0113  1.0000  -1.1266   0.0000   0.0000   0.0000   0.3955


