xflr5 v6.61

 Calculated polar for: S4110

 1 1 Reynolds number fixed          Mach number fixed         

 xtrf =   1.000 (top)        1.000 (bottom)
 Mach =   0.000     Re =     0.563 e 6     Ncrit =   9.000

  alpha     CL        CD       CDp       Cm    Top Xtr Bot Xtr   Cpmin    Chinge    XCp    
 ------- -------- --------- --------- -------- ------- ------- -------- --------- ---------
 -10.000  -0.3773   0.11273   0.11035  -0.0264  1.0000  0.0190  -1.5282   0.0000   0.0000   0.0000   0.1736
  -9.900  -0.3755   0.11141   0.10903  -0.0269  1.0000  0.0190  -1.5354   0.0000   0.0000   0.0000   0.1721
  -9.800  -0.3737   0.11008   0.10771  -0.0273  1.0000  0.0190  -1.5429   0.0000   0.0000   0.0000   0.1706
  -9.700  -0.3720   0.10876   0.10639  -0.0278  1.0000  0.0190  -1.5507   0.0000   0.0000   0.0000   0.1691
  -9.600  -0.3704   0.10743   0.10508  -0.0282  1.0000  0.0190  -1.5587   0.0000   0.0000   0.0000   0.1677
  -9.500  -0.3689   0.10612   0.10377  -0.0286  1.0000  0.0190  -1.5670   0.0000   0.0000   0.0000   0.1663
  -9.400  -0.3674   0.10480   0.10246  -0.0291  1.0000  0.0190  -1.5756   0.0000   0.0000   0.0000   0.1649
  -9.300  -0.3660   0.10350   0.10116  -0.0295  1.0000  0.0190  -1.5846   0.0000   0.0000   0.0000   0.1636
  -9.200  -0.3648   0.10219   0.09987  -0.0299  1.0000  0.0190  -1.5938   0.0000   0.0000   0.0000   0.1622
  -9.100  -0.3636   0.10090   0.09858  -0.0302  1.0000  0.0190  -1.6033   0.0000   0.0000   0.0000   0.1610
  -9.000  -0.3625   0.09960   0.09728  -0.0306  1.0000  0.0190  -1.6127   0.0000   0.0000   0.0000   0.1598
  -8.900  -0.3614   0.09829   0.09599  -0.0309  1.0000  0.0190  -1.6224   0.0000   0.0000   0.0000   0.1587
  -8.700  -0.3818   0.09030   0.08806  -0.0334  1.0000  0.0199  -1.9604   0.0000   0.0000   0.0000   0.1570
  -8.600  -0.3850   0.08832   0.08610  -0.0338  1.0000  0.0201  -2.0054   0.0000   0.0000   0.0000   0.1568
  -8.500  -0.3865   0.08680   0.08459  -0.0340  1.0000  0.0203  -2.0250   0.0000   0.0000   0.0000   0.1566
  -8.400  -0.3875   0.08546   0.08325  -0.0342  1.0000  0.0205  -2.0362   0.0000   0.0000   0.0000   0.1565
  -8.300  -0.3884   0.08421   0.08202  -0.0343  1.0000  0.0206  -2.0435   0.0000   0.0000   0.0000   0.1565
  -8.200  -0.3895   0.08303   0.08086  -0.0343  1.0000  0.0208  -2.0489   0.0000   0.0000   0.0000   0.1568
  -8.100  -0.3908   0.08192   0.07976  -0.0343  1.0000  0.0209  -2.0536   0.0000   0.0000   0.0000   0.1574
  -8.000  -0.3926   0.08086   0.07872  -0.0341  1.0000  0.0210  -2.0587   0.0000   0.0000   0.0000   0.1583
  -7.900  -0.3951   0.07988   0.07776  -0.0338  1.0000  0.0211  -2.0648   0.0000   0.0000   0.0000   0.1598
  -7.800  -0.3986   0.07899   0.07689  -0.0332  1.0000  0.0212  -2.0729   0.0000   0.0000   0.0000   0.1621
  -7.700  -0.4035   0.07822   0.07614  -0.0324  1.0000  0.0213  -2.0835   0.0000   0.0000   0.0000   0.1653
  -7.600  -0.4100   0.07757   0.07552  -0.0312  1.0000  0.0213  -2.0973   0.0000   0.0000   0.0000   0.1696
  -7.500  -0.4172   0.07698   0.07495  -0.0299  1.0000  0.0214  -2.1129   0.0000   0.0000   0.0000   0.1742
  -7.400  -0.4231   0.07623   0.07423  -0.0291  1.0000  0.0214  -2.1266   0.0000   0.0000   0.0000   0.1774
  -7.300  -0.4261   0.07528   0.07330  -0.0289  0.9998  0.0215  -2.1321   0.0000   0.0000   0.0000   0.1783
  -7.200  -0.4160   0.07332   0.07134  -0.0321  0.9986  0.0218  -2.1097   0.0000   0.0000   0.0000   0.1690
  -7.100  -0.4057   0.07133   0.06934  -0.0355  0.9973  0.0220  -2.0901   0.0000   0.0000   0.0000   0.1589
  -7.000  -0.3956   0.06930   0.06730  -0.0389  0.9959  0.0223  -2.0736   0.0000   0.0000   0.0000   0.1480
  -6.900  -0.3853   0.06721   0.06521  -0.0424  0.9942  0.0226  -2.0602   0.0000   0.0000   0.0000   0.1362
  -6.800  -0.3744   0.06503   0.06301  -0.0462  0.9925  0.0229  -2.0493   0.0000   0.0000   0.0000   0.1230
  -6.700  -0.3629   0.06274   0.06071  -0.0502  0.9909  0.0232  -2.0411   0.0000   0.0000   0.0000   0.1081
  -6.600  -0.3507   0.06035   0.05830  -0.0543  0.9895  0.0235  -2.0354   0.0000   0.0000   0.0000   0.0913
  -6.500  -0.3378   0.05787   0.05578  -0.0586  0.9884  0.0239  -2.0322   0.0000   0.0000   0.0000   0.0727
  -6.400  -0.3243   0.05528   0.05316  -0.0630  0.9874  0.0244  -2.0324   0.0000   0.0000   0.0000   0.0519
  -6.300  -0.3147   0.05300   0.05084  -0.0660  0.9844  0.0248  -2.0384   0.0000   0.0000   0.0000   0.0364
  -6.200  -0.3031   0.05054   0.04834  -0.0694  0.9820  0.0252  -2.0452   0.0000   0.0000   0.0000   0.0170
  -6.100  -0.2905   0.04801   0.04574  -0.0729  0.9800  0.0258  -2.0536   0.0000   0.0000   0.0000  -0.0050
  -6.000  -0.2772   0.04545   0.04310  -0.0763  0.9783  0.0264  -2.0633   0.0000   0.0000   0.0000  -0.0296
  -5.900  -0.2633   0.04288   0.04045  -0.0796  0.9768  0.0271  -2.0745   0.0000   0.0000   0.0000  -0.0566
  -5.800  -0.2490   0.04037   0.03785  -0.0826  0.9756  0.0279  -2.0859   0.0000   0.0000   0.0000  -0.0863
  -5.700  -0.2345   0.03800   0.03536  -0.0854  0.9746  0.0287  -2.0949   0.0000   0.0000   0.0000  -0.1189
  -5.600  -0.2196   0.03577   0.03301  -0.0878  0.9737  0.0297  -2.1011   0.0000   0.0000   0.0000  -0.1549
  -5.500  -0.2047   0.03376   0.03088  -0.0899  0.9730  0.0306  -2.1017   0.0000   0.0000   0.0000  -0.1950
  -5.400  -0.1928   0.03216   0.02917  -0.0910  0.9709  0.0314  -2.0977   0.0000   0.0000   0.0000  -0.2279
  -5.300  -0.1833   0.03083   0.02774  -0.0914  0.9673  0.0319  -2.0908   0.0000   0.0000   0.0000  -0.2546
  -5.000  -0.1498   0.01735   0.01284  -0.0945  0.9589  0.0170  -2.7995   0.0000   0.0000   0.0000  -0.3897
  -4.900  -0.1373   0.01559   0.01083  -0.0949  0.9574  0.0162  -2.8377   0.0000   0.0000   0.0000  -0.4511
  -4.800  -0.1246   0.01425   0.00929  -0.0953  0.9559  0.0156  -2.8489   0.0000   0.0000   0.0000  -0.5256
  -4.700  -0.1116   0.01317   0.00803  -0.0956  0.9545  0.0151  -2.8434   0.0000   0.0000   0.0000  -0.6182
  -4.600  -0.0983   0.01229   0.00700  -0.0960  0.9532  0.0147  -2.8234   0.0000   0.0000   0.0000  -0.7389
  -4.500  -0.0874   0.01163   0.00623  -0.0958  0.9507  0.0144  -2.7946   0.0000   0.0000   0.0000  -0.8603
  -4.400  -0.0779   0.01111   0.00562  -0.0953  0.9471  0.0142  -2.7612   0.0000   0.0000   0.0000  -0.9894
  -4.300  -0.0672   0.01065   0.00506  -0.0951  0.9439  0.0140  -2.7198   0.0000   0.0000   0.0000  -1.1831
  -4.200  -0.0559   0.01024   0.00457  -0.0950  0.9410  0.0140  -2.6731   0.0000   0.0000   0.0000  -1.4693
  -4.100  -0.0443   0.00989   0.00414  -0.0949  0.9383  0.0140  -2.6240   0.0000   0.0000   0.0000  -1.9175
  -4.000  -0.0322   0.00955   0.00364  -0.0949  0.9360  0.0144  -2.5870   0.0000   0.0000   0.0000  -2.7280
  -3.900  -0.0199   0.00931   0.00333  -0.0950  0.9338  0.0148  -2.5260   0.0000   0.0000   0.0000  -4.5825
  -3.800  -0.0074   0.00910   0.00305  -0.0952  0.9317  0.0156  -2.4677   0.0000   0.0000   0.0000  -12.7529
  -3.700   0.0052   0.00889   0.00278  -0.0953  0.9295  0.0183  -2.4243   0.0000   0.0000   0.0000  18.8883
  -3.600   0.0169   0.00864   0.00265  -0.0954  0.9269  0.0359  -2.3662   0.0000   0.0000   0.0000   5.9386
  -3.500   0.0269   0.00852   0.00261  -0.0951  0.9237  0.0466  -2.2773   0.0000   0.0000   0.0000   3.8133
  -3.400   0.0374   0.00844   0.00257  -0.0949  0.9203  0.0520  -2.1816   0.0000   0.0000   0.0000   2.8117
  -3.300   0.0481   0.00840   0.00253  -0.0948  0.9168  0.0550  -2.0839   0.0000   0.0000   0.0000   2.2363
  -3.200   0.0591   0.00837   0.00249  -0.0947  0.9133  0.0566  -1.9845   0.0000   0.0000   0.0000   1.8641
  -3.100   0.0705   0.00834   0.00245  -0.0946  0.9100  0.0578  -1.8850   0.0000   0.0000   0.0000   1.6034
  -3.000   0.0819   0.00824   0.00233  -0.0946  0.9068  0.0630  -1.7917   0.0000   0.0000   0.0000   1.4139
  -2.900   0.0934   0.00815   0.00226  -0.0946  0.9037  0.0685  -1.6972   0.0000   0.0000   0.0000   1.2701
  -2.800   0.1050   0.00809   0.00221  -0.0946  0.9005  0.0732  -1.6025   0.0000   0.0000   0.0000   1.1574
  -2.700   0.1164   0.00804   0.00217  -0.0946  0.8972  0.0773  -1.5101   0.0000   0.0000   0.0000   1.0685
  -2.600   0.1269   0.00799   0.00214  -0.0945  0.8942  0.0810  -1.4220   0.0000   0.0000   0.0000   0.9989
  -2.500   0.1375   0.00797   0.00212  -0.0943  0.8909  0.0838  -1.3330   0.0000   0.0000   0.0000   0.9396
  -2.400   0.1482   0.00785   0.00205  -0.0942  0.8872  0.0976  -1.2498   0.0000   0.0000   0.0000   0.8889
  -2.300   0.1589   0.00775   0.00203  -0.0941  0.8835  0.1092  -1.1656   0.0000   0.0000   0.0000   0.8450
  -2.200   0.1699   0.00770   0.00198  -0.0940  0.8799  0.1156  -1.0814   0.0000   0.0000   0.0000   0.8057
  -2.100   0.1809   0.00757   0.00192  -0.0939  0.8763  0.1355  -1.0116   0.0000   0.0000   0.0000   0.7714
  -2.000   0.1919   0.00749   0.00187  -0.0938  0.8727  0.1491  -0.9620   0.0000   0.0000   0.0000   0.7408
  -1.900   0.2031   0.00740   0.00182  -0.0938  0.8687  0.1697  -0.9131   0.0000   0.0000   0.0000   0.7135
  -1.800   0.2144   0.00732   0.00179  -0.0938  0.8642  0.1898  -0.8643   0.0000   0.0000   0.0000   0.6891
  -1.700   0.2249   0.00719   0.00177  -0.0937  0.8614  0.2178  -0.8179   0.0000   0.0000   0.0000   0.6679
  -1.600   0.2355   0.00709   0.00174  -0.0936  0.8580  0.2429  -0.7717   0.0000   0.0000   0.0000   0.6484
  -1.500   0.2461   0.00695   0.00171  -0.0935  0.8542  0.2773  -0.7263   0.0000   0.0000   0.0000   0.6308
  -1.400   0.2567   0.00682   0.00170  -0.0934  0.8502  0.3130  -0.6813   0.0000   0.0000   0.0000   0.6145
  -1.300   0.2675   0.00671   0.00167  -0.0933  0.8460  0.3468  -0.6367   0.0000   0.0000   0.0000   0.5994
  -1.200   0.2782   0.00659   0.00165  -0.0932  0.8418  0.3842  -0.5988   0.0000   0.0000   0.0000   0.5854
  -1.100   0.2888   0.00647   0.00164  -0.0931  0.8376  0.4263  -0.5692   0.0000   0.0000   0.0000   0.5726
  -1.000   0.2994   0.00635   0.00163  -0.0930  0.8333  0.4702  -0.5396   0.0000   0.0000   0.0000   0.5606
  -0.900   0.3102   0.00626   0.00164  -0.0929  0.8284  0.5140  -0.5098   0.0000   0.0000   0.0000   0.5494
  -0.800   0.3208   0.00616   0.00165  -0.0927  0.8251  0.5526  -0.4796   0.0000   0.0000   0.0000   0.5390
  -0.700   0.3313   0.00606   0.00164  -0.0926  0.8220  0.5824  -0.4852   0.0000   0.0000   0.0000   0.5292
  -0.600   0.3418   0.00598   0.00160  -0.0924  0.8181  0.6134  -0.4948   0.0000   0.0000   0.0000   0.5199
  -0.500   0.3519   0.00587   0.00161  -0.0921  0.8135  0.6575  -0.5050   0.0000   0.0000   0.0000   0.5112
  -0.400   0.3617   0.00575   0.00162  -0.0917  0.8085  0.7028  -0.5156   0.0000   0.0000   0.0000   0.5029
  -0.300   0.3713   0.00564   0.00163  -0.0912  0.8035  0.7457  -0.5262   0.0000   0.0000   0.0000   0.4950
  -0.200   0.3805   0.00555   0.00164  -0.0906  0.7985  0.7855  -0.5366   0.0000   0.0000   0.0000   0.4874
  -0.100   0.3893   0.00548   0.00164  -0.0899  0.7932  0.8255  -0.5467   0.0000   0.0000   0.0000   0.4801
   0.000   0.3973   0.00541   0.00165  -0.0889  0.7874  0.8711  -0.5573   0.0000   0.0000   0.0000   0.4730
   0.200   0.4246   0.00523   0.00160  -0.0895  0.7811  0.9761  -0.5877   0.0000   0.0000   0.0000   0.4598
   0.300   0.4399   0.00521   0.00158  -0.0904  0.7767  1.0000  -0.6039   0.0000   0.0000   0.0000   0.4544
   0.400   0.4508   0.00523   0.00158  -0.0903  0.7715  1.0000  -0.6172   0.0000   0.0000   0.0000   0.4491
   0.500   0.4616   0.00525   0.00157  -0.0901  0.7660  1.0000  -0.6329   0.0000   0.0000   0.0000   0.4440
   0.600   0.4724   0.00528   0.00156  -0.0900  0.7603  1.0000  -0.6487   0.0000   0.0000   0.0000   0.4392
   0.700   0.4831   0.00532   0.00155  -0.0898  0.7543  1.0000  -0.6644   0.0000   0.0000   0.0000   0.4345
   0.800   0.4937   0.00537   0.00154  -0.0896  0.7472  1.0000  -0.6801   0.0000   0.0000   0.0000   0.4301
   0.900   0.5046   0.00540   0.00154  -0.0895  0.7415  1.0000  -0.6961   0.0000   0.0000   0.0000   0.4259
   1.000   0.5156   0.00541   0.00155  -0.0894  0.7372  1.0000  -0.7151   0.0000   0.0000   0.0000   0.4219
   1.100   0.5265   0.00543   0.00155  -0.0893  0.7318  1.0000  -0.7343   0.0000   0.0000   0.0000   0.4180
   1.200   0.5374   0.00546   0.00155  -0.0892  0.7259  1.0000  -0.7536   0.0000   0.0000   0.0000   0.4143
   1.300   0.5481   0.00549   0.00156  -0.0891  0.7194  1.0000  -0.7730   0.0000   0.0000   0.0000   0.4107
   1.400   0.5587   0.00554   0.00155  -0.0889  0.7118  1.0000  -0.7922   0.0000   0.0000   0.0000   0.4072
   1.500   0.5691   0.00560   0.00155  -0.0887  0.7027  1.0000  -0.8113   0.0000   0.0000   0.0000   0.4038
   1.600   0.5798   0.00565   0.00157  -0.0885  0.6955  1.0000  -0.8309   0.0000   0.0000   0.0000   0.4006
   1.700   0.5907   0.00567   0.00158  -0.0884  0.6896  1.0000  -0.8507   0.0000   0.0000   0.0000   0.3976
   1.800   0.6015   0.00570   0.00159  -0.0883  0.6818  1.0000  -0.8706   0.0000   0.0000   0.0000   0.3946
   1.900   0.6121   0.00575   0.00160  -0.0881  0.6727  1.0000  -0.8903   0.0000   0.0000   0.0000   0.3917
   2.000   0.6223   0.00583   0.00161  -0.0879  0.6619  1.0000  -0.9097   0.0000   0.0000   0.0000   0.3888
   2.100   0.6324   0.00592   0.00163  -0.0876  0.6502  1.0000  -0.9291   0.0000   0.0000   0.0000   0.3861
   2.200   0.6433   0.00595   0.00165  -0.0875  0.6436  1.0000  -0.9495   0.0000   0.0000   0.0000   0.3835
   2.300   0.6541   0.00599   0.00167  -0.0874  0.6353  1.0000  -0.9710   0.0000   0.0000   0.0000   0.3810
   2.400   0.6647   0.00605   0.00170  -0.0873  0.6258  1.0000  -0.9955   0.0000   0.0000   0.0000   0.3786
   2.500   0.6749   0.00613   0.00172  -0.0870  0.6152  1.0000  -1.0197   0.0000   0.0000   0.0000   0.3762
   2.600   0.6848   0.00623   0.00175  -0.0867  0.6031  1.0000  -1.0438   0.0000   0.0000   0.0000   0.3738
   2.700   0.6957   0.00628   0.00178  -0.0867  0.5962  1.0000  -1.0691   0.0000   0.0000   0.0000   0.3716
   2.800   0.7064   0.00633   0.00186  -0.0865  0.5868  1.0000  -1.0960   0.0000   0.0000   0.0000   0.3695
   2.900   0.7167   0.00642   0.00190  -0.0863  0.5751  1.0000  -1.1213   0.0000   0.0000   0.0000   0.3674
   3.000   0.7265   0.00653   0.00193  -0.0860  0.5617  1.0000  -1.1457   0.0000   0.0000   0.0000   0.3653
   3.100   0.7367   0.00663   0.00198  -0.0858  0.5500  1.0000  -1.1707   0.0000   0.0000   0.0000   0.3633
   3.200   0.7473   0.00669   0.00202  -0.0857  0.5391  1.0000  -1.1962   0.0000   0.0000   0.0000   0.3613
   3.300   0.7572   0.00681   0.00206  -0.0854  0.5233  1.0000  -1.2211   0.0000   0.0000   0.0000   0.3594
   3.400   0.7663   0.00699   0.00212  -0.0851  0.5036  1.0000  -1.2451   0.0000   0.0000   0.0000   0.3575
   3.500   0.7768   0.00707   0.00217  -0.0849  0.4914  1.0000  -1.2709   0.0000   0.0000   0.0000   0.3557
   3.600   0.7866   0.00720   0.00223  -0.0847  0.4745  1.0000  -1.3020   0.0000   0.0000   0.0000   0.3539
   3.700   0.7959   0.00738   0.00231  -0.0843  0.4559  1.0000  -1.3328   0.0000   0.0000   0.0000   0.3522
   3.800   0.8063   0.00747   0.00236  -0.0842  0.4449  1.0000  -1.3656   0.0000   0.0000   0.0000   0.3505
   3.900   0.8164   0.00759   0.00243  -0.0840  0.4305  1.0000  -1.3981   0.0000   0.0000   0.0000   0.3489
   4.000   0.8257   0.00778   0.00251  -0.0837  0.4127  1.0000  -1.4357   0.0000   0.0000   0.0000   0.3473
   4.100   0.8358   0.00790   0.00259  -0.0835  0.3993  1.0000  -1.4778   0.0000   0.0000   0.0000   0.3458
   4.200   0.8458   0.00803   0.00266  -0.0833  0.3858  1.0000  -1.5203   0.0000   0.0000   0.0000   0.3443
   4.300   0.8551   0.00822   0.00276  -0.0830  0.3677  1.0000  -1.5614   0.0000   0.0000   0.0000   0.3427
   4.400   0.8649   0.00838   0.00285  -0.0828  0.3519  1.0000  -1.6039   0.0000   0.0000   0.0000   0.3413
   4.500   0.8747   0.00853   0.00293  -0.0826  0.3371  1.0000  -1.6469   0.0000   0.0000   0.0000   0.3399
   4.600   0.8838   0.00876   0.00304  -0.0823  0.3177  1.0000  -1.6885   0.0000   0.0000   0.0000   0.3385
   4.700   0.8938   0.00890   0.00314  -0.0821  0.3042  1.0000  -1.7323   0.0000   0.0000   0.0000   0.3371
   4.800   0.9036   0.00905   0.00323  -0.0819  0.2914  1.0000  -1.7763   0.0000   0.0000   0.0000   0.3358
   4.900   0.9130   0.00925   0.00334  -0.0816  0.2765  1.0000  -1.8194   0.0000   0.0000   0.0000   0.3345
   5.000   0.9229   0.00940   0.00345  -0.0814  0.2636  1.0000  -1.8639   0.0000   0.0000   0.0000   0.3332
   5.100   0.9330   0.00953   0.00354  -0.0813  0.2548  1.0000  -1.9094   0.0000   0.0000   0.0000   0.3320
   5.200   0.9426   0.00970   0.00365  -0.0810  0.2434  1.0000  -1.9541   0.0000   0.0000   0.0000   0.3308
   5.300   0.9520   0.00991   0.00377  -0.0808  0.2294  1.0000  -1.9984   0.0000   0.0000   0.0000   0.3296
   5.400   0.9621   0.01004   0.00388  -0.0806  0.2202  1.0000  -2.0447   0.0000   0.0000   0.0000   0.3284
   5.500   0.9719   0.01019   0.00399  -0.0804  0.2107  1.0000  -2.0909   0.0000   0.0000   0.0000   0.3272
   5.600   0.9811   0.01041   0.00412  -0.0802  0.1979  1.0000  -2.1360   0.0000   0.0000   0.0000   0.3261
   5.700   0.9905   0.01061   0.00426  -0.0799  0.1839  1.0000  -2.1977   0.0000   0.0000   0.0000   0.3250
   5.800   1.0007   0.01073   0.00436  -0.0798  0.1782  1.0000  -2.2625   0.0000   0.0000   0.0000   0.3239
   5.900   1.0104   0.01089   0.00448  -0.0796  0.1707  1.0000  -2.3266   0.0000   0.0000   0.0000   0.3228
   6.000   1.0197   0.01110   0.00461  -0.0793  0.1615  1.0000  -2.3899   0.0000   0.0000   0.0000   0.3217
   6.100   1.0291   0.01130   0.00477  -0.0790  0.1499  1.0000  -2.4534   0.0000   0.0000   0.0000   0.3207
   6.200   1.0392   0.01142   0.00488  -0.0789  0.1457  1.0000  -2.5207   0.0000   0.0000   0.0000   0.3197
   6.300   1.0492   0.01155   0.00500  -0.0787  0.1407  1.0000  -2.5880   0.0000   0.0000   0.0000   0.3187
   6.400   1.0592   0.01168   0.00530  -0.0785  0.1375  1.0000  -2.6708   0.0000   0.0000   0.0000   0.3177
   6.500   1.0686   0.01187   0.00545  -0.0783  0.1315  1.0000  -2.7401   0.0000   0.0000   0.0000   0.3167
   6.600   1.0779   0.01208   0.00560  -0.0780  0.1241  1.0000  -2.8082   0.0000   0.0000   0.0000   0.3157
   6.700   1.0871   0.01230   0.00580  -0.0777  0.1158  1.0000  -2.8750   0.0000   0.0000   0.0000   0.3147
   6.800   1.0973   0.01238   0.00592  -0.0776  0.1143  1.0000  -2.9478   0.0000   0.0000   0.0000   0.3138
   6.900   1.1074   0.01249   0.00604  -0.0774  0.1121  1.0000  -3.0202   0.0000   0.0000   0.0000   0.3129
   7.000   1.1173   0.01263   0.00618  -0.0773  0.1089  1.0000  -3.0921   0.0000   0.0000   0.0000   0.3119
   7.100   1.1268   0.01280   0.00633  -0.0770  0.1046  1.0000  -3.1631   0.0000   0.0000   0.0000   0.3110
   7.200   1.1358   0.01301   0.00649  -0.0768  0.0992  1.0000  -3.2330   0.0000   0.0000   0.0000   0.3101
   7.300   1.1448   0.01326   0.00668  -0.0764  0.0918  1.0000  -3.3016   0.0000   0.0000   0.0000   0.3092
   7.400   1.1538   0.01348   0.00690  -0.0761  0.0863  1.0000  -3.3764   0.0000   0.0000   0.0000   0.3083
   7.500   1.1640   0.01356   0.00701  -0.0760  0.0851  1.0000  -3.4853   0.0000   0.0000   0.0000   0.3075
   7.600   1.1739   0.01367   0.00714  -0.0758  0.0829  1.0000  -3.5935   0.0000   0.0000   0.0000   0.3066
   7.700   1.1835   0.01383   0.00729  -0.0756  0.0795  1.0000  -3.7007   0.0000   0.0000   0.0000   0.3058
   7.800   1.1925   0.01403   0.00746  -0.0753  0.0751  1.0000  -3.8063   0.0000   0.0000   0.0000   0.3050
   7.900   1.2010   0.01430   0.00765  -0.0750  0.0693  1.0000  -3.9093   0.0000   0.0000   0.0000   0.3041
   8.000   1.2090   0.01464   0.00796  -0.0745  0.0617  1.0000  -4.0061   0.0000   0.0000   0.0000   0.3032
   8.100   1.2191   0.01471   0.00806  -0.0744  0.0607  1.0000  -4.1228   0.0000   0.0000   0.0000   0.3024
   8.200   1.2288   0.01483   0.00819  -0.0742  0.0588  1.0000  -4.2376   0.0000   0.0000   0.0000   0.3017
   8.300   1.2380   0.01501   0.00836  -0.0740  0.0561  1.0000  -4.3499   0.0000   0.0000   0.0000   0.3009
   8.400   1.2468   0.01524   0.00856  -0.0737  0.0528  1.0000  -4.4601   0.0000   0.0000   0.0000   0.3001
   8.500   1.2551   0.01551   0.00878  -0.0733  0.0491  1.0000  -4.5677   0.0000   0.0000   0.0000   0.2993
   8.600   1.2628   0.01586   0.00911  -0.0728  0.0439  1.0000  -4.6675   0.0000   0.0000   0.0000   0.2984
   8.700   1.2706   0.01620   0.00947  -0.0722  0.0408  1.0000  -4.7669   0.0000   0.0000   0.0000   0.2975
   8.800   1.2801   0.01632   0.00962  -0.0720  0.0402  1.0000  -4.8872   0.0000   0.0000   0.0000   0.2967
   8.900   1.2894   0.01647   0.00978  -0.0718  0.0395  1.0000  -5.0067   0.0000   0.0000   0.0000   0.2960
   9.000   1.2985   0.01663   0.00997  -0.0715  0.0385  1.0000  -5.1253   0.0000   0.0000   0.0000   0.2953
   9.100   1.3074   0.01681   0.01018  -0.0712  0.0372  1.0000  -5.2431   0.0000   0.0000   0.0000   0.2945
   9.200   1.3161   0.01703   0.01040  -0.0709  0.0358  1.0000  -5.3598   0.0000   0.0000   0.0000   0.2938
   9.300   1.3244   0.01726   0.01063  -0.0705  0.0343  1.0000  -5.4754   0.0000   0.0000   0.0000   0.2930
   9.400   1.3324   0.01753   0.01089  -0.0701  0.0325  1.0000  -5.5892   0.0000   0.0000   0.0000   0.2922
   9.500   1.3396   0.01790   0.01132  -0.0695  0.0301  1.0000  -5.6999   0.0000   0.0000   0.0000   0.2914
   9.600   1.3402   0.01898   0.01250  -0.0678  0.0244  1.0000  -5.7219   0.0000   0.0000   0.0000   0.2900
   9.700   1.3495   0.01908   0.01262  -0.0676  0.0241  1.0000  -5.8518   0.0000   0.0000   0.0000   0.2893
   9.800   1.3586   0.01921   0.01276  -0.0674  0.0238  1.0000  -5.9796   0.0000   0.0000   0.0000   0.2886
   9.900   1.3673   0.01937   0.01294  -0.0671  0.0234  1.0000  -6.1042   0.0000   0.0000   0.0000   0.2880
  10.000   1.3756   0.01957   0.01316  -0.0667  0.0229  1.0000  -6.2251   0.0000   0.0000   0.0000   0.2872
  10.100   1.3836   0.01981   0.01343  -0.0663  0.0223  1.0000  -6.3421   0.0000   0.0000   0.0000   0.2865
  10.200   1.3912   0.02007   0.01373  -0.0658  0.0217  1.0000  -6.4566   0.0000   0.0000   0.0000   0.2857
  10.300   1.3985   0.02035   0.01404  -0.0653  0.0210  1.0000  -6.5699   0.0000   0.0000   0.0000   0.2850
  10.400   1.4057   0.02063   0.01436  -0.0648  0.0205  1.0000  -6.6891   0.0000   0.0000   0.0000   0.2842
  10.500   1.4128   0.02092   0.01468  -0.0642  0.0199  1.0000  -6.8182   0.0000   0.0000   0.0000   0.2834
  10.600   1.4198   0.02121   0.01499  -0.0637  0.0193  1.0000  -6.9479   0.0000   0.0000   0.0000   0.2827
  10.700   1.4266   0.02151   0.01531  -0.0631  0.0187  1.0000  -7.0774   0.0000   0.0000   0.0000   0.2819
  10.800   1.4332   0.02181   0.01564  -0.0625  0.0181  1.0000  -7.2066   0.0000   0.0000   0.0000   0.2812
  10.900   1.4396   0.02212   0.01596  -0.0619  0.0175  1.0000  -7.3350   0.0000   0.0000   0.0000   0.2804
  11.000   1.4454   0.02246   0.01631  -0.0612  0.0168  1.0000  -7.4581   0.0000   0.0000   0.0000   0.2796
  11.100   1.4501   0.02285   0.01672  -0.0603  0.0160  1.0000  -7.5692   0.0000   0.0000   0.0000   0.2787
  11.200   1.4528   0.02337   0.01728  -0.0591  0.0149  1.0000  -7.6558   0.0000   0.0000   0.0000   0.2776
  11.300   1.4483   0.02443   0.01845  -0.0569  0.0133  1.0000  -7.6535   0.0000   0.0000   0.0000   0.2761
  11.400   1.4406   0.02577   0.01994  -0.0544  0.0120  1.0000  -7.6140   0.0000   0.0000   0.0000   0.2744
  11.500   1.4505   0.02568   0.01983  -0.0543  0.0118  1.0000  -7.7908   0.0000   0.0000   0.0000   0.2739
  11.600   1.4595   0.02567   0.01981  -0.0541  0.0116  1.0000  -7.9571   0.0000   0.0000   0.0000   0.2734
  11.700   1.4670   0.02580   0.01994  -0.0537  0.0113  1.0000  -8.1044   0.0000   0.0000   0.0000   0.2727
  11.800   1.4725   0.02608   0.02025  -0.0530  0.0110  1.0000  -8.2271   0.0000   0.0000   0.0000   0.2720
  11.900   1.4762   0.02650   0.02072  -0.0521  0.0107  1.0000  -8.3268   0.0000   0.0000   0.0000   0.2711
  12.000   1.4785   0.02704   0.02131  -0.0511  0.0104  1.0000  -8.4103   0.0000   0.0000   0.0000   0.2702
  12.100   1.4799   0.02765   0.02199  -0.0499  0.0101  1.0000  -8.4836   0.0000   0.0000   0.0000   0.2693
  12.200   1.4806   0.02831   0.02272  -0.0488  0.0099  1.0000  -8.5502   0.0000   0.0000   0.0000   0.2683
  12.300   1.4809   0.02904   0.02352  -0.0476  0.0097  1.0000  -8.6125   0.0000   0.0000   0.0000   0.2674
  12.400   1.4809   0.02981   0.02437  -0.0465  0.0096  1.0000  -8.6717   0.0000   0.0000   0.0000   0.2664
  12.500   1.4804   0.03063   0.02527  -0.0454  0.0095  1.0000  -8.7266   0.0000   0.0000   0.0000   0.2655
  12.600   1.4798   0.03149   0.02621  -0.0443  0.0094  1.0000  -8.7795   0.0000   0.0000   0.0000   0.2647
  12.700   1.4789   0.03240   0.02720  -0.0433  0.0093  1.0000  -8.8300   0.0000   0.0000   0.0000   0.2638
  12.800   1.4773   0.03335   0.02823  -0.0423  0.0092  1.0000  -8.8746   0.0000   0.0000   0.0000   0.2630
  12.900   1.4756   0.03433   0.02930  -0.0413  0.0092  1.0000  -8.9180   0.0000   0.0000   0.0000   0.2622
  13.000   1.4739   0.03535   0.03040  -0.0404  0.0091  1.0000  -8.9620   0.0000   0.0000   0.0000   0.2614
  13.100   1.4718   0.03642   0.03156  -0.0395  0.0091  1.0000  -9.0027   0.0000   0.0000   0.0000   0.2607
  13.200   1.4698   0.03754   0.03275  -0.0388  0.0090  1.0000  -9.0436   0.0000   0.0000   0.0000   0.2601
  13.300   1.4679   0.03868   0.03397  -0.0381  0.0090  1.0000  -9.0856   0.0000   0.0000   0.0000   0.2594
  13.400   1.4656   0.03988   0.03525  -0.0374  0.0089  1.0000  -9.1241   0.0000   0.0000   0.0000   0.2589
  13.500   1.4629   0.04112   0.03658  -0.0369  0.0089  1.0000  -9.1604   0.0000   0.0000   0.0000   0.2584
  13.600   1.4605   0.04239   0.03792  -0.0364  0.0088  1.0000  -9.1984   0.0000   0.0000   0.0000   0.2579
  13.700   1.4580   0.04369   0.03930  -0.0360  0.0088  1.0000  -9.2352   0.0000   0.0000   0.0000   0.2575
  13.800   1.4547   0.04508   0.04077  -0.0356  0.0087  1.0000  -9.2654   0.0000   0.0000   0.0000   0.2571
  13.900   1.4515   0.04649   0.04226  -0.0354  0.0087  1.0000  -9.2970   0.0000   0.0000   0.0000   0.2568
  14.000   1.4486   0.04791   0.04375  -0.0352  0.0086  1.0000  -9.3294   0.0000   0.0000   0.0000   0.2565
  14.100   1.4447   0.04944   0.04537  -0.0351  0.0086  1.0000  -9.3540   0.0000   0.0000   0.0000   0.2563
  14.200   1.4407   0.05104   0.04703  -0.0351  0.0086  1.0000  -9.3759   0.0000   0.0000   0.0000   0.2562
  14.300   1.4366   0.05260   0.04868  -0.0351  0.0085  1.0000  -9.3975   0.0000   0.0000   0.0000   0.2560
  14.400   1.4319   0.05427   0.05042  -0.0352  0.0085  1.0000  -9.4129   0.0000   0.0000   0.0000   0.2560
  14.500   1.4266   0.05609   0.05231  -0.0354  0.0084  1.0000  -9.4210   0.0000   0.0000   0.0000   0.2561
  14.600   1.4220   0.05791   0.05420  -0.0357  0.0084  1.0000  -9.4337   0.0000   0.0000   0.0000   0.2562
  14.700   1.4172   0.05981   0.05618  -0.0361  0.0084  1.0000  -9.4435   0.0000   0.0000   0.0000   0.2564
  14.800   1.4112   0.06196   0.05841  -0.0368  0.0084  1.0000  -9.4400   0.0000   0.0000   0.0000   0.2567
  14.900   1.4059   0.06408   0.06060  -0.0374  0.0083  1.0000  -9.4411   0.0000   0.0000   0.0000   0.2571
  15.000   1.4005   0.06627   0.06287  -0.0382  0.0083  1.0000  -9.4395   0.0000   0.0000   0.0000   0.2575
  15.100   1.3938   0.06878   0.06545  -0.0392  0.0083  1.0000  -9.4211   0.0000   0.0000   0.0000   0.2582
  15.200   1.3877   0.07122   0.06797  -0.0402  0.0083  1.0000  -9.4081   0.0000   0.0000   0.0000   0.2588
  15.300   1.3813   0.07379   0.07061  -0.0414  0.0083  1.0000  -9.3893   0.0000   0.0000   0.0000   0.2596
  15.400   1.3737   0.07667   0.07356  -0.0428  0.0083  1.0000  -9.3536   0.0000   0.0000   0.0000   0.2606
  15.500   1.3669   0.07943   0.07641  -0.0442  0.0082  1.0000  -9.3246   0.0000   0.0000   0.0000   0.2615
  15.600   1.3591   0.08249   0.07954  -0.0458  0.0083  1.0000  -9.2801   0.0000   0.0000   0.0000   0.2627
  15.700   1.3508   0.08567   0.08280  -0.0476  0.0083  1.0000  -9.2278   0.0000   0.0000   0.0000   0.2641
  15.800   1.3431   0.08878   0.08598  -0.0493  0.0083  1.0000  -9.1793   0.0000   0.0000   0.0000   0.2653
  15.900   1.3334   0.09243   0.08971  -0.0515  0.0083  1.0000  -9.1011   0.0000   0.0000   0.0000   0.2671
  16.000   1.3248   0.09586   0.09321  -0.0535  0.0083  1.0000  -9.0325   0.0000   0.0000   0.0000   0.2687
  16.100   1.3147   0.09969   0.09712  -0.0559  0.0084  1.0000  -8.9401   0.0000   0.0000   0.0000   0.2706
  16.200   1.3045   0.10357   0.10108  -0.0583  0.0084  1.0000  -8.8427   0.0000   0.0000   0.0000   0.2727
  16.300   1.2941   0.10757   0.10515  -0.0608  0.0084  1.0000  -8.7353   0.0000   0.0000   0.0000   0.2748
  16.400   1.2820   0.11204   0.10969  -0.0637  0.0085  1.0000  -8.5984   0.0000   0.0000   0.0000   0.2774
  16.500   1.2706   0.11633   0.11406  -0.0665  0.0086  1.0000  -8.4660   0.0000   0.0000   0.0000   0.2799
  16.600   1.2563   0.12148   0.11929  -0.0699  0.0087  1.0000  -8.2800   0.0000   0.0000   0.0000   0.2832
  16.700   1.2428   0.12612   0.12400  -0.0731  0.0088  1.0000  -8.1007   0.0000   0.0000   0.0000   0.2863
  16.800   1.2263   0.13164   0.12960  -0.0770  0.0089  1.0000  -7.8606   0.0000   0.0000   0.0000   0.2902
  16.900   1.2085   0.13780   0.13583  -0.0811  0.0091  1.0000  -7.5838   0.0000   0.0000   0.0000   0.2945
  17.000   1.1906   0.14429   0.14238  -0.0853  0.0093  1.0000  -7.2915   0.0000   0.0000   0.0000   0.2991
  17.100   1.1658   0.15327   0.15143  -0.0908  0.0095  1.0000  -6.8490   0.0000   0.0000   0.0000   0.3056
  17.200   1.1346   0.16496   0.16318  -0.0975  0.0098  1.0000  -6.2384   0.0000   0.0000   0.0000   0.3140
  17.300   1.0681   0.19114   0.18936  -0.1098  0.0103  1.0000  -4.6579   0.0000   0.0000   0.0000   0.3324
  17.400   1.0497   0.20153   0.19973  -0.1140  0.0105  1.0000  -4.1099   0.0000   0.0000   0.0000   0.3386
  17.500   1.0416   0.20792   0.20610  -0.1165  0.0107  1.0000  -3.8345   0.0000   0.0000   0.0000   0.3419
  17.600   1.0360   0.21332   0.21149  -0.1185  0.0109  1.0000  -3.6273   0.0000   0.0000   0.0000   0.3445
  17.700   1.0314   0.21834   0.21651  -0.1203  0.0111  1.0000  -3.4474   0.0000   0.0000   0.0000   0.3468
  17.800   1.0264   0.22364   0.22180  -0.1221  0.0114  1.0000  -3.2540   0.0000   0.0000   0.0000   0.3492
  17.900   1.0137   0.23791   0.23600  -0.1257  0.0179  1.0000  -2.4786   0.0000   0.0000   0.0000   0.3550
  18.000   1.0148   0.24021   0.23830  -0.1266  0.0176  1.0000  -2.4761   0.0000   0.0000   0.0000   0.3556
  18.100   1.0164   0.24218   0.24028  -0.1274  0.0171  1.0000  -2.4927   0.0000   0.0000   0.0000   0.3561
  18.200   1.0186   0.24372   0.24182  -0.1281  0.0164  1.0000  -2.5347   0.0000   0.0000   0.0000   0.3562
  18.300   1.0221   0.24440   0.24251  -0.1284  0.0156  1.0000  -2.6269   0.0000   0.0000   0.0000   0.3559
  19.000   1.0285   0.25794   0.25611  -0.1338  0.0113  1.0000  -2.8307   0.0000   0.0000   0.0000   0.3590
  19.600   1.0228   0.27794   0.27614  -0.1387  0.0119  1.0000  -2.4800   0.0000   0.0000   0.0000   0.3640
  19.700   1.0232   0.28043   0.27863  -0.1395  0.0119  1.0000  -2.4618   0.0000   0.0000   0.0000   0.3645
  19.800   1.0235   0.28289   0.28110  -0.1402  0.0119  1.0000  -2.4437   0.0000   0.0000   0.0000   0.3651
  19.900   1.0239   0.28530   0.28351  -0.1410  0.0118  1.0000  -2.4266   0.0000   0.0000   0.0000   0.3656
  20.000   1.0245   0.28754   0.28575  -0.1417  0.0117  1.0000  -2.4161   0.0000   0.0000   0.0000   0.3661
  20.100   1.0304   0.28742   0.28564  -0.1425  0.0111  1.0000  -2.5303   0.0000   0.0000   0.0000   0.3658
  20.200   1.0304   0.28996   0.28818  -0.1432  0.0110  1.0000  -2.5024   0.0000   0.0000   0.0000   0.3664
  20.300   1.0300   0.29256   0.29079  -0.1439  0.0109  1.0000  -2.4686   0.0000   0.0000   0.0000   0.3669
  20.400   1.0293   0.29522   0.29345  -0.1445  0.0109  1.0000  -2.4290   0.0000   0.0000   0.0000   0.3676
  20.500   1.0281   0.29796   0.29620  -0.1451  0.0109  1.0000  -2.3825   0.0000   0.0000   0.0000   0.3682
  20.600   1.0193   0.30310   0.30134  -0.1454  0.0117  1.0000  -2.2052   0.0000   0.0000   0.0000   0.3697
  20.700   1.0170   0.30569   0.30393  -0.1458  0.0117  1.0000  -2.1607   0.0000   0.0000   0.0000   0.3703
  20.800   1.0144   0.30811   0.30636  -0.1462  0.0117  1.0000  -2.1196   0.0000   0.0000   0.0000   0.3710
  20.900   1.0113   0.31035   0.30862  -0.1465  0.0117  1.0000  -2.0798   0.0000   0.0000   0.0000   0.3717
  21.000   1.0073   0.31237   0.31064  -0.1468  0.0117  1.0000  -2.0402   0.0000   0.0000   0.0000   0.3724
  21.100   0.9511   0.30262   0.30098  -0.1410  0.0118  1.0000  -1.8687   0.0000   0.0000   0.0000   0.3755
  21.200   0.9428   0.30233   0.30071  -0.1406  0.0118  1.0000  -1.8228   0.0000   0.0000   0.0000   0.3764
  21.300   0.9364   0.30236   0.30075  -0.1404  0.0118  1.0000  -1.7828   0.0000   0.0000   0.0000   0.3771
  21.400   0.9310   0.30255   0.30095  -0.1403  0.0118  1.0000  -1.7466   0.0000   0.0000   0.0000   0.3778
  21.500   0.9263   0.30285   0.30126  -0.1403  0.0118  1.0000  -1.7131   0.0000   0.0000   0.0000   0.3785
  21.600   0.9221   0.30320   0.30162  -0.1403  0.0118  1.0000  -1.6820   0.0000   0.0000   0.0000   0.3791
  21.700   0.9184   0.30361   0.30204  -0.1404  0.0118  1.0000  -1.6528   0.0000   0.0000   0.0000   0.3797
  21.800   0.9150   0.30407   0.30250  -0.1405  0.0118  1.0000  -1.6253   0.0000   0.0000   0.0000   0.3803
  21.900   0.9119   0.30455   0.30300  -0.1406  0.0118  1.0000  -1.5994   0.0000   0.0000   0.0000   0.3809
  22.000   0.9091   0.30506   0.30352  -0.1407  0.0118  1.0000  -1.5747   0.0000   0.0000   0.0000   0.3814
  22.100   0.9064   0.30560   0.30406  -0.1409  0.0117  1.0000  -1.5513   0.0000   0.0000   0.0000   0.3820
  22.200   0.9040   0.30615   0.30462  -0.1411  0.0117  1.0000  -1.5289   0.0000   0.0000   0.0000   0.3825
  22.300   0.9017   0.30672   0.30519  -0.1413  0.0117  1.0000  -1.5076   0.0000   0.0000   0.0000   0.3830
  22.400   0.8996   0.30730   0.30578  -0.1415  0.0117  1.0000  -1.4871   0.0000   0.0000   0.0000   0.3835
  22.500   0.8976   0.30789   0.30638  -0.1417  0.0117  1.0000  -1.4675   0.0000   0.0000   0.0000   0.3839
  22.600   0.8958   0.30850   0.30699  -0.1419  0.0117  1.0000  -1.4487   0.0000   0.0000   0.0000   0.3844
  22.700   0.8940   0.30911   0.30761  -0.1422  0.0117  1.0000  -1.4306   0.0000   0.0000   0.0000   0.3849
  22.800   0.8924   0.30973   0.30824  -0.1424  0.0117  1.0000  -1.4132   0.0000   0.0000   0.0000   0.3853
  22.900   0.8908   0.31036   0.30887  -0.1427  0.0117  1.0000  -1.3964   0.0000   0.0000   0.0000   0.3858
  23.000   0.8894   0.31099   0.30951  -0.1429  0.0117  1.0000  -1.3802   0.0000   0.0000   0.0000   0.3862
  23.100   0.8880   0.31163   0.31016  -0.1432  0.0117  1.0000  -1.3646   0.0000   0.0000   0.0000   0.3866
  23.200   0.8867   0.31228   0.31081  -0.1435  0.0117  1.0000  -1.3493   0.0000   0.0000   0.0000   0.3870
  23.300   0.8855   0.31293   0.31146  -0.1438  0.0117  1.0000  -1.3343   0.0000   0.0000   0.0000   0.3875
  23.400   0.8843   0.31358   0.31213  -0.1441  0.0117  1.0000  -1.3199   0.0000   0.0000   0.0000   0.3879
  23.500   0.8832   0.31424   0.31279  -0.1444  0.0116  1.0000  -1.3059   0.0000   0.0000   0.0000   0.3883
  23.600   0.8821   0.31491   0.31346  -0.1447  0.0116  1.0000  -1.2924   0.0000   0.0000   0.0000   0.3887
  23.700   0.8811   0.31557   0.31413  -0.1450  0.0116  1.0000  -1.2793   0.0000   0.0000   0.0000   0.3891
  23.800   0.8802   0.31624   0.31481  -0.1453  0.0116  1.0000  -1.2666   0.0000   0.0000   0.0000   0.3895
  23.900   0.8793   0.31691   0.31548  -0.1456  0.0116  1.0000  -1.2543   0.0000   0.0000   0.0000   0.3899
  24.000   0.8784   0.31759   0.31616  -0.1459  0.0116  1.0000  -1.2424   0.0000   0.0000   0.0000   0.3902
  24.100   0.8776   0.31827   0.31685  -0.1463  0.0116  1.0000  -1.2308   0.0000   0.0000   0.0000   0.3906
  24.200   0.8769   0.31895   0.31753  -0.1466  0.0116  1.0000  -1.2196   0.0000   0.0000   0.0000   0.3910
  24.300   0.8761   0.31963   0.31822  -0.1469  0.0115  1.0000  -1.2088   0.0000   0.0000   0.0000   0.3914
  24.400   0.8755   0.32031   0.31891  -0.1473  0.0115  1.0000  -1.1981   0.0000   0.0000   0.0000   0.3917
  24.500   0.8748   0.32101   0.31961  -0.1476  0.0115  1.0000  -1.1867   0.0000   0.0000   0.0000   0.3921
  24.600   0.8742   0.32171   0.32032  -0.1480  0.0115  1.0000  -1.1757   0.0000   0.0000   0.0000   0.3925
  24.700   0.8736   0.32241   0.32102  -0.1484  0.0115  1.0000  -1.1651   0.0000   0.0000   0.0000   0.3929
  24.800   0.8731   0.32312   0.32174  -0.1488  0.0114  1.0000  -1.1549   0.0000   0.0000   0.0000   0.3933
  24.900   0.8727   0.32384   0.32246  -0.1492  0.0114  1.0000  -1.1451   0.0000   0.0000   0.0000   0.3936
  25.000   0.8724   0.32456   0.32319  -0.1496  0.0113  1.0000  -1.1358   0.0000   0.0000   0.0000   0.3940
  25.100   0.8723   0.32531   0.32394  -0.1500  0.0112  1.0000  -1.1268   0.0000   0.0000   0.0000   0.3944
  25.200   0.8723   0.32608   0.32472  -0.1505  0.0111  1.0000  -1.1181   0.0000   0.0000   0.0000   0.3948


