xflr5 v6.61

 Calculated polar for: S4110

 1 1 Reynolds number fixed          Mach number fixed         

 xtrf =   1.000 (top)        1.000 (bottom)
 Mach =   0.000     Re =     0.688 e 6     Ncrit =   9.000

  alpha     CL        CD       CDp       Cm    Top Xtr Bot Xtr   Cpmin    Chinge    XCp    
 ------- -------- --------- --------- -------- ------- ------- -------- --------- ---------
 -10.000  -0.3766   0.11205   0.10989  -0.0257  1.0000  0.0188  -1.5076   0.0000   0.0000   0.0000   0.1753
  -9.900  -0.3747   0.11076   0.10860  -0.0261  1.0000  0.0188  -1.5134   0.0000   0.0000   0.0000   0.1739
  -9.800  -0.3729   0.10946   0.10732  -0.0266  1.0000  0.0188  -1.5195   0.0000   0.0000   0.0000   0.1725
  -9.700  -0.3711   0.10817   0.10603  -0.0270  1.0000  0.0188  -1.5259   0.0000   0.0000   0.0000   0.1711
  -9.600  -0.3694   0.10688   0.10474  -0.0274  1.0000  0.0189  -1.5326   0.0000   0.0000   0.0000   0.1697
  -9.500  -0.3678   0.10559   0.10346  -0.0278  1.0000  0.0189  -1.5395   0.0000   0.0000   0.0000   0.1683
  -9.400  -0.3662   0.10430   0.10218  -0.0282  1.0000  0.0189  -1.5467   0.0000   0.0000   0.0000   0.1669
  -9.300  -0.3648   0.10302   0.10091  -0.0286  1.0000  0.0189  -1.5542   0.0000   0.0000   0.0000   0.1656
  -9.200  -0.3634   0.10175   0.09964  -0.0290  1.0000  0.0189  -1.5621   0.0000   0.0000   0.0000   0.1644
  -9.100  -0.3621   0.10048   0.09838  -0.0294  1.0000  0.0189  -1.5702   0.0000   0.0000   0.0000   0.1631
  -9.000  -0.3610   0.09922   0.09712  -0.0297  1.0000  0.0189  -1.5787   0.0000   0.0000   0.0000   0.1619
  -8.900  -0.3599   0.09796   0.09587  -0.0301  1.0000  0.0189  -1.5876   0.0000   0.0000   0.0000   0.1608
  -8.800  -0.3588   0.09669   0.09461  -0.0304  1.0000  0.0189  -1.5967   0.0000   0.0000   0.0000   0.1596
  -8.700  -0.3578   0.09541   0.09334  -0.0308  1.0000  0.0189  -1.6061   0.0000   0.0000   0.0000   0.1585
  -8.600  -0.3569   0.09414   0.09208  -0.0311  1.0000  0.0190  -1.6159   0.0000   0.0000   0.0000   0.1574
  -8.500  -0.3561   0.09287   0.09082  -0.0314  1.0000  0.0190  -1.6261   0.0000   0.0000   0.0000   0.1564
  -8.400  -0.3555   0.09162   0.08958  -0.0317  1.0000  0.0190  -1.6367   0.0000   0.0000   0.0000   0.1555
  -8.300  -0.3552   0.09037   0.08834  -0.0320  1.0000  0.0190  -1.6477   0.0000   0.0000   0.0000   0.1547
  -8.200  -0.3550   0.08915   0.08713  -0.0322  1.0000  0.0190  -1.6593   0.0000   0.0000   0.0000   0.1542
  -8.100  -0.3552   0.08795   0.08594  -0.0324  1.0000  0.0190  -1.6713   0.0000   0.0000   0.0000   0.1538
  -8.000  -0.3557   0.08677   0.08478  -0.0325  1.0000  0.0190  -1.6838   0.0000   0.0000   0.0000   0.1538
  -7.900  -0.3566   0.08563   0.08365  -0.0325  1.0000  0.0190  -1.6969   0.0000   0.0000   0.0000   0.1541
  -7.800  -0.3581   0.08453   0.08256  -0.0324  1.0000  0.0190  -1.7105   0.0000   0.0000   0.0000   0.1549
  -7.700  -0.3603   0.08350   0.08155  -0.0321  1.0000  0.0190  -1.7248   0.0000   0.0000   0.0000   0.1563
  -7.600  -0.3636   0.08257   0.08064  -0.0316  1.0000  0.0190  -1.7396   0.0000   0.0000   0.0000   0.1586
  -7.500  -0.3682   0.08178   0.07988  -0.0307  1.0000  0.0190  -1.7551   0.0000   0.0000   0.0000   0.1622
  -7.400  -0.3748   0.08120   0.07932  -0.0294  1.0000  0.0190  -1.7711   0.0000   0.0000   0.0000   0.1674
  -7.300  -0.3836   0.08086   0.07901  -0.0275  1.0000  0.0190  -1.7877   0.0000   0.0000   0.0000   0.1742
  -7.200  -0.3769   0.07875   0.07690  -0.0305  0.9987  0.0190  -1.8048   0.0000   0.0000   0.0000   0.1652
  -7.100  -0.3661   0.07609   0.07424  -0.0347  0.9973  0.0190  -1.8236   0.0000   0.0000   0.0000   0.1511
  -7.000  -0.3714   0.06183   0.05996  -0.0535  0.9919  0.0204  -2.3747   0.0000   0.0000   0.0000   0.1017
  -6.900  -0.3609   0.05842   0.05652  -0.0588  0.9902  0.0208  -2.4084   0.0000   0.0000   0.0000   0.0828
  -6.800  -0.3493   0.05544   0.05350  -0.0635  0.9889  0.0211  -2.4216   0.0000   0.0000   0.0000   0.0641
  -6.700  -0.3371   0.05270   0.05071  -0.0677  0.9879  0.0214  -2.4246   0.0000   0.0000   0.0000   0.0450
  -6.600  -0.3264   0.05026   0.04824  -0.0710  0.9862  0.0217  -2.4238   0.0000   0.0000   0.0000   0.0282
  -6.500  -0.3168   0.04805   0.04598  -0.0736  0.9836  0.0221  -2.4209   0.0000   0.0000   0.0000   0.0133
  -6.400  -0.3060   0.04611   0.04399  -0.0760  0.9816  0.0224  -2.4015   0.0000   0.0000   0.0000  -0.0029
  -6.300  -0.2945   0.04426   0.04208  -0.0784  0.9799  0.0227  -2.3767   0.0000   0.0000   0.0000  -0.0206
  -6.200  -0.2823   0.04238   0.04015  -0.0807  0.9784  0.0231  -2.3522   0.0000   0.0000   0.0000  -0.0406
  -6.100  -0.2696   0.04049   0.03819  -0.0831  0.9772  0.0235  -2.3286   0.0000   0.0000   0.0000  -0.0629
  -6.000  -0.2565   0.03861   0.03624  -0.0854  0.9761  0.0239  -2.3059   0.0000   0.0000   0.0000  -0.0879
  -5.900  -0.2430   0.03672   0.03426  -0.0876  0.9751  0.0245  -2.2855   0.0000   0.0000   0.0000  -0.1159
  -5.800  -0.2293   0.03487   0.03231  -0.0898  0.9742  0.0250  -2.2663   0.0000   0.0000   0.0000  -0.1470
  -5.700  -0.2157   0.03306   0.03041  -0.0917  0.9732  0.0256  -2.2490   0.0000   0.0000   0.0000  -0.1808
  -5.600  -0.2046   0.03146   0.02871  -0.0928  0.9710  0.0262  -2.2358   0.0000   0.0000   0.0000  -0.2095
  -5.500  -0.1960   0.03006   0.02722  -0.0932  0.9671  0.0268  -2.2250   0.0000   0.0000   0.0000  -0.2315
  -5.400  -0.1851   0.02858   0.02562  -0.0939  0.9643  0.0274  -2.2127   0.0000   0.0000   0.0000  -0.2639
  -5.300  -0.1736   0.02710   0.02403  -0.0947  0.9619  0.0280  -2.2010   0.0000   0.0000   0.0000  -0.3025
  -5.200  -0.1618   0.02562   0.02243  -0.0955  0.9596  0.0285  -2.1911   0.0000   0.0000   0.0000  -0.3471
  -5.100  -0.1499   0.02410   0.02076  -0.0962  0.9574  0.0288  -2.1867   0.0000   0.0000   0.0000  -0.3991
  -5.000  -0.1381   0.01652   0.01226  -0.0965  0.9545  0.0170  -2.7536   0.0000   0.0000   0.0000  -0.4590
  -4.900  -0.1261   0.01442   0.00986  -0.0969  0.9525  0.0158  -2.8272   0.0000   0.0000   0.0000  -0.5292
  -4.800  -0.1174   0.01318   0.00843  -0.0963  0.9489  0.0150  -2.8547   0.0000   0.0000   0.0000  -0.5815
  -4.700  -0.1078   0.01216   0.00724  -0.0959  0.9452  0.0144  -2.8649   0.0000   0.0000   0.0000  -0.6515
  -4.600  -0.0975   0.01133   0.00628  -0.0956  0.9419  0.0139  -2.8564   0.0000   0.0000   0.0000  -0.7433
  -4.500  -0.0866   0.01066   0.00548  -0.0954  0.9388  0.0135  -2.8344   0.0000   0.0000   0.0000  -0.8664
  -4.400  -0.0751   0.01012   0.00482  -0.0953  0.9360  0.0131  -2.8001   0.0000   0.0000   0.0000  -1.0355
  -4.300  -0.0633   0.00969   0.00429  -0.0953  0.9334  0.0129  -2.7555   0.0000   0.0000   0.0000  -1.2726
  -4.200  -0.0514   0.00934   0.00386  -0.0953  0.9309  0.0127  -2.7027   0.0000   0.0000   0.0000  -1.6243
  -4.100  -0.0394   0.00907   0.00350  -0.0954  0.9283  0.0127  -2.6445   0.0000   0.0000   0.0000  -2.1973
  -4.000  -0.0285   0.00884   0.00312  -0.0951  0.9256  0.0129  -2.5979   0.0000   0.0000   0.0000  -3.1289
  -3.900  -0.0179   0.00868   0.00290  -0.0949  0.9226  0.0130  -2.5321   0.0000   0.0000   0.0000  -5.1058
  -3.800  -0.0072   0.00852   0.00269  -0.0947  0.9193  0.0135  -2.4676   0.0000   0.0000   0.0000  -13.0954
  -3.700   0.0038   0.00837   0.00248  -0.0945  0.9158  0.0145  -2.4118   0.0000   0.0000   0.0000  25.4342
  -3.600   0.0149   0.00816   0.00229  -0.0943  0.9123  0.0223  -2.3791   0.0000   0.0000   0.0000   6.6368
  -3.500   0.0259   0.00797   0.00221  -0.0943  0.9088  0.0355  -2.2912   0.0000   0.0000   0.0000   3.9303
  -3.400   0.0371   0.00787   0.00215  -0.0942  0.9053  0.0446  -2.1946   0.0000   0.0000   0.0000   2.8147
  -3.300   0.0484   0.00780   0.00210  -0.0942  0.9017  0.0504  -2.0946   0.0000   0.0000   0.0000   2.2135
  -3.100   0.0707   0.00773   0.00204  -0.0941  0.8955  0.0560  -1.8969   0.0000   0.0000   0.0000   1.5913
  -3.000   0.0816   0.00771   0.00201  -0.0940  0.8927  0.0569  -1.8006   0.0000   0.0000   0.0000   1.4112
  -2.900   0.0924   0.00767   0.00197  -0.0939  0.8894  0.0589  -1.7070   0.0000   0.0000   0.0000   1.2730
  -2.800   0.1033   0.00759   0.00190  -0.0938  0.8859  0.0643  -1.6166   0.0000   0.0000   0.0000   1.1636
  -2.700   0.1143   0.00752   0.00184  -0.0937  0.8821  0.0699  -1.5261   0.0000   0.0000   0.0000   1.0750
  -2.600   0.1252   0.00746   0.00180  -0.0936  0.8783  0.0746  -1.4362   0.0000   0.0000   0.0000   1.0017
  -2.500   0.1363   0.00741   0.00176  -0.0935  0.8745  0.0789  -1.3473   0.0000   0.0000   0.0000   0.9399
  -2.400   0.1474   0.00738   0.00172  -0.0934  0.8706  0.0828  -1.2591   0.0000   0.0000   0.0000   0.8872
  -2.300   0.1586   0.00734   0.00168  -0.0934  0.8663  0.0920  -1.1728   0.0000   0.0000   0.0000   0.8417
  -2.200   0.1696   0.00723   0.00166  -0.0934  0.8631  0.1071  -1.0892   0.0000   0.0000   0.0000   0.8031
  -2.100   0.1805   0.00717   0.00163  -0.0933  0.8605  0.1156  -1.0110   0.0000   0.0000   0.0000   0.7692
  -2.000   0.1913   0.00705   0.00159  -0.0932  0.8574  0.1360  -0.9625   0.0000   0.0000   0.0000   0.7392
  -1.900   0.2021   0.00697   0.00156  -0.0931  0.8537  0.1488  -0.9139   0.0000   0.0000   0.0000   0.7124
  -1.800   0.2130   0.00689   0.00152  -0.0930  0.8496  0.1672  -0.8660   0.0000   0.0000   0.0000   0.6882
  -1.700   0.2238   0.00679   0.00149  -0.0929  0.8453  0.1868  -0.8188   0.0000   0.0000   0.0000   0.6665
  -1.600   0.2347   0.00671   0.00145  -0.0929  0.8410  0.2105  -0.7721   0.0000   0.0000   0.0000   0.6467
  -1.500   0.2455   0.00662   0.00142  -0.0928  0.8366  0.2342  -0.7262   0.0000   0.0000   0.0000   0.6287
  -1.400   0.2563   0.00652   0.00140  -0.0927  0.8317  0.2664  -0.6809   0.0000   0.0000   0.0000   0.6124
  -1.300   0.2674   0.00646   0.00138  -0.0927  0.8267  0.2949  -0.6358   0.0000   0.0000   0.0000   0.5972
  -1.200   0.2782   0.00633   0.00138  -0.0927  0.8246  0.3291  -0.5992   0.0000   0.0000   0.0000   0.5834
  -1.100   0.2890   0.00621   0.00137  -0.0926  0.8218  0.3654  -0.5694   0.0000   0.0000   0.0000   0.5707
  -1.000   0.2999   0.00611   0.00136  -0.0926  0.8184  0.3976  -0.5395   0.0000   0.0000   0.0000   0.5587
  -0.900   0.3106   0.00600   0.00136  -0.0925  0.8143  0.4350  -0.5096   0.0000   0.0000   0.0000   0.5477
  -0.800   0.3213   0.00589   0.00135  -0.0924  0.8096  0.4731  -0.4794   0.0000   0.0000   0.0000   0.5374
  -0.700   0.3321   0.00585   0.00130  -0.0922  0.8045  0.4933  -0.4859   0.0000   0.0000   0.0000   0.5275
  -0.600   0.3426   0.00576   0.00129  -0.0921  0.7992  0.5295  -0.4955   0.0000   0.0000   0.0000   0.5184
  -0.500   0.3532   0.00571   0.00129  -0.0919  0.7936  0.5626  -0.5060   0.0000   0.0000   0.0000   0.5097
  -0.400   0.3637   0.00564   0.00130  -0.0917  0.7873  0.6021  -0.5170   0.0000   0.0000   0.0000   0.5017
  -0.300   0.3741   0.00552   0.00132  -0.0915  0.7843  0.6461  -0.5280   0.0000   0.0000   0.0000   0.4940
  -0.200   0.3844   0.00540   0.00134  -0.0913  0.7814  0.6896  -0.5389   0.0000   0.0000   0.0000   0.4868
  -0.100   0.3944   0.00530   0.00136  -0.0910  0.7778  0.7321  -0.5498   0.0000   0.0000   0.0000   0.4799
   0.000   0.4042   0.00520   0.00138  -0.0905  0.7734  0.7737  -0.5619   0.0000   0.0000   0.0000   0.4732
   0.100   0.4130   0.00509   0.00140  -0.0899  0.7684  0.8211  -0.5738   0.0000   0.0000   0.0000   0.4667
   0.200   0.4208   0.00499   0.00141  -0.0889  0.7628  0.8696  -0.5851   0.0000   0.0000   0.0000   0.4602
   0.300   0.4287   0.00493   0.00140  -0.0879  0.7569  0.9155  -0.5964   0.0000   0.0000   0.0000   0.4540
   0.400   0.4424   0.00489   0.00137  -0.0882  0.7504  0.9593  -0.6118   0.0000   0.0000   0.0000   0.4483
   0.500   0.4609   0.00489   0.00135  -0.0898  0.7431  0.9994  -0.6327   0.0000   0.0000   0.0000   0.4436
   0.600   0.4721   0.00490   0.00135  -0.0898  0.7400  1.0000  -0.6487   0.0000   0.0000   0.0000   0.4388
   0.700   0.4831   0.00491   0.00135  -0.0897  0.7355  1.0000  -0.6646   0.0000   0.0000   0.0000   0.4343
   0.800   0.4941   0.00494   0.00135  -0.0896  0.7298  1.0000  -0.6806   0.0000   0.0000   0.0000   0.4299
   0.900   0.5049   0.00496   0.00134  -0.0895  0.7234  1.0000  -0.6967   0.0000   0.0000   0.0000   0.4257
   1.000   0.5157   0.00500   0.00134  -0.0893  0.7169  1.0000  -0.7158   0.0000   0.0000   0.0000   0.4216
   1.100   0.5263   0.00505   0.00134  -0.0892  0.7098  1.0000  -0.7347   0.0000   0.0000   0.0000   0.4177
   1.200   0.5367   0.00511   0.00134  -0.0890  0.7009  1.0000  -0.7536   0.0000   0.0000   0.0000   0.4140
   1.300   0.5477   0.00514   0.00135  -0.0889  0.6950  1.0000  -0.7731   0.0000   0.0000   0.0000   0.4104
   1.400   0.5587   0.00517   0.00136  -0.0888  0.6893  1.0000  -0.7927   0.0000   0.0000   0.0000   0.4070
   1.500   0.5695   0.00520   0.00137  -0.0887  0.6816  1.0000  -0.8123   0.0000   0.0000   0.0000   0.4037
   1.600   0.5801   0.00525   0.00138  -0.0885  0.6724  1.0000  -0.8318   0.0000   0.0000   0.0000   0.4005
   1.700   0.5904   0.00533   0.00139  -0.0883  0.6620  1.0000  -0.8510   0.0000   0.0000   0.0000   0.3974
   1.800   0.6006   0.00541   0.00140  -0.0881  0.6502  1.0000  -0.8703   0.0000   0.0000   0.0000   0.3944
   1.900   0.6116   0.00543   0.00142  -0.0880  0.6439  1.0000  -0.8904   0.0000   0.0000   0.0000   0.3916
   2.000   0.6224   0.00548   0.00144  -0.0879  0.6349  1.0000  -0.9104   0.0000   0.0000   0.0000   0.3888
   2.100   0.6329   0.00554   0.00146  -0.0877  0.6250  1.0000  -0.9303   0.0000   0.0000   0.0000   0.3861
   2.200   0.6432   0.00563   0.00148  -0.0875  0.6143  1.0000  -0.9500   0.0000   0.0000   0.0000   0.3835
   2.300   0.6533   0.00572   0.00150  -0.0873  0.6023  1.0000  -0.9709   0.0000   0.0000   0.0000   0.3810
   2.400   0.6643   0.00575   0.00153  -0.0872  0.5964  1.0000  -0.9959   0.0000   0.0000   0.0000   0.3786
   2.500   0.6751   0.00580   0.00156  -0.0871  0.5879  1.0000  -1.0208   0.0000   0.0000   0.0000   0.3762
   2.600   0.6856   0.00588   0.00159  -0.0869  0.5770  1.0000  -1.0455   0.0000   0.0000   0.0000   0.3740
   2.700   0.6956   0.00599   0.00162  -0.0867  0.5640  1.0000  -1.0698   0.0000   0.0000   0.0000   0.3717
   2.800   0.7058   0.00608   0.00171  -0.0865  0.5514  1.0000  -1.0960   0.0000   0.0000   0.0000   0.3695
   2.900   0.7166   0.00614   0.00174  -0.0864  0.5432  1.0000  -1.1219   0.0000   0.0000   0.0000   0.3675
   3.000   0.7270   0.00622   0.00178  -0.0862  0.5308  1.0000  -1.1470   0.0000   0.0000   0.0000   0.3654
   3.100   0.7366   0.00637   0.00183  -0.0859  0.5138  1.0000  -1.1713   0.0000   0.0000   0.0000   0.3634
   3.200   0.7467   0.00648   0.00187  -0.0857  0.4987  1.0000  -1.1963   0.0000   0.0000   0.0000   0.3614
   3.300   0.7570   0.00658   0.00192  -0.0855  0.4840  1.0000  -1.2216   0.0000   0.0000   0.0000   0.3596
   3.400   0.7664   0.00675   0.00199  -0.0852  0.4646  1.0000  -1.2459   0.0000   0.0000   0.0000   0.3577
   3.500   0.7765   0.00687   0.00204  -0.0850  0.4499  1.0000  -1.2712   0.0000   0.0000   0.0000   0.3559
   3.600   0.7869   0.00696   0.00210  -0.0849  0.4381  1.0000  -1.3036   0.0000   0.0000   0.0000   0.3542
   3.700   0.7967   0.00711   0.00217  -0.0847  0.4224  1.0000  -1.3353   0.0000   0.0000   0.0000   0.3525
   3.800   0.8064   0.00727   0.00224  -0.0844  0.4044  1.0000  -1.3668   0.0000   0.0000   0.0000   0.3508
   3.900   0.8168   0.00736   0.00230  -0.0843  0.3944  1.0000  -1.4000   0.0000   0.0000   0.0000   0.3492
   4.000   0.8268   0.00750   0.00237  -0.0841  0.3798  1.0000  -1.4385   0.0000   0.0000   0.0000   0.3476
   4.100   0.8361   0.00770   0.00246  -0.0838  0.3598  1.0000  -1.4792   0.0000   0.0000   0.0000   0.3461
   4.200   0.8464   0.00781   0.00253  -0.0837  0.3481  1.0000  -1.5222   0.0000   0.0000   0.0000   0.3446
   4.300   0.8562   0.00798   0.00262  -0.0834  0.3323  1.0000  -1.5644   0.0000   0.0000   0.0000   0.3431
   4.400   0.8655   0.00819   0.00272  -0.0832  0.3116  1.0000  -1.6058   0.0000   0.0000   0.0000   0.3417
   4.500   0.8758   0.00830   0.00280  -0.0830  0.3015  1.0000  -1.6498   0.0000   0.0000   0.0000   0.3403
   4.600   0.8856   0.00845   0.00288  -0.0828  0.2884  1.0000  -1.6932   0.0000   0.0000   0.0000   0.3389
   4.700   0.8951   0.00865   0.00299  -0.0826  0.2729  1.0000  -1.7361   0.0000   0.0000   0.0000   0.3375
   4.800   0.9054   0.00877   0.00308  -0.0824  0.2625  1.0000  -1.7808   0.0000   0.0000   0.0000   0.3362
   4.900   0.9155   0.00888   0.00316  -0.0823  0.2537  1.0000  -1.8260   0.0000   0.0000   0.0000   0.3350
   5.000   0.9253   0.00905   0.00326  -0.0821  0.2425  1.0000  -1.8705   0.0000   0.0000   0.0000   0.3337
   5.100   0.9349   0.00924   0.00337  -0.0819  0.2284  1.0000  -1.9147   0.0000   0.0000   0.0000   0.3325
   5.200   0.9452   0.00935   0.00346  -0.0817  0.2206  1.0000  -1.9609   0.0000   0.0000   0.0000   0.3313
   5.300   0.9553   0.00948   0.00356  -0.0816  0.2125  1.0000  -2.0072   0.0000   0.0000   0.0000   0.3301
   5.400   0.9647   0.00967   0.00367  -0.0813  0.2005  1.0000  -2.0523   0.0000   0.0000   0.0000   0.3289
   5.500   0.9741   0.00988   0.00380  -0.0811  0.1844  1.0000  -2.0973   0.0000   0.0000   0.0000   0.3277
   5.600   0.9843   0.01000   0.00390  -0.0809  0.1785  1.0000  -2.1492   0.0000   0.0000   0.0000   0.3266
   5.700   0.9941   0.01015   0.00400  -0.0807  0.1705  1.0000  -2.2127   0.0000   0.0000   0.0000   0.3255
   5.800   1.0036   0.01035   0.00413  -0.0805  0.1608  1.0000  -2.2754   0.0000   0.0000   0.0000   0.3244
   5.900   1.0132   0.01053   0.00426  -0.0803  0.1489  1.0000  -2.3389   0.0000   0.0000   0.0000   0.3233
   6.000   1.0234   0.01064   0.00436  -0.0802  0.1451  1.0000  -2.4056   0.0000   0.0000   0.0000   0.3223
   6.100   1.0334   0.01077   0.00447  -0.0800  0.1397  1.0000  -2.4720   0.0000   0.0000   0.0000   0.3212
   6.200   1.0430   0.01094   0.00459  -0.0798  0.1331  1.0000  -2.5378   0.0000   0.0000   0.0000   0.3202
   6.300   1.0534   0.01104   0.00485  -0.0796  0.1323  1.0000  -2.6164   0.0000   0.0000   0.0000   0.3192
   6.400   1.0629   0.01122   0.00499  -0.0794  0.1250  1.0000  -2.6874   0.0000   0.0000   0.0000   0.3182
   6.500   1.0725   0.01140   0.00516  -0.0791  0.1167  1.0000  -2.7563   0.0000   0.0000   0.0000   0.3172
   6.600   1.0827   0.01150   0.00527  -0.0790  0.1145  1.0000  -2.8284   0.0000   0.0000   0.0000   0.3162
   6.700   1.0929   0.01160   0.00539  -0.0789  0.1124  1.0000  -2.9007   0.0000   0.0000   0.0000   0.3153
   6.800   1.1029   0.01173   0.00551  -0.0787  0.1094  1.0000  -2.9723   0.0000   0.0000   0.0000   0.3144
   6.900   1.1126   0.01188   0.00564  -0.0785  0.1053  1.0000  -3.0434   0.0000   0.0000   0.0000   0.3135
   7.000   1.1219   0.01208   0.00578  -0.0783  0.1002  1.0000  -3.1137   0.0000   0.0000   0.0000   0.3125
   7.100   1.1312   0.01228   0.00594  -0.0780  0.0933  1.0000  -3.1834   0.0000   0.0000   0.0000   0.3116
   7.200   1.1404   0.01250   0.00614  -0.0777  0.0865  1.0000  -3.2523   0.0000   0.0000   0.0000   0.3107
   7.300   1.1507   0.01257   0.00624  -0.0776  0.0854  1.0000  -3.3288   0.0000   0.0000   0.0000   0.3099
   7.400   1.1607   0.01268   0.00636  -0.0774  0.0833  1.0000  -3.4269   0.0000   0.0000   0.0000   0.3090
   7.500   1.1704   0.01282   0.00649  -0.0772  0.0798  1.0000  -3.5332   0.0000   0.0000   0.0000   0.3082
   7.600   1.1795   0.01303   0.00664  -0.0770  0.0751  1.0000  -3.6379   0.0000   0.0000   0.0000   0.3073
   7.700   1.1884   0.01326   0.00681  -0.0767  0.0690  1.0000  -3.7415   0.0000   0.0000   0.0000   0.3064
   7.800   1.1972   0.01351   0.00704  -0.0763  0.0619  1.0000  -3.8440   0.0000   0.0000   0.0000   0.3056
   7.900   1.2072   0.01361   0.00716  -0.0762  0.0607  1.0000  -3.9573   0.0000   0.0000   0.0000   0.3048
   8.000   1.2169   0.01374   0.00730  -0.0760  0.0589  1.0000  -4.0700   0.0000   0.0000   0.0000   0.3040
   8.100   1.2262   0.01391   0.00746  -0.0758  0.0563  1.0000  -4.1815   0.0000   0.0000   0.0000   0.3032
   8.200   1.2353   0.01411   0.00764  -0.0755  0.0533  1.0000  -4.2920   0.0000   0.0000   0.0000   0.3024
   8.300   1.2439   0.01436   0.00783  -0.0751  0.0497  1.0000  -4.4008   0.0000   0.0000   0.0000   0.3015
   8.400   1.2525   0.01462   0.00806  -0.0748  0.0448  1.0000  -4.5076   0.0000   0.0000   0.0000   0.3007
   8.500   1.2609   0.01490   0.00835  -0.0743  0.0408  1.0000  -4.6119   0.0000   0.0000   0.0000   0.2998
   8.600   1.2706   0.01502   0.00849  -0.0742  0.0403  1.0000  -4.7319   0.0000   0.0000   0.0000   0.2991
   8.700   1.2801   0.01515   0.00864  -0.0739  0.0396  1.0000  -4.8514   0.0000   0.0000   0.0000   0.2983
   8.800   1.2894   0.01531   0.00882  -0.0737  0.0384  1.0000  -4.9701   0.0000   0.0000   0.0000   0.2976
   8.900   1.2984   0.01549   0.00901  -0.0734  0.0370  1.0000  -5.0878   0.0000   0.0000   0.0000   0.2968
   9.000   1.3072   0.01570   0.00922  -0.0731  0.0355  1.0000  -5.2047   0.0000   0.0000   0.0000   0.2961
   9.100   1.3157   0.01594   0.00944  -0.0727  0.0338  1.0000  -5.3208   0.0000   0.0000   0.0000   0.2953
   9.200   1.3240   0.01620   0.00968  -0.0723  0.0320  1.0000  -5.4353   0.0000   0.0000   0.0000   0.2945
   9.300   1.3320   0.01649   0.00995  -0.0719  0.0297  1.0000  -5.5466   0.0000   0.0000   0.0000   0.2937
   9.400   1.3394   0.01685   0.01034  -0.0713  0.0269  1.0000  -5.6481   0.0000   0.0000   0.0000   0.2929
   9.500   1.3453   0.01737   0.01101  -0.0705  0.0243  1.0000  -5.7386   0.0000   0.0000   0.0000   0.2919
   9.600   1.3548   0.01746   0.01111  -0.0703  0.0240  1.0000  -5.8720   0.0000   0.0000   0.0000   0.2912
   9.700   1.3642   0.01757   0.01123  -0.0701  0.0236  1.0000  -6.0037   0.0000   0.0000   0.0000   0.2905
   9.800   1.3732   0.01772   0.01139  -0.0698  0.0230  1.0000  -6.1319   0.0000   0.0000   0.0000   0.2899
   9.900   1.3818   0.01791   0.01161  -0.0695  0.0222  1.0000  -6.2552   0.0000   0.0000   0.0000   0.2892
  10.000   1.3900   0.01814   0.01186  -0.0691  0.0213  1.0000  -6.3747   0.0000   0.0000   0.0000   0.2884
  10.100   1.3978   0.01840   0.01214  -0.0687  0.0204  1.0000  -6.4917   0.0000   0.0000   0.0000   0.2877
  10.200   1.4055   0.01868   0.01243  -0.0682  0.0195  1.0000  -6.6075   0.0000   0.0000   0.0000   0.2869
  10.300   1.4129   0.01896   0.01273  -0.0677  0.0188  1.0000  -6.7250   0.0000   0.0000   0.0000   0.2862
  10.400   1.4202   0.01926   0.01304  -0.0672  0.0181  1.0000  -6.8562   0.0000   0.0000   0.0000   0.2854
  10.500   1.4273   0.01957   0.01336  -0.0666  0.0174  1.0000  -6.9860   0.0000   0.0000   0.0000   0.2846
  10.600   1.4341   0.01990   0.01371  -0.0660  0.0167  1.0000  -7.1132   0.0000   0.0000   0.0000   0.2838
  10.700   1.4405   0.02027   0.01410  -0.0654  0.0159  1.0000  -7.2353   0.0000   0.0000   0.0000   0.2830
  10.800   1.4461   0.02069   0.01457  -0.0646  0.0150  1.0000  -7.3483   0.0000   0.0000   0.0000   0.2822
  10.900   1.4502   0.02123   0.01518  -0.0636  0.0141  1.0000  -7.4433   0.0000   0.0000   0.0000   0.2812
  11.000   1.4498   0.02215   0.01623  -0.0619  0.0127  1.0000  -7.4820   0.0000   0.0000   0.0000   0.2799
  11.100   1.4511   0.02281   0.01698  -0.0605  0.0120  1.0000  -7.5516   0.0000   0.0000   0.0000   0.2788
  11.200   1.4619   0.02269   0.01682  -0.0606  0.0119  1.0000  -7.7399   0.0000   0.0000   0.0000   0.2783
  11.300   1.4726   0.02259   0.01668  -0.0606  0.0117  1.0000  -7.9277   0.0000   0.0000   0.0000   0.2779
  11.400   1.4826   0.02254   0.01661  -0.0606  0.0114  1.0000  -8.1080   0.0000   0.0000   0.0000   0.2774
  11.500   1.4913   0.02260   0.01665  -0.0603  0.0109  1.0000  -8.2709   0.0000   0.0000   0.0000   0.2768
  11.600   1.4976   0.02282   0.01689  -0.0597  0.0102  1.0000  -8.4001   0.0000   0.0000   0.0000   0.2760
  11.700   1.5016   0.02321   0.01732  -0.0587  0.0096  1.0000  -8.4989   0.0000   0.0000   0.0000   0.2751
  11.800   1.5045   0.02368   0.01784  -0.0575  0.0092  1.0000  -8.5864   0.0000   0.0000   0.0000   0.2741
  11.900   1.5069   0.02418   0.01840  -0.0563  0.0089  1.0000  -8.6692   0.0000   0.0000   0.0000   0.2731
  12.000   1.5088   0.02471   0.01899  -0.0551  0.0086  1.0000  -8.7495   0.0000   0.0000   0.0000   0.2721
  12.100   1.5105   0.02526   0.01961  -0.0539  0.0085  1.0000  -8.8278   0.0000   0.0000   0.0000   0.2711
  12.200   1.5117   0.02585   0.02026  -0.0526  0.0083  1.0000  -8.9031   0.0000   0.0000   0.0000   0.2701
  12.300   1.5128   0.02645   0.02094  -0.0514  0.0082  1.0000  -8.9775   0.0000   0.0000   0.0000   0.2691
  12.400   1.5136   0.02708   0.02163  -0.0502  0.0081  1.0000  -9.0516   0.0000   0.0000   0.0000   0.2681
  12.500   1.5142   0.02773   0.02234  -0.0491  0.0080  1.0000  -9.1246   0.0000   0.0000   0.0000   0.2672
  12.600   1.5149   0.02839   0.02308  -0.0479  0.0079  1.0000  -9.1985   0.0000   0.0000   0.0000   0.2663
  12.700   1.5154   0.02909   0.02384  -0.0469  0.0078  1.0000  -9.2726   0.0000   0.0000   0.0000   0.2654
  12.800   1.5157   0.02981   0.02462  -0.0459  0.0078  1.0000  -9.3453   0.0000   0.0000   0.0000   0.2645
  12.900   1.5161   0.03054   0.02542  -0.0449  0.0077  1.0000  -9.4193   0.0000   0.0000   0.0000   0.2637
  13.000   1.5165   0.03130   0.02624  -0.0440  0.0076  1.0000  -9.4943   0.0000   0.0000   0.0000   0.2629
  13.100   1.5163   0.03208   0.02709  -0.0431  0.0075  1.0000  -9.5650   0.0000   0.0000   0.0000   0.2622
  13.200   1.5159   0.03289   0.02795  -0.0422  0.0075  1.0000  -9.6347   0.0000   0.0000   0.0000   0.2614
  13.300   1.5157   0.03371   0.02883  -0.0413  0.0074  1.0000  -9.7061   0.0000   0.0000   0.0000   0.2607
  13.400   1.5151   0.03458   0.02977  -0.0406  0.0073  1.0000  -9.7741   0.0000   0.0000   0.0000   0.2600
  13.500   1.5143   0.03551   0.03075  -0.0398  0.0073  1.0000  -9.8394   0.0000   0.0000   0.0000   0.2594
  13.600   1.5136   0.03645   0.03176  -0.0392  0.0072  1.0000  -9.9060   0.0000   0.0000   0.0000   0.2588
  13.700   1.5128   0.03744   0.03281  -0.0386  0.0071  1.0000  -9.9713   0.0000   0.0000   0.0000   0.2582
  13.800   1.5111   0.03852   0.03396  -0.0380  0.0071  1.0000  -10.0274   0.0000   0.0000   0.0000   0.2577
  13.900   1.5094   0.03965   0.03515  -0.0375  0.0070  1.0000  -10.0817   0.0000   0.0000   0.0000   0.2572
  14.000   1.5076   0.04081   0.03637  -0.0370  0.0070  1.0000  -10.1350   0.0000   0.0000   0.0000   0.2567
  14.100   1.5052   0.04206   0.03770  -0.0366  0.0070  1.0000  -10.1800   0.0000   0.0000   0.0000   0.2563
  14.200   1.5019   0.04343   0.03914  -0.0363  0.0069  1.0000  -10.2151   0.0000   0.0000   0.0000   0.2559
  14.300   1.4987   0.04482   0.04061  -0.0360  0.0069  1.0000  -10.2500   0.0000   0.0000   0.0000   0.2556
  14.400   1.4955   0.04626   0.04212  -0.0358  0.0069  1.0000  -10.2829   0.0000   0.0000   0.0000   0.2553
  14.500   1.4911   0.04785   0.04379  -0.0357  0.0069  1.0000  -10.3040   0.0000   0.0000   0.0000   0.2551
  14.600   1.4872   0.04943   0.04550  -0.0357  0.0069  1.0000  -10.3392   0.0000   0.0000   0.0000   0.2549
  14.700   1.4830   0.05104   0.04720  -0.0357  0.0069  1.0000  -10.3624   0.0000   0.0000   0.0000   0.2548
  14.800   1.4774   0.05281   0.04904  -0.0358  0.0069  1.0000  -10.3703   0.0000   0.0000   0.0000   0.2548
  14.900   1.4719   0.05464   0.05094  -0.0361  0.0069  1.0000  -10.3769   0.0000   0.0000   0.0000   0.2548
  15.000   1.4668   0.05648   0.05286  -0.0363  0.0069  1.0000  -10.3868   0.0000   0.0000   0.0000   0.2549
  15.100   1.4609   0.05852   0.05499  -0.0368  0.0069  1.0000  -10.3862   0.0000   0.0000   0.0000   0.2551
  15.200   1.4548   0.06068   0.05722  -0.0374  0.0068  1.0000  -10.3817   0.0000   0.0000   0.0000   0.2554
  15.300   1.4494   0.06282   0.05943  -0.0380  0.0068  1.0000  -10.3812   0.0000   0.0000   0.0000   0.2558
  15.400   1.4430   0.06519   0.06188  -0.0389  0.0068  1.0000  -10.3692   0.0000   0.0000   0.0000   0.2562
  15.500   1.4363   0.06768   0.06445  -0.0399  0.0068  1.0000  -10.3519   0.0000   0.0000   0.0000   0.2568
  15.600   1.4302   0.07012   0.06696  -0.0408  0.0068  1.0000  -10.3389   0.0000   0.0000   0.0000   0.2574
  15.700   1.4230   0.07287   0.06979  -0.0421  0.0068  1.0000  -10.3103   0.0000   0.0000   0.0000   0.2582
  15.800   1.4158   0.07567   0.07266  -0.0434  0.0068  1.0000  -10.2797   0.0000   0.0000   0.0000   0.2591
  15.900   1.4090   0.07840   0.07547  -0.0447  0.0068  1.0000  -10.2523   0.0000   0.0000   0.0000   0.2600
  16.000   1.4006   0.08157   0.07871  -0.0464  0.0069  1.0000  -10.2021   0.0000   0.0000   0.0000   0.2612
  16.100   1.3930   0.08462   0.08183  -0.0480  0.0069  1.0000  -10.1579   0.0000   0.0000   0.0000   0.2623
  16.200   1.3853   0.08771   0.08500  -0.0496  0.0069  1.0000  -10.1101   0.0000   0.0000   0.0000   0.2635
  16.300   1.3760   0.09125   0.08861  -0.0517  0.0069  1.0000  -10.0388   0.0000   0.0000   0.0000   0.2650
  16.400   1.3679   0.09451   0.09194  -0.0535  0.0069  1.0000  -9.9789   0.0000   0.0000   0.0000   0.2664
  16.500   1.3584   0.09816   0.09567  -0.0557  0.0069  1.0000  -9.8973   0.0000   0.0000   0.0000   0.2681
  16.600   1.3491   0.10181   0.09938  -0.0579  0.0069  1.0000  -9.8132   0.0000   0.0000   0.0000   0.2699
  16.700   1.3402   0.10532   0.10297  -0.0601  0.0069  1.0000  -9.7323   0.0000   0.0000   0.0000   0.2716
  16.800   1.3287   0.10960   0.10725  -0.0628  0.0070  1.0000  -9.5978   0.0000   0.0000   0.0000   0.2739
  16.900   1.3191   0.11335   0.11107  -0.0651  0.0070  1.0000  -9.4983   0.0000   0.0000   0.0000   0.2758
  17.000   1.3078   0.11764   0.11542  -0.0679  0.0070  1.0000  -9.3664   0.0000   0.0000   0.0000   0.2782
  17.100   1.2968   0.12183   0.11968  -0.0706  0.0071  1.0000  -9.2348   0.0000   0.0000   0.0000   0.2806
  17.200   1.2862   0.12569   0.12361  -0.0732  0.0071  1.0000  -9.1037   0.0000   0.0000   0.0000   0.2830
  17.300   1.2728   0.13031   0.12829  -0.0765  0.0071  1.0000  -8.9192   0.0000   0.0000   0.0000   0.2861
  17.400   1.2614   0.13450   0.13255  -0.0793  0.0072  1.0000  -8.7610   0.0000   0.0000   0.0000   0.2888
  17.500   1.2462   0.14000   0.13811  -0.0830  0.0072  1.0000  -8.5265   0.0000   0.0000   0.0000   0.2924
  17.600   1.2329   0.14514   0.14332  -0.0863  0.0073  1.0000  -8.3133   0.0000   0.0000   0.0000   0.2958
  17.700   1.2138   0.15222   0.15047  -0.0907  0.0074  1.0000  -7.9812   0.0000   0.0000   0.0000   0.3006
  17.800   1.1931   0.16006   0.15839  -0.0954  0.0075  1.0000  -7.5913   0.0000   0.0000   0.0000   0.3060
  18.100   1.0391   0.22763   0.22599  -0.1245  0.0099  1.0000  -3.4580   0.0000   0.0000   0.0000   0.3495
  18.200   1.0383   0.23101   0.22936  -0.1257  0.0099  1.0000  -3.3878   0.0000   0.0000   0.0000   0.3507
  18.300   1.0379   0.23418   0.23254  -0.1269  0.0098  1.0000  -3.3313   0.0000   0.0000   0.0000   0.3517
  18.400   1.0378   0.23724   0.23560  -0.1280  0.0098  1.0000  -3.2831   0.0000   0.0000   0.0000   0.3527
  18.500   1.0378   0.24025   0.23860  -0.1290  0.0097  1.0000  -3.2384   0.0000   0.0000   0.0000   0.3536
  18.600   1.0378   0.24327   0.24163  -0.1301  0.0097  1.0000  -3.1928   0.0000   0.0000   0.0000   0.3545
  18.700   1.0375   0.24639   0.24475  -0.1311  0.0097  1.0000  -3.1407   0.0000   0.0000   0.0000   0.3555
  18.800   1.0373   0.24951   0.24787  -0.1322  0.0097  1.0000  -3.0880   0.0000   0.0000   0.0000   0.3564
  18.900   1.0372   0.25257   0.25093  -0.1332  0.0098  1.0000  -3.0400   0.0000   0.0000   0.0000   0.3573
  19.000   1.0371   0.25556   0.25393  -0.1341  0.0098  1.0000  -2.9958   0.0000   0.0000   0.0000   0.3581
  19.100   1.0371   0.25851   0.25688  -0.1351  0.0098  1.0000  -2.9547   0.0000   0.0000   0.0000   0.3589
  19.200   1.0372   0.26142   0.25979  -0.1360  0.0098  1.0000  -2.9161   0.0000   0.0000   0.0000   0.3597
  19.300   1.0373   0.26429   0.26266  -0.1369  0.0098  1.0000  -2.8793   0.0000   0.0000   0.0000   0.3604
  19.400   1.0375   0.26713   0.26551  -0.1378  0.0098  1.0000  -2.8439   0.0000   0.0000   0.0000   0.3611
  19.500   1.0376   0.26997   0.26835  -0.1386  0.0098  1.0000  -2.8086   0.0000   0.0000   0.0000   0.3618
  19.600   1.0377   0.27279   0.27118  -0.1395  0.0097  1.0000  -2.7727   0.0000   0.0000   0.0000   0.3625
  19.700   1.0376   0.27565   0.27404  -0.1404  0.0096  1.0000  -2.7338   0.0000   0.0000   0.0000   0.3632
  19.800   1.0375   0.27853   0.27692  -0.1412  0.0095  1.0000  -2.6926   0.0000   0.0000   0.0000   0.3640
  19.900   1.0373   0.28141   0.27980  -0.1420  0.0094  1.0000  -2.6499   0.0000   0.0000   0.0000   0.3647
  20.000   1.0370   0.28428   0.28268  -0.1429  0.0093  1.0000  -2.6054   0.0000   0.0000   0.0000   0.3654
  20.100   1.0366   0.28715   0.28555  -0.1437  0.0092  1.0000  -2.5590   0.0000   0.0000   0.0000   0.3661
  20.200   1.0360   0.29002   0.28842  -0.1444  0.0091  1.0000  -2.5105   0.0000   0.0000   0.0000   0.3668
  20.300   1.0353   0.29288   0.29128  -0.1452  0.0090  1.0000  -2.4606   0.0000   0.0000   0.0000   0.3675
  20.400   1.0344   0.29572   0.29412  -0.1459  0.0090  1.0000  -2.4095   0.0000   0.0000   0.0000   0.3682
  20.500   1.0332   0.29854   0.29695  -0.1465  0.0090  1.0000  -2.3572   0.0000   0.0000   0.0000   0.3689
  20.600   1.0318   0.30132   0.29974  -0.1472  0.0091  1.0000  -2.3044   0.0000   0.0000   0.0000   0.3696
  20.700   1.0300   0.30405   0.30247  -0.1477  0.0093  1.0000  -2.2517   0.0000   0.0000   0.0000   0.3703
  20.800   1.0277   0.30670   0.30513  -0.1482  0.0096  1.0000  -2.2001   0.0000   0.0000   0.0000   0.3710
  20.900   1.0246   0.30925   0.30768  -0.1486  0.0100  1.0000  -2.1497   0.0000   0.0000   0.0000   0.3717
  21.000   0.9907   0.31003   0.30850  -0.1460  0.0115  1.0000  -1.9388   0.0000   0.0000   0.0000   0.3743
  21.100   0.9517   0.30315   0.30168  -0.1422  0.0116  1.0000  -1.8112   0.0000   0.0000   0.0000   0.3767
  21.200   0.9434   0.30290   0.30144  -0.1418  0.0116  1.0000  -1.7642   0.0000   0.0000   0.0000   0.3776
  21.300   0.9369   0.30295   0.30150  -0.1416  0.0116  1.0000  -1.7244   0.0000   0.0000   0.0000   0.3784
  21.400   0.9316   0.30316   0.30172  -0.1415  0.0116  1.0000  -1.6891   0.0000   0.0000   0.0000   0.3791
  21.500   0.9270   0.30345   0.30202  -0.1415  0.0116  1.0000  -1.6570   0.0000   0.0000   0.0000   0.3797
  21.600   0.9229   0.30382   0.30239  -0.1415  0.0116  1.0000  -1.6275   0.0000   0.0000   0.0000   0.3803
  21.700   0.9193   0.30423   0.30282  -0.1416  0.0116  1.0000  -1.6000   0.0000   0.0000   0.0000   0.3809
  21.800   0.9160   0.30469   0.30328  -0.1417  0.0116  1.0000  -1.5743   0.0000   0.0000   0.0000   0.3815
  21.900   0.9130   0.30517   0.30377  -0.1418  0.0116  1.0000  -1.5502   0.0000   0.0000   0.0000   0.3821
  22.000   0.9103   0.30568   0.30429  -0.1420  0.0116  1.0000  -1.5274   0.0000   0.0000   0.0000   0.3826
  22.100   0.9077   0.30621   0.30483  -0.1421  0.0116  1.0000  -1.5058   0.0000   0.0000   0.0000   0.3831
  22.200   0.9054   0.30676   0.30538  -0.1423  0.0116  1.0000  -1.4853   0.0000   0.0000   0.0000   0.3836
  22.300   0.9032   0.30733   0.30595  -0.1425  0.0116  1.0000  -1.4655   0.0000   0.0000   0.0000   0.3841
  22.400   0.9012   0.30791   0.30654  -0.1427  0.0116  1.0000  -1.4466   0.0000   0.0000   0.0000   0.3846
  22.500   0.8993   0.30850   0.30714  -0.1430  0.0116  1.0000  -1.4285   0.0000   0.0000   0.0000   0.3851
  22.600   0.8975   0.30910   0.30774  -0.1432  0.0115  1.0000  -1.4112   0.0000   0.0000   0.0000   0.3855
  22.700   0.8959   0.30971   0.30836  -0.1435  0.0115  1.0000  -1.3947   0.0000   0.0000   0.0000   0.3860
  22.800   0.8943   0.31032   0.30898  -0.1437  0.0115  1.0000  -1.3788   0.0000   0.0000   0.0000   0.3864
  22.900   0.8929   0.31095   0.30961  -0.1440  0.0115  1.0000  -1.3637   0.0000   0.0000   0.0000   0.3869
  23.000   0.8915   0.31158   0.31024  -0.1443  0.0115  1.0000  -1.3492   0.0000   0.0000   0.0000   0.3873
  23.100   0.8903   0.31221   0.31089  -0.1446  0.0115  1.0000  -1.3353   0.0000   0.0000   0.0000   0.3877
  23.200   0.8891   0.31285   0.31153  -0.1449  0.0114  1.0000  -1.3220   0.0000   0.0000   0.0000   0.3881
  23.300   0.8880   0.31351   0.31219  -0.1452  0.0114  1.0000  -1.3086   0.0000   0.0000   0.0000   0.3886
  23.400   0.8869   0.31418   0.31286  -0.1455  0.0114  1.0000  -1.2950   0.0000   0.0000   0.0000   0.3890
  23.500   0.8860   0.31485   0.31354  -0.1458  0.0113  1.0000  -1.2819   0.0000   0.0000   0.0000   0.3894
  23.600   0.8851   0.31553   0.31423  -0.1462  0.0113  1.0000  -1.2694   0.0000   0.0000   0.0000   0.3898
  23.700   0.8843   0.31622   0.31492  -0.1465  0.0113  1.0000  -1.2574   0.0000   0.0000   0.0000   0.3902
  23.800   0.8836   0.31692   0.31563  -0.1469  0.0112  1.0000  -1.2459   0.0000   0.0000   0.0000   0.3906
  23.900   0.8831   0.31764   0.31635  -0.1473  0.0111  1.0000  -1.2349   0.0000   0.0000   0.0000   0.3910
  24.000   0.8827   0.31837   0.31709  -0.1477  0.0110  1.0000  -1.2243   0.0000   0.0000   0.0000   0.3914
  24.100   0.8826   0.31915   0.31787  -0.1481  0.0108  1.0000  -1.2140   0.0000   0.0000   0.0000   0.3918
  24.200   0.8830   0.32001   0.31874  -0.1486  0.0105  1.0000  -1.2032   0.0000   0.0000   0.0000   0.3921
  24.300   0.8834   0.32091   0.31964  -0.1491  0.0099  1.0000  -1.1924   0.0000   0.0000   0.0000   0.3924
  24.400   0.8832   0.32169   0.32043  -0.1495  0.0092  1.0000  -1.1856   0.0000   0.0000   0.0000   0.3927
  24.500   0.8828   0.32239   0.32113  -0.1499  0.0087  1.0000  -1.1828   0.0000   0.0000   0.0000   0.3931
  24.600   0.8824   0.32304   0.32179  -0.1502  0.0082  1.0000  -1.1831   0.0000   0.0000   0.0000   0.3934


