xflr5 v6.61

 Calculated polar for: S4310

 1 1 Reynolds number fixed          Mach number fixed         

 xtrf =   1.000 (top)        1.000 (bottom)
 Mach =   0.000     Re =     0.200 e 6     Ncrit =   9.000

  alpha     CL        CD       CDp       Cm    Top Xtr Bot Xtr   Cpmin    Chinge    XCp    
 ------- -------- --------- --------- -------- ------- ------- -------- --------- ---------
 -10.000  -0.2907   0.11410   0.11052  -0.0345  1.0000  0.0314  -1.4366   0.0000   0.0000   0.0000   0.1200
  -9.900  -0.2878   0.11314   0.10958  -0.0353  1.0000  0.0316  -1.4409   0.0000   0.0000   0.0000   0.1162
  -9.800  -0.2852   0.11211   0.10856  -0.0360  1.0000  0.0318  -1.4455   0.0000   0.0000   0.0000   0.1125
  -9.700  -0.2827   0.11102   0.10749  -0.0368  1.0000  0.0319  -1.4504   0.0000   0.0000   0.0000   0.1089
  -9.600  -0.2803   0.10990   0.10638  -0.0375  1.0000  0.0320  -1.4558   0.0000   0.0000   0.0000   0.1053
  -9.500  -0.2780   0.10874   0.10524  -0.0381  1.0000  0.0320  -1.4614   0.0000   0.0000   0.0000   0.1019
  -9.400  -0.2758   0.10757   0.10409  -0.0388  1.0000  0.0321  -1.4674   0.0000   0.0000   0.0000   0.0984
  -9.300  -0.2738   0.10639   0.10293  -0.0394  1.0000  0.0321  -1.4737   0.0000   0.0000   0.0000   0.0951
  -9.200  -0.2719   0.10521   0.10176  -0.0401  1.0000  0.0322  -1.4804   0.0000   0.0000   0.0000   0.0919
  -9.100  -0.2702   0.10403   0.10060  -0.0406  1.0000  0.0322  -1.4874   0.0000   0.0000   0.0000   0.0888
  -9.000  -0.2687   0.10286   0.09946  -0.0412  1.0000  0.0323  -1.4948   0.0000   0.0000   0.0000   0.0860
  -8.900  -0.2675   0.10171   0.09833  -0.0417  1.0000  0.0323  -1.5025   0.0000   0.0000   0.0000   0.0835
  -8.800  -0.2668   0.10061   0.09726  -0.0421  1.0000  0.0323  -1.5106   0.0000   0.0000   0.0000   0.0818
  -8.700  -0.2671   0.09962   0.09630  -0.0423  1.0000  0.0323  -1.5194   0.0000   0.0000   0.0000   0.0815
  -8.600  -0.2697   0.09890   0.09562  -0.0419  1.0000  0.0324  -1.5293   0.0000   0.0000   0.0000   0.0848
  -8.500  -0.2766   0.09871   0.09547  -0.0404  1.0000  0.0324  -1.5408   0.0000   0.0000   0.0000   0.0943
  -8.400  -0.2897   0.09927   0.09609  -0.0376  1.0000  0.0324  -1.5545   0.0000   0.0000   0.0000   0.1113
  -8.300  -0.2816   0.09730   0.09412  -0.0402  0.9972  0.0324  -1.5613   0.0000   0.0000   0.0000   0.0980
  -8.200  -0.2740   0.09538   0.09220  -0.0427  0.9943  0.0324  -1.5691   0.0000   0.0000   0.0000   0.0847
  -8.100  -0.2663   0.09343   0.09025  -0.0454  0.9914  0.0324  -1.5774   0.0000   0.0000   0.0000   0.0700
  -8.000  -0.2580   0.09142   0.08824  -0.0482  0.9889  0.0325  -1.5865   0.0000   0.0000   0.0000   0.0534
  -7.900  -0.2492   0.08932   0.08614  -0.0513  0.9868  0.0325  -1.5962   0.0000   0.0000   0.0000   0.0343
  -7.800  -0.2419   0.08736   0.08417  -0.0540  0.9832  0.0325  -1.6070   0.0000   0.0000   0.0000   0.0168
  -7.700  -0.2339   0.08529   0.08210  -0.0570  0.9797  0.0325  -1.6189   0.0000   0.0000   0.0000  -0.0040
  -7.600  -0.2251   0.08311   0.07992  -0.0604  0.9765  0.0326  -1.6321   0.0000   0.0000   0.0000  -0.0287
  -7.500  -0.2157   0.08082   0.07762  -0.0641  0.9735  0.0326  -1.6471   0.0000   0.0000   0.0000  -0.0580
  -7.400  -0.2049   0.07831   0.07510  -0.0684  0.9711  0.0326  -1.6642   0.0000   0.0000   0.0000  -0.0950
  -7.300  -0.2121   0.07213   0.06895  -0.0738  0.9646  0.0335  -1.8415   0.0000   0.0000   0.0000  -0.1087
  -7.200  -0.2100   0.06872   0.06554  -0.0770  0.9599  0.0342  -1.8911   0.0000   0.0000   0.0000  -0.1275
  -7.100  -0.2042   0.06626   0.06306  -0.0796  0.9562  0.0348  -1.8982   0.0000   0.0000   0.0000  -0.1509
  -7.000  -0.1967   0.06417   0.06094  -0.0821  0.9529  0.0353  -1.8901   0.0000   0.0000   0.0000  -0.1786
  -6.900  -0.1878   0.06267   0.05943  -0.0836  0.9503  0.0359  -1.8526   0.0000   0.0000   0.0000  -0.2065
  -6.800  -0.1819   0.06140   0.05815  -0.0844  0.9458  0.0364  -1.8266   0.0000   0.0000   0.0000  -0.2259
  -6.700  -0.1776   0.06019   0.05692  -0.0851  0.9398  0.0368  -1.8097   0.0000   0.0000   0.0000  -0.2410
  -6.600  -0.1720   0.05884   0.05555  -0.0862  0.9346  0.0373  -1.7939   0.0000   0.0000   0.0000  -0.2629
  -6.500  -0.1660   0.05740   0.05409  -0.0874  0.9300  0.0378  -1.7821   0.0000   0.0000   0.0000  -0.2884
  -6.400  -0.1598   0.05591   0.05255  -0.0886  0.9258  0.0383  -1.7743   0.0000   0.0000   0.0000  -0.3172
  -6.300  -0.1536   0.05440   0.05100  -0.0899  0.9218  0.0387  -1.7707   0.0000   0.0000   0.0000  -0.3481
  -6.200  -0.1503   0.05307   0.04964  -0.0905  0.9162  0.0391  -1.7738   0.0000   0.0000   0.0000  -0.3648
  -6.100  -0.1461   0.05163   0.04815  -0.0913  0.9109  0.0395  -1.7786   0.0000   0.0000   0.0000  -0.3878
  -6.000  -0.1411   0.05008   0.04655  -0.0921  0.9061  0.0398  -1.7868   0.0000   0.0000   0.0000  -0.4161
  -5.900  -0.1358   0.04845   0.04485  -0.0930  0.9018  0.0401  -1.7993   0.0000   0.0000   0.0000  -0.4483
  -5.800  -0.1303   0.04670   0.04302  -0.0938  0.8979  0.0401  -1.8194   0.0000   0.0000   0.0000  -0.4841
  -5.500  -0.1110   0.03868   0.03442  -0.0962  0.8870  0.0288  -2.1521   0.0000   0.0000   0.0000  -0.6338
  -5.400  -0.1057   0.03683   0.03244  -0.0965  0.8830  0.0282  -2.1879   0.0000   0.0000   0.0000  -0.6806
  -5.300  -0.0996   0.03509   0.03054  -0.0966  0.8791  0.0278  -2.2214   0.0000   0.0000   0.0000  -0.7381
  -5.200  -0.0930   0.03343   0.02872  -0.0966  0.8754  0.0275  -2.2518   0.0000   0.0000   0.0000  -0.8091
  -5.100  -0.0857   0.03191   0.02703  -0.0965  0.8719  0.0274  -2.2763   0.0000   0.0000   0.0000  -0.8974
  -5.000  -0.0779   0.03053   0.02548  -0.0964  0.8687  0.0275  -2.2934   0.0000   0.0000   0.0000  -1.0098
  -4.900  -0.0696   0.02931   0.02409  -0.0961  0.8657  0.0279  -2.3019   0.0000   0.0000   0.0000  -1.1561
  -4.800  -0.0608   0.02830   0.02292  -0.0958  0.8629  0.0286  -2.2990   0.0000   0.0000   0.0000  -1.3532
  -4.700  -0.0510   0.02779   0.02218  -0.0954  0.8602  0.0302  -2.2853   0.0000   0.0000   0.0000  -1.6533
  -4.600  -0.0410   0.02753   0.02182  -0.0950  0.8573  0.0311  -2.2313   0.0000   0.0000   0.0000  -2.1071
  -4.500  -0.0293   0.02848   0.02273  -0.0946  0.8541  0.0329  -2.1179   0.0000   0.0000   0.0000  -3.0384
  -4.400  -0.0224   0.02646   0.02047  -0.0946  0.8511  0.0334  -2.1415   0.0000   0.0000   0.0000  -4.0469
  -4.300  -0.0147   0.02482   0.01862  -0.0944  0.8479  0.0340  -2.1419   0.0000   0.0000   0.0000  -6.2877
  -4.200  -0.0062   0.02355   0.01720  -0.0942  0.8445  0.0346  -2.1192   0.0000   0.0000   0.0000  -15.1656
  -4.100   0.0029   0.02258   0.01610  -0.0940  0.8411  0.0352  -2.0787   0.0000   0.0000   0.0000  33.6765
  -4.000   0.0124   0.02182   0.01523  -0.0938  0.8379  0.0359  -2.0263   0.0000   0.0000   0.0000   7.9554
  -3.900   0.0221   0.02118   0.01451  -0.0935  0.8349  0.0366  -1.9654   0.0000   0.0000   0.0000   4.5400
  -3.800   0.0318   0.02097   0.01434  -0.0935  0.8320  0.0391  -1.8628   0.0000   0.0000   0.0000   3.2379
  -3.700   0.0417   0.02127   0.01474  -0.0934  0.8293  0.0431  -1.7339   0.0000   0.0000   0.0000   2.5213
  -3.600   0.0521   0.02151   0.01501  -0.0933  0.8267  0.0473  -1.6230   0.0000   0.0000   0.0000   2.0659
  -3.500   0.0628   0.02164   0.01512  -0.0931  0.8241  0.0505  -1.5481   0.0000   0.0000   0.0000   1.7519
  -3.400   0.0736   0.02161   0.01502  -0.0928  0.8216  0.0522  -1.4996   0.0000   0.0000   0.0000   1.5278
  -3.300   0.0840   0.02110   0.01440  -0.0925  0.8189  0.0524  -1.4755   0.0000   0.0000   0.0000   1.3654
  -3.200   0.0943   0.02029   0.01346  -0.0923  0.8160  0.0516  -1.4690   0.0000   0.0000   0.0000   1.2415
  -3.100   0.1048   0.01947   0.01253  -0.0921  0.8140  0.0507  -1.4612   0.0000   0.0000   0.0000   1.1401
  -3.000   0.1154   0.01878   0.01175  -0.0919  0.8116  0.0499  -1.4498   0.0000   0.0000   0.0000   1.0564
  -2.900   0.1260   0.01817   0.01106  -0.0917  0.8090  0.0492  -1.4360   0.0000   0.0000   0.0000   0.9862
  -2.800   0.1366   0.01763   0.01043  -0.0914  0.8062  0.0486  -1.4203   0.0000   0.0000   0.0000   0.9267
  -2.700   0.1473   0.01713   0.00986  -0.0911  0.8032  0.0482  -1.4030   0.0000   0.0000   0.0000   0.8757
  -2.600   0.1579   0.01667   0.00933  -0.0908  0.8002  0.0478  -1.3843   0.0000   0.0000   0.0000   0.8315
  -2.500   0.1684   0.01625   0.00885  -0.0905  0.7971  0.0476  -1.3644   0.0000   0.0000   0.0000   0.7927
  -2.400   0.1790   0.01585   0.00840  -0.0901  0.7942  0.0475  -1.3434   0.0000   0.0000   0.0000   0.7586
  -2.300   0.1895   0.01548   0.00798  -0.0898  0.7913  0.0476  -1.3214   0.0000   0.0000   0.0000   0.7282
  -2.200   0.2000   0.01514   0.00759  -0.0894  0.7885  0.0479  -1.2990   0.0000   0.0000   0.0000   0.7011
  -2.100   0.2106   0.01484   0.00723  -0.0891  0.7858  0.0484  -1.2764   0.0000   0.0000   0.0000   0.6766
  -2.000   0.2211   0.01458   0.00691  -0.0887  0.7832  0.0492  -1.2544   0.0000   0.0000   0.0000   0.6545
  -1.900   0.2318   0.01436   0.00663  -0.0884  0.7807  0.0505  -1.2339   0.0000   0.0000   0.0000   0.6344
  -1.800   0.2426   0.01420   0.00639  -0.0882  0.7779  0.0525  -1.2162   0.0000   0.0000   0.0000   0.6160
  -1.700   0.2508   0.01298   0.00586  -0.0878  0.7748  0.2273  -1.3417   0.0000   0.0000   0.0000   0.6023
  -1.600   0.2598   0.01257   0.00586  -0.0877  0.7728  0.3364  -1.3123   0.0000   0.0000   0.0000   0.5894
  -1.500   0.2687   0.01225   0.00587  -0.0874  0.7706  0.4184  -1.2670   0.0000   0.0000   0.0000   0.5770
  -1.400   0.2771   0.01192   0.00589  -0.0869  0.7682  0.5108  -1.2200   0.0000   0.0000   0.0000   0.5653
  -1.300   0.2848   0.01162   0.00593  -0.0862  0.7656  0.6041  -1.1732   0.0000   0.0000   0.0000   0.5540
  -1.200   0.2893   0.01123   0.00602  -0.0844  0.7628  0.7300  -1.1331   0.0000   0.0000   0.0000   0.5429
  -1.100   0.2987   0.01090   0.00609  -0.0827  0.7602  0.9003  -1.0790   0.0000   0.0000   0.0000   0.5279
  -1.000   0.3357   0.01072   0.00582  -0.0874  0.7577  0.9815  -0.9696   0.0000   0.0000   0.0000   0.5110
  -0.900   0.3613   0.01063   0.00564  -0.0903  0.7548  1.0000  -0.8778   0.0000   0.0000   0.0000   0.5003
  -0.800   0.3709   0.01063   0.00557  -0.0900  0.7516  1.0000  -0.8272   0.0000   0.0000   0.0000   0.4928
  -0.700   0.3806   0.01063   0.00550  -0.0896  0.7485  1.0000  -0.7768   0.0000   0.0000   0.0000   0.4855
  -0.600   0.3903   0.01064   0.00544  -0.0893  0.7456  1.0000  -0.7266   0.0000   0.0000   0.0000   0.4786
  -0.500   0.4002   0.01065   0.00539  -0.0890  0.7429  1.0000  -0.6816   0.0000   0.0000   0.0000   0.4720
  -0.400   0.4102   0.01068   0.00534  -0.0886  0.7403  1.0000  -0.6904   0.0000   0.0000   0.0000   0.4657
  -0.300   0.4202   0.01072   0.00532  -0.0884  0.7375  1.0000  -0.6993   0.0000   0.0000   0.0000   0.4597
  -0.200   0.4303   0.01080   0.00533  -0.0881  0.7344  1.0000  -0.7082   0.0000   0.0000   0.0000   0.4541
  -0.100   0.4403   0.01098   0.00545  -0.0879  0.7304  1.0000  -0.7179   0.0000   0.0000   0.0000   0.4488
   0.000   0.4502   0.01100   0.00543  -0.0877  0.7284  1.0000  -0.7279   0.0000   0.0000   0.0000   0.4438
   0.100   0.4602   0.01101   0.00542  -0.0875  0.7259  1.0000  -0.7379   0.0000   0.0000   0.0000   0.4390
   0.200   0.4701   0.01102   0.00541  -0.0872  0.7231  1.0000  -0.7480   0.0000   0.0000   0.0000   0.4344
   0.300   0.4802   0.01104   0.00540  -0.0870  0.7199  1.0000  -0.7582   0.0000   0.0000   0.0000   0.4299
   0.400   0.4903   0.01106   0.00539  -0.0868  0.7167  1.0000  -0.7685   0.0000   0.0000   0.0000   0.4256
   0.500   0.5006   0.01107   0.00537  -0.0866  0.7134  1.0000  -0.7788   0.0000   0.0000   0.0000   0.4214
   0.600   0.5109   0.01109   0.00535  -0.0864  0.7102  1.0000  -0.7894   0.0000   0.0000   0.0000   0.4174
   0.700   0.5213   0.01110   0.00532  -0.0862  0.7070  1.0000  -0.8000   0.0000   0.0000   0.0000   0.4135
   0.800   0.5318   0.01110   0.00529  -0.0860  0.7039  1.0000  -0.8107   0.0000   0.0000   0.0000   0.4097
   0.900   0.5424   0.01111   0.00525  -0.0857  0.7008  1.0000  -0.8215   0.0000   0.0000   0.0000   0.4061
   1.000   0.5529   0.01111   0.00520  -0.0855  0.6976  1.0000  -0.8325   0.0000   0.0000   0.0000   0.4025
   1.100   0.5636   0.01112   0.00516  -0.0853  0.6944  1.0000  -0.8450   0.0000   0.0000   0.0000   0.3991
   1.200   0.5743   0.01117   0.00511  -0.0851  0.6909  1.0000  -0.8575   0.0000   0.0000   0.0000   0.3959
   1.300   0.5849   0.01130   0.00518  -0.0850  0.6868  1.0000  -0.8699   0.0000   0.0000   0.0000   0.3928
   1.400   0.5953   0.01142   0.00527  -0.0848  0.6834  1.0000  -0.8819   0.0000   0.0000   0.0000   0.3900
   1.500   0.6057   0.01144   0.00528  -0.0847  0.6813  1.0000  -0.8941   0.0000   0.0000   0.0000   0.3872
   1.600   0.6160   0.01146   0.00530  -0.0845  0.6786  1.0000  -0.9063   0.0000   0.0000   0.0000   0.3845
   1.700   0.6264   0.01148   0.00531  -0.0844  0.6755  1.0000  -0.9186   0.0000   0.0000   0.0000   0.3819
   1.800   0.6368   0.01149   0.00532  -0.0842  0.6721  1.0000  -0.9312   0.0000   0.0000   0.0000   0.3793
   1.900   0.6473   0.01150   0.00532  -0.0841  0.6685  1.0000  -0.9456   0.0000   0.0000   0.0000   0.3768
   2.000   0.6578   0.01151   0.00530  -0.0839  0.6648  1.0000  -0.9601   0.0000   0.0000   0.0000   0.3744
   2.100   0.6685   0.01151   0.00528  -0.0837  0.6611  1.0000  -0.9748   0.0000   0.0000   0.0000   0.3720
   2.200   0.6792   0.01151   0.00525  -0.0836  0.6576  1.0000  -0.9896   0.0000   0.0000   0.0000   0.3697
   2.300   0.6899   0.01152   0.00523  -0.0834  0.6542  1.0000  -1.0044   0.0000   0.0000   0.0000   0.3674
   2.400   0.7007   0.01155   0.00522  -0.0832  0.6510  1.0000  -1.0194   0.0000   0.0000   0.0000   0.3653
   2.500   0.7115   0.01158   0.00521  -0.0831  0.6477  1.0000  -1.0344   0.0000   0.0000   0.0000   0.3632
   2.600   0.7224   0.01165   0.00529  -0.0830  0.6441  1.0000  -1.0494   0.0000   0.0000   0.0000   0.3611
   2.700   0.7332   0.01179   0.00537  -0.0829  0.6396  1.0000  -1.0644   0.0000   0.0000   0.0000   0.3592
   2.800   0.7437   0.01190   0.00547  -0.0828  0.6360  1.0000  -1.0790   0.0000   0.0000   0.0000   0.3574
   2.900   0.7540   0.01190   0.00548  -0.0827  0.6334  1.0000  -1.0955   0.0000   0.0000   0.0000   0.3556
   3.000   0.7644   0.01191   0.00550  -0.0825  0.6301  1.0000  -1.1126   0.0000   0.0000   0.0000   0.3538
   3.100   0.7747   0.01192   0.00552  -0.0824  0.6263  1.0000  -1.1298   0.0000   0.0000   0.0000   0.3520
   3.200   0.7852   0.01193   0.00553  -0.0822  0.6222  1.0000  -1.1471   0.0000   0.0000   0.0000   0.3503
   3.300   0.7957   0.01194   0.00553  -0.0820  0.6181  1.0000  -1.1647   0.0000   0.0000   0.0000   0.3486
   3.400   0.8063   0.01195   0.00553  -0.0819  0.6140  1.0000  -1.1823   0.0000   0.0000   0.0000   0.3470
   3.500   0.8169   0.01197   0.00552  -0.0817  0.6101  1.0000  -1.2001   0.0000   0.0000   0.0000   0.3454
   3.600   0.8276   0.01198   0.00551  -0.0816  0.6061  1.0000  -1.2180   0.0000   0.0000   0.0000   0.3438
   3.700   0.8384   0.01201   0.00549  -0.0814  0.6019  1.0000  -1.2361   0.0000   0.0000   0.0000   0.3422
   3.800   0.8491   0.01206   0.00548  -0.0813  0.5973  1.0000  -1.2543   0.0000   0.0000   0.0000   0.3407
   3.900   0.8600   0.01218   0.00554  -0.0812  0.5916  1.0000  -1.2724   0.0000   0.0000   0.0000   0.3393
   4.000   0.8704   0.01226   0.00562  -0.0811  0.5875  1.0000  -1.2917   0.0000   0.0000   0.0000   0.3379
   4.100   0.8805   0.01226   0.00566  -0.0809  0.5840  1.0000  -1.3124   0.0000   0.0000   0.0000   0.3365
   4.200   0.8907   0.01228   0.00570  -0.0807  0.5799  1.0000  -1.3332   0.0000   0.0000   0.0000   0.3351
   4.300   0.9010   0.01230   0.00574  -0.0806  0.5755  1.0000  -1.3542   0.0000   0.0000   0.0000   0.3338
   4.400   0.9113   0.01233   0.00577  -0.0804  0.5710  1.0000  -1.3753   0.0000   0.0000   0.0000   0.3325
   4.500   0.9217   0.01236   0.00580  -0.0802  0.5664  1.0000  -1.3967   0.0000   0.0000   0.0000   0.3312
   4.600   0.9322   0.01239   0.00581  -0.0801  0.5616  1.0000  -1.4182   0.0000   0.0000   0.0000   0.3300
   4.700   0.9426   0.01242   0.00581  -0.0799  0.5566  1.0000  -1.4400   0.0000   0.0000   0.0000   0.3287
   4.800   0.9531   0.01247   0.00580  -0.0797  0.5512  1.0000  -1.4618   0.0000   0.0000   0.0000   0.3275
   4.900   0.9636   0.01258   0.00584  -0.0796  0.5448  1.0000  -1.4863   0.0000   0.0000   0.0000   0.3263
   5.000   0.9739   0.01268   0.00593  -0.0794  0.5393  1.0000  -1.5117   0.0000   0.0000   0.0000   0.3251
   5.100   0.9838   0.01270   0.00599  -0.0792  0.5350  1.0000  -1.5368   0.0000   0.0000   0.0000   0.3240
   5.200   0.9937   0.01273   0.00605  -0.0790  0.5299  1.0000  -1.5621   0.0000   0.0000   0.0000   0.3229
   5.300   1.0037   0.01277   0.00611  -0.0788  0.5242  1.0000  -1.5876   0.0000   0.0000   0.0000   0.3218
   5.400   1.0138   0.01281   0.00615  -0.0786  0.5182  1.0000  -1.6133   0.0000   0.0000   0.0000   0.3207
   5.500   1.0239   0.01287   0.00619  -0.0784  0.5123  1.0000  -1.6392   0.0000   0.0000   0.0000   0.3196
   5.600   1.0339   0.01294   0.00622  -0.0782  0.5063  1.0000  -1.6652   0.0000   0.0000   0.0000   0.3185
   5.700   1.0438   0.01305   0.00626  -0.0780  0.4997  1.0000  -1.6911   0.0000   0.0000   0.0000   0.3174
   5.800   1.0538   0.01321   0.00635  -0.0778  0.4922  1.0000  -1.7171   0.0000   0.0000   0.0000   0.3164
   5.900   1.0636   0.01326   0.00669  -0.0775  0.4875  1.0000  -1.7424   0.0000   0.0000   0.0000   0.3154
   6.000   1.0732   0.01331   0.00681  -0.0773  0.4813  1.0000  -1.7680   0.0000   0.0000   0.0000   0.3144
   6.100   1.0828   0.01338   0.00689  -0.0771  0.4741  1.0000  -1.7938   0.0000   0.0000   0.0000   0.3134
   6.200   1.0923   0.01346   0.00695  -0.0768  0.4664  1.0000  -1.8232   0.0000   0.0000   0.0000   0.3124
   6.300   1.1015   0.01357   0.00700  -0.0765  0.4585  1.0000  -1.8546   0.0000   0.0000   0.0000   0.3114
   6.400   1.1105   0.01374   0.00708  -0.0761  0.4500  1.0000  -1.8855   0.0000   0.0000   0.0000   0.3104
   6.500   1.1200   0.01389   0.00721  -0.0759  0.4427  1.0000  -1.9170   0.0000   0.0000   0.0000   0.3094
   6.600   1.1295   0.01397   0.00735  -0.0757  0.4372  1.0000  -1.9488   0.0000   0.0000   0.0000   0.3085
   6.700   1.1389   0.01407   0.00748  -0.0754  0.4303  1.0000  -1.9804   0.0000   0.0000   0.0000   0.3076
   6.800   1.1480   0.01419   0.00759  -0.0751  0.4225  1.0000  -2.0119   0.0000   0.0000   0.0000   0.3067
   6.900   1.1566   0.01434   0.00769  -0.0747  0.4141  1.0000  -2.0429   0.0000   0.0000   0.0000   0.3058
   7.000   1.1648   0.01455   0.00781  -0.0743  0.4050  1.0000  -2.0731   0.0000   0.0000   0.0000   0.3048
   7.100   1.1733   0.01476   0.00797  -0.0739  0.3961  1.0000  -2.1039   0.0000   0.0000   0.0000   0.3039
   7.200   1.1825   0.01486   0.00812  -0.0737  0.3897  1.0000  -2.1359   0.0000   0.0000   0.0000   0.3030
   7.300   1.1913   0.01499   0.00827  -0.0733  0.3819  1.0000  -2.1675   0.0000   0.0000   0.0000   0.3022
   7.400   1.1996   0.01516   0.00841  -0.0729  0.3734  1.0000  -2.2015   0.0000   0.0000   0.0000   0.3013
   7.500   1.2072   0.01538   0.00856  -0.0725  0.3648  1.0000  -2.2389   0.0000   0.0000   0.0000   0.3004
   7.600   1.2144   0.01567   0.00876  -0.0719  0.3556  1.0000  -2.2754   0.0000   0.0000   0.0000   0.2994
   7.700   1.2231   0.01586   0.00896  -0.0716  0.3488  1.0000  -2.3147   0.0000   0.0000   0.0000   0.2986
   7.800   1.2319   0.01600   0.00915  -0.0713  0.3429  1.0000  -2.3549   0.0000   0.0000   0.0000   0.2978
   7.900   1.2403   0.01617   0.00934  -0.0710  0.3360  1.0000  -2.3942   0.0000   0.0000   0.0000   0.2970
   8.000   1.2480   0.01638   0.00952  -0.0705  0.3284  1.0000  -2.4326   0.0000   0.0000   0.0000   0.2961
   8.100   1.2549   0.01665   0.00973  -0.0699  0.3203  1.0000  -2.4692   0.0000   0.0000   0.0000   0.2952
   8.200   1.2610   0.01700   0.00998  -0.0693  0.3112  1.0000  -2.5285   0.0000   0.0000   0.0000   0.2943
   8.300   1.2689   0.01723   0.01022  -0.0689  0.3043  1.0000  -2.6186   0.0000   0.0000   0.0000   0.2935
   8.400   1.2772   0.01737   0.01042  -0.0685  0.2986  1.0000  -2.7121   0.0000   0.0000   0.0000   0.2927
   8.500   1.2848   0.01757   0.01063  -0.0681  0.2917  1.0000  -2.8032   0.0000   0.0000   0.0000   0.2919
   8.600   1.2916   0.01782   0.01085  -0.0675  0.2845  1.0000  -2.8914   0.0000   0.0000   0.0000   0.2910
   8.700   1.2974   0.01813   0.01110  -0.0669  0.2771  1.0000  -2.9755   0.0000   0.0000   0.0000   0.2901
   8.800   1.3024   0.01852   0.01141  -0.0661  0.2690  1.0000  -3.0559   0.0000   0.0000   0.0000   0.2892
   8.900   1.3095   0.01882   0.01170  -0.0656  0.2626  1.0000  -3.1469   0.0000   0.0000   0.0000   0.2884
   9.000   1.3174   0.01899   0.01194  -0.0652  0.2584  1.0000  -3.2440   0.0000   0.0000   0.0000   0.2876
   9.100   1.3247   0.01919   0.01218  -0.0647  0.2532  1.0000  -3.3390   0.0000   0.0000   0.0000   0.2868
   9.200   1.3312   0.01944   0.01244  -0.0642  0.2474  1.0000  -3.4308   0.0000   0.0000   0.0000   0.2860
   9.300   1.3368   0.01974   0.01271  -0.0635  0.2416  1.0000  -3.5185   0.0000   0.0000   0.0000   0.2852
   9.400   1.3413   0.02010   0.01302  -0.0626  0.2356  1.0000  -3.6006   0.0000   0.0000   0.0000   0.2842
   9.500   1.3448   0.02055   0.01341  -0.0617  0.2288  1.0000  -3.6775   0.0000   0.0000   0.0000   0.2832
   9.600   1.3502   0.02094   0.01377  -0.0610  0.2226  1.0000  -3.7645   0.0000   0.0000   0.0000   0.2824
   9.700   1.3564   0.02111   0.01402  -0.0603  0.2194  1.0000  -3.8583   0.0000   0.0000   0.0000   0.2815
   9.800   1.3628   0.02130   0.01449  -0.0597  0.2160  1.0000  -3.9335   0.0000   0.0000   0.0000   0.2807
   9.900   1.3680   0.02154   0.01477  -0.0590  0.2114  1.0000  -4.0196   0.0000   0.0000   0.0000   0.2799
  10.000   1.3723   0.02185   0.01507  -0.0581  0.2064  1.0000  -4.1021   0.0000   0.0000   0.0000   0.2790
  10.100   1.3754   0.02221   0.01540  -0.0572  0.2014  1.0000  -4.1796   0.0000   0.0000   0.0000   0.2780
  10.200   1.3770   0.02265   0.01580  -0.0561  0.1958  1.0000  -4.2486   0.0000   0.0000   0.0000   0.2770
  10.300   1.3779   0.02324   0.01631  -0.0550  0.1885  1.0000  -4.3128   0.0000   0.0000   0.0000   0.2760
  10.400   1.3823   0.02355   0.01665  -0.0543  0.1836  1.0000  -4.3997   0.0000   0.0000   0.0000   0.2752
  10.500   1.3875   0.02375   0.01692  -0.0537  0.1792  1.0000  -4.4932   0.0000   0.0000   0.0000   0.2745
  10.600   1.3917   0.02405   0.01723  -0.0531  0.1734  1.0000  -4.5815   0.0000   0.0000   0.0000   0.2737
  10.700   1.3942   0.02447   0.01761  -0.0523  0.1674  1.0000  -4.6600   0.0000   0.0000   0.0000   0.2729
  10.800   1.3950   0.02501   0.01809  -0.0514  0.1614  1.0000  -4.7281   0.0000   0.0000   0.0000   0.2721
  10.900   1.3946   0.02565   0.01867  -0.0503  0.1548  1.0000  -4.7881   0.0000   0.0000   0.0000   0.2712
  11.000   1.3974   0.02614   0.01916  -0.0497  0.1493  1.0000  -4.8670   0.0000   0.0000   0.0000   0.2704
  11.100   1.4032   0.02641   0.01949  -0.0493  0.1450  1.0000  -4.9674   0.0000   0.0000   0.0000   0.2699
  11.200   1.4072   0.02682   0.01991  -0.0488  0.1402  1.0000  -5.0561   0.0000   0.0000   0.0000   0.2692
  11.300   1.4101   0.02731   0.02041  -0.0482  0.1357  1.0000  -5.1375   0.0000   0.0000   0.0000   0.2685
  11.400   1.4124   0.02787   0.02095  -0.0475  0.1319  1.0000  -5.2142   0.0000   0.0000   0.0000   0.2679
  11.500   1.4137   0.02851   0.02157  -0.0469  0.1281  1.0000  -5.2849   0.0000   0.0000   0.0000   0.2672
  11.600   1.4143   0.02922   0.02226  -0.0462  0.1242  1.0000  -5.3502   0.0000   0.0000   0.0000   0.2665
  11.700   1.4146   0.02997   0.02301  -0.0454  0.1199  1.0000  -5.4127   0.0000   0.0000   0.0000   0.2658
  11.800   1.4192   0.03041   0.02350  -0.0450  0.1175  1.0000  -5.5044   0.0000   0.0000   0.0000   0.2652
  11.900   1.4244   0.03081   0.02396  -0.0447  0.1151  1.0000  -5.6008   0.0000   0.0000   0.0000   0.2647
  12.000   1.4288   0.03127   0.02447  -0.0443  0.1122  1.0000  -5.6916   0.0000   0.0000   0.0000   0.2641
  12.100   1.4321   0.03182   0.02505  -0.0439  0.1092  1.0000  -5.7748   0.0000   0.0000   0.0000   0.2636
  12.200   1.4342   0.03245   0.02569  -0.0434  0.1060  1.0000  -5.8507   0.0000   0.0000   0.0000   0.2630
  12.300   1.4355   0.03315   0.02640  -0.0429  0.1029  1.0000  -5.9208   0.0000   0.0000   0.0000   0.2624
  12.400   1.4361   0.03393   0.02716  -0.0424  0.0999  1.0000  -5.9860   0.0000   0.0000   0.0000   0.2619
  12.500   1.4361   0.03477   0.02800  -0.0419  0.0967  1.0000  -6.0464   0.0000   0.0000   0.0000   0.2613
  12.600   1.4355   0.03569   0.02892  -0.0414  0.0934  1.0000  -6.1011   0.0000   0.0000   0.0000   0.2608
  12.700   1.4355   0.03659   0.02983  -0.0409  0.0905  1.0000  -6.1583   0.0000   0.0000   0.0000   0.2603
  12.800   1.4400   0.03710   0.03042  -0.0407  0.0888  1.0000  -6.2470   0.0000   0.0000   0.0000   0.2598
  12.900   1.4439   0.03767   0.03105  -0.0404  0.0860  1.0000  -6.3314   0.0000   0.0000   0.0000   0.2594
  13.000   1.4463   0.03837   0.03176  -0.0402  0.0820  1.0000  -6.4062   0.0000   0.0000   0.0000   0.2589
  13.100   1.4470   0.03924   0.03262  -0.0399  0.0776  1.0000  -6.4685   0.0000   0.0000   0.0000   0.2585
  13.200   1.4465   0.04024   0.03359  -0.0396  0.0738  1.0000  -6.5210   0.0000   0.0000   0.0000   0.2581
  13.300   1.4449   0.04136   0.03471  -0.0393  0.0706  1.0000  -6.5647   0.0000   0.0000   0.0000   0.2577
  13.400   1.4430   0.04254   0.03590  -0.0390  0.0672  1.0000  -6.6037   0.0000   0.0000   0.0000   0.2574
  13.500   1.4449   0.04335   0.03676  -0.0388  0.0646  1.0000  -6.6658   0.0000   0.0000   0.0000   0.2570
  13.600   1.4470   0.04414   0.03760  -0.0386  0.0613  1.0000  -6.7277   0.0000   0.0000   0.0000   0.2566
  13.700   1.4471   0.04514   0.03862  -0.0384  0.0571  1.0000  -6.7744   0.0000   0.0000   0.0000   0.2562
  13.800   1.4452   0.04636   0.03983  -0.0382  0.0525  1.0000  -6.8066   0.0000   0.0000   0.0000   0.2559
  13.900   1.4408   0.04786   0.04130  -0.0380  0.0485  1.0000  -6.8231   0.0000   0.0000   0.0000   0.2557
  14.000   1.4374   0.04929   0.04274  -0.0379  0.0441  1.0000  -6.8397   0.0000   0.0000   0.0000   0.2555
  14.100   1.4349   0.05064   0.04410  -0.0378  0.0383  1.0000  -6.8558   0.0000   0.0000   0.0000   0.2552
  14.200   1.4294   0.05231   0.04573  -0.0377  0.0328  1.0000  -6.8573   0.0000   0.0000   0.0000   0.2551
  14.300   1.4230   0.05409   0.04747  -0.0377  0.0280  1.0000  -6.8496   0.0000   0.0000   0.0000   0.2550
  14.400   1.4175   0.05583   0.04924  -0.0377  0.0248  1.0000  -6.8409   0.0000   0.0000   0.0000   0.2549
  14.500   1.4117   0.05769   0.05110  -0.0378  0.0221  1.0000  -6.8300   0.0000   0.0000   0.0000   0.2548
  14.600   1.4057   0.05960   0.05301  -0.0379  0.0200  1.0000  -6.8179   0.0000   0.0000   0.0000   0.2548
  14.700   1.3994   0.06164   0.05507  -0.0381  0.0182  1.0000  -6.7966   0.0000   0.0000   0.0000   0.2549
  14.800   1.3921   0.06389   0.05738  -0.0385  0.0168  1.0000  -6.7630   0.0000   0.0000   0.0000   0.2550
  14.900   1.3844   0.06629   0.05987  -0.0390  0.0159  1.0000  -6.7246   0.0000   0.0000   0.0000   0.2553
  15.000   1.3785   0.06846   0.06208  -0.0394  0.0154  1.0000  -6.7041   0.0000   0.0000   0.0000   0.2555
  15.100   1.3755   0.07022   0.06393  -0.0397  0.0151  1.0000  -6.7145   0.0000   0.0000   0.0000   0.2557
  15.200   1.3723   0.07204   0.06582  -0.0402  0.0148  1.0000  -6.7232   0.0000   0.0000   0.0000   0.2558
  15.300   1.3682   0.07406   0.06792  -0.0407  0.0146  1.0000  -6.7261   0.0000   0.0000   0.0000   0.2561
  15.400   1.3640   0.07611   0.07004  -0.0413  0.0144  1.0000  -6.7280   0.0000   0.0000   0.0000   0.2564
  15.500   1.3601   0.07811   0.07212  -0.0419  0.0142  1.0000  -6.7312   0.0000   0.0000   0.0000   0.2567
  15.600   1.3565   0.08009   0.07418  -0.0425  0.0141  1.0000  -6.7352   0.0000   0.0000   0.0000   0.2570
  15.700   1.3528   0.08209   0.07625  -0.0431  0.0139  1.0000  -6.7386   0.0000   0.0000   0.0000   0.2573
  15.800   1.3485   0.08421   0.07844  -0.0438  0.0138  1.0000  -6.7381   0.0000   0.0000   0.0000   0.2577
  15.900   1.3437   0.08645   0.08075  -0.0446  0.0136  1.0000  -6.7334   0.0000   0.0000   0.0000   0.2582
  16.000   1.3395   0.08858   0.08295  -0.0454  0.0135  1.0000  -6.7323   0.0000   0.0000   0.0000   0.2587
  16.100   1.3357   0.09063   0.08508  -0.0461  0.0134  1.0000  -6.7329   0.0000   0.0000   0.0000   0.2592
  16.200   1.3320   0.09267   0.08718  -0.0469  0.0133  1.0000  -6.7337   0.0000   0.0000   0.0000   0.2596
  16.300   1.3283   0.09469   0.08927  -0.0476  0.0132  1.0000  -6.7338   0.0000   0.0000   0.0000   0.2601
  16.400   1.3238   0.09690   0.09155  -0.0486  0.0131  1.0000  -6.7279   0.0000   0.0000   0.0000   0.2607
  16.500   1.3196   0.09908   0.09380  -0.0495  0.0130  1.0000  -6.7230   0.0000   0.0000   0.0000   0.2613
  16.600   1.3168   0.10101   0.09589  -0.0503  0.0129  1.0000  -6.7417   0.0000   0.0000   0.0000   0.2618
  16.700   1.3134   0.10300   0.09795  -0.0511  0.0128  1.0000  -6.7421   0.0000   0.0000   0.0000   0.2623
  16.800   1.3101   0.10496   0.09997  -0.0520  0.0128  1.0000  -6.7421   0.0000   0.0000   0.0000   0.2628
  16.900   1.3069   0.10691   0.10199  -0.0528  0.0127  1.0000  -6.7414   0.0000   0.0000   0.0000   0.2633
  17.000   1.3032   0.10899   0.10413  -0.0538  0.0126  1.0000  -6.7366   0.0000   0.0000   0.0000   0.2640
  17.100   1.2992   0.11115   0.10636  -0.0548  0.0126  1.0000  -6.7281   0.0000   0.0000   0.0000   0.2647
  17.200   1.2957   0.11318   0.10845  -0.0558  0.0125  1.0000  -6.7225   0.0000   0.0000   0.0000   0.2654
  17.300   1.2926   0.11502   0.11036  -0.0567  0.0124  1.0000  -6.7190   0.0000   0.0000   0.0000   0.2660
  17.400   1.2897   0.11679   0.11218  -0.0576  0.0124  1.0000  -6.7164   0.0000   0.0000   0.0000   0.2666
  17.500   1.2870   0.11853   0.11399  -0.0585  0.0123  1.0000  -6.7140   0.0000   0.0000   0.0000   0.2671
  17.600   1.2844   0.12030   0.11582  -0.0594  0.0123  1.0000  -6.7117   0.0000   0.0000   0.0000   0.2677
  17.700   1.2817   0.12212   0.11770  -0.0603  0.0122  1.0000  -6.7081   0.0000   0.0000   0.0000   0.2683
  17.800   1.2784   0.12416   0.11980  -0.0614  0.0122  1.0000  -6.6975   0.0000   0.0000   0.0000   0.2691
  17.900   1.2749   0.12627   0.12197  -0.0626  0.0122  1.0000  -6.6934   0.0000   0.0000   0.0000   0.2700
  18.000   1.2717   0.12835   0.12412  -0.0637  0.0121  1.0000  -6.6914   0.0000   0.0000   0.0000   0.2708
  18.100   1.2687   0.13043   0.12627  -0.0648  0.0121  1.0000  -6.6894   0.0000   0.0000   0.0000   0.2716
  18.200   1.2654   0.13259   0.12849  -0.0660  0.0121  1.0000  -6.6845   0.0000   0.0000   0.0000   0.2724
  18.300   1.2622   0.13481   0.13078  -0.0672  0.0121  1.0000  -6.6780   0.0000   0.0000   0.0000   0.2733
  18.400   1.2588   0.13713   0.13316  -0.0684  0.0121  1.0000  -6.6677   0.0000   0.0000   0.0000   0.2743
  18.500   1.2546   0.13969   0.13580  -0.0699  0.0121  1.0000  -6.6473   0.0000   0.0000   0.0000   0.2754
  18.600   1.2498   0.14246   0.13864  -0.0715  0.0121  1.0000  -6.6181   0.0000   0.0000   0.0000   0.2767
  18.700   1.2454   0.14517   0.14142  -0.0730  0.0121  1.0000  -6.5915   0.0000   0.0000   0.0000   0.2780
  18.800   1.2410   0.14790   0.14421  -0.0745  0.0121  1.0000  -6.5641   0.0000   0.0000   0.0000   0.2792
  18.900   1.2367   0.15071   0.14709  -0.0760  0.0121  1.0000  -6.5341   0.0000   0.0000   0.0000   0.2805
  19.000   1.2320   0.15367   0.15012  -0.0777  0.0121  1.0000  -6.4978   0.0000   0.0000   0.0000   0.2819
  19.100   1.2262   0.15700   0.15352  -0.0795  0.0122  1.0000  -6.4458   0.0000   0.0000   0.0000   0.2836
  19.200   1.2198   0.16058   0.15716  -0.0815  0.0122  1.0000  -6.3837   0.0000   0.0000   0.0000   0.2854
  19.300   1.2139   0.16408   0.16072  -0.0834  0.0123  1.0000  -6.3244   0.0000   0.0000   0.0000   0.2872
  19.400   1.2079   0.16768   0.16440  -0.0854  0.0123  1.0000  -6.2612   0.0000   0.0000   0.0000   0.2890
  19.500   1.2013   0.17156   0.16834  -0.0874  0.0124  1.0000  -6.1860   0.0000   0.0000   0.0000   0.2910
  19.600   1.1927   0.17617   0.17302  -0.0899  0.0124  1.0000  -6.0797   0.0000   0.0000   0.0000   0.2936
  19.700   1.1845   0.18078   0.17769  -0.0923  0.0125  1.0000  -5.9732   0.0000   0.0000   0.0000   0.2961
  19.800   1.1761   0.18554   0.18251  -0.0947  0.0126  1.0000  -5.8597   0.0000   0.0000   0.0000   0.2986
  19.900   1.1659   0.19107   0.18809  -0.0974  0.0127  1.0000  -5.7123   0.0000   0.0000   0.0000   0.3017
  20.000   1.1539   0.19744   0.19452  -0.1004  0.0129  1.0000  -5.5287   0.0000   0.0000   0.0000   0.3053
  20.100   1.1393   0.20497   0.20202  -0.1037  0.0131  1.0000  -5.2848   0.0000   0.0000   0.0000   0.3095
  20.200   1.1212   0.21422   0.21130  -0.1076  0.0134  1.0000  -4.9564   0.0000   0.0000   0.0000   0.3147
  20.300   1.1002   0.22522   0.22232  -0.1116  0.0138  1.0000  -4.5356   0.0000   0.0000   0.0000   0.3207
  20.400   1.0824   0.23546   0.23255  -0.1150  0.0142  1.0000  -4.1456   0.0000   0.0000   0.0000   0.3259
  20.500   1.0704   0.24352   0.24059  -0.1173  0.0144  1.0000  -3.8620   0.0000   0.0000   0.0000   0.3296
  20.600   1.0624   0.24982   0.24687  -0.1190  0.0146  1.0000  -3.6668   0.0000   0.0000   0.0000   0.3322
  20.700   1.0560   0.25541   0.25245  -0.1205  0.0148  1.0000  -3.5074   0.0000   0.0000   0.0000   0.3343
  20.800   1.0506   0.26051   0.25753  -0.1218  0.0149  1.0000  -3.3733   0.0000   0.0000   0.0000   0.3362
  20.900   1.0457   0.26528   0.26230  -0.1229  0.0151  1.0000  -3.2550   0.0000   0.0000   0.0000   0.3379
  21.000   1.0404   0.27010   0.26711  -0.1240  0.0153  1.0000  -3.1336   0.0000   0.0000   0.0000   0.3395
  21.300   1.0383   0.27840   0.27546  -0.1259  0.0158  1.0000  -3.0686   0.0000   0.0000   0.0000   0.3412
  21.400   1.0386   0.28074   0.27781  -0.1265  0.0160  1.0000  -3.0665   0.0000   0.0000   0.0000   0.3416
  21.500   1.0384   0.28338   0.28045  -0.1271  0.0163  1.0000  -3.0465   0.0000   0.0000   0.0000   0.3421
  21.600   1.0099   0.29986   0.29687  -0.1298  0.0219  1.0000  -2.2941   0.0000   0.0000   0.0000   0.3495
  21.700   1.0050   0.30299   0.30001  -0.1301  0.0234  1.0000  -2.2284   0.0000   0.0000   0.0000   0.3504
  21.800   1.0007   0.30530   0.30233  -0.1302  0.0248  1.0000  -2.1964   0.0000   0.0000   0.0000   0.3510
  22.400   0.9377   0.29988   0.29717  -0.1233  0.0296  1.0000  -2.0806   0.0000   0.0000   0.0000   0.3526
  22.500   0.9319   0.30024   0.29755  -0.1233  0.0296  1.0000  -2.0519   0.0000   0.0000   0.0000   0.3534
  22.600   0.9266   0.30063   0.29796  -0.1233  0.0296  1.0000  -2.0284   0.0000   0.0000   0.0000   0.3541
  22.700   0.9216   0.30108   0.29843  -0.1233  0.0294  1.0000  -2.0075   0.0000   0.0000   0.0000   0.3547
  22.800   0.9164   0.30163   0.29899  -0.1232  0.0292  1.0000  -1.9841   0.0000   0.0000   0.0000   0.3554
  22.900   0.8980   0.30393   0.30127  -0.1227  0.0284  1.0000  -1.8234   0.0000   0.0000   0.0000   0.3580
  23.000   0.8952   0.30465   0.30200  -0.1229  0.0284  1.0000  -1.8069   0.0000   0.0000   0.0000   0.3586
  23.100   0.8925   0.30538   0.30274  -0.1231  0.0284  1.0000  -1.7911   0.0000   0.0000   0.0000   0.3592
  23.200   0.8900   0.30612   0.30349  -0.1234  0.0284  1.0000  -1.7757   0.0000   0.0000   0.0000   0.3598
  23.300   0.8877   0.30686   0.30425  -0.1237  0.0284  1.0000  -1.7608   0.0000   0.0000   0.0000   0.3604
  23.400   0.8854   0.30761   0.30501  -0.1239  0.0284  1.0000  -1.7461   0.0000   0.0000   0.0000   0.3610
  23.500   0.8833   0.30836   0.30578  -0.1242  0.0283  1.0000  -1.7318   0.0000   0.0000   0.0000   0.3615
  23.600   0.8813   0.30912   0.30654  -0.1245  0.0283  1.0000  -1.7176   0.0000   0.0000   0.0000   0.3621
  23.700   0.8794   0.30988   0.30732  -0.1248  0.0283  1.0000  -1.7036   0.0000   0.0000   0.0000   0.3627
  23.800   0.8776   0.31064   0.30809  -0.1252  0.0283  1.0000  -1.6897   0.0000   0.0000   0.0000   0.3632
  23.900   0.8759   0.31141   0.30886  -0.1255  0.0283  1.0000  -1.6758   0.0000   0.0000   0.0000   0.3638
  24.000   0.8742   0.31217   0.30964  -0.1258  0.0283  1.0000  -1.6617   0.0000   0.0000   0.0000   0.3643
  24.100   0.8726   0.31293   0.31041  -0.1262  0.0283  1.0000  -1.6476   0.0000   0.0000   0.0000   0.3649
  24.200   0.8711   0.31369   0.31118  -0.1265  0.0283  1.0000  -1.6331   0.0000   0.0000   0.0000   0.3654
  24.300   0.8697   0.31444   0.31194  -0.1269  0.0282  1.0000  -1.6183   0.0000   0.0000   0.0000   0.3660
  24.400   0.8682   0.31516   0.31267  -0.1273  0.0282  1.0000  -1.6027   0.0000   0.0000   0.0000   0.3666
  24.500   0.8667   0.31585   0.31336  -0.1277  0.0282  1.0000  -1.5863   0.0000   0.0000   0.0000   0.3672
  24.600   0.8653   0.31650   0.31402  -0.1281  0.0281  1.0000  -1.5692   0.0000   0.0000   0.0000   0.3678
  24.700   0.8639   0.31709   0.31462  -0.1286  0.0280  1.0000  -1.5512   0.0000   0.0000   0.0000   0.3685
  24.800   0.8625   0.31760   0.31514  -0.1291  0.0279  1.0000  -1.5315   0.0000   0.0000   0.0000   0.3692
  24.900   0.8608   0.31805   0.31559  -0.1298  0.0278  1.0000  -1.5067   0.0000   0.0000   0.0000   0.3702
  25.000   0.8585   0.31854   0.31609  -0.1308  0.0274  1.0000  -1.4691   0.0000   0.0000   0.0000   0.3716
  25.100   0.8571   0.31958   0.31712  -0.1322  0.0266  1.0000  -1.4167   0.0000   0.0000   0.0000   0.3735
  25.200   0.8567   0.32105   0.31860  -0.1333  0.0246  1.0000  -1.3731   0.0000   0.0000   0.0000   0.3748
  25.300   0.8561   0.32195   0.31951  -0.1338  0.0233  1.0000  -1.3573   0.0000   0.0000   0.0000   0.3753
  25.400   0.8554   0.32273   0.32029  -0.1342  0.0225  1.0000  -1.3456   0.0000   0.0000   0.0000   0.3758
  25.500   0.8548   0.32345   0.32102  -0.1346  0.0218  1.0000  -1.3365   0.0000   0.0000   0.0000   0.3762
  25.600   0.8542   0.32413   0.32172  -0.1349  0.0211  1.0000  -1.3295   0.0000   0.0000   0.0000   0.3765
  25.700   0.8537   0.32479   0.32238  -0.1353  0.0205  1.0000  -1.3243   0.0000   0.0000   0.0000   0.3769
  25.800   0.8533   0.32542   0.32302  -0.1356  0.0200  1.0000  -1.3208   0.0000   0.0000   0.0000   0.3772
  25.900   0.8529   0.32603   0.32364  -0.1360  0.0195  1.0000  -1.3192   0.0000   0.0000   0.0000   0.3774
  26.000   0.8526   0.32660   0.32422  -0.1363  0.0190  1.0000  -1.3194   0.0000   0.0000   0.0000   0.3777
  26.100   0.8523   0.32715   0.32478  -0.1366  0.0186  1.0000  -1.3215   0.0000   0.0000   0.0000   0.3779
  26.200   0.8521   0.32767   0.32531  -0.1369  0.0183  1.0000  -1.3256   0.0000   0.0000   0.0000   0.3781
  26.300   0.8519   0.32816   0.32581  -0.1371  0.0179  1.0000  -1.3317   0.0000   0.0000   0.0000   0.3782
  26.400   0.8518   0.32862   0.32628  -0.1374  0.0176  1.0000  -1.3400   0.0000   0.0000   0.0000   0.3783
  26.500   0.8517   0.32904   0.32671  -0.1376  0.0173  1.0000  -1.3505   0.0000   0.0000   0.0000   0.3783
  26.600   0.8517   0.32943   0.32711  -0.1378  0.0171  1.0000  -1.3635   0.0000   0.0000   0.0000   0.3783
  26.700   0.8518   0.32980   0.32749  -0.1379  0.0168  1.0000  -1.3791   0.0000   0.0000   0.0000   0.3782
  26.800   0.8519   0.33015   0.32792  -0.1380  0.0166  1.0000  -1.3956   0.0000   0.0000   0.0000   0.3781
  26.900   0.8521   0.33055   0.32832  -0.1380  0.0163  1.0000  -1.4152   0.0000   0.0000   0.0000   0.3778
  27.000   0.8525   0.33112   0.32891  -0.1378  0.0161  1.0000  -1.4365   0.0000   0.0000   0.0000   0.3773
  27.100   0.8465   0.33404   0.33179  -0.1375  0.0155  1.0000  -1.3318   0.0000   0.0000   0.0000   0.3782
  27.200   0.8460   0.33486   0.33263  -0.1379  0.0154  1.0000  -1.3171   0.0000   0.0000   0.0000   0.3786
  27.300   0.8454   0.33569   0.33346  -0.1383  0.0154  1.0000  -1.3028   0.0000   0.0000   0.0000   0.3790
  27.400   0.8449   0.33651   0.33428  -0.1387  0.0154  1.0000  -1.2889   0.0000   0.0000   0.0000   0.3794
  27.500   0.8445   0.33732   0.33511  -0.1391  0.0154  1.0000  -1.2754   0.0000   0.0000   0.0000   0.3798
  27.600   0.8440   0.33814   0.33593  -0.1395  0.0154  1.0000  -1.2623   0.0000   0.0000   0.0000   0.3802
  27.700   0.8436   0.33895   0.33674  -0.1399  0.0154  1.0000  -1.2496   0.0000   0.0000   0.0000   0.3806
  27.800   0.8431   0.33975   0.33755  -0.1403  0.0154  1.0000  -1.2369   0.0000   0.0000   0.0000   0.3810
  27.900   0.8427   0.34054   0.33835  -0.1407  0.0154  1.0000  -1.2246   0.0000   0.0000   0.0000   0.3814
  28.000   0.8422   0.34134   0.33915  -0.1411  0.0154  1.0000  -1.2126   0.0000   0.0000   0.0000   0.3818
  28.100   0.8418   0.34212   0.33995  -0.1416  0.0154  1.0000  -1.2009   0.0000   0.0000   0.0000   0.3822
  28.200   0.8414   0.34291   0.34074  -0.1420  0.0153  1.0000  -1.1894   0.0000   0.0000   0.0000   0.3826
  28.300   0.8410   0.34369   0.34153  -0.1424  0.0153  1.0000  -1.1783   0.0000   0.0000   0.0000   0.3830
  28.400   0.8407   0.34448   0.34232  -0.1428  0.0153  1.0000  -1.1674   0.0000   0.0000   0.0000   0.3834
  28.500   0.8403   0.34525   0.34310  -0.1433  0.0153  1.0000  -1.1567   0.0000   0.0000   0.0000   0.3838
  28.600   0.8399   0.34602   0.34388  -0.1437  0.0153  1.0000  -1.1463   0.0000   0.0000   0.0000   0.3842
  28.700   0.8396   0.34679   0.34466  -0.1441  0.0153  1.0000  -1.1361   0.0000   0.0000   0.0000   0.3846
  28.800   0.8392   0.34755   0.34542  -0.1446  0.0152  1.0000  -1.1256   0.0000   0.0000   0.0000   0.3850
  28.900   0.8389   0.34831   0.34619  -0.1450  0.0152  1.0000  -1.1153   0.0000   0.0000   0.0000   0.3854
  29.000   0.8385   0.34906   0.34695  -0.1455  0.0152  1.0000  -1.1052   0.0000   0.0000   0.0000   0.3858
  29.100   0.8382   0.34981   0.34771  -0.1459  0.0152  1.0000  -1.0952   0.0000   0.0000   0.0000   0.3862
  29.200   0.8379   0.35056   0.34847  -0.1464  0.0152  1.0000  -1.0855   0.0000   0.0000   0.0000   0.3866
  29.300   0.8374   0.35130   0.34921  -0.1469  0.0151  1.0000  -1.0738   0.0000   0.0000   0.0000   0.3871
  29.400   0.8370   0.35205   0.34996  -0.1474  0.0151  1.0000  -1.0623   0.0000   0.0000   0.0000   0.3876
  29.500   0.8366   0.35280   0.35072  -0.1479  0.0151  1.0000  -1.0509   0.0000   0.0000   0.0000   0.3880
  29.600   0.8363   0.35356   0.35149  -0.1484  0.0150  1.0000  -1.0396   0.0000   0.0000   0.0000   0.3885
  29.700   0.8359   0.35432   0.35226  -0.1489  0.0150  1.0000  -1.0283   0.0000   0.0000   0.0000   0.3890
  29.800   0.8357   0.35510   0.35304  -0.1494  0.0149  1.0000  -1.0170   0.0000   0.0000   0.0000   0.3895
  29.900   0.8354   0.35589   0.35384  -0.1500  0.0149  1.0000  -1.0057   0.0000   0.0000   0.0000   0.3900
  30.000   0.8352   0.35670   0.35465  -0.1505  0.0148  1.0000  -0.9941   0.0000   0.0000   0.0000   0.3904


