xflr5 v6.61

 Calculated polar for: S4310

 1 1 Reynolds number fixed          Mach number fixed         

 xtrf =   1.000 (top)        1.000 (bottom)
 Mach =   0.000     Re =     1.000 e 6     Ncrit =   9.000

  alpha     CL        CD       CDp       Cm    Top Xtr Bot Xtr   Cpmin    Chinge    XCp    
 ------- -------- --------- --------- -------- ------- ------- -------- --------- ---------
 -10.000  -0.2804   0.11065   0.10903  -0.0317  1.0000  0.0155  -1.4172   0.0000   0.0000   0.0000   0.1254
  -9.900  -0.2757   0.10911   0.10748  -0.0329  0.9838  0.0155  -1.4201   0.0000   0.0000   0.0000   0.1189
  -9.800  -0.2681   0.10726   0.10563  -0.0351  0.9764  0.0155  -1.4219   0.0000   0.0000   0.0000   0.1072
  -9.700  -0.2601   0.10537   0.10373  -0.0374  0.9706  0.0156  -1.4237   0.0000   0.0000   0.0000   0.0940
  -9.600  -0.2527   0.10353   0.10187  -0.0395  0.9638  0.0156  -1.4272   0.0000   0.0000   0.0000   0.0812
  -9.500  -0.2456   0.10167   0.10000  -0.0416  0.9565  0.0156  -1.4323   0.0000   0.0000   0.0000   0.0678
  -9.400  -0.2389   0.09989   0.09819  -0.0435  0.9485  0.0156  -1.4379   0.0000   0.0000   0.0000   0.0548
  -9.300  -0.2348   0.09838   0.09665  -0.0447  0.9391  0.0156  -1.4445   0.0000   0.0000   0.0000   0.0467
  -9.200  -0.2315   0.09696   0.09520  -0.0455  0.9292  0.0156  -1.4516   0.0000   0.0000   0.0000   0.0401
  -9.100  -0.2290   0.09564   0.09385  -0.0462  0.9201  0.0156  -1.4593   0.0000   0.0000   0.0000   0.0353
  -9.000  -0.2271   0.09436   0.09255  -0.0467  0.9128  0.0156  -1.4674   0.0000   0.0000   0.0000   0.0315
  -8.900  -0.2253   0.09310   0.09127  -0.0471  0.9051  0.0156  -1.4759   0.0000   0.0000   0.0000   0.0280
  -8.800  -0.2237   0.09185   0.08998  -0.0475  0.8972  0.0156  -1.4846   0.0000   0.0000   0.0000   0.0248
  -8.700  -0.2220   0.09058   0.08868  -0.0479  0.8899  0.0156  -1.4937   0.0000   0.0000   0.0000   0.0212
  -8.600  -0.2200   0.08924   0.08734  -0.0485  0.8856  0.0156  -1.5031   0.0000   0.0000   0.0000   0.0168
  -8.500  -0.2182   0.08792   0.08601  -0.0491  0.8805  0.0156  -1.5129   0.0000   0.0000   0.0000   0.0125
  -8.400  -0.2165   0.08661   0.08468  -0.0496  0.8750  0.0156  -1.5231   0.0000   0.0000   0.0000   0.0085
  -8.300  -0.2151   0.08531   0.08336  -0.0501  0.8692  0.0156  -1.5338   0.0000   0.0000   0.0000   0.0048
  -8.200  -0.2138   0.08403   0.08206  -0.0505  0.8629  0.0156  -1.5450   0.0000   0.0000   0.0000   0.0014
  -8.000  -0.2110   0.08140   0.07940  -0.0516  0.8527  0.0156  -1.5691   0.0000   0.0000   0.0000  -0.0067
  -7.900  -0.2096   0.08004   0.07804  -0.0522  0.8493  0.0156  -1.5821   0.0000   0.0000   0.0000  -0.0112
  -7.800  -0.2082   0.07868   0.07667  -0.0529  0.8453  0.0156  -1.5957   0.0000   0.0000   0.0000  -0.0158
  -7.700  -0.2071   0.07731   0.07530  -0.0535  0.8408  0.0155  -1.6102   0.0000   0.0000   0.0000  -0.0200
  -7.600  -0.2063   0.07596   0.07393  -0.0541  0.8360  0.0155  -1.6256   0.0000   0.0000   0.0000  -0.0238
  -7.500  -0.2057   0.07462   0.07257  -0.0547  0.8308  0.0155  -1.6418   0.0000   0.0000   0.0000  -0.0272
  -7.400  -0.2055   0.07327   0.07120  -0.0553  0.8248  0.0155  -1.6592   0.0000   0.0000   0.0000  -0.0302
  -7.300  -0.2054   0.07192   0.06982  -0.0559  0.8180  0.0155  -1.6778   0.0000   0.0000   0.0000  -0.0330
  -7.200  -0.2056   0.07051   0.06842  -0.0566  0.8147  0.0155  -1.6980   0.0000   0.0000   0.0000  -0.0362
  -7.100  -0.2064   0.06912   0.06704  -0.0575  0.8121  0.0155  -1.7201   0.0000   0.0000   0.0000  -0.0388
  -7.000  -0.2062   0.06758   0.06550  -0.0588  0.8089  0.0155  -1.7449   0.0000   0.0000   0.0000  -0.0456
  -6.900  -0.2045   0.06579   0.06370  -0.0607  0.8053  0.0155  -1.7731   0.0000   0.0000   0.0000  -0.0569
  -6.800  -0.2026   0.06388   0.06178  -0.0627  0.8013  0.0154  -1.8051   0.0000   0.0000   0.0000  -0.0696
  -6.700  -0.2004   0.06184   0.05972  -0.0649  0.7971  0.0154  -1.8426   0.0000   0.0000   0.0000  -0.0835
  -6.600  -0.1982   0.05959   0.05743  -0.0671  0.7926  0.0153  -1.8905   0.0000   0.0000   0.0000  -0.0982
  -6.400  -0.2054   0.05044   0.04813  -0.0752  0.7820  0.0138  -2.2691   0.0000   0.0000   0.0000  -0.1255
  -6.300  -0.2056   0.04612   0.04369  -0.0784  0.7763  0.0129  -2.4480   0.0000   0.0000   0.0000  -0.1405
  -6.200  -0.2038   0.04206   0.03952  -0.0808  0.7737  0.0120  -2.6194   0.0000   0.0000   0.0000  -0.1558
  -6.100  -0.2018   0.03753   0.03483  -0.0827  0.7724  0.0111  -2.8396   0.0000   0.0000   0.0000  -0.1698
  -6.000  -0.2309   0.01488   0.01018  -0.0834  0.7718  0.0069  -5.0181   0.0000   0.0000   0.0000  -0.1222
  -5.900  -0.2214   0.01391   0.00906  -0.0832  0.7701  0.0067  -4.9940   0.0000   0.0000   0.0000  -0.1370
  -5.800  -0.2114   0.01323   0.00826  -0.0830  0.7682  0.0066  -4.9334   0.0000   0.0000   0.0000  -0.1544
  -5.700  -0.2011   0.01266   0.00759  -0.0829  0.7659  0.0066  -4.8577   0.0000   0.0000   0.0000  -0.1740
  -5.600  -0.1907   0.01216   0.00700  -0.0827  0.7636  0.0066  -4.7738   0.0000   0.0000   0.0000  -0.1960
  -5.500  -0.1802   0.01170   0.00647  -0.0825  0.7611  0.0066  -4.6842   0.0000   0.0000   0.0000  -0.2207
  -5.400  -0.1697   0.01129   0.00597  -0.0824  0.7585  0.0067  -4.5895   0.0000   0.0000   0.0000  -0.2487
  -5.300  -0.1591   0.01090   0.00551  -0.0822  0.7558  0.0068  -4.4937   0.0000   0.0000   0.0000  -0.2805
  -5.200  -0.1485   0.01056   0.00509  -0.0821  0.7529  0.0070  -4.4082   0.0000   0.0000   0.0000  -0.3170
  -5.100  -0.1378   0.01029   0.00475  -0.0819  0.7498  0.0073  -4.3170   0.0000   0.0000   0.0000  -0.3598
  -5.000  -0.1269   0.01011   0.00454  -0.0819  0.7465  0.0077  -4.2119   0.0000   0.0000   0.0000  -0.4112
  -4.900  -0.1157   0.01004   0.00447  -0.0818  0.7427  0.0081  -4.0890   0.0000   0.0000   0.0000  -0.4740
  -4.800  -0.1044   0.01006   0.00449  -0.0818  0.7386  0.0087  -3.9532   0.0000   0.0000   0.0000  -0.5519
  -4.700  -0.0930   0.01011   0.00455  -0.0818  0.7343  0.0093  -3.8138   0.0000   0.0000   0.0000  -0.6499
  -4.600  -0.0815   0.01016   0.00461  -0.0818  0.7302  0.0099  -3.6737   0.0000   0.0000   0.0000  -0.7763
  -4.500  -0.0699   0.01019   0.00467  -0.0819  0.7295  0.0106  -3.5328   0.0000   0.0000   0.0000  -0.9462
  -4.400  -0.0584   0.01022   0.00473  -0.0820  0.7285  0.0113  -3.3923   0.0000   0.0000   0.0000  -1.1833
  -4.300  -0.0468   0.01027   0.00481  -0.0820  0.7272  0.0120  -3.2503   0.0000   0.0000   0.0000  -1.5388
  -4.200  -0.0351   0.01041   0.00498  -0.0821  0.7257  0.0128  -3.1015   0.0000   0.0000   0.0000  -2.1374
  -4.100  -0.0229   0.01082   0.00544  -0.0823  0.7238  0.0138  -2.9252   0.0000   0.0000   0.0000  -3.4039
  -4.000  -0.0114   0.01092   0.00555  -0.0824  0.7215  0.0142  -2.7855   0.0000   0.0000   0.0000  -7.0931
  -3.900   0.0001   0.01104   0.00569  -0.0825  0.7191  0.0145  -2.6462   0.0000   0.0000   0.0000  787.6491
  -3.800   0.0116   0.01119   0.00586  -0.0825  0.7165  0.0148  -2.5073   0.0000   0.0000   0.0000   7.4579
  -3.700   0.0232   0.01139   0.00607  -0.0826  0.7138  0.0151  -2.3685   0.0000   0.0000   0.0000   3.8686
  -3.600   0.0348   0.01165   0.00635  -0.0827  0.7112  0.0154  -2.2278   0.0000   0.0000   0.0000   2.6632
  -3.500   0.0480   0.01355   0.00845  -0.0831  0.7080  0.0162  -1.9658   0.0000   0.0000   0.0000   2.0074
  -3.400   0.0571   0.01183   0.00651  -0.0828  0.7054  0.0170  -1.9669   0.0000   0.0000   0.0000   1.7199
  -3.300   0.0674   0.01110   0.00568  -0.0827  0.7023  0.0176  -1.9437   0.0000   0.0000   0.0000   1.4930
  -3.200   0.0780   0.01064   0.00516  -0.0825  0.6988  0.0182  -1.9098   0.0000   0.0000   0.0000   1.3221
  -3.100   0.0887   0.01032   0.00477  -0.0824  0.6948  0.0186  -1.8679   0.0000   0.0000   0.0000   1.1906
  -3.000   0.0996   0.01006   0.00447  -0.0823  0.6904  0.0190  -1.8223   0.0000   0.0000   0.0000   1.0866
  -2.900   0.1106   0.00985   0.00421  -0.0823  0.6860  0.0193  -1.7751   0.0000   0.0000   0.0000   1.0026
  -2.800   0.1217   0.00964   0.00397  -0.0822  0.6839  0.0196  -1.7270   0.0000   0.0000   0.0000   0.9330
  -2.700   0.1329   0.00943   0.00375  -0.0821  0.6831  0.0197  -1.6790   0.0000   0.0000   0.0000   0.8747
  -2.600   0.1441   0.00924   0.00354  -0.0821  0.6820  0.0199  -1.6312   0.0000   0.0000   0.0000   0.8253
  -2.500   0.1554   0.00906   0.00334  -0.0821  0.6807  0.0200  -1.5837   0.0000   0.0000   0.0000   0.7831
  -2.400   0.1666   0.00889   0.00315  -0.0820  0.6792  0.0200  -1.5365   0.0000   0.0000   0.0000   0.7465
  -2.300   0.1779   0.00874   0.00298  -0.0820  0.6776  0.0201  -1.4894   0.0000   0.0000   0.0000   0.7145
  -2.200   0.1892   0.00860   0.00282  -0.0819  0.6758  0.0201  -1.4425   0.0000   0.0000   0.0000   0.6863
  -2.100   0.2005   0.00847   0.00266  -0.0819  0.6739  0.0201  -1.3956   0.0000   0.0000   0.0000   0.6613
  -2.000   0.2118   0.00835   0.00251  -0.0819  0.6717  0.0205  -1.3485   0.0000   0.0000   0.0000   0.6390
  -1.900   0.2231   0.00824   0.00237  -0.0818  0.6694  0.0211  -1.3007   0.0000   0.0000   0.0000   0.6189
  -1.800   0.2344   0.00814   0.00225  -0.0818  0.6668  0.0217  -1.2530   0.0000   0.0000   0.0000   0.6008
  -1.700   0.2457   0.00805   0.00213  -0.0818  0.6639  0.0222  -1.2062   0.0000   0.0000   0.0000   0.5843
  -1.600   0.2569   0.00798   0.00201  -0.0817  0.6607  0.0226  -1.1610   0.0000   0.0000   0.0000   0.5693
  -1.500   0.2682   0.00791   0.00190  -0.0816  0.6570  0.0227  -1.1174   0.0000   0.0000   0.0000   0.5555
  -1.400   0.2794   0.00786   0.00179  -0.0816  0.6528  0.0227  -1.0748   0.0000   0.0000   0.0000   0.5428
  -1.200   0.3011   0.00725   0.00136  -0.0813  0.6435  0.1152  -1.1068   0.0000   0.0000   0.0000   0.5206
  -1.100   0.3118   0.00705   0.00136  -0.0814  0.6388  0.1745  -1.0554   0.0000   0.0000   0.0000   0.5113
  -1.000   0.3226   0.00684   0.00133  -0.0814  0.6368  0.2338  -1.0077   0.0000   0.0000   0.0000   0.5026
  -0.900   0.3337   0.00669   0.00132  -0.0815  0.6360  0.2762  -0.9506   0.0000   0.0000   0.0000   0.4942
  -0.800   0.3448   0.00655   0.00131  -0.0816  0.6349  0.3167  -0.8940   0.0000   0.0000   0.0000   0.4863
  -0.700   0.3558   0.00641   0.00130  -0.0816  0.6335  0.3635  -0.8382   0.0000   0.0000   0.0000   0.4789
  -0.600   0.3665   0.00619   0.00130  -0.0816  0.6320  0.4386  -0.7842   0.0000   0.0000   0.0000   0.4721
  -0.500   0.3774   0.00604   0.00130  -0.0816  0.6302  0.4915  -0.7302   0.0000   0.0000   0.0000   0.4656
  -0.400   0.3882   0.00590   0.00131  -0.0816  0.6282  0.5396  -0.6862   0.0000   0.0000   0.0000   0.4593
  -0.300   0.3990   0.00579   0.00131  -0.0815  0.6259  0.5847  -0.6956   0.0000   0.0000   0.0000   0.4534
  -0.200   0.4097   0.00568   0.00131  -0.0815  0.6233  0.6286  -0.7050   0.0000   0.0000   0.0000   0.4477
  -0.100   0.4203   0.00557   0.00132  -0.0813  0.6202  0.6743  -0.7144   0.0000   0.0000   0.0000   0.4422
   0.000   0.4305   0.00546   0.00133  -0.0811  0.6168  0.7227  -0.7248   0.0000   0.0000   0.0000   0.4370
   0.100   0.4402   0.00536   0.00134  -0.0807  0.6131  0.7725  -0.7349   0.0000   0.0000   0.0000   0.4319
   0.200   0.4495   0.00527   0.00136  -0.0802  0.6090  0.8208  -0.7448   0.0000   0.0000   0.0000   0.4269
   0.300   0.4578   0.00519   0.00139  -0.0794  0.6047  0.8715  -0.7542   0.0000   0.0000   0.0000   0.4219
   0.400   0.4660   0.00515   0.00142  -0.0786  0.6001  0.9116  -0.7635   0.0000   0.0000   0.0000   0.4169
   0.500   0.4755   0.00515   0.00143  -0.0781  0.5956  0.9377  -0.7736   0.0000   0.0000   0.0000   0.4123
   0.600   0.4870   0.00517   0.00144  -0.0781  0.5911  0.9535  -0.7849   0.0000   0.0000   0.0000   0.4083
   0.700   0.5004   0.00517   0.00144  -0.0785  0.5889  0.9696  -0.7973   0.0000   0.0000   0.0000   0.4047
   0.800   0.5181   0.00515   0.00142  -0.0799  0.5880  0.9816  -0.8125   0.0000   0.0000   0.0000   0.4019
   0.900   0.5347   0.00515   0.00141  -0.0810  0.5870  0.9893  -0.8270   0.0000   0.0000   0.0000   0.3992
   1.000   0.5509   0.00515   0.00140  -0.0821  0.5855  0.9946  -0.8413   0.0000   0.0000   0.0000   0.3966
   1.100   0.5675   0.00515   0.00139  -0.0833  0.5834  1.0000  -0.8571   0.0000   0.0000   0.0000   0.3942
   1.200   0.5782   0.00517   0.00138  -0.0832  0.5809  1.0000  -0.8696   0.0000   0.0000   0.0000   0.3912
   1.300   0.5889   0.00519   0.00138  -0.0831  0.5779  1.0000  -0.8822   0.0000   0.0000   0.0000   0.3883
   1.400   0.5996   0.00522   0.00139  -0.0830  0.5743  1.0000  -0.8948   0.0000   0.0000   0.0000   0.3855
   1.500   0.6103   0.00525   0.00139  -0.0829  0.5705  1.0000  -0.9074   0.0000   0.0000   0.0000   0.3829
   1.600   0.6209   0.00529   0.00140  -0.0828  0.5667  1.0000  -0.9200   0.0000   0.0000   0.0000   0.3803
   1.700   0.6315   0.00533   0.00141  -0.0827  0.5627  1.0000  -0.9326   0.0000   0.0000   0.0000   0.3778
   1.800   0.6421   0.00538   0.00142  -0.0825  0.5578  1.0000  -0.9460   0.0000   0.0000   0.0000   0.3753
   1.900   0.6527   0.00543   0.00144  -0.0824  0.5518  1.0000  -0.9605   0.0000   0.0000   0.0000   0.3730
   2.000   0.6633   0.00549   0.00146  -0.0823  0.5450  1.0000  -0.9751   0.0000   0.0000   0.0000   0.3707
   2.100   0.6741   0.00553   0.00148  -0.0823  0.5405  1.0000  -0.9899   0.0000   0.0000   0.0000   0.3685
   2.200   0.6852   0.00555   0.00149  -0.0823  0.5391  1.0000  -1.0051   0.0000   0.0000   0.0000   0.3665
   2.300   0.6964   0.00556   0.00150  -0.0823  0.5373  1.0000  -1.0202   0.0000   0.0000   0.0000   0.3644
   2.400   0.7075   0.00559   0.00152  -0.0823  0.5349  1.0000  -1.0354   0.0000   0.0000   0.0000   0.3625
   2.500   0.7185   0.00561   0.00156  -0.0822  0.5323  1.0000  -1.0506   0.0000   0.0000   0.0000   0.3606
   2.600   0.7295   0.00564   0.00158  -0.0822  0.5291  1.0000  -1.0659   0.0000   0.0000   0.0000   0.3587
   2.700   0.7405   0.00568   0.00160  -0.0822  0.5254  1.0000  -1.0811   0.0000   0.0000   0.0000   0.3569
   2.800   0.7513   0.00573   0.00162  -0.0822  0.5210  1.0000  -1.0976   0.0000   0.0000   0.0000   0.3551
   2.900   0.7621   0.00579   0.00164  -0.0821  0.5157  1.0000  -1.1151   0.0000   0.0000   0.0000   0.3534
   3.000   0.7726   0.00586   0.00166  -0.0820  0.5092  1.0000  -1.1325   0.0000   0.0000   0.0000   0.3517
   3.100   0.7831   0.00594   0.00170  -0.0819  0.5010  1.0000  -1.1499   0.0000   0.0000   0.0000   0.3501
   3.200   0.7937   0.00601   0.00173  -0.0818  0.4927  1.0000  -1.1674   0.0000   0.0000   0.0000   0.3485
   3.300   0.8049   0.00603   0.00176  -0.0819  0.4908  1.0000  -1.1856   0.0000   0.0000   0.0000   0.3470
   3.400   0.8160   0.00606   0.00178  -0.0819  0.4883  1.0000  -1.2038   0.0000   0.0000   0.0000   0.3455
   3.500   0.8271   0.00610   0.00181  -0.0819  0.4851  1.0000  -1.2220   0.0000   0.0000   0.0000   0.3441
   3.600   0.8380   0.00614   0.00184  -0.0819  0.4812  1.0000  -1.2402   0.0000   0.0000   0.0000   0.3427
   3.700   0.8489   0.00619   0.00187  -0.0818  0.4764  1.0000  -1.2583   0.0000   0.0000   0.0000   0.3413
   3.800   0.8596   0.00626   0.00191  -0.0818  0.4709  1.0000  -1.2764   0.0000   0.0000   0.0000   0.3399
   3.900   0.8701   0.00634   0.00195  -0.0817  0.4646  1.0000  -1.2945   0.0000   0.0000   0.0000   0.3386
   4.000   0.8805   0.00643   0.00199  -0.0816  0.4570  1.0000  -1.3155   0.0000   0.0000   0.0000   0.3373
   4.100   0.8910   0.00652   0.00204  -0.0816  0.4479  1.0000  -1.3366   0.0000   0.0000   0.0000   0.3360
   4.200   0.9019   0.00657   0.00209  -0.0815  0.4434  1.0000  -1.3583   0.0000   0.0000   0.0000   0.3348
   4.300   0.9128   0.00661   0.00212  -0.0816  0.4401  1.0000  -1.3802   0.0000   0.0000   0.0000   0.3336
   4.400   0.9237   0.00667   0.00217  -0.0815  0.4349  1.0000  -1.4020   0.0000   0.0000   0.0000   0.3324
   4.500   0.9342   0.00675   0.00221  -0.0815  0.4279  1.0000  -1.4237   0.0000   0.0000   0.0000   0.3312
   4.600   0.9445   0.00685   0.00227  -0.0814  0.4198  1.0000  -1.4450   0.0000   0.0000   0.0000   0.3300
   4.700   0.9546   0.00697   0.00233  -0.0813  0.4112  1.0000  -1.4663   0.0000   0.0000   0.0000   0.3289
   4.800   0.9649   0.00708   0.00240  -0.0812  0.4014  1.0000  -1.4903   0.0000   0.0000   0.0000   0.3278
   4.900   0.9756   0.00714   0.00245  -0.0811  0.3963  1.0000  -1.5164   0.0000   0.0000   0.0000   0.3267
   5.000   0.9865   0.00719   0.00250  -0.0811  0.3931  1.0000  -1.5429   0.0000   0.0000   0.0000   0.3257
   5.100   0.9972   0.00726   0.00255  -0.0811  0.3886  1.0000  -1.5693   0.0000   0.0000   0.0000   0.3247
   5.200   1.0076   0.00734   0.00262  -0.0811  0.3823  1.0000  -1.5956   0.0000   0.0000   0.0000   0.3236
   5.300   1.0176   0.00747   0.00269  -0.0809  0.3735  1.0000  -1.6213   0.0000   0.0000   0.0000   0.3226
   5.400   1.0273   0.00764   0.00278  -0.0808  0.3619  1.0000  -1.6465   0.0000   0.0000   0.0000   0.3216
   5.500   1.0373   0.00775   0.00286  -0.0807  0.3509  1.0000  -1.6725   0.0000   0.0000   0.0000   0.3206
   5.600   1.0480   0.00782   0.00292  -0.0806  0.3468  1.0000  -1.6995   0.0000   0.0000   0.0000   0.3197
   5.700   1.0584   0.00791   0.00299  -0.0806  0.3410  1.0000  -1.7262   0.0000   0.0000   0.0000   0.3187
   5.800   1.0685   0.00803   0.00318  -0.0804  0.3339  1.0000  -1.7522   0.0000   0.0000   0.0000   0.3178
   5.900   1.0783   0.00817   0.00328  -0.0803  0.3259  1.0000  -1.7780   0.0000   0.0000   0.0000   0.3168
   6.000   1.0879   0.00833   0.00339  -0.0801  0.3162  1.0000  -1.8044   0.0000   0.0000   0.0000   0.3159
   6.100   1.0980   0.00845   0.00348  -0.0800  0.3068  1.0000  -1.8368   0.0000   0.0000   0.0000   0.3150
   6.200   1.1085   0.00852   0.00355  -0.0800  0.3036  1.0000  -1.8702   0.0000   0.0000   0.0000   0.3141
   6.300   1.1188   0.00861   0.00363  -0.0799  0.2985  1.0000  -1.9033   0.0000   0.0000   0.0000   0.3133
   6.400   1.1286   0.00875   0.00373  -0.0798  0.2911  1.0000  -1.9357   0.0000   0.0000   0.0000   0.3124
   6.500   1.1379   0.00893   0.00385  -0.0796  0.2822  1.0000  -1.9674   0.0000   0.0000   0.0000   0.3115
   6.600   1.1472   0.00911   0.00396  -0.0794  0.2714  1.0000  -1.9992   0.0000   0.0000   0.0000   0.3107
   6.700   1.1571   0.00922   0.00406  -0.0793  0.2637  1.0000  -2.0322   0.0000   0.0000   0.0000   0.3098
   6.800   1.1676   0.00930   0.00414  -0.0792  0.2613  1.0000  -2.0663   0.0000   0.0000   0.0000   0.3091
   6.900   1.1778   0.00939   0.00422  -0.0792  0.2578  1.0000  -2.1002   0.0000   0.0000   0.0000   0.3083
   7.000   1.1877   0.00950   0.00432  -0.0791  0.2531  1.0000  -2.1338   0.0000   0.0000   0.0000   0.3075
   7.100   1.1974   0.00964   0.00443  -0.0789  0.2474  1.0000  -2.1671   0.0000   0.0000   0.0000   0.3067
   7.200   1.2066   0.00980   0.00455  -0.0787  0.2409  1.0000  -2.1998   0.0000   0.0000   0.0000   0.3059
   7.300   1.2159   0.00998   0.00468  -0.0785  0.2329  1.0000  -2.2355   0.0000   0.0000   0.0000   0.3051
   7.400   1.2254   0.01012   0.00480  -0.0783  0.2248  1.0000  -2.2770   0.0000   0.0000   0.0000   0.3043
   7.500   1.2356   0.01020   0.00489  -0.0782  0.2222  1.0000  -2.3202   0.0000   0.0000   0.0000   0.3036
   7.600   1.2457   0.01029   0.00498  -0.0782  0.2196  1.0000  -2.3636   0.0000   0.0000   0.0000   0.3028
   7.700   1.2555   0.01040   0.00509  -0.0780  0.2160  1.0000  -2.4067   0.0000   0.0000   0.0000   0.3021
   7.800   1.2650   0.01054   0.00520  -0.0779  0.2112  1.0000  -2.4492   0.0000   0.0000   0.0000   0.3014
   7.900   1.2739   0.01072   0.00535  -0.0776  0.2049  1.0000  -2.5196   0.0000   0.0000   0.0000   0.3006
   8.000   1.2822   0.01095   0.00551  -0.0773  0.1959  1.0000  -2.6135   0.0000   0.0000   0.0000   0.2998
   8.100   1.2909   0.01114   0.00566  -0.0770  0.1856  1.0000  -2.7105   0.0000   0.0000   0.0000   0.2991
   8.200   1.3006   0.01125   0.00576  -0.0769  0.1828  1.0000  -2.8143   0.0000   0.0000   0.0000   0.2984
   8.300   1.3097   0.01140   0.00589  -0.0767  0.1775  1.0000  -2.9162   0.0000   0.0000   0.0000   0.2976
   8.400   1.3173   0.01167   0.00608  -0.0763  0.1679  1.0000  -3.0112   0.0000   0.0000   0.0000   0.2968
   8.500   1.3242   0.01199   0.00630  -0.0758  0.1540  1.0000  -3.1039   0.0000   0.0000   0.0000   0.2960
   8.600   1.3331   0.01215   0.00644  -0.0755  0.1479  1.0000  -3.2079   0.0000   0.0000   0.0000   0.2953
   8.700   1.3413   0.01236   0.00660  -0.0752  0.1411  1.0000  -3.3099   0.0000   0.0000   0.0000   0.2946
   8.800   1.3484   0.01264   0.00681  -0.0747  0.1332  1.0000  -3.4071   0.0000   0.0000   0.0000   0.2938
   8.900   1.3559   0.01289   0.00701  -0.0743  0.1254  1.0000  -3.5070   0.0000   0.0000   0.0000   0.2930
   9.000   1.3643   0.01307   0.00717  -0.0740  0.1187  1.0000  -3.6126   0.0000   0.0000   0.0000   0.2923
   9.100   1.3731   0.01321   0.00731  -0.0737  0.1165  1.0000  -3.7225   0.0000   0.0000   0.0000   0.2916
   9.200   1.3814   0.01339   0.00747  -0.0734  0.1128  1.0000  -3.8306   0.0000   0.0000   0.0000   0.2909
   9.300   1.3889   0.01361   0.00765  -0.0730  0.1076  1.0000  -3.9351   0.0000   0.0000   0.0000   0.2901
   9.400   1.3898   0.01429   0.00819  -0.0717  0.0832  1.0000  -3.9846   0.0000   0.0000   0.0000   0.2890
   9.500   1.3945   0.01468   0.00849  -0.0709  0.0741  1.0000  -4.0692   0.0000   0.0000   0.0000   0.2881
   9.600   1.4006   0.01497   0.00874  -0.0703  0.0656  1.0000  -4.1635   0.0000   0.0000   0.0000   0.2873
   9.700   1.4072   0.01522   0.00896  -0.0697  0.0614  1.0000  -4.2615   0.0000   0.0000   0.0000   0.2865
   9.800   1.4114   0.01561   0.00927  -0.0688  0.0544  1.0000  -4.3460   0.0000   0.0000   0.0000   0.2856
   9.900   1.4144   0.01599   0.00958  -0.0677  0.0455  1.0000  -4.4233   0.0000   0.0000   0.0000   0.2845
  10.000   1.4183   0.01630   0.00986  -0.0667  0.0406  1.0000  -4.5049   0.0000   0.0000   0.0000   0.2835
  10.100   1.4170   0.01687   0.01033  -0.0649  0.0317  1.0000  -4.5547   0.0000   0.0000   0.0000   0.2822
  10.200   1.4166   0.01742   0.01080  -0.0634  0.0223  1.0000  -4.6046   0.0000   0.0000   0.0000   0.2810
  10.400   1.4092   0.01895   0.01218  -0.0596  0.0055  1.0000  -4.6433   0.0000   0.0000   0.0000   0.2782
  10.500   1.4117   0.01939   0.01260  -0.0586  0.0044  1.0000  -4.6705   0.0000   0.0000   0.0000   0.2773
  10.600   1.4168   0.01970   0.01293  -0.0579  0.0039  1.0000  -4.7295   0.0000   0.0000   0.0000   0.2765
  10.700   1.4222   0.01998   0.01324  -0.0573  0.0036  1.0000  -4.8000   0.0000   0.0000   0.0000   0.2757
  10.800   1.4274   0.02028   0.01357  -0.0567  0.0035  1.0000  -4.8746   0.0000   0.0000   0.0000   0.2750
  10.900   1.4325   0.02059   0.01391  -0.0560  0.0034  1.0000  -4.9517   0.0000   0.0000   0.0000   0.2742
  11.000   1.4377   0.02090   0.01425  -0.0555  0.0033  1.0000  -5.0313   0.0000   0.0000   0.0000   0.2735
  11.100   1.4429   0.02122   0.01460  -0.0549  0.0033  1.0000  -5.1128   0.0000   0.0000   0.0000   0.2728
  11.200   1.4481   0.02154   0.01496  -0.0543  0.0032  1.0000  -5.1951   0.0000   0.0000   0.0000   0.2721
  11.300   1.4530   0.02188   0.01533  -0.0537  0.0032  1.0000  -5.2772   0.0000   0.0000   0.0000   0.2714
  11.400   1.4574   0.02225   0.01573  -0.0531  0.0032  1.0000  -5.3576   0.0000   0.0000   0.0000   0.2707
  11.500   1.4617   0.02263   0.01615  -0.0525  0.0032  1.0000  -5.4383   0.0000   0.0000   0.0000   0.2700
  11.600   1.4662   0.02302   0.01657  -0.0520  0.0032  1.0000  -5.5204   0.0000   0.0000   0.0000   0.2693
  11.700   1.4707   0.02341   0.01700  -0.0514  0.0031  1.0000  -5.6036   0.0000   0.0000   0.0000   0.2686
  11.800   1.4752   0.02382   0.01744  -0.0509  0.0031  1.0000  -5.6873   0.0000   0.0000   0.0000   0.2680
  11.900   1.4793   0.02425   0.01791  -0.0503  0.0031  1.0000  -5.7693   0.0000   0.0000   0.0000   0.2673
  12.000   1.4828   0.02474   0.01844  -0.0498  0.0031  1.0000  -5.8475   0.0000   0.0000   0.0000   0.2667
  12.100   1.4862   0.02524   0.01897  -0.0492  0.0031  1.0000  -5.9257   0.0000   0.0000   0.0000   0.2660
  12.200   1.4898   0.02574   0.01951  -0.0487  0.0031  1.0000  -6.0054   0.0000   0.0000   0.0000   0.2654
  12.300   1.4934   0.02624   0.02005  -0.0482  0.0031  1.0000  -6.0858   0.0000   0.0000   0.0000   0.2648
  12.400   1.4969   0.02676   0.02061  -0.0477  0.0031  1.0000  -6.1661   0.0000   0.0000   0.0000   0.2642
  12.500   1.5003   0.02730   0.02119  -0.0472  0.0031  1.0000  -6.2453   0.0000   0.0000   0.0000   0.2636
  12.600   1.5026   0.02791   0.02185  -0.0466  0.0031  1.0000  -6.3184   0.0000   0.0000   0.0000   0.2630
  12.700   1.5048   0.02855   0.02253  -0.0461  0.0031  1.0000  -6.3907   0.0000   0.0000   0.0000   0.2624
  12.800   1.5072   0.02918   0.02320  -0.0456  0.0032  1.0000  -6.4646   0.0000   0.0000   0.0000   0.2619
  12.900   1.5096   0.02980   0.02386  -0.0451  0.0032  1.0000  -6.5382   0.0000   0.0000   0.0000   0.2613
  13.000   1.5118   0.03043   0.02453  -0.0446  0.0032  1.0000  -6.6115   0.0000   0.0000   0.0000   0.2607
  13.100   1.5140   0.03109   0.02524  -0.0442  0.0032  1.0000  -6.6839   0.0000   0.0000   0.0000   0.2602
  13.200   1.5149   0.03188   0.02607  -0.0437  0.0032  1.0000  -6.7480   0.0000   0.0000   0.0000   0.2596
  13.300   1.5156   0.03270   0.02694  -0.0433  0.0032  1.0000  -6.8113   0.0000   0.0000   0.0000   0.2591
  13.400   1.5169   0.03350   0.02778  -0.0428  0.0032  1.0000  -6.8782   0.0000   0.0000   0.0000   0.2586
  13.500   1.5183   0.03429   0.02862  -0.0425  0.0032  1.0000  -6.9462   0.0000   0.0000   0.0000   0.2581
  13.600   1.5197   0.03510   0.02948  -0.0421  0.0032  1.0000  -7.0141   0.0000   0.0000   0.0000   0.2577
  13.700   1.5210   0.03594   0.03036  -0.0417  0.0032  1.0000  -7.0808   0.0000   0.0000   0.0000   0.2572
  13.800   1.5207   0.03695   0.03142  -0.0414  0.0032  1.0000  -7.1374   0.0000   0.0000   0.0000   0.2568
  13.900   1.5201   0.03800   0.03252  -0.0411  0.0032  1.0000  -7.1917   0.0000   0.0000   0.0000   0.2564
  14.000   1.5202   0.03899   0.03356  -0.0408  0.0032  1.0000  -7.2511   0.0000   0.0000   0.0000   0.2560
  14.100   1.5211   0.03992   0.03457  -0.0406  0.0031  1.0000  -7.3239   0.0000   0.0000   0.0000   0.2556
  14.200   1.5214   0.04090   0.03560  -0.0403  0.0031  1.0000  -7.3880   0.0000   0.0000   0.0000   0.2552
  14.300   1.5215   0.04192   0.03666  -0.0401  0.0031  1.0000  -7.4488   0.0000   0.0000   0.0000   0.2548
  14.400   1.5199   0.04315   0.03795  -0.0399  0.0031  1.0000  -7.4970   0.0000   0.0000   0.0000   0.2545
  14.500   1.5180   0.04445   0.03930  -0.0398  0.0030  1.0000  -7.5420   0.0000   0.0000   0.0000   0.2543
  14.600   1.5171   0.04564   0.04053  -0.0397  0.0030  1.0000  -7.5946   0.0000   0.0000   0.0000   0.2540
  14.700   1.5165   0.04679   0.04174  -0.0396  0.0030  1.0000  -7.6594   0.0000   0.0000   0.0000   0.2537
  14.800   1.5158   0.04797   0.04296  -0.0395  0.0030  1.0000  -7.7272   0.0000   0.0000   0.0000   0.2535
  14.900   1.5149   0.04918   0.04422  -0.0394  0.0030  1.0000  -7.7931   0.0000   0.0000   0.0000   0.2532
  15.000   1.5119   0.05070   0.04579  -0.0395  0.0030  1.0000  -7.8400   0.0000   0.0000   0.0000   0.2531
  15.100   1.5088   0.05224   0.04739  -0.0397  0.0030  1.0000  -7.8853   0.0000   0.0000   0.0000   0.2530
  15.200   1.5069   0.05362   0.04881  -0.0397  0.0030  1.0000  -7.9412   0.0000   0.0000   0.0000   0.2528
  15.300   1.5049   0.05494   0.05018  -0.0398  0.0029  1.0000  -7.9973   0.0000   0.0000   0.0000   0.2527
  15.400   1.5030   0.05629   0.05159  -0.0398  0.0029  1.0000  -8.0525   0.0000   0.0000   0.0000   0.2525
  15.500   1.5009   0.05772   0.05307  -0.0399  0.0029  1.0000  -8.1063   0.0000   0.0000   0.0000   0.2524
  15.600   1.4961   0.05963   0.05503  -0.0403  0.0029  1.0000  -8.1330   0.0000   0.0000   0.0000   0.2525
  15.700   1.4924   0.06140   0.05685  -0.0407  0.0029  1.0000  -8.1701   0.0000   0.0000   0.0000   0.2526
  15.800   1.4899   0.06301   0.05852  -0.0409  0.0029  1.0000  -8.2183   0.0000   0.0000   0.0000   0.2526
  15.900   1.4877   0.06462   0.06018  -0.0412  0.0029  1.0000  -8.2684   0.0000   0.0000   0.0000   0.2526
  16.000   1.4853   0.06627   0.06188  -0.0416  0.0029  1.0000  -8.3166   0.0000   0.0000   0.0000   0.2526
  16.100   1.4823   0.06804   0.06370  -0.0420  0.0030  1.0000  -8.3582   0.0000   0.0000   0.0000   0.2527
  16.200   1.4763   0.07040   0.06613  -0.0427  0.0030  1.0000  -8.3686   0.0000   0.0000   0.0000   0.2531
  16.300   1.4727   0.07236   0.06815  -0.0433  0.0030  1.0000  -8.4025   0.0000   0.0000   0.0000   0.2534
  16.400   1.4698   0.07421   0.07004  -0.0438  0.0030  1.0000  -8.4430   0.0000   0.0000   0.0000   0.2535
  16.500   1.4670   0.07605   0.07193  -0.0443  0.0030  1.0000  -8.4833   0.0000   0.0000   0.0000   0.2537
  16.600   1.4638   0.07794   0.07388  -0.0448  0.0030  1.0000  -8.5204   0.0000   0.0000   0.0000   0.2539
  16.700   1.4587   0.08027   0.07627  -0.0457  0.0030  1.0000  -8.5359   0.0000   0.0000   0.0000   0.2543
  16.800   1.4530   0.08273   0.07878  -0.0466  0.0030  1.0000  -8.5439   0.0000   0.0000   0.0000   0.2549
  16.900   1.4493   0.08479   0.08090  -0.0473  0.0030  1.0000  -8.5724   0.0000   0.0000   0.0000   0.2552
  17.000   1.4459   0.08678   0.08294  -0.0480  0.0030  1.0000  -8.6040   0.0000   0.0000   0.0000   0.2556
  17.100   1.4426   0.08878   0.08499  -0.0487  0.0030  1.0000  -8.6354   0.0000   0.0000   0.0000   0.2559
  17.200   1.4390   0.09086   0.08712  -0.0495  0.0030  1.0000  -8.6624   0.0000   0.0000   0.0000   0.2563
  17.300   1.4316   0.09371   0.09003  -0.0508  0.0030  1.0000  -8.6472   0.0000   0.0000   0.0000   0.2572
  17.400   1.4268   0.09603   0.09240  -0.0518  0.0030  1.0000  -8.6591   0.0000   0.0000   0.0000   0.2577
  17.500   1.4230   0.09813   0.09455  -0.0526  0.0030  1.0000  -8.6816   0.0000   0.0000   0.0000   0.2582
  17.600   1.4196   0.10018   0.09665  -0.0535  0.0030  1.0000  -8.7071   0.0000   0.0000   0.0000   0.2587
  17.700   1.4159   0.10227   0.09879  -0.0544  0.0030  1.0000  -8.7293   0.0000   0.0000   0.0000   0.2592
  17.800   1.4109   0.10465   0.10123  -0.0555  0.0030  1.0000  -8.7341   0.0000   0.0000   0.0000   0.2599
  17.900   1.4036   0.10752   0.10416  -0.0570  0.0030  1.0000  -8.7107   0.0000   0.0000   0.0000   0.2609
  18.000   1.3994   0.10974   0.10643  -0.0581  0.0030  1.0000  -8.7220   0.0000   0.0000   0.0000   0.2616
  18.100   1.3958   0.11183   0.10856  -0.0591  0.0030  1.0000  -8.7409   0.0000   0.0000   0.0000   0.2622
  18.200   1.3923   0.11390   0.11068  -0.0601  0.0030  1.0000  -8.7590   0.0000   0.0000   0.0000   0.2628
  18.300   1.3885   0.11602   0.11285  -0.0612  0.0030  1.0000  -8.7727   0.0000   0.0000   0.0000   0.2635
  18.400   1.3825   0.11865   0.11553  -0.0626  0.0030  1.0000  -8.7564   0.0000   0.0000   0.0000   0.2645
  18.500   1.3760   0.12124   0.11817  -0.0642  0.0030  1.0000  -8.7323   0.0000   0.0000   0.0000   0.2657
  18.600   1.3721   0.12319   0.12017  -0.0653  0.0030  1.0000  -8.7401   0.0000   0.0000   0.0000   0.2664
  18.700   1.3686   0.12505   0.12208  -0.0665  0.0030  1.0000  -8.7524   0.0000   0.0000   0.0000   0.2671
  18.800   1.3652   0.12695   0.12402  -0.0676  0.0030  1.0000  -8.7640   0.0000   0.0000   0.0000   0.2679
  18.900   1.3616   0.12894   0.12607  -0.0688  0.0031  1.0000  -8.7716   0.0000   0.0000   0.0000   0.2687
  19.000   1.3569   0.13123   0.12840  -0.0702  0.0031  1.0000  -8.7635   0.0000   0.0000   0.0000   0.2696
  19.100   1.3496   0.13424   0.13147  -0.0721  0.0031  1.0000  -8.7166   0.0000   0.0000   0.0000   0.2711
  19.200   1.3457   0.13651   0.13378  -0.0734  0.0031  1.0000  -8.7152   0.0000   0.0000   0.0000   0.2721
  19.300   1.3424   0.13867   0.13599  -0.0747  0.0031  1.0000  -8.7211   0.0000   0.0000   0.0000   0.2729
  19.400   1.3392   0.14083   0.13820  -0.0760  0.0031  1.0000  -8.7272   0.0000   0.0000   0.0000   0.2738
  19.500   1.3359   0.14307   0.14048  -0.0773  0.0031  1.0000  -8.7299   0.0000   0.0000   0.0000   0.2747
  19.600   1.3321   0.14544   0.14289  -0.0787  0.0031  1.0000  -8.7257   0.0000   0.0000   0.0000   0.2757
  19.700   1.3256   0.14863   0.14614  -0.0806  0.0031  1.0000  -8.6774   0.0000   0.0000   0.0000   0.2773
  19.800   1.3200   0.15161   0.14916  -0.0823  0.0031  1.0000  -8.6423   0.0000   0.0000   0.0000   0.2787
  19.900   1.3164   0.15412   0.15172  -0.0838  0.0031  1.0000  -8.6342   0.0000   0.0000   0.0000   0.2797
  20.000   1.3131   0.15657   0.15421  -0.0852  0.0031  1.0000  -8.6301   0.0000   0.0000   0.0000   0.2807
  20.100   1.3098   0.15905   0.15673  -0.0866  0.0031  1.0000  -8.6243   0.0000   0.0000   0.0000   0.2818
  20.200   1.3064   0.16163   0.15936  -0.0881  0.0031  1.0000  -8.6145   0.0000   0.0000   0.0000   0.2829
  20.300   1.3025   0.16437   0.16215  -0.0896  0.0031  1.0000  -8.5967   0.0000   0.0000   0.0000   0.2841
  20.400   1.2946   0.16834   0.16617  -0.0919  0.0031  1.0000  -8.5115   0.0000   0.0000   0.0000   0.2861
  20.500   1.2893   0.17160   0.16948  -0.0937  0.0031  1.0000  -8.4666   0.0000   0.0000   0.0000   0.2876
  20.600   1.2855   0.17449   0.17241  -0.0952  0.0031  1.0000  -8.4427   0.0000   0.0000   0.0000   0.2889
  20.700   1.2818   0.17736   0.17532  -0.0968  0.0031  1.0000  -8.4209   0.0000   0.0000   0.0000   0.2901
  20.800   1.2782   0.18028   0.17828  -0.0983  0.0031  1.0000  -8.3973   0.0000   0.0000   0.0000   0.2913
  20.900   1.2741   0.18341   0.18146  -0.1000  0.0031  1.0000  -8.3631   0.0000   0.0000   0.0000   0.2927
  21.000   1.2685   0.18702   0.18512  -0.1019  0.0031  1.0000  -8.3026   0.0000   0.0000   0.0000   0.2944
  21.100   1.2591   0.19197   0.19012  -0.1045  0.0032  1.0000  -8.1700   0.0000   0.0000   0.0000   0.2970
  21.200   1.2544   0.19547   0.19366  -0.1062  0.0032  1.0000  -8.1176   0.0000   0.0000   0.0000   0.2985
  21.300   1.2502   0.19883   0.19707  -0.1079  0.0032  1.0000  -8.0737   0.0000   0.0000   0.0000   0.3000
  21.400   1.2458   0.20235   0.20063  -0.1096  0.0032  1.0000  -8.0221   0.0000   0.0000   0.0000   0.3015
  21.500   1.2405   0.20620   0.20452  -0.1114  0.0032  1.0000  -7.9527   0.0000   0.0000   0.0000   0.3033
  21.600   1.2298   0.21207   0.21045  -0.1142  0.0032  1.0000  -7.7746   0.0000   0.0000   0.0000   0.3063
  21.700   1.2224   0.21688   0.21530  -0.1164  0.0032  1.0000  -7.6550   0.0000   0.0000   0.0000   0.3086
  21.800   1.2169   0.22104   0.21950  -0.1182  0.0032  1.0000  -7.5712   0.0000   0.0000   0.0000   0.3104
  21.900   1.2111   0.22540   0.22391  -0.1201  0.0032  1.0000  -7.4766   0.0000   0.0000   0.0000   0.3124
  22.000   1.2037   0.23046   0.22901  -0.1222  0.0033  1.0000  -7.3443   0.0000   0.0000   0.0000   0.3147
  22.100   1.1880   0.23892   0.23753  -0.1255  0.0033  1.0000  -7.0285   0.0000   0.0000   0.0000   0.3191
  22.200   1.1799   0.24450   0.24316  -0.1276  0.0033  1.0000  -6.8680   0.0000   0.0000   0.0000   0.3216
  22.300   1.1703   0.25081   0.24951  -0.1299  0.0034  1.0000  -6.6659   0.0000   0.0000   0.0000   0.3245
  22.400   1.1461   0.26357   0.26233  -0.1340  0.0034  1.0000  -6.1039   0.0000   0.0000   0.0000   0.3310
  22.600   1.0741   0.30021   0.29898  -0.1417  0.0039  1.0000  -4.1885   0.0000   0.0000   0.0000   0.3485
  22.700   1.0619   0.30658   0.30535  -0.1427  0.0040  1.0000  -3.9130   0.0000   0.0000   0.0000   0.3512
  22.800   1.0505   0.31140   0.31018  -0.1433  0.0041  1.0000  -3.7053   0.0000   0.0000   0.0000   0.3534
  22.900   0.9744   0.30273   0.30158  -0.1377  0.0042  1.0000  -3.1828   0.0000   0.0000   0.0000   0.3598
  23.000   0.9623   0.30315   0.30200  -0.1375  0.0043  1.0000  -3.0497   0.0000   0.0000   0.0000   0.3616
  23.100   0.9530   0.30377   0.30263  -0.1375  0.0043  1.0000  -2.9443   0.0000   0.0000   0.0000   0.3630
  23.200   0.9455   0.30448   0.30335  -0.1375  0.0043  1.0000  -2.8563   0.0000   0.0000   0.0000   0.3643
  23.300   0.9391   0.30523   0.30411  -0.1376  0.0043  1.0000  -2.7805   0.0000   0.0000   0.0000   0.3654
  23.400   0.9335   0.30601   0.30489  -0.1378  0.0043  1.0000  -2.7135   0.0000   0.0000   0.0000   0.3665
  23.500   0.9286   0.30680   0.30569  -0.1380  0.0042  1.0000  -2.6530   0.0000   0.0000   0.0000   0.3675
  23.600   0.9243   0.30762   0.30651  -0.1382  0.0042  1.0000  -2.5968   0.0000   0.0000   0.0000   0.3684
  23.700   0.9203   0.30844   0.30734  -0.1384  0.0041  1.0000  -2.5440   0.0000   0.0000   0.0000   0.3692
  23.800   0.9167   0.30928   0.30818  -0.1387  0.0039  1.0000  -2.4937   0.0000   0.0000   0.0000   0.3701
  23.900   0.9134   0.31012   0.30902  -0.1389  0.0037  1.0000  -2.4452   0.0000   0.0000   0.0000   0.3709
  24.000   0.9104   0.31095   0.30986  -0.1392  0.0035  1.0000  -2.3978   0.0000   0.0000   0.0000   0.3716
  24.100   0.9076   0.31179   0.31070  -0.1395  0.0033  1.0000  -2.3480   0.0000   0.0000   0.0000   0.3723
  24.200   0.9045   0.31270   0.31162  -0.1397  0.0032  1.0000  -2.2818   0.0000   0.0000   0.0000   0.3731
  24.300   0.9004   0.31385   0.31277  -0.1400  0.0032  1.0000  -2.1661   0.0000   0.0000   0.0000   0.3741
  24.400   0.8934   0.31567   0.31459  -0.1400  0.0037  1.0000  -1.9078   0.0000   0.0000   0.0000   0.3755
  24.900   0.8733   0.32040   0.31933  -0.1407  0.0061  1.0000  -1.4739   0.0000   0.0000   0.0000   0.3799
  25.000   0.8725   0.32118   0.32011  -0.1410  0.0061  1.0000  -1.4620   0.0000   0.0000   0.0000   0.3803
  25.100   0.8718   0.32195   0.32088  -0.1414  0.0061  1.0000  -1.4539   0.0000   0.0000   0.0000   0.3807
  25.200   0.8716   0.32269   0.32163  -0.1418  0.0060  1.0000  -1.4532   0.0000   0.0000   0.0000   0.3810
  25.300   0.8747   0.32349   0.32244  -0.1424  0.0053  1.0000  -1.5040   0.0000   0.0000   0.0000   0.3809
  25.400   0.8747   0.32455   0.32349  -0.1429  0.0047  1.0000  -1.4925   0.0000   0.0000   0.0000   0.3813


