xflr5 v6.61

 Calculated polar for: S4310

 1 1 Reynolds number fixed          Mach number fixed         

 xtrf =   1.000 (top)        1.000 (bottom)
 Mach =   0.000     Re =     0.100 e 6     Ncrit =   9.000

  alpha     CL        CD       CDp       Cm    Top Xtr Bot Xtr   Cpmin    Chinge    XCp    
 ------- -------- --------- --------- -------- ------- ------- -------- --------- ---------
 -10.000  -0.2992   0.11595   0.11100  -0.0342  1.0000  0.0590  -1.3421   0.0000   0.0000   0.0000   0.1249
  -9.900  -0.2946   0.11452   0.10958  -0.0341  1.0000  0.0598  -1.3201   0.0000   0.0000   0.0000   0.1234
  -9.800  -0.2907   0.11319   0.10827  -0.0342  1.0000  0.0605  -1.3029   0.0000   0.0000   0.0000   0.1216
  -9.700  -0.2871   0.11193   0.10702  -0.0343  1.0000  0.0613  -1.2894   0.0000   0.0000   0.0000   0.1196
  -9.600  -0.2840   0.11072   0.10582  -0.0345  1.0000  0.0620  -1.2788   0.0000   0.0000   0.0000   0.1176
  -9.500  -0.2811   0.10953   0.10465  -0.0348  1.0000  0.0628  -1.2706   0.0000   0.0000   0.0000   0.1155
  -9.400  -0.2785   0.10837   0.10351  -0.0351  1.0000  0.0636  -1.2643   0.0000   0.0000   0.0000   0.1133
  -9.300  -0.2762   0.10723   0.10239  -0.0354  1.0000  0.0643  -1.2597   0.0000   0.0000   0.0000   0.1111
  -9.200  -0.2740   0.10610   0.10128  -0.0357  1.0000  0.0651  -1.2567   0.0000   0.0000   0.0000   0.1090
  -9.100  -0.2721   0.10499   0.10020  -0.0361  1.0000  0.0660  -1.2550   0.0000   0.0000   0.0000   0.1068
  -9.000  -0.2704   0.10390   0.09913  -0.0364  1.0000  0.0668  -1.2545   0.0000   0.0000   0.0000   0.1048
  -8.900  -0.2690   0.10284   0.09809  -0.0368  1.0000  0.0676  -1.2553   0.0000   0.0000   0.0000   0.1029
  -8.800  -0.2679   0.10180   0.09708  -0.0371  1.0000  0.0685  -1.2574   0.0000   0.0000   0.0000   0.1011
  -8.700  -0.2672   0.10080   0.09611  -0.0374  1.0000  0.0693  -1.2606   0.0000   0.0000   0.0000   0.0997
  -8.600  -0.2669   0.09984   0.09518  -0.0377  1.0000  0.0702  -1.2650   0.0000   0.0000   0.0000   0.0987
  -8.500  -0.2672   0.09895   0.09432  -0.0379  1.0000  0.0710  -1.2708   0.0000   0.0000   0.0000   0.0984
  -8.400  -0.2684   0.09814   0.09356  -0.0379  1.0000  0.0718  -1.2779   0.0000   0.0000   0.0000   0.0991
  -8.300  -0.2708   0.09747   0.09293  -0.0377  1.0000  0.0725  -1.2866   0.0000   0.0000   0.0000   0.1013
  -8.200  -0.2747   0.09697   0.09248  -0.0372  1.0000  0.0731  -1.2964   0.0000   0.0000   0.0000   0.1057
  -8.100  -0.2802   0.09663   0.09219  -0.0363  1.0000  0.0736  -1.3072   0.0000   0.0000   0.0000   0.1119
  -8.000  -0.2875   0.09647   0.09209  -0.0349  1.0000  0.0739  -1.3186   0.0000   0.0000   0.0000   0.1201
  -7.900  -0.2959   0.09643   0.09210  -0.0334  1.0000  0.0741  -1.3304   0.0000   0.0000   0.0000   0.1293
  -7.800  -0.3048   0.09644   0.09216  -0.0317  1.0000  0.0743  -1.3423   0.0000   0.0000   0.0000   0.1385
  -7.700  -0.3139   0.09645   0.09221  -0.0300  1.0000  0.0744  -1.3543   0.0000   0.0000   0.0000   0.1471
  -7.600  -0.3229   0.09644   0.09225  -0.0285  1.0000  0.0745  -1.3665   0.0000   0.0000   0.0000   0.1550
  -7.500  -0.3319   0.09641   0.09226  -0.0269  1.0000  0.0746  -1.3788   0.0000   0.0000   0.0000   0.1622
  -7.400  -0.3407   0.09635   0.09224  -0.0255  1.0000  0.0748  -1.3913   0.0000   0.0000   0.0000   0.1688
  -7.300  -0.3495   0.09626   0.09220  -0.0241  1.0000  0.0749  -1.4040   0.0000   0.0000   0.0000   0.1749
  -7.200  -0.3584   0.09616   0.09214  -0.0228  1.0000  0.0750  -1.4168   0.0000   0.0000   0.0000   0.1806
  -7.100  -0.3623   0.09562   0.09163  -0.0232  0.9987  0.0757  -1.4325   0.0000   0.0000   0.0000   0.1802
  -7.000  -0.3573   0.09446   0.09047  -0.0277  0.9943  0.0773  -1.4612   0.0000   0.0000   0.0000   0.1669
  -6.900  -0.3419   0.09345   0.08942  -0.0385  0.9878  0.0799  -1.5198   0.0000   0.0000   0.0000   0.1317
  -6.800  -0.3299   0.09230   0.08823  -0.0442  0.9830  0.0807  -1.5417   0.0000   0.0000   0.0000   0.1105
  -6.700  -0.3196   0.09071   0.08659  -0.0483  0.9787  0.0811  -1.5580   0.0000   0.0000   0.0000   0.0931
  -6.600  -0.3082   0.08884   0.08466  -0.0523  0.9753  0.0813  -1.5723   0.0000   0.0000   0.0000   0.0744
  -6.500  -0.2958   0.08679   0.08255  -0.0563  0.9726  0.0815  -1.5848   0.0000   0.0000   0.0000   0.0538
  -6.400  -0.2967   0.08075   0.07654  -0.0600  0.9708  0.0828  -1.6559   0.0000   0.0000   0.0000   0.0417
  -6.300  -0.2989   0.07749   0.07332  -0.0600  0.9670  0.0842  -1.6622   0.0000   0.0000   0.0000   0.0434
  -6.200  -0.2929   0.07570   0.07158  -0.0587  0.9645  0.0855  -1.6136   0.0000   0.0000   0.0000   0.0438
  -6.100  -0.2853   0.07429   0.07021  -0.0580  0.9619  0.0870  -1.5675   0.0000   0.0000   0.0000   0.0408
  -6.000  -0.2763   0.07298   0.06890  -0.0580  0.9593  0.0887  -1.5264   0.0000   0.0000   0.0000   0.0340
  -5.900  -0.2660   0.07164   0.06756  -0.0586  0.9568  0.0906  -1.4914   0.0000   0.0000   0.0000   0.0233
  -5.800  -0.2548   0.07015   0.06606  -0.0602  0.9545  0.0929  -1.4667   0.0000   0.0000   0.0000   0.0072
  -5.700  -0.2427   0.06849   0.06438  -0.0626  0.9522  0.0956  -1.4517   0.0000   0.0000   0.0000  -0.0148
  -5.600  -0.2291   0.06666   0.06250  -0.0659  0.9502  0.0988  -1.4457   0.0000   0.0000   0.0000  -0.0445
  -5.500  -0.2216   0.06523   0.06102  -0.0679  0.9466  0.1015  -1.4508   0.0000   0.0000   0.0000  -0.0636
  -5.400  -0.2202   0.06424   0.06001  -0.0685  0.9410  0.1036  -1.4615   0.0000   0.0000   0.0000  -0.0681
  -5.200  -0.1898   0.06419   0.05947  -0.0774  0.9312  0.1141  -1.5271   0.0000   0.0000   0.0000  -0.1658
  -5.100  -0.1920   0.05813   0.05346  -0.0795  0.9293  0.1176  -1.5569   0.0000   0.0000   0.0000  -0.1717
  -5.000  -0.1822   0.05624   0.05156  -0.0792  0.9279  0.1205  -1.5256   0.0000   0.0000   0.0000  -0.1928
  -4.900  -0.1701   0.05499   0.05035  -0.0797  0.9263  0.1235  -1.4815   0.0000   0.0000   0.0000  -0.2268
  -4.800  -0.1562   0.05383   0.04919  -0.0808  0.9248  0.1277  -1.4426   0.0000   0.0000   0.0000  -0.2759
  -4.700  -0.1403   0.05254   0.04785  -0.0827  0.9234  0.1329  -1.4131   0.0000   0.0000   0.0000  -0.3494
  -4.500  -0.1349   0.05305   0.04796  -0.0835  0.9111  0.1528  -1.4319   0.0000   0.0000   0.0000  -0.3786
  -4.400  -0.1313   0.05014   0.04512  -0.0838  0.9079  0.1559  -1.4170   0.0000   0.0000   0.0000  -0.3985
  -4.300  -0.1245   0.05024   0.04556  -0.0806  0.9060  0.1689  -1.2938   0.0000   0.0000   0.0000  -0.4077
  -4.200  -0.1137   0.04979   0.04503  -0.0823  0.9027  0.1997  -1.2453   0.0000   0.0000   0.0000  -0.4843
  -4.100  -0.1033   0.04941   0.04483  -0.0803  0.9011  0.2110  -1.1566   0.0000   0.0000   0.0000  -0.5384
  -4.000  -0.0860   0.04877   0.04412  -0.0820  0.8988  0.2227  -1.1088   0.0000   0.0000   0.0000  -0.7169
  -3.800  -0.0322   0.03777   0.03163  -0.0940  0.8949  0.1060  -1.4248   0.0000   0.0000   0.0000  -2.7087
  -3.700  -0.0163   0.03456   0.02801  -0.0956  0.8934  0.0934  -1.4701   0.0000   0.0000   0.0000  -5.7091
  -3.600   0.0058   0.03388   0.02678  -0.0963  0.8919  0.0833  -1.4785   0.0000   0.0000   0.0000  17.0372
  -3.500   0.0215   0.03436   0.02724  -0.0966  0.8898  0.0817  -1.4213   0.0000   0.0000   0.0000   4.8008
  -3.400   0.0145   0.03340   0.02619  -0.0940  0.8834  0.0805  -1.4421   0.0000   0.0000   0.0000   6.8275
  -3.300   0.0196   0.03207   0.02473  -0.0934  0.8795  0.0791  -1.4525   0.0000   0.0000   0.0000   5.0744
  -3.200   0.0289   0.03097   0.02348  -0.0933  0.8762  0.0778  -1.4529   0.0000   0.0000   0.0000   3.5272
  -3.100   0.0404   0.02997   0.02233  -0.0934  0.8735  0.0766  -1.4485   0.0000   0.0000   0.0000   2.5953
  -3.000   0.0534   0.02906   0.02125  -0.0937  0.8710  0.0756  -1.4409   0.0000   0.0000   0.0000   2.0284
  -2.900   0.0675   0.02821   0.02024  -0.0941  0.8688  0.0747  -1.4308   0.0000   0.0000   0.0000   1.6629
  -2.800   0.0820   0.02742   0.01932  -0.0945  0.8667  0.0740  -1.4187   0.0000   0.0000   0.0000   1.4176
  -2.700   0.0968   0.02670   0.01847  -0.0950  0.8648  0.0736  -1.4050   0.0000   0.0000   0.0000   1.2428
  -2.600   0.1120   0.02603   0.01769  -0.0954  0.8630  0.0734  -1.3897   0.0000   0.0000   0.0000   1.1116
  -2.500   0.1275   0.02540   0.01696  -0.0959  0.8612  0.0736  -1.3730   0.0000   0.0000   0.0000   1.0099
  -2.400   0.1433   0.02482   0.01629  -0.0963  0.8596  0.0743  -1.3553   0.0000   0.0000   0.0000   0.9293
  -2.300   0.1591   0.02428   0.01568  -0.0967  0.8579  0.0754  -1.3375   0.0000   0.0000   0.0000   0.8642
  -2.200   0.1747   0.02382   0.01516  -0.0971  0.8562  0.0772  -1.3209   0.0000   0.0000   0.0000   0.8111
  -2.100   0.1826   0.02364   0.01493  -0.0964  0.8528  0.0789  -1.3113   0.0000   0.0000   0.0000   0.7830
  -2.000   0.1835   0.02362   0.01490  -0.0948  0.8470  0.0801  -1.3071   0.0000   0.0000   0.0000   0.7714
  -1.900   0.1904   0.02330   0.01455  -0.0940  0.8425  0.0833  -1.3101   0.0000   0.0000   0.0000   0.7480
  -1.800   0.1994   0.02268   0.01399  -0.0935  0.8388  0.0957  -1.3306   0.0000   0.0000   0.0000   0.7226
  -1.700   0.2072   0.02079   0.01337  -0.0930  0.8362  0.3593  -1.4620   0.0000   0.0000   0.0000   0.7022
  -1.600   0.2158   0.02023   0.01338  -0.0924  0.8334  0.5054  -1.4291   0.0000   0.0000   0.0000   0.6812
  -1.500   0.2637   0.01883   0.01322  -0.0966  0.8353  1.0000  -1.2835   0.0000   0.0000   0.0000   0.6188
  -1.400   0.2741   0.01890   0.01316  -0.0965  0.8321  1.0000  -1.2324   0.0000   0.0000   0.0000   0.6041
  -1.300   0.2856   0.01894   0.01308  -0.0964  0.8293  1.0000  -1.1779   0.0000   0.0000   0.0000   0.5897
  -1.200   0.2978   0.01897   0.01299  -0.0965  0.8268  1.0000  -1.1213   0.0000   0.0000   0.0000   0.5759
  -1.100   0.3106   0.01900   0.01290  -0.0967  0.8244  1.0000  -1.0637   0.0000   0.0000   0.0000   0.5627
  -1.000   0.3237   0.01903   0.01282  -0.0969  0.8223  1.0000  -1.0081   0.0000   0.0000   0.0000   0.5505
  -0.900   0.3369   0.01906   0.01267  -0.0970  0.8203  1.0000  -0.9580   0.0000   0.0000   0.0000   0.5390
  -0.800   0.3500   0.01912   0.01263  -0.0971  0.8182  1.0000  -0.8982   0.0000   0.0000   0.0000   0.5282
  -0.700   0.3616   0.01927   0.01270  -0.0970  0.8157  1.0000  -0.8432   0.0000   0.0000   0.0000   0.5189
  -0.600   0.3614   0.01958   0.01297  -0.0957  0.8101  1.0000  -0.8198   0.0000   0.0000   0.0000   0.5151
  -0.500   0.3657   0.01979   0.01313  -0.0947  0.8048  1.0000  -0.7845   0.0000   0.0000   0.0000   0.5094
  -0.400   0.3734   0.01991   0.01319  -0.0942  0.8003  1.0000  -0.7406   0.0000   0.0000   0.0000   0.5024
  -0.300   0.3832   0.01997   0.01319  -0.0939  0.7964  1.0000  -0.6915   0.0000   0.0000   0.0000   0.4951
  -0.200   0.3940   0.02001   0.01315  -0.0937  0.7929  1.0000  -0.6626   0.0000   0.0000   0.0000   0.4877
  -0.100   0.4054   0.02002   0.01310  -0.0936  0.7898  1.0000  -0.6734   0.0000   0.0000   0.0000   0.4806
   0.000   0.4174   0.02003   0.01304  -0.0936  0.7871  1.0000  -0.6846   0.0000   0.0000   0.0000   0.4737
   0.100   0.4297   0.02004   0.01299  -0.0936  0.7846  1.0000  -0.6961   0.0000   0.0000   0.0000   0.4671
   0.200   0.4422   0.02004   0.01293  -0.0936  0.7824  1.0000  -0.7078   0.0000   0.0000   0.0000   0.4608
   0.300   0.4548   0.02005   0.01288  -0.0936  0.7803  1.0000  -0.7196   0.0000   0.0000   0.0000   0.4548
   0.400   0.4675   0.02007   0.01284  -0.0935  0.7782  1.0000  -0.7316   0.0000   0.0000   0.0000   0.4490
   0.500   0.4802   0.02014   0.01285  -0.0935  0.7760  1.0000  -0.7437   0.0000   0.0000   0.0000   0.4435
   0.600   0.4888   0.02037   0.01304  -0.0931  0.7727  1.0000  -0.7524   0.0000   0.0000   0.0000   0.4392
   0.700   0.4918   0.02068   0.01335  -0.0923  0.7672  1.0000  -0.7565   0.0000   0.0000   0.0000   0.4362
   0.800   0.4978   0.02090   0.01355  -0.0917  0.7620  1.0000  -0.7632   0.0000   0.0000   0.0000   0.4326
   0.900   0.5063   0.02102   0.01364  -0.0913  0.7574  1.0000  -0.7718   0.0000   0.0000   0.0000   0.4286
   1.000   0.5163   0.02107   0.01366  -0.0910  0.7534  1.0000  -0.7818   0.0000   0.0000   0.0000   0.4244
   1.100   0.5270   0.02109   0.01364  -0.0907  0.7498  1.0000  -0.7940   0.0000   0.0000   0.0000   0.4203
   1.200   0.5385   0.02108   0.01359  -0.0906  0.7467  1.0000  -0.8068   0.0000   0.0000   0.0000   0.4162
   1.300   0.5505   0.02105   0.01353  -0.0905  0.7439  1.0000  -0.8201   0.0000   0.0000   0.0000   0.4122
   1.400   0.5628   0.02100   0.01338  -0.0903  0.7413  1.0000  -0.8338   0.0000   0.0000   0.0000   0.4083
   1.500   0.5754   0.02093   0.01327  -0.0902  0.7389  1.0000  -0.8479   0.0000   0.0000   0.0000   0.4045
   1.600   0.5882   0.02085   0.01314  -0.0901  0.7365  1.0000  -0.8623   0.0000   0.0000   0.0000   0.4007
   1.700   0.6014   0.02079   0.01304  -0.0900  0.7341  1.0000  -0.8770   0.0000   0.0000   0.0000   0.3971
   1.800   0.6140   0.02084   0.01305  -0.0898  0.7315  1.0000  -0.8913   0.0000   0.0000   0.0000   0.3936
   1.900   0.6210   0.02111   0.01330  -0.0893  0.7272  1.0000  -0.9010   0.0000   0.0000   0.0000   0.3911
   2.000   0.6261   0.02139   0.01360  -0.0888  0.7217  1.0000  -0.9098   0.0000   0.0000   0.0000   0.3889
   2.100   0.6334   0.02158   0.01379  -0.0883  0.7165  1.0000  -0.9207   0.0000   0.0000   0.0000   0.3865
   2.200   0.6422   0.02170   0.01390  -0.0880  0.7119  1.0000  -0.9332   0.0000   0.0000   0.0000   0.3839
   2.300   0.6520   0.02176   0.01395  -0.0877  0.7079  1.0000  -0.9467   0.0000   0.0000   0.0000   0.3813
   2.400   0.6628   0.02177   0.01394  -0.0874  0.7043  1.0000  -0.9613   0.0000   0.0000   0.0000   0.3787
   2.500   0.6744   0.02171   0.01386  -0.0872  0.7010  1.0000  -0.9768   0.0000   0.0000   0.0000   0.3760
   2.600   0.6865   0.02160   0.01372  -0.0870  0.6980  1.0000  -0.9931   0.0000   0.0000   0.0000   0.3733
   2.700   0.6992   0.02145   0.01355  -0.0868  0.6952  1.0000  -1.0100   0.0000   0.0000   0.0000   0.3706
   2.800   0.7125   0.02129   0.01343  -0.0867  0.6924  1.0000  -1.0276   0.0000   0.0000   0.0000   0.3680
   2.900   0.7258   0.02115   0.01325  -0.0866  0.6897  1.0000  -1.0453   0.0000   0.0000   0.0000   0.3655
   3.000   0.7388   0.02112   0.01317  -0.0864  0.6868  1.0000  -1.0644   0.0000   0.0000   0.0000   0.3630
   3.100   0.7484   0.02133   0.01336  -0.0861  0.6829  1.0000  -1.0804   0.0000   0.0000   0.0000   0.3610
   3.200   0.7543   0.02158   0.01365  -0.0856  0.6779  1.0000  -1.0921   0.0000   0.0000   0.0000   0.3594
   3.300   0.7612   0.02180   0.01389  -0.0851  0.6725  1.0000  -1.1050   0.0000   0.0000   0.0000   0.3576
   3.400   0.7693   0.02196   0.01407  -0.0848  0.6675  1.0000  -1.1194   0.0000   0.0000   0.0000   0.3559
   3.500   0.7788   0.02204   0.01414  -0.0844  0.6630  1.0000  -1.1353   0.0000   0.0000   0.0000   0.3540
   3.600   0.7893   0.02202   0.01412  -0.0841  0.6589  1.0000  -1.1528   0.0000   0.0000   0.0000   0.3521
   3.700   0.8009   0.02191   0.01400  -0.0839  0.6551  1.0000  -1.1716   0.0000   0.0000   0.0000   0.3501
   3.800   0.8136   0.02174   0.01380  -0.0837  0.6516  1.0000  -1.1917   0.0000   0.0000   0.0000   0.3482
   3.900   0.8267   0.02153   0.01357  -0.0836  0.6483  1.0000  -1.2126   0.0000   0.0000   0.0000   0.3462
   4.000   0.8402   0.02132   0.01332  -0.0834  0.6451  1.0000  -1.2340   0.0000   0.0000   0.0000   0.3443
   4.100   0.8536   0.02118   0.01313  -0.0833  0.6417  1.0000  -1.2566   0.0000   0.0000   0.0000   0.3425
   4.200   0.8658   0.02130   0.01321  -0.0831  0.6374  1.0000  -1.2798   0.0000   0.0000   0.0000   0.3408
   4.300   0.8722   0.02149   0.01345  -0.0826  0.6327  1.0000  -1.2953   0.0000   0.0000   0.0000   0.3394
   4.400   0.8788   0.02169   0.01371  -0.0821  0.6270  1.0000  -1.3110   0.0000   0.0000   0.0000   0.3380
   4.500   0.8869   0.02181   0.01386  -0.0816  0.6214  1.0000  -1.3290   0.0000   0.0000   0.0000   0.3365
   4.600   0.8966   0.02183   0.01389  -0.0813  0.6162  1.0000  -1.3491   0.0000   0.0000   0.0000   0.3350
   4.700   0.9076   0.02175   0.01380  -0.0810  0.6114  1.0000  -1.3712   0.0000   0.0000   0.0000   0.3335
   4.800   0.9197   0.02157   0.01362  -0.0808  0.6069  1.0000  -1.3950   0.0000   0.0000   0.0000   0.3320
   4.900   0.9326   0.02135   0.01337  -0.0806  0.6026  1.0000  -1.4199   0.0000   0.0000   0.0000   0.3304
   5.000   0.9457   0.02112   0.01310  -0.0804  0.5984  1.0000  -1.4455   0.0000   0.0000   0.0000   0.3289
   5.100   0.9588   0.02097   0.01290  -0.0803  0.5941  1.0000  -1.4752   0.0000   0.0000   0.0000   0.3275
   5.200   0.9715   0.02108   0.01294  -0.0802  0.5889  1.0000  -1.5041   0.0000   0.0000   0.0000   0.3262
   5.300   0.9777   0.02123   0.01318  -0.0796  0.5836  1.0000  -1.5233   0.0000   0.0000   0.0000   0.3250
   5.400   0.9851   0.02137   0.01338  -0.0791  0.5776  1.0000  -1.5443   0.0000   0.0000   0.0000   0.3237
   5.500   0.9939   0.02144   0.01348  -0.0787  0.5715  1.0000  -1.5677   0.0000   0.0000   0.0000   0.3225
   5.600   1.0041   0.02141   0.01347  -0.0784  0.5657  1.0000  -1.5934   0.0000   0.0000   0.0000   0.3212
   5.700   1.0154   0.02129   0.01334  -0.0782  0.5602  1.0000  -1.6212   0.0000   0.0000   0.0000   0.3200
   5.800   1.0275   0.02112   0.01314  -0.0779  0.5549  1.0000  -1.6504   0.0000   0.0000   0.0000   0.3187
   5.900   1.0399   0.02094   0.01292  -0.0777  0.5497  1.0000  -1.6805   0.0000   0.0000   0.0000   0.3175
   6.000   1.0534   0.02087   0.01275  -0.0777  0.5439  1.0000  -1.7121   0.0000   0.0000   0.0000   0.3164
   6.100   1.0624   0.02104   0.01328  -0.0773  0.5375  1.0000  -1.7361   0.0000   0.0000   0.0000   0.3152
   6.200   1.0694   0.02115   0.01348  -0.0767  0.5308  1.0000  -1.7573   0.0000   0.0000   0.0000   0.3141
   6.300   1.0778   0.02121   0.01358  -0.0762  0.5237  1.0000  -1.7812   0.0000   0.0000   0.0000   0.3129
   6.400   1.0876   0.02118   0.01357  -0.0758  0.5167  1.0000  -1.8131   0.0000   0.0000   0.0000   0.3118
   6.500   1.0983   0.02111   0.01350  -0.0755  0.5102  1.0000  -1.8468   0.0000   0.0000   0.0000   0.3107
   6.600   1.1096   0.02104   0.01338  -0.0752  0.5041  1.0000  -1.8820   0.0000   0.0000   0.0000   0.3096
   6.700   1.1220   0.02102   0.01327  -0.0751  0.4975  1.0000  -1.9193   0.0000   0.0000   0.0000   0.3087
   6.800   1.1322   0.02122   0.01344  -0.0749  0.4904  1.0000  -1.9518   0.0000   0.0000   0.0000   0.3077
   6.900   1.1388   0.02136   0.01368  -0.0743  0.4835  1.0000  -1.9780   0.0000   0.0000   0.0000   0.3067
   7.000   1.1467   0.02146   0.01382  -0.0737  0.4758  1.0000  -2.0070   0.0000   0.0000   0.0000   0.3056
   7.100   1.1557   0.02147   0.01385  -0.0733  0.4679  1.0000  -2.0385   0.0000   0.0000   0.0000   0.3046
   7.200   1.1656   0.02144   0.01378  -0.0729  0.4602  1.0000  -2.0722   0.0000   0.0000   0.0000   0.3035
   7.300   1.1768   0.02144   0.01367  -0.0726  0.4524  1.0000  -2.1086   0.0000   0.0000   0.0000   0.3026
   7.400   1.1879   0.02168   0.01380  -0.0725  0.4437  1.0000  -2.1438   0.0000   0.0000   0.0000   0.3017
   7.500   1.1940   0.02186   0.01409  -0.0718  0.4371  1.0000  -2.1724   0.0000   0.0000   0.0000   0.3007
   7.600   1.2013   0.02203   0.01432  -0.0713  0.4294  1.0000  -2.2076   0.0000   0.0000   0.0000   0.2997
   7.700   1.2093   0.02216   0.01447  -0.0707  0.4216  1.0000  -2.2452   0.0000   0.0000   0.0000   0.2988
   7.800   1.2181   0.02225   0.01453  -0.0703  0.4138  1.0000  -2.2852   0.0000   0.0000   0.0000   0.2978
   7.900   1.2281   0.02238   0.01455  -0.0700  0.4057  1.0000  -2.3284   0.0000   0.0000   0.0000   0.2970
   8.000   1.2383   0.02274   0.01479  -0.0698  0.3963  1.0000  -2.3708   0.0000   0.0000   0.0000   0.2962
   8.100   1.2440   0.02294   0.01510  -0.0691  0.3898  1.0000  -2.4033   0.0000   0.0000   0.0000   0.2952
   8.200   1.2505   0.02313   0.01535  -0.0684  0.3819  1.0000  -2.4380   0.0000   0.0000   0.0000   0.2942
   8.300   1.2576   0.02329   0.01553  -0.0678  0.3739  1.0000  -2.4747   0.0000   0.0000   0.0000   0.2933
   8.400   1.2655   0.02346   0.01563  -0.0672  0.3658  1.0000  -2.5492   0.0000   0.0000   0.0000   0.2924
   8.500   1.2748   0.02374   0.01577  -0.0669  0.3570  1.0000  -2.6468   0.0000   0.0000   0.0000   0.2916
   8.600   1.2829   0.02417   0.01617  -0.0666  0.3488  1.0000  -2.7364   0.0000   0.0000   0.0000   0.2908
   8.700   1.2885   0.02443   0.01653  -0.0658  0.3426  1.0000  -2.8144   0.0000   0.0000   0.0000   0.2899
   8.800   1.2946   0.02470   0.01686  -0.0652  0.3357  1.0000  -2.8966   0.0000   0.0000   0.0000   0.2890
   8.900   1.3011   0.02496   0.01714  -0.0645  0.3286  1.0000  -2.9821   0.0000   0.0000   0.0000   0.2881
   9.000   1.3081   0.02523   0.01736  -0.0639  0.3215  1.0000  -3.0720   0.0000   0.0000   0.0000   0.2872
   9.100   1.3165   0.02561   0.01761  -0.0636  0.3134  1.0000  -3.1699   0.0000   0.0000   0.0000   0.2865
   9.200   1.3250   0.02620   0.01813  -0.0633  0.3050  1.0000  -3.2662   0.0000   0.0000   0.0000   0.2858
   9.300   1.3295   0.02647   0.01852  -0.0625  0.2997  1.0000  -3.3431   0.0000   0.0000   0.0000   0.2849
   9.400   1.3344   0.02676   0.01888  -0.0617  0.2933  1.0000  -3.4235   0.0000   0.0000   0.0000   0.2839
   9.500   1.3395   0.02704   0.01919  -0.0609  0.2867  1.0000  -3.5071   0.0000   0.0000   0.0000   0.2830
   9.600   1.3448   0.02732   0.01945  -0.0601  0.2801  1.0000  -3.5933   0.0000   0.0000   0.0000   0.2821
   9.700   1.3512   0.02771   0.01973  -0.0596  0.2730  1.0000  -3.6860   0.0000   0.0000   0.0000   0.2813
   9.800   1.3613   0.02851   0.02069  -0.0596  0.2635  1.0000  -3.7887   0.0000   0.0000   0.0000   0.2808
   9.900   1.3648   0.02880   0.02111  -0.0586  0.2597  1.0000  -3.8527   0.0000   0.0000   0.0000   0.2799
  10.000   1.3687   0.02914   0.02156  -0.0578  0.2549  1.0000  -3.9263   0.0000   0.0000   0.0000   0.2790
  10.100   1.3731   0.02951   0.02199  -0.0569  0.2496  1.0000  -4.0042   0.0000   0.0000   0.0000   0.2781
  10.200   1.3776   0.02988   0.02240  -0.0561  0.2442  1.0000  -4.0847   0.0000   0.0000   0.0000   0.2772
  10.300   1.3820   0.03025   0.02278  -0.0553  0.2390  1.0000  -4.1668   0.0000   0.0000   0.0000   0.2763
  10.400   1.3875   0.03071   0.02317  -0.0547  0.2334  1.0000  -4.2557   0.0000   0.0000   0.0000   0.2755
  10.500   1.4004   0.03189   0.02417  -0.0552  0.2235  1.0000  -4.3797   0.0000   0.0000   0.0000   0.2754
  10.600   1.4023   0.03222   0.02463  -0.0541  0.2209  1.0000  -4.4471   0.0000   0.0000   0.0000   0.2744
  10.700   1.4042   0.03261   0.02513  -0.0530  0.2173  1.0000  -4.5151   0.0000   0.0000   0.0000   0.2734
  10.800   1.4061   0.03301   0.02562  -0.0519  0.2132  1.0000  -4.5832   0.0000   0.0000   0.0000   0.2724
  10.900   1.4080   0.03340   0.02607  -0.0508  0.2088  1.0000  -4.6527   0.0000   0.0000   0.0000   0.2714
  11.000   1.4101   0.03379   0.02649  -0.0498  0.2044  1.0000  -4.7249   0.0000   0.0000   0.0000   0.2704
  11.100   1.4121   0.03418   0.02689  -0.0488  0.2001  1.0000  -4.7983   0.0000   0.0000   0.0000   0.2695
  11.200   1.4149   0.03464   0.02730  -0.0479  0.1956  1.0000  -4.8774   0.0000   0.0000   0.0000   0.2687
  11.300   1.4294   0.03603   0.02849  -0.0487  0.1856  1.0000  -5.0156   0.0000   0.0000   0.0000   0.2687
  11.400   1.4284   0.03640   0.02898  -0.0473  0.1837  1.0000  -5.0685   0.0000   0.0000   0.0000   0.2676
  11.500   1.4277   0.03686   0.02955  -0.0461  0.1813  1.0000  -5.1231   0.0000   0.0000   0.0000   0.2666
  11.600   1.4278   0.03739   0.03018  -0.0450  0.1783  1.0000  -5.1811   0.0000   0.0000   0.0000   0.2656
  11.700   1.4287   0.03797   0.03084  -0.0440  0.1751  1.0000  -5.2434   0.0000   0.0000   0.0000   0.2648
  11.800   1.4301   0.03855   0.03149  -0.0431  0.1718  1.0000  -5.3096   0.0000   0.0000   0.0000   0.2640
  11.900   1.4319   0.03912   0.03210  -0.0423  0.1685  1.0000  -5.3787   0.0000   0.0000   0.0000   0.2632
  12.000   1.4339   0.03969   0.03270  -0.0415  0.1652  1.0000  -5.4505   0.0000   0.0000   0.0000   0.2624
  12.100   1.4362   0.04027   0.03330  -0.0408  0.1621  1.0000  -5.5242   0.0000   0.0000   0.0000   0.2617
  12.200   1.4401   0.04094   0.03393  -0.0402  0.1585  1.0000  -5.6085   0.0000   0.0000   0.0000   0.2610
  12.300   1.4539   0.04285   0.03575  -0.0408  0.1506  1.0000  -5.7344   0.0000   0.0000   0.0000   0.2610
  12.400   1.4518   0.04335   0.03636  -0.0397  0.1493  1.0000  -5.7810   0.0000   0.0000   0.0000   0.2601
  12.500   1.4492   0.04394   0.03705  -0.0386  0.1476  1.0000  -5.8237   0.0000   0.0000   0.0000   0.2592
  12.600   1.4463   0.04459   0.03780  -0.0376  0.1455  1.0000  -5.8642   0.0000   0.0000   0.0000   0.2584
  12.700   1.4435   0.04525   0.03854  -0.0367  0.1431  1.0000  -5.9066   0.0000   0.0000   0.0000   0.2577
  12.800   1.4411   0.04589   0.03925  -0.0359  0.1403  1.0000  -5.9530   0.0000   0.0000   0.0000   0.2570
  12.900   1.4389   0.04650   0.03990  -0.0352  0.1373  1.0000  -6.0030   0.0000   0.0000   0.0000   0.2563
  13.000   1.4370   0.04705   0.04046  -0.0346  0.1341  1.0000  -6.0586   0.0000   0.0000   0.0000   0.2557
  13.100   1.4352   0.04758   0.04099  -0.0340  0.1309  1.0000  -6.1169   0.0000   0.0000   0.0000   0.2551
  13.200   1.4328   0.04823   0.04161  -0.0335  0.1279  1.0000  -6.1712   0.0000   0.0000   0.0000   0.2546
  13.300   1.4321   0.04896   0.04223  -0.0331  0.1237  1.0000  -6.2379   0.0000   0.0000   0.0000   0.2541
  13.400   1.4344   0.05010   0.04330  -0.0327  0.1182  1.0000  -6.3114   0.0000   0.0000   0.0000   0.2536
  13.500   1.4296   0.05100   0.04431  -0.0323  0.1168  1.0000  -6.3413   0.0000   0.0000   0.0000   0.2531
  13.600   1.4250   0.05198   0.04539  -0.0319  0.1150  1.0000  -6.3715   0.0000   0.0000   0.0000   0.2528
  13.700   1.4207   0.05301   0.04651  -0.0317  0.1128  1.0000  -6.4036   0.0000   0.0000   0.0000   0.2524
  13.800   1.4171   0.05403   0.04760  -0.0315  0.1103  1.0000  -6.4404   0.0000   0.0000   0.0000   0.2521
  13.900   1.4137   0.05504   0.04867  -0.0313  0.1077  1.0000  -6.4793   0.0000   0.0000   0.0000   0.2519
  14.000   1.4101   0.05610   0.04977  -0.0312  0.1052  1.0000  -6.5171   0.0000   0.0000   0.0000   0.2516
  14.100   1.4068   0.05718   0.05088  -0.0312  0.1028  1.0000  -6.5569   0.0000   0.0000   0.0000   0.2514
  14.200   1.4038   0.05830   0.05202  -0.0311  0.1005  1.0000  -6.5976   0.0000   0.0000   0.0000   0.2512
  14.300   1.4012   0.05944   0.05316  -0.0311  0.0983  1.0000  -6.6401   0.0000   0.0000   0.0000   0.2510
  14.400   1.3992   0.06063   0.05434  -0.0310  0.0960  1.0000  -6.6826   0.0000   0.0000   0.0000   0.2508
  14.500   1.3989   0.06183   0.05551  -0.0308  0.0931  1.0000  -6.7306   0.0000   0.0000   0.0000   0.2504
  14.600   1.3993   0.06312   0.05681  -0.0305  0.0902  1.0000  -6.7764   0.0000   0.0000   0.0000   0.2500
  14.700   1.3955   0.06458   0.05840  -0.0307  0.0892  1.0000  -6.7991   0.0000   0.0000   0.0000   0.2500
  14.800   1.3918   0.06608   0.06001  -0.0309  0.0879  1.0000  -6.8214   0.0000   0.0000   0.0000   0.2500
  14.900   1.3879   0.06762   0.06167  -0.0312  0.0862  1.0000  -6.8430   0.0000   0.0000   0.0000   0.2501
  15.000   1.3836   0.06926   0.06340  -0.0316  0.0844  1.0000  -6.8608   0.0000   0.0000   0.0000   0.2502
  15.100   1.3793   0.07094   0.06516  -0.0321  0.0823  1.0000  -6.8787   0.0000   0.0000   0.0000   0.2504
  15.200   1.3753   0.07258   0.06687  -0.0326  0.0801  1.0000  -6.9000   0.0000   0.0000   0.0000   0.2506
  15.300   1.3714   0.07424   0.06857  -0.0332  0.0778  1.0000  -6.9220   0.0000   0.0000   0.0000   0.2509
  15.400   1.3671   0.07599   0.07037  -0.0339  0.0757  1.0000  -6.9397   0.0000   0.0000   0.0000   0.2512
  15.500   1.3625   0.07784   0.07225  -0.0345  0.0738  1.0000  -6.9519   0.0000   0.0000   0.0000   0.2516
  15.600   1.3579   0.07967   0.07407  -0.0352  0.0718  1.0000  -6.9635   0.0000   0.0000   0.0000   0.2519
  15.700   1.3535   0.08149   0.07585  -0.0357  0.0692  1.0000  -6.9718   0.0000   0.0000   0.0000   0.2521
  15.800   1.3496   0.08322   0.07753  -0.0358  0.0657  1.0000  -6.9696   0.0000   0.0000   0.0000   0.2521
  15.900   1.3440   0.08544   0.07988  -0.0368  0.0645  1.0000  -6.9586   0.0000   0.0000   0.0000   0.2527
  16.000   1.3377   0.08780   0.08237  -0.0379  0.0630  1.0000  -6.9398   0.0000   0.0000   0.0000   0.2534
  16.100   1.3314   0.09018   0.08485  -0.0390  0.0611  1.0000  -6.9180   0.0000   0.0000   0.0000   0.2542
  16.200   1.3252   0.09255   0.08731  -0.0401  0.0589  1.0000  -6.8936   0.0000   0.0000   0.0000   0.2549
  16.300   1.3190   0.09496   0.08977  -0.0413  0.0565  1.0000  -6.8674   0.0000   0.0000   0.0000   0.2558
  16.400   1.3122   0.09747   0.09234  -0.0426  0.0545  1.0000  -6.8381   0.0000   0.0000   0.0000   0.2567
  16.500   1.3055   0.09996   0.09484  -0.0439  0.0525  1.0000  -6.8101   0.0000   0.0000   0.0000   0.2577
  16.600   1.2989   0.10240   0.09727  -0.0453  0.0504  1.0000  -6.7815   0.0000   0.0000   0.0000   0.2587
  16.700   1.2919   0.10475   0.09953  -0.0463  0.0476  1.0000  -6.7389   0.0000   0.0000   0.0000   0.2595
  16.800   1.2839   0.10715   0.10191  -0.0471  0.0447  1.0000  -6.6576   0.0000   0.0000   0.0000   0.2601
  16.900   1.2768   0.10982   0.10468  -0.0486  0.0438  1.0000  -6.6080   0.0000   0.0000   0.0000   0.2614
  17.000   1.2700   0.11249   0.10745  -0.0502  0.0428  1.0000  -6.5548   0.0000   0.0000   0.0000   0.2626
  17.100   1.2632   0.11517   0.11023  -0.0517  0.0416  1.0000  -6.4997   0.0000   0.0000   0.0000   0.2638
  17.200   1.2565   0.11790   0.11304  -0.0532  0.0406  1.0000  -6.4445   0.0000   0.0000   0.0000   0.2651
  17.300   1.2496   0.12074   0.11596  -0.0549  0.0398  1.0000  -6.3891   0.0000   0.0000   0.0000   0.2664
  17.400   1.2430   0.12360   0.11889  -0.0565  0.0390  1.0000  -6.3339   0.0000   0.0000   0.0000   0.2678
  17.500   1.2365   0.12649   0.12184  -0.0581  0.0382  1.0000  -6.2787   0.0000   0.0000   0.0000   0.2692
  17.600   1.2300   0.12946   0.12488  -0.0598  0.0376  1.0000  -6.2223   0.0000   0.0000   0.0000   0.2707
  17.700   1.2225   0.13274   0.12824  -0.0618  0.0373  1.0000  -6.1589   0.0000   0.0000   0.0000   0.2724
  17.800   1.2148   0.13618   0.13175  -0.0637  0.0372  1.0000  -6.0906   0.0000   0.0000   0.0000   0.2743
  17.900   1.2065   0.13988   0.13553  -0.0658  0.0372  1.0000  -6.0139   0.0000   0.0000   0.0000   0.2763
  18.000   1.1956   0.14434   0.14009  -0.0684  0.0381  1.0000  -5.9151   0.0000   0.0000   0.0000   0.2788
  18.100   1.1830   0.14941   0.14525  -0.0712  0.0397  1.0000  -5.8003   0.0000   0.0000   0.0000   0.2818
  18.200   1.1711   0.15447   0.15038  -0.0740  0.0411  1.0000  -5.6844   0.0000   0.0000   0.0000   0.2848
  18.300   1.1591   0.15971   0.15566  -0.0768  0.0424  1.0000  -5.5613   0.0000   0.0000   0.0000   0.2878
  18.400   1.1461   0.16540   0.16138  -0.0796  0.0438  1.0000  -5.4188   0.0000   0.0000   0.0000   0.2911
  18.500   1.1324   0.17153   0.16751  -0.0825  0.0449  1.0000  -5.2521   0.0000   0.0000   0.0000   0.2946
  19.200   1.0171   0.24070   0.23636  -0.1089  0.0716  1.0000  -2.9433   0.0000   0.0000   0.0000   0.3317
  19.300   1.0111   0.24566   0.24130  -0.1109  0.0728  1.0000  -2.8057   0.0000   0.0000   0.0000   0.3344
  19.400   1.0054   0.25066   0.24628  -0.1129  0.0747  1.0000  -2.6697   0.0000   0.0000   0.0000   0.3370
  19.500   1.0392   0.23310   0.22884  -0.1068  0.0436  1.0000  -3.4391   0.0000   0.0000   0.0000   0.3257
  19.600   1.0350   0.23792   0.23365  -0.1084  0.0430  1.0000  -3.3054   0.0000   0.0000   0.0000   0.3277
  19.700   1.0313   0.24244   0.23815  -0.1099  0.0424  1.0000  -3.1861   0.0000   0.0000   0.0000   0.3296
  19.800   1.0282   0.24668   0.24237  -0.1113  0.0419  1.0000  -3.0799   0.0000   0.0000   0.0000   0.3312
  19.900   1.0256   0.25068   0.24636  -0.1126  0.0415  1.0000  -2.9854   0.0000   0.0000   0.0000   0.3327
  20.000   1.0233   0.25447   0.25015  -0.1137  0.0412  1.0000  -2.9007   0.0000   0.0000   0.0000   0.3340
  20.100   1.0213   0.25811   0.25379  -0.1147  0.0410  1.0000  -2.8235   0.0000   0.0000   0.0000   0.3352
  20.200   1.0193   0.26168   0.25735  -0.1158  0.0409  1.0000  -2.7502   0.0000   0.0000   0.0000   0.3363
  20.300   1.0174   0.26513   0.26080  -0.1167  0.0409  1.0000  -2.6829   0.0000   0.0000   0.0000   0.3374
  20.400   1.0157   0.26846   0.26412  -0.1176  0.0410  1.0000  -2.6213   0.0000   0.0000   0.0000   0.3384
  20.500   1.0141   0.27167   0.26734  -0.1184  0.0412  1.0000  -2.5650   0.0000   0.0000   0.0000   0.3393
  20.600   1.0127   0.27478   0.27046  -0.1191  0.0414  1.0000  -2.5140   0.0000   0.0000   0.0000   0.3400
  20.700   1.0115   0.27778   0.27345  -0.1197  0.0418  1.0000  -2.4690   0.0000   0.0000   0.0000   0.3407
  20.800   1.0105   0.28065   0.27633  -0.1201  0.0423  1.0000  -2.4310   0.0000   0.0000   0.0000   0.3411
  20.900   1.0099   0.28340   0.27910  -0.1204  0.0429  1.0000  -2.4016   0.0000   0.0000   0.0000   0.3413
  21.000   1.0098   0.28619   0.28190  -0.1203  0.0438  1.0000  -2.3843   0.0000   0.0000   0.0000   0.3411
  21.300   1.0055   0.30627   0.30205  -0.1205  0.0657  1.0000  -2.0594   0.0000   0.0000   0.0000   0.3421
  21.400   1.0034   0.30862   0.30441  -0.1210  0.0656  1.0000  -2.0384   0.0000   0.0000   0.0000   0.3428
  21.500   1.0010   0.31082   0.30663  -0.1214  0.0656  1.0000  -2.0195   0.0000   0.0000   0.0000   0.3434
  21.600   0.9980   0.31286   0.30868  -0.1218  0.0655  1.0000  -1.9996   0.0000   0.0000   0.0000   0.3441
  21.700   0.9943   0.31468   0.31051  -0.1222  0.0655  1.0000  -1.9781   0.0000   0.0000   0.0000   0.3449
  21.800   0.9891   0.31613   0.31199  -0.1224  0.0654  1.0000  -1.9515   0.0000   0.0000   0.0000   0.3457
  21.900   0.9574   0.31142   0.30737  -0.1195  0.0654  1.0000  -1.8573   0.0000   0.0000   0.0000   0.3472
  22.000   0.9419   0.30944   0.30544  -0.1186  0.0654  1.0000  -1.8036   0.0000   0.0000   0.0000   0.3484
  22.100   0.9312   0.30842   0.30444  -0.1183  0.0653  1.0000  -1.7617   0.0000   0.0000   0.0000   0.3496
  22.200   0.9215   0.30750   0.30355  -0.1182  0.0651  1.0000  -1.7206   0.0000   0.0000   0.0000   0.3509
  22.300   0.9128   0.30670   0.30277  -0.1183  0.0650  1.0000  -1.6811   0.0000   0.0000   0.0000   0.3523
  22.400   0.9049   0.30599   0.30208  -0.1186  0.0648  1.0000  -1.6422   0.0000   0.0000   0.0000   0.3537
  22.500   0.8976   0.30533   0.30144  -0.1190  0.0645  1.0000  -1.6025   0.0000   0.0000   0.0000   0.3553
  22.600   0.8908   0.30480   0.30092  -0.1197  0.0639  1.0000  -1.5607   0.0000   0.0000   0.0000   0.3570
  22.700   0.8851   0.30464   0.30076  -0.1206  0.0630  1.0000  -1.5186   0.0000   0.0000   0.0000   0.3588
  22.800   0.8811   0.30498   0.30112  -0.1213  0.0617  1.0000  -1.4866   0.0000   0.0000   0.0000   0.3603
  22.900   0.8780   0.30553   0.30168  -0.1218  0.0605  1.0000  -1.4660   0.0000   0.0000   0.0000   0.3612
  23.000   0.8754   0.30610   0.30227  -0.1222  0.0595  1.0000  -1.4513   0.0000   0.0000   0.0000   0.3620
  23.100   0.8731   0.30668   0.30287  -0.1225  0.0585  1.0000  -1.4398   0.0000   0.0000   0.0000   0.3626
  23.200   0.8710   0.30726   0.30346  -0.1228  0.0576  1.0000  -1.4306   0.0000   0.0000   0.0000   0.3632
  23.300   0.8691   0.30783   0.30405  -0.1231  0.0568  1.0000  -1.4230   0.0000   0.0000   0.0000   0.3637
  23.400   0.8673   0.30840   0.30464  -0.1233  0.0560  1.0000  -1.4168   0.0000   0.0000   0.0000   0.3642
  23.500   0.8657   0.30897   0.30522  -0.1236  0.0552  1.0000  -1.4117   0.0000   0.0000   0.0000   0.3646
  23.600   0.8642   0.30954   0.30580  -0.1238  0.0545  1.0000  -1.4077   0.0000   0.0000   0.0000   0.3650
  23.700   0.8628   0.31010   0.30638  -0.1240  0.0538  1.0000  -1.4048   0.0000   0.0000   0.0000   0.3654
  23.800   0.8615   0.31065   0.30695  -0.1243  0.0532  1.0000  -1.4028   0.0000   0.0000   0.0000   0.3658
  23.900   0.8604   0.31121   0.30752  -0.1245  0.0525  1.0000  -1.4020   0.0000   0.0000   0.0000   0.3661
  24.000   0.8594   0.31175   0.30808  -0.1247  0.0519  1.0000  -1.4023   0.0000   0.0000   0.0000   0.3663
  24.100   0.8585   0.31228   0.30863  -0.1249  0.0513  1.0000  -1.4038   0.0000   0.0000   0.0000   0.3666
  24.200   0.8577   0.31281   0.30918  -0.1251  0.0508  1.0000  -1.4065   0.0000   0.0000   0.0000   0.3668
  24.300   0.8570   0.31333   0.30972  -0.1252  0.0502  1.0000  -1.4108   0.0000   0.0000   0.0000   0.3669
  24.400   0.8565   0.31385   0.31025  -0.1254  0.0497  1.0000  -1.4167   0.0000   0.0000   0.0000   0.3670
  24.500   0.8561   0.31436   0.31078  -0.1255  0.0491  1.0000  -1.4245   0.0000   0.0000   0.0000   0.3671
  24.600   0.8559   0.31489   0.31133  -0.1256  0.0486  1.0000  -1.4345   0.0000   0.0000   0.0000   0.3670
  24.700   0.8559   0.31546   0.31192  -0.1256  0.0481  1.0000  -1.4473   0.0000   0.0000   0.0000   0.3668
  24.800   0.8563   0.31612   0.31259  -0.1255  0.0477  1.0000  -1.4635   0.0000   0.0000   0.0000   0.3665
  24.900   0.8572   0.31698   0.31347  -0.1253  0.0472  1.0000  -1.4843   0.0000   0.0000   0.0000   0.3660
  25.000   0.8591   0.31835   0.31487  -0.1250  0.0467  1.0000  -1.5130   0.0000   0.0000   0.0000   0.3651
  25.100   0.8646   0.32195   0.31849  -0.1244  0.0460  1.0000  -1.5615   0.0000   0.0000   0.0000   0.3632
  25.300   0.8668   0.33015   0.32667  -0.1246  0.0452  1.0000  -1.5416   0.0000   0.0000   0.0000   0.3629
  25.400   0.8652   0.33060   0.32713  -0.1250  0.0452  1.0000  -1.5268   0.0000   0.0000   0.0000   0.3636
  25.500   0.8636   0.33102   0.32756  -0.1254  0.0452  1.0000  -1.5117   0.0000   0.0000   0.0000   0.3642
  25.600   0.8621   0.33141   0.32797  -0.1259  0.0451  1.0000  -1.4964   0.0000   0.0000   0.0000   0.3648
  25.700   0.8605   0.33176   0.32833  -0.1263  0.0451  1.0000  -1.4807   0.0000   0.0000   0.0000   0.3654
  25.800   0.8581   0.33182   0.32840  -0.1267  0.0451  1.0000  -1.4602   0.0000   0.0000   0.0000   0.3662
  25.900   0.8557   0.33179   0.32838  -0.1272  0.0450  1.0000  -1.4386   0.0000   0.0000   0.0000   0.3671
  26.000   0.8532   0.33172   0.32832  -0.1277  0.0450  1.0000  -1.4163   0.0000   0.0000   0.0000   0.3680
  26.100   0.8508   0.33164   0.32825  -0.1282  0.0449  1.0000  -1.3937   0.0000   0.0000   0.0000   0.3689
  26.200   0.8484   0.33156   0.32817  -0.1287  0.0448  1.0000  -1.3709   0.0000   0.0000   0.0000   0.3698
  26.300   0.8461   0.33147   0.32810  -0.1293  0.0447  1.0000  -1.3476   0.0000   0.0000   0.0000   0.3707
  26.400   0.8439   0.33141   0.32804  -0.1299  0.0446  1.0000  -1.3239   0.0000   0.0000   0.0000   0.3717
  26.500   0.8418   0.33136   0.32800  -0.1305  0.0445  1.0000  -1.2996   0.0000   0.0000   0.0000   0.3727
  26.600   0.8398   0.33136   0.32801  -0.1312  0.0443  1.0000  -1.2744   0.0000   0.0000   0.0000   0.3737
  26.700   0.8381   0.33146   0.32812  -0.1319  0.0441  1.0000  -1.2484   0.0000   0.0000   0.0000   0.3748
  26.800   0.8366   0.33172   0.32839  -0.1327  0.0437  1.0000  -1.2216   0.0000   0.0000   0.0000   0.3758
  26.900   0.8356   0.33223   0.32890  -0.1336  0.0432  1.0000  -1.1948   0.0000   0.0000   0.0000   0.3769
  27.000   0.8350   0.33296   0.32964  -0.1344  0.0425  1.0000  -1.1703   0.0000   0.0000   0.0000   0.3778
  27.100   0.8346   0.33382   0.33051  -0.1350  0.0416  1.0000  -1.1501   0.0000   0.0000   0.0000   0.3785
  27.200   0.8343   0.33469   0.33138  -0.1356  0.0406  1.0000  -1.1344   0.0000   0.0000   0.0000   0.3791
  27.300   0.8341   0.33551   0.33222  -0.1361  0.0395  1.0000  -1.1221   0.0000   0.0000   0.0000   0.3796
  27.400   0.8339   0.33630   0.33301  -0.1365  0.0385  1.0000  -1.1125   0.0000   0.0000   0.0000   0.3800
  27.500   0.8337   0.33704   0.33385  -0.1370  0.0376  1.0000  -1.1045   0.0000   0.0000   0.0000   0.3803
  27.600   0.8335   0.33774   0.33457  -0.1374  0.0366  1.0000  -1.0988   0.0000   0.0000   0.0000   0.3806
  27.700   0.8334   0.33841   0.33525  -0.1377  0.0356  1.0000  -1.0955   0.0000   0.0000   0.0000   0.3809
  27.800   0.8333   0.33904   0.33588  -0.1381  0.0346  1.0000  -1.0946   0.0000   0.0000   0.0000   0.3811
  27.900   0.8333   0.33962   0.33648  -0.1384  0.0337  1.0000  -1.0962   0.0000   0.0000   0.0000   0.3813
  28.000   0.8334   0.34015   0.33702  -0.1387  0.0329  1.0000  -1.1004   0.0000   0.0000   0.0000   0.3814
  28.100   0.8335   0.34065   0.33753  -0.1389  0.0321  1.0000  -1.1070   0.0000   0.0000   0.0000   0.3814
  28.200   0.8337   0.34112   0.33802  -0.1391  0.0315  1.0000  -1.1158   0.0000   0.0000   0.0000   0.3814
  28.300   0.8339   0.34159   0.33851  -0.1393  0.0309  1.0000  -1.1261   0.0000   0.0000   0.0000   0.3813
  28.400   0.8342   0.34211   0.33904  -0.1394  0.0305  1.0000  -1.1371   0.0000   0.0000   0.0000   0.3811
  28.500   0.8345   0.34270   0.33964  -0.1395  0.0301  1.0000  -1.1482   0.0000   0.0000   0.0000   0.3809
  28.600   0.8350   0.34342   0.34038  -0.1395  0.0297  1.0000  -1.1625   0.0000   0.0000   0.0000   0.3806
  28.700   0.8360   0.34449   0.34147  -0.1394  0.0294  1.0000  -1.1819   0.0000   0.0000   0.0000   0.3800
  28.800   0.8386   0.34702   0.34402  -0.1389  0.0289  1.0000  -1.2117   0.0000   0.0000   0.0000   0.3787
  28.900   0.8427   0.35394   0.35091  -0.1385  0.0284  1.0000  -1.2133   0.0000   0.0000   0.0000   0.3774
  29.000   0.8419   0.35446   0.35144  -0.1390  0.0284  1.0000  -1.2003   0.0000   0.0000   0.0000   0.3778
  29.100   0.8412   0.35496   0.35195  -0.1394  0.0283  1.0000  -1.1875   0.0000   0.0000   0.0000   0.3783
  29.200   0.8404   0.35545   0.35245  -0.1399  0.0283  1.0000  -1.1748   0.0000   0.0000   0.0000   0.3788
  29.300   0.8395   0.35584   0.35285  -0.1404  0.0283  1.0000  -1.1609   0.0000   0.0000   0.0000   0.3794
  29.400   0.8383   0.35613   0.35315  -0.1409  0.0283  1.0000  -1.1454   0.0000   0.0000   0.0000   0.3800
  29.500   0.8372   0.35642   0.35345  -0.1414  0.0282  1.0000  -1.1302   0.0000   0.0000   0.0000   0.3806
  29.600   0.8361   0.35672   0.35376  -0.1419  0.0282  1.0000  -1.1153   0.0000   0.0000   0.0000   0.3812
  29.700   0.8351   0.35703   0.35407  -0.1424  0.0282  1.0000  -1.1006   0.0000   0.0000   0.0000   0.3819
  29.800   0.8340   0.35734   0.35439  -0.1429  0.0282  1.0000  -1.0861   0.0000   0.0000   0.0000   0.3825
  29.900   0.8331   0.35766   0.35473  -0.1434  0.0281  1.0000  -1.0718   0.0000   0.0000   0.0000   0.3831
  30.000   0.8321   0.35800   0.35507  -0.1439  0.0281  1.0000  -1.0577   0.0000   0.0000   0.0000   0.3837


