xflr5 v6.61

 Calculated polar for: S4310

 1 1 Reynolds number fixed          Mach number fixed         

 xtrf =   1.000 (top)        1.000 (bottom)
 Mach =   0.000     Re =     0.500 e 6     Ncrit =   9.000

  alpha     CL        CD       CDp       Cm    Top Xtr Bot Xtr   Cpmin    Chinge    XCp    
 ------- -------- --------- --------- -------- ------- ------- -------- --------- ---------
 -10.000  -0.2819   0.11147   0.10917  -0.0328  1.0000  0.0158  -1.4787   0.0000   0.0000   0.0000   0.1221
  -9.900  -0.2794   0.11011   0.10782  -0.0334  1.0000  0.0158  -1.4852   0.0000   0.0000   0.0000   0.1189
  -9.800  -0.2770   0.10874   0.10646  -0.0340  1.0000  0.0158  -1.4918   0.0000   0.0000   0.0000   0.1158
  -9.700  -0.2746   0.10738   0.10511  -0.0346  1.0000  0.0158  -1.4986   0.0000   0.0000   0.0000   0.1125
  -9.600  -0.2723   0.10602   0.10376  -0.0352  1.0000  0.0158  -1.5057   0.0000   0.0000   0.0000   0.1093
  -9.500  -0.2700   0.10466   0.10241  -0.0358  1.0000  0.0158  -1.5130   0.0000   0.0000   0.0000   0.1059
  -9.400  -0.2677   0.10330   0.10106  -0.0364  1.0000  0.0158  -1.5205   0.0000   0.0000   0.0000   0.1026
  -9.300  -0.2656   0.10195   0.09973  -0.0370  1.0000  0.0158  -1.5283   0.0000   0.0000   0.0000   0.0992
  -9.200  -0.2635   0.10061   0.09840  -0.0376  1.0000  0.0158  -1.5364   0.0000   0.0000   0.0000   0.0959
  -9.100  -0.2615   0.09928   0.09708  -0.0382  1.0000  0.0158  -1.5448   0.0000   0.0000   0.0000   0.0926
  -9.000  -0.2585   0.09781   0.09562  -0.0391  0.9964  0.0158  -1.5529   0.0000   0.0000   0.0000   0.0874
  -8.900  -0.2522   0.09601   0.09382  -0.0411  0.9864  0.0158  -1.5610   0.0000   0.0000   0.0000   0.0756
  -8.800  -0.2458   0.09418   0.09199  -0.0431  0.9799  0.0158  -1.5694   0.0000   0.0000   0.0000   0.0629
  -8.700  -0.2388   0.09228   0.09008  -0.0453  0.9744  0.0158  -1.5781   0.0000   0.0000   0.0000   0.0483
  -8.600  -0.2316   0.09035   0.08814  -0.0475  0.9691  0.0158  -1.5873   0.0000   0.0000   0.0000   0.0324
  -8.500  -0.2251   0.08850   0.08628  -0.0496  0.9625  0.0158  -1.5973   0.0000   0.0000   0.0000   0.0173
  -8.200  -0.2100   0.08335   0.08109  -0.0545  0.9402  0.0157  -1.6320   0.0000   0.0000   0.0000  -0.0223
  -8.100  -0.2076   0.08189   0.07960  -0.0554  0.9315  0.0157  -1.6454   0.0000   0.0000   0.0000  -0.0296
  -7.900  -0.2047   0.07910   0.07678  -0.0566  0.9163  0.0157  -1.6750   0.0000   0.0000   0.0000  -0.0394
  -7.800  -0.2040   0.07774   0.07540  -0.0571  0.9090  0.0157  -1.6916   0.0000   0.0000   0.0000  -0.0426
  -7.700  -0.2036   0.07637   0.07402  -0.0576  0.9017  0.0157  -1.7095   0.0000   0.0000   0.0000  -0.0453
  -7.600  -0.2035   0.07500   0.07261  -0.0581  0.8948  0.0157  -1.7293   0.0000   0.0000   0.0000  -0.0474
  -7.500  -0.2034   0.07355   0.07115  -0.0587  0.8887  0.0156  -1.7520   0.0000   0.0000   0.0000  -0.0503
  -7.400  -0.2039   0.07202   0.06962  -0.0594  0.8836  0.0156  -1.7791   0.0000   0.0000   0.0000  -0.0528
  -7.300  -0.2054   0.07041   0.06801  -0.0601  0.8778  0.0155  -1.8145   0.0000   0.0000   0.0000  -0.0538
  -7.200  -0.2094   0.06856   0.06615  -0.0609  0.8716  0.0153  -1.8718   0.0000   0.0000   0.0000  -0.0518
  -7.100  -0.2152   0.06592   0.06348  -0.0629  0.8655  0.0149  -1.9755   0.0000   0.0000   0.0000  -0.0529
  -7.000  -0.2174   0.06340   0.06093  -0.0653  0.8595  0.0145  -2.0582   0.0000   0.0000   0.0000  -0.0606
  -6.900  -0.2175   0.06092   0.05841  -0.0679  0.8542  0.0142  -2.1306   0.0000   0.0000   0.0000  -0.0720
  -6.800  -0.2164   0.05835   0.05583  -0.0705  0.8509  0.0139  -2.2011   0.0000   0.0000   0.0000  -0.0857
  -6.700  -0.2145   0.05573   0.05317  -0.0731  0.8473  0.0137  -2.2723   0.0000   0.0000   0.0000  -0.1004
  -6.600  -0.2121   0.05304   0.05044  -0.0755  0.8434  0.0134  -2.3463   0.0000   0.0000   0.0000  -0.1159
  -6.500  -0.2091   0.05028   0.04762  -0.0778  0.8394  0.0132  -2.4243   0.0000   0.0000   0.0000  -0.1317
  -6.400  -0.2058   0.04746   0.04472  -0.0798  0.8355  0.0129  -2.5074   0.0000   0.0000   0.0000  -0.1476
  -6.300  -0.2021   0.04460   0.04175  -0.0816  0.8317  0.0126  -2.5965   0.0000   0.0000   0.0000  -0.1634
  -6.200  -0.1982   0.04169   0.03872  -0.0830  0.8279  0.0124  -2.6925   0.0000   0.0000   0.0000  -0.1790
  -6.100  -0.1940   0.03876   0.03564  -0.0842  0.8241  0.0121  -2.7956   0.0000   0.0000   0.0000  -0.1944
  -6.000  -0.1895   0.03583   0.03254  -0.0851  0.8198  0.0118  -2.9053   0.0000   0.0000   0.0000  -0.2099
  -5.900  -0.1844   0.03295   0.02946  -0.0858  0.8158  0.0116  -3.0189   0.0000   0.0000   0.0000  -0.2264
  -5.800  -0.1788   0.03018   0.02648  -0.0863  0.8141  0.0113  -3.1289   0.0000   0.0000   0.0000  -0.2438
  -5.700  -0.1726   0.02763   0.02371  -0.0865  0.8121  0.0111  -3.2284   0.0000   0.0000   0.0000  -0.2628
  -5.600  -0.1657   0.02541   0.02126  -0.0865  0.8097  0.0109  -3.3057   0.0000   0.0000   0.0000  -0.2845
  -5.500  -0.1581   0.02348   0.01912  -0.0864  0.8072  0.0108  -3.3615   0.0000   0.0000   0.0000  -0.3097
  -5.400  -0.1498   0.02185   0.01728  -0.0863  0.8044  0.0108  -3.3989   0.0000   0.0000   0.0000  -0.3394
  -5.300  -0.1410   0.02047   0.01570  -0.0861  0.8015  0.0108  -3.4167   0.0000   0.0000   0.0000  -0.3746
  -5.200  -0.1318   0.01930   0.01434  -0.0858  0.7985  0.0109  -3.4178   0.0000   0.0000   0.0000  -0.4163
  -5.100  -0.1223   0.01829   0.01318  -0.0856  0.7954  0.0111  -3.4046   0.0000   0.0000   0.0000  -0.4661
  -5.000  -0.1125   0.01744   0.01218  -0.0854  0.7923  0.0113  -3.3786   0.0000   0.0000   0.0000  -0.5260
  -4.900  -0.1024   0.01674   0.01135  -0.0851  0.7891  0.0117  -3.3402   0.0000   0.0000   0.0000  -0.5995
  -4.800  -0.0922   0.01621   0.01071  -0.0849  0.7859  0.0122  -3.2847   0.0000   0.0000   0.0000  -0.6917
  -4.700  -0.0816   0.01588   0.01031  -0.0848  0.7825  0.0129  -3.2080   0.0000   0.0000   0.0000  -0.8113
  -4.600  -0.0707   0.01577   0.01014  -0.0847  0.7787  0.0136  -3.1072   0.0000   0.0000   0.0000  -0.9729
  -4.500  -0.0595   0.01587   0.01023  -0.0847  0.7744  0.0142  -2.9848   0.0000   0.0000   0.0000  -1.2027
  -4.400  -0.0479   0.01617   0.01057  -0.0848  0.7731  0.0148  -2.8399   0.0000   0.0000   0.0000  -1.5530
  -4.300  -0.0351   0.01750   0.01202  -0.0849  0.7715  0.0156  -2.6203   0.0000   0.0000   0.0000  -2.2112
  -4.200  -0.0226   0.01867   0.01331  -0.0850  0.7697  0.0160  -2.4169   0.0000   0.0000   0.0000  -3.5849
  -4.100  -0.0164   0.01502   0.00920  -0.0848  0.7680  0.0185  -2.5502   0.0000   0.0000   0.0000  -5.0241
  -4.000  -0.0059   0.01456   0.00872  -0.0848  0.7659  0.0197  -2.4615   0.0000   0.0000   0.0000  -14.3883
  -3.900   0.0049   0.01436   0.00852  -0.0848  0.7636  0.0206  -2.3563   0.0000   0.0000   0.0000  17.8153
  -3.800   0.0158   0.01421   0.00836  -0.0848  0.7612  0.0215  -2.2510   0.0000   0.0000   0.0000   5.6994
  -3.700   0.0267   0.01404   0.00817  -0.0847  0.7587  0.0222  -2.1508   0.0000   0.0000   0.0000   3.4693
  -3.600   0.0376   0.01384   0.00794  -0.0847  0.7559  0.0229  -2.0562   0.0000   0.0000   0.0000   2.5329
  -3.500   0.0485   0.01361   0.00766  -0.0846  0.7531  0.0235  -1.9664   0.0000   0.0000   0.0000   2.0176
  -3.400   0.0594   0.01335   0.00736  -0.0845  0.7501  0.0240  -1.9020   0.0000   0.0000   0.0000   1.6914
  -3.300   0.0703   0.01309   0.00704  -0.0843  0.7470  0.0244  -1.8528   0.0000   0.0000   0.0000   1.4663
  -3.200   0.0811   0.01282   0.00672  -0.0842  0.7437  0.0247  -1.8065   0.0000   0.0000   0.0000   1.3016
  -3.100   0.0919   0.01256   0.00639  -0.0840  0.7401  0.0250  -1.7623   0.0000   0.0000   0.0000   1.1756
  -3.000   0.1028   0.01231   0.00608  -0.0839  0.7361  0.0253  -1.7196   0.0000   0.0000   0.0000   1.0759
  -2.900   0.1138   0.01208   0.00579  -0.0838  0.7318  0.0255  -1.6780   0.0000   0.0000   0.0000   0.9949
  -2.800   0.1249   0.01188   0.00557  -0.0838  0.7296  0.0260  -1.6286   0.0000   0.0000   0.0000   0.9278
  -2.700   0.1361   0.01175   0.00544  -0.0837  0.7285  0.0271  -1.5678   0.0000   0.0000   0.0000   0.8717
  -2.600   0.1473   0.01165   0.00534  -0.0837  0.7271  0.0283  -1.5060   0.0000   0.0000   0.0000   0.8241
  -2.500   0.1585   0.01154   0.00523  -0.0837  0.7254  0.0294  -1.4478   0.0000   0.0000   0.0000   0.7831
  -2.400   0.1697   0.01140   0.00507  -0.0837  0.7236  0.0301  -1.3958   0.0000   0.0000   0.0000   0.7474
  -2.300   0.1808   0.01120   0.00486  -0.0836  0.7216  0.0305  -1.3521   0.0000   0.0000   0.0000   0.7162
  -2.200   0.1918   0.01094   0.00457  -0.0835  0.7194  0.0306  -1.3170   0.0000   0.0000   0.0000   0.6885
  -2.100   0.2028   0.01065   0.00423  -0.0833  0.7170  0.0304  -1.2889   0.0000   0.0000   0.0000   0.6639
  -2.000   0.2137   0.01038   0.00391  -0.0832  0.7144  0.0302  -1.2616   0.0000   0.0000   0.0000   0.6417
  -1.900   0.2248   0.01016   0.00363  -0.0830  0.7116  0.0300  -1.2325   0.0000   0.0000   0.0000   0.6216
  -1.800   0.2358   0.00996   0.00338  -0.0829  0.7087  0.0299  -1.2021   0.0000   0.0000   0.0000   0.6034
  -1.700   0.2469   0.00980   0.00315  -0.0827  0.7057  0.0299  -1.1706   0.0000   0.0000   0.0000   0.5868
  -1.600   0.2580   0.00966   0.00295  -0.0826  0.7027  0.0300  -1.1387   0.0000   0.0000   0.0000   0.5716
  -1.500   0.2692   0.00955   0.00277  -0.0825  0.6996  0.0303  -1.1071   0.0000   0.0000   0.0000   0.5576
  -1.300   0.2895   0.00850   0.00230  -0.0822  0.6930  0.2182  -1.1614   0.0000   0.0000   0.0000   0.5348
  -1.200   0.3002   0.00834   0.00230  -0.0823  0.6891  0.2727  -1.1091   0.0000   0.0000   0.0000   0.5246
  -1.100   0.3108   0.00820   0.00233  -0.0823  0.6848  0.3309  -1.0559   0.0000   0.0000   0.0000   0.5152
  -1.000   0.3208   0.00789   0.00231  -0.0823  0.6835  0.4255  -1.0122   0.0000   0.0000   0.0000   0.5067
  -0.900   0.3308   0.00761   0.00231  -0.0821  0.6823  0.5103  -0.9583   0.0000   0.0000   0.0000   0.4984
  -0.800   0.3396   0.00725   0.00234  -0.0817  0.6807  0.6237  -0.9076   0.0000   0.0000   0.0000   0.4906
  -0.700   0.3480   0.00697   0.00236  -0.0811  0.6789  0.7172  -0.8581   0.0000   0.0000   0.0000   0.4827
  -0.600   0.3566   0.00679   0.00238  -0.0803  0.6768  0.7788  -0.8086   0.0000   0.0000   0.0000   0.4749
  -0.500   0.3647   0.00666   0.00240  -0.0794  0.6745  0.8357  -0.7605   0.0000   0.0000   0.0000   0.4673
  -0.400   0.3732   0.00658   0.00241  -0.0786  0.6721  0.8802  -0.7121   0.0000   0.0000   0.0000   0.4599
  -0.300   0.3831   0.00654   0.00240  -0.0780  0.6695  0.9145  -0.6860   0.0000   0.0000   0.0000   0.4529
  -0.200   0.3959   0.00651   0.00238  -0.0782  0.6667  0.9408  -0.6966   0.0000   0.0000   0.0000   0.4465
  -0.100   0.4130   0.00649   0.00234  -0.0793  0.6636  0.9647  -0.7095   0.0000   0.0000   0.0000   0.4408
   0.000   0.4337   0.00648   0.00228  -0.0812  0.6602  0.9832  -0.7259   0.0000   0.0000   0.0000   0.4360
   0.100   0.4546   0.00647   0.00222  -0.0833  0.6565  0.9946  -0.7428   0.0000   0.0000   0.0000   0.4317
   0.200   0.4707   0.00649   0.00218  -0.0843  0.6528  1.0000  -0.7568   0.0000   0.0000   0.0000   0.4276
   0.300   0.4808   0.00653   0.00217  -0.0841  0.6490  1.0000  -0.7671   0.0000   0.0000   0.0000   0.4233
   0.400   0.4910   0.00658   0.00217  -0.0839  0.6449  1.0000  -0.7775   0.0000   0.0000   0.0000   0.4191
   0.500   0.5014   0.00664   0.00219  -0.0837  0.6401  1.0000  -0.7880   0.0000   0.0000   0.0000   0.4152
   0.600   0.5119   0.00669   0.00221  -0.0836  0.6367  1.0000  -0.7986   0.0000   0.0000   0.0000   0.4114
   0.700   0.5225   0.00669   0.00220  -0.0835  0.6354  1.0000  -0.8093   0.0000   0.0000   0.0000   0.4077
   0.800   0.5331   0.00670   0.00219  -0.0833  0.6337  1.0000  -0.8201   0.0000   0.0000   0.0000   0.4042
   0.900   0.5437   0.00670   0.00219  -0.0832  0.6316  1.0000  -0.8310   0.0000   0.0000   0.0000   0.4008
   1.000   0.5544   0.00671   0.00219  -0.0831  0.6293  1.0000  -0.8419   0.0000   0.0000   0.0000   0.3975
   1.100   0.5651   0.00673   0.00219  -0.0830  0.6268  1.0000  -0.8540   0.0000   0.0000   0.0000   0.3944
   1.200   0.5758   0.00674   0.00217  -0.0829  0.6242  1.0000  -0.8665   0.0000   0.0000   0.0000   0.3914
   1.300   0.5866   0.00677   0.00217  -0.0828  0.6214  1.0000  -0.8791   0.0000   0.0000   0.0000   0.3885
   1.400   0.5973   0.00679   0.00217  -0.0827  0.6185  1.0000  -0.8917   0.0000   0.0000   0.0000   0.3857
   1.500   0.6081   0.00682   0.00217  -0.0826  0.6154  1.0000  -0.9043   0.0000   0.0000   0.0000   0.3830
   1.600   0.6188   0.00685   0.00218  -0.0825  0.6122  1.0000  -0.9170   0.0000   0.0000   0.0000   0.3804
   1.700   0.6294   0.00689   0.00218  -0.0824  0.6086  1.0000  -0.9296   0.0000   0.0000   0.0000   0.3779
   1.800   0.6400   0.00693   0.00218  -0.0823  0.6046  1.0000  -0.9427   0.0000   0.0000   0.0000   0.3754
   1.900   0.6505   0.00699   0.00219  -0.0821  0.5998  1.0000  -0.9572   0.0000   0.0000   0.0000   0.3730
   2.000   0.6611   0.00706   0.00222  -0.0820  0.5942  1.0000  -0.9717   0.0000   0.0000   0.0000   0.3707
   2.100   0.6719   0.00714   0.00226  -0.0820  0.5890  1.0000  -0.9864   0.0000   0.0000   0.0000   0.3686
   2.200   0.6829   0.00714   0.00227  -0.0819  0.5875  1.0000  -1.0014   0.0000   0.0000   0.0000   0.3664
   2.300   0.6938   0.00716   0.00228  -0.0819  0.5856  1.0000  -1.0164   0.0000   0.0000   0.0000   0.3644
   2.400   0.7048   0.00717   0.00230  -0.0819  0.5835  1.0000  -1.0315   0.0000   0.0000   0.0000   0.3624
   2.500   0.7158   0.00719   0.00231  -0.0818  0.5810  1.0000  -1.0466   0.0000   0.0000   0.0000   0.3605
   2.600   0.7268   0.00722   0.00237  -0.0818  0.5779  1.0000  -1.0618   0.0000   0.0000   0.0000   0.3586
   2.700   0.7376   0.00724   0.00238  -0.0818  0.5742  1.0000  -1.0769   0.0000   0.0000   0.0000   0.3568
   2.800   0.7484   0.00728   0.00239  -0.0817  0.5700  1.0000  -1.0928   0.0000   0.0000   0.0000   0.3550
   2.900   0.7592   0.00732   0.00240  -0.0816  0.5654  1.0000  -1.1103   0.0000   0.0000   0.0000   0.3532
   3.000   0.7698   0.00737   0.00241  -0.0815  0.5605  1.0000  -1.1277   0.0000   0.0000   0.0000   0.3515
   3.100   0.7802   0.00743   0.00243  -0.0814  0.5553  1.0000  -1.1452   0.0000   0.0000   0.0000   0.3498
   3.200   0.7907   0.00750   0.00246  -0.0813  0.5497  1.0000  -1.1626   0.0000   0.0000   0.0000   0.3482
   3.300   0.8012   0.00758   0.00251  -0.0812  0.5438  1.0000  -1.1800   0.0000   0.0000   0.0000   0.3466
   3.400   0.8121   0.00764   0.00255  -0.0811  0.5402  1.0000  -1.1979   0.0000   0.0000   0.0000   0.3451
   3.500   0.8231   0.00766   0.00258  -0.0811  0.5383  1.0000  -1.2160   0.0000   0.0000   0.0000   0.3437
   3.600   0.8342   0.00768   0.00261  -0.0811  0.5358  1.0000  -1.2342   0.0000   0.0000   0.0000   0.3423
   3.700   0.8451   0.00771   0.00264  -0.0811  0.5324  1.0000  -1.2524   0.0000   0.0000   0.0000   0.3409
   3.800   0.8559   0.00775   0.00267  -0.0811  0.5280  1.0000  -1.2706   0.0000   0.0000   0.0000   0.3395
   3.900   0.8666   0.00779   0.00270  -0.0810  0.5229  1.0000  -1.2887   0.0000   0.0000   0.0000   0.3382
   4.000   0.8772   0.00785   0.00273  -0.0809  0.5172  1.0000  -1.3094   0.0000   0.0000   0.0000   0.3368
   4.100   0.8875   0.00792   0.00276  -0.0808  0.5110  1.0000  -1.3305   0.0000   0.0000   0.0000   0.3355
   4.200   0.8977   0.00801   0.00281  -0.0806  0.5045  1.0000  -1.3514   0.0000   0.0000   0.0000   0.3342
   4.300   0.9079   0.00811   0.00286  -0.0805  0.4974  1.0000  -1.3723   0.0000   0.0000   0.0000   0.3329
   4.400   0.9184   0.00819   0.00292  -0.0804  0.4920  1.0000  -1.3938   0.0000   0.0000   0.0000   0.3317
   4.500   0.9294   0.00822   0.00297  -0.0804  0.4896  1.0000  -1.4158   0.0000   0.0000   0.0000   0.3306
   4.600   0.9403   0.00826   0.00302  -0.0804  0.4862  1.0000  -1.4378   0.0000   0.0000   0.0000   0.3294
   4.700   0.9510   0.00831   0.00307  -0.0804  0.4819  1.0000  -1.4598   0.0000   0.0000   0.0000   0.3283
   4.800   0.9616   0.00837   0.00311  -0.0803  0.4764  1.0000  -1.4832   0.0000   0.0000   0.0000   0.3272
   4.900   0.9719   0.00845   0.00316  -0.0802  0.4698  1.0000  -1.5089   0.0000   0.0000   0.0000   0.3261
   5.000   0.9819   0.00855   0.00322  -0.0800  0.4621  1.0000  -1.5341   0.0000   0.0000   0.0000   0.3250
   5.100   0.9914   0.00868   0.00329  -0.0798  0.4530  1.0000  -1.5590   0.0000   0.0000   0.0000   0.3238
   5.200   1.0013   0.00880   0.00337  -0.0797  0.4442  1.0000  -1.5843   0.0000   0.0000   0.0000   0.3228
   5.300   1.0121   0.00885   0.00343  -0.0796  0.4405  1.0000  -1.6110   0.0000   0.0000   0.0000   0.3218
   5.400   1.0227   0.00891   0.00350  -0.0796  0.4356  1.0000  -1.6376   0.0000   0.0000   0.0000   0.3208
   5.500   1.0331   0.00899   0.00356  -0.0795  0.4297  1.0000  -1.6639   0.0000   0.0000   0.0000   0.3198
   5.600   1.0432   0.00909   0.00363  -0.0794  0.4228  1.0000  -1.6901   0.0000   0.0000   0.0000   0.3188
   5.700   1.0529   0.00921   0.00371  -0.0792  0.4152  1.0000  -1.7158   0.0000   0.0000   0.0000   0.3178
   5.800   1.0622   0.00937   0.00381  -0.0790  0.4059  1.0000  -1.7410   0.0000   0.0000   0.0000   0.3168
   5.900   1.0718   0.00951   0.00408  -0.0787  0.3965  1.0000  -1.7661   0.0000   0.0000   0.0000   0.3158
   6.000   1.0823   0.00958   0.00416  -0.0787  0.3915  1.0000  -1.7930   0.0000   0.0000   0.0000   0.3150
   6.100   1.0923   0.00968   0.00425  -0.0786  0.3842  1.0000  -1.8228   0.0000   0.0000   0.0000   0.3140
   6.200   1.1019   0.00982   0.00434  -0.0784  0.3754  1.0000  -1.8546   0.0000   0.0000   0.0000   0.3131
   6.300   1.1109   0.01000   0.00446  -0.0781  0.3659  1.0000  -1.8856   0.0000   0.0000   0.0000   0.3122
   6.400   1.1198   0.01018   0.00459  -0.0778  0.3554  1.0000  -1.9163   0.0000   0.0000   0.0000   0.3112
   6.500   1.1297   0.01029   0.00470  -0.0777  0.3494  1.0000  -1.9489   0.0000   0.0000   0.0000   0.3104
   6.600   1.1399   0.01038   0.00479  -0.0776  0.3446  1.0000  -1.9820   0.0000   0.0000   0.0000   0.3096
   6.700   1.1497   0.01050   0.00490  -0.0775  0.3384  1.0000  -2.0148   0.0000   0.0000   0.0000   0.3087
   6.800   1.1591   0.01064   0.00501  -0.0773  0.3311  1.0000  -2.0470   0.0000   0.0000   0.0000   0.3079
   6.900   1.1679   0.01083   0.00515  -0.0770  0.3226  1.0000  -2.0783   0.0000   0.0000   0.0000   0.3070
   7.000   1.1763   0.01105   0.00531  -0.0767  0.3119  1.0000  -2.1090   0.0000   0.0000   0.0000   0.3061
   7.100   1.1858   0.01119   0.00543  -0.0765  0.3049  1.0000  -2.1417   0.0000   0.0000   0.0000   0.3053
   7.200   1.1956   0.01130   0.00555  -0.0763  0.2997  1.0000  -2.1752   0.0000   0.0000   0.0000   0.3045
   7.300   1.2049   0.01145   0.00567  -0.0761  0.2928  1.0000  -2.2082   0.0000   0.0000   0.0000   0.3037
   7.400   1.2136   0.01163   0.00581  -0.0758  0.2851  1.0000  -2.2481   0.0000   0.0000   0.0000   0.3029
   7.500   1.2219   0.01185   0.00597  -0.0755  0.2770  1.0000  -2.2871   0.0000   0.0000   0.0000   0.3020
   7.600   1.2302   0.01206   0.00615  -0.0752  0.2679  1.0000  -2.3261   0.0000   0.0000   0.0000   0.3012
   7.700   1.2395   0.01220   0.00629  -0.0750  0.2627  1.0000  -2.3677   0.0000   0.0000   0.0000   0.3004
   7.800   1.2492   0.01231   0.00641  -0.0748  0.2592  1.0000  -2.4104   0.0000   0.0000   0.0000   0.2997
   7.900   1.2585   0.01245   0.00655  -0.0746  0.2545  1.0000  -2.4525   0.0000   0.0000   0.0000   0.2990
   8.000   1.2673   0.01262   0.00670  -0.0743  0.2489  1.0000  -2.5169   0.0000   0.0000   0.0000   0.2982
   8.100   1.2757   0.01282   0.00686  -0.0740  0.2426  1.0000  -2.6103   0.0000   0.0000   0.0000   0.2974
   8.200   1.2835   0.01305   0.00705  -0.0736  0.2354  1.0000  -2.7024   0.0000   0.0000   0.0000   0.2966
   8.300   1.2912   0.01328   0.00725  -0.0732  0.2270  1.0000  -2.7947   0.0000   0.0000   0.0000   0.2958
   8.400   1.3000   0.01344   0.00742  -0.0729  0.2224  1.0000  -2.8941   0.0000   0.0000   0.0000   0.2951
   8.500   1.3094   0.01356   0.00755  -0.0727  0.2195  1.0000  -2.9974   0.0000   0.0000   0.0000   0.2944
   8.600   1.3182   0.01371   0.00771  -0.0725  0.2154  1.0000  -3.0994   0.0000   0.0000   0.0000   0.2936
   8.700   1.3264   0.01390   0.00788  -0.0721  0.2100  1.0000  -3.1993   0.0000   0.0000   0.0000   0.2929
   8.800   1.3338   0.01413   0.00807  -0.0717  0.2036  1.0000  -3.2962   0.0000   0.0000   0.0000   0.2921
   8.900   1.3405   0.01441   0.00829  -0.0711  0.1957  1.0000  -3.3898   0.0000   0.0000   0.0000   0.2913
   9.000   1.3469   0.01470   0.00855  -0.0706  0.1863  1.0000  -3.4828   0.0000   0.0000   0.0000   0.2905
   9.100   1.3557   0.01483   0.00869  -0.0703  0.1827  1.0000  -3.5907   0.0000   0.0000   0.0000   0.2898
   9.200   1.3634   0.01503   0.00887  -0.0699  0.1768  1.0000  -3.6938   0.0000   0.0000   0.0000   0.2890
   9.300   1.3695   0.01533   0.00909  -0.0693  0.1687  1.0000  -3.7887   0.0000   0.0000   0.0000   0.2882
   9.400   1.3743   0.01569   0.00935  -0.0685  0.1585  1.0000  -3.8768   0.0000   0.0000   0.0000   0.2873
   9.500   1.3774   0.01615   0.00979  -0.0676  0.1382  1.0000  -3.9414   0.0000   0.0000   0.0000   0.2864
   9.600   1.3818   0.01649   0.01005  -0.0668  0.1305  1.0000  -4.0236   0.0000   0.0000   0.0000   0.2855
   9.700   1.3860   0.01681   0.01031  -0.0659  0.1227  1.0000  -4.1071   0.0000   0.0000   0.0000   0.2845
   9.800   1.3918   0.01704   0.01054  -0.0652  0.1178  1.0000  -4.2006   0.0000   0.0000   0.0000   0.2837
   9.900   1.3978   0.01726   0.01076  -0.0645  0.1144  1.0000  -4.2965   0.0000   0.0000   0.0000   0.2828
  10.000   1.4029   0.01753   0.01101  -0.0637  0.1099  1.0000  -4.3881   0.0000   0.0000   0.0000   0.2820
  10.100   1.4071   0.01784   0.01130  -0.0629  0.1049  1.0000  -4.4748   0.0000   0.0000   0.0000   0.2811
  10.200   1.4104   0.01822   0.01162  -0.0619  0.0995  1.0000  -4.5561   0.0000   0.0000   0.0000   0.2801
  10.300   1.4141   0.01858   0.01194  -0.0611  0.0934  1.0000  -4.6404   0.0000   0.0000   0.0000   0.2792
  10.400   1.4196   0.01885   0.01221  -0.0604  0.0895  1.0000  -4.7347   0.0000   0.0000   0.0000   0.2784
  10.500   1.4249   0.01913   0.01249  -0.0598  0.0865  1.0000  -4.8286   0.0000   0.0000   0.0000   0.2777
  10.600   1.4293   0.01946   0.01281  -0.0591  0.0826  1.0000  -4.9166   0.0000   0.0000   0.0000   0.2769
  10.700   1.4327   0.01986   0.01318  -0.0582  0.0781  1.0000  -4.9978   0.0000   0.0000   0.0000   0.2760
  10.800   1.4353   0.02032   0.01360  -0.0574  0.0733  1.0000  -5.0738   0.0000   0.0000   0.0000   0.2752
  10.900   1.4384   0.02076   0.01401  -0.0566  0.0681  1.0000  -5.1495   0.0000   0.0000   0.0000   0.2744
  11.000   1.4430   0.02111   0.01437  -0.0559  0.0648  1.0000  -5.2310   0.0000   0.0000   0.0000   0.2736
  11.100   1.4465   0.02154   0.01478  -0.0552  0.0606  1.0000  -5.3018   0.0000   0.0000   0.0000   0.2729
  11.200   1.4441   0.02238   0.01549  -0.0540  0.0505  1.0000  -5.3397   0.0000   0.0000   0.0000   0.2719
  11.300   1.4425   0.02316   0.01621  -0.0528  0.0411  1.0000  -5.3791   0.0000   0.0000   0.0000   0.2710
  11.400   1.4400   0.02404   0.01701  -0.0517  0.0331  1.0000  -5.4130   0.0000   0.0000   0.0000   0.2701
  11.500   1.4387   0.02488   0.01778  -0.0507  0.0253  1.0000  -5.4512   0.0000   0.0000   0.0000   0.2693
  11.600   1.4337   0.02600   0.01884  -0.0495  0.0171  1.0000  -5.4722   0.0000   0.0000   0.0000   0.2684
  11.700   1.4324   0.02689   0.01970  -0.0486  0.0125  1.0000  -5.5100   0.0000   0.0000   0.0000   0.2676
  11.800   1.4326   0.02768   0.02049  -0.0479  0.0101  1.0000  -5.5562   0.0000   0.0000   0.0000   0.2669
  11.900   1.4340   0.02839   0.02122  -0.0472  0.0082  1.0000  -5.6073   0.0000   0.0000   0.0000   0.2662
  12.000   1.4369   0.02898   0.02185  -0.0467  0.0069  1.0000  -5.6636   0.0000   0.0000   0.0000   0.2656
  12.100   1.4399   0.02957   0.02248  -0.0462  0.0064  1.0000  -5.7205   0.0000   0.0000   0.0000   0.2650
  12.200   1.4428   0.03017   0.02312  -0.0458  0.0062  1.0000  -5.7836   0.0000   0.0000   0.0000   0.2644
  12.300   1.4456   0.03077   0.02377  -0.0453  0.0060  1.0000  -5.8473   0.0000   0.0000   0.0000   0.2639
  12.400   1.4484   0.03138   0.02442  -0.0448  0.0059  1.0000  -5.9112   0.0000   0.0000   0.0000   0.2633
  12.500   1.4511   0.03201   0.02510  -0.0444  0.0058  1.0000  -5.9750   0.0000   0.0000   0.0000   0.2627
  12.600   1.4531   0.03270   0.02585  -0.0439  0.0057  1.0000  -6.0356   0.0000   0.0000   0.0000   0.2622
  12.700   1.4546   0.03347   0.02667  -0.0435  0.0057  1.0000  -6.0930   0.0000   0.0000   0.0000   0.2617
  12.800   1.4562   0.03424   0.02749  -0.0431  0.0056  1.0000  -6.1516   0.0000   0.0000   0.0000   0.2611
  12.900   1.4580   0.03501   0.02831  -0.0427  0.0056  1.0000  -6.2112   0.0000   0.0000   0.0000   0.2606
  13.000   1.4598   0.03579   0.02915  -0.0423  0.0055  1.0000  -6.2706   0.0000   0.0000   0.0000   0.2601
  13.100   1.4614   0.03660   0.03002  -0.0420  0.0055  1.0000  -6.3292   0.0000   0.0000   0.0000   0.2597
  13.200   1.4625   0.03747   0.03094  -0.0416  0.0054  1.0000  -6.3850   0.0000   0.0000   0.0000   0.2592
  13.300   1.4626   0.03846   0.03199  -0.0413  0.0054  1.0000  -6.4344   0.0000   0.0000   0.0000   0.2588
  13.400   1.4628   0.03944   0.03303  -0.0410  0.0054  1.0000  -6.4847   0.0000   0.0000   0.0000   0.2584
  13.500   1.4633   0.04042   0.03406  -0.0407  0.0054  1.0000  -6.5362   0.0000   0.0000   0.0000   0.2580
  13.600   1.4637   0.04139   0.03510  -0.0405  0.0053  1.0000  -6.5875   0.0000   0.0000   0.0000   0.2576
  13.700   1.4640   0.04240   0.03616  -0.0402  0.0053  1.0000  -6.6373   0.0000   0.0000   0.0000   0.2572
  13.800   1.4637   0.04347   0.03730  -0.0400  0.0053  1.0000  -6.6840   0.0000   0.0000   0.0000   0.2568
  13.900   1.4620   0.04473   0.03861  -0.0398  0.0053  1.0000  -6.7215   0.0000   0.0000   0.0000   0.2565
  14.000   1.4607   0.04596   0.03990  -0.0397  0.0053  1.0000  -6.7607   0.0000   0.0000   0.0000   0.2563
  14.100   1.4596   0.04717   0.04117  -0.0396  0.0053  1.0000  -6.8016   0.0000   0.0000   0.0000   0.2560
  14.200   1.4586   0.04838   0.04244  -0.0395  0.0052  1.0000  -6.8422   0.0000   0.0000   0.0000   0.2557
  14.300   1.4574   0.04962   0.04375  -0.0394  0.0052  1.0000  -6.8815   0.0000   0.0000   0.0000   0.2555
  14.400   1.4555   0.05097   0.04516  -0.0393  0.0052  1.0000  -6.9159   0.0000   0.0000   0.0000   0.2553
  14.500   1.4523   0.05253   0.04679  -0.0394  0.0052  1.0000  -6.9413   0.0000   0.0000   0.0000   0.2552
  14.600   1.4496   0.05398   0.04830  -0.0395  0.0052  1.0000  -6.9699   0.0000   0.0000   0.0000   0.2550
  14.700   1.4471   0.05538   0.04976  -0.0395  0.0052  1.0000  -7.0000   0.0000   0.0000   0.0000   0.2549
  14.800   1.4448   0.05681   0.05125  -0.0396  0.0052  1.0000  -7.0302   0.0000   0.0000   0.0000   0.2547
  14.900   1.4423   0.05829   0.05279  -0.0397  0.0052  1.0000  -7.0589   0.0000   0.0000   0.0000   0.2546
  15.000   1.4385   0.06003   0.05460  -0.0399  0.0052  1.0000  -7.0783   0.0000   0.0000   0.0000   0.2547
  15.100   1.4357   0.06171   0.05640  -0.0403  0.0052  1.0000  -7.1148   0.0000   0.0000   0.0000   0.2547
  15.200   1.4326   0.06341   0.05817  -0.0406  0.0052  1.0000  -7.1387   0.0000   0.0000   0.0000   0.2548
  15.300   1.4298   0.06508   0.05991  -0.0408  0.0052  1.0000  -7.1633   0.0000   0.0000   0.0000   0.2548
  15.400   1.4271   0.06680   0.06168  -0.0412  0.0052  1.0000  -7.1876   0.0000   0.0000   0.0000   0.2549
  15.500   1.4240   0.06858   0.06353  -0.0415  0.0052  1.0000  -7.2089   0.0000   0.0000   0.0000   0.2550
  15.600   1.4191   0.07074   0.06575  -0.0422  0.0052  1.0000  -7.2159   0.0000   0.0000   0.0000   0.2553
  15.700   1.4151   0.07276   0.06783  -0.0427  0.0052  1.0000  -7.2340   0.0000   0.0000   0.0000   0.2555
  15.800   1.4118   0.07466   0.06980  -0.0432  0.0052  1.0000  -7.2632   0.0000   0.0000   0.0000   0.2557
  15.900   1.4087   0.07655   0.07175  -0.0437  0.0052  1.0000  -7.2928   0.0000   0.0000   0.0000   0.2559
  16.000   1.4054   0.07847   0.07373  -0.0442  0.0052  1.0000  -7.3205   0.0000   0.0000   0.0000   0.2562
  16.100   1.4012   0.08057   0.07589  -0.0449  0.0052  1.0000  -7.3392   0.0000   0.0000   0.0000   0.2565
  16.200   1.3960   0.08293   0.07831  -0.0458  0.0052  1.0000  -7.3474   0.0000   0.0000   0.0000   0.2570
  16.300   1.3921   0.08503   0.08048  -0.0465  0.0052  1.0000  -7.3667   0.0000   0.0000   0.0000   0.2574
  16.400   1.3886   0.08704   0.08255  -0.0471  0.0052  1.0000  -7.3893   0.0000   0.0000   0.0000   0.2578
  16.500   1.3851   0.08903   0.08460  -0.0478  0.0053  1.0000  -7.4117   0.0000   0.0000   0.0000   0.2581
  16.600   1.3816   0.09105   0.08668  -0.0485  0.0053  1.0000  -7.4322   0.0000   0.0000   0.0000   0.2585
  16.700   1.3770   0.09333   0.08902  -0.0494  0.0053  1.0000  -7.4416   0.0000   0.0000   0.0000   0.2591
  16.800   1.3718   0.09573   0.09148  -0.0505  0.0053  1.0000  -7.4440   0.0000   0.0000   0.0000   0.2597
  16.900   1.3679   0.09786   0.09367  -0.0513  0.0053  1.0000  -7.4576   0.0000   0.0000   0.0000   0.2603
  17.000   1.3643   0.09989   0.09577  -0.0522  0.0053  1.0000  -7.4745   0.0000   0.0000   0.0000   0.2607
  17.100   1.3609   0.10190   0.09783  -0.0530  0.0053  1.0000  -7.4919   0.0000   0.0000   0.0000   0.2612
  17.200   1.3575   0.10392   0.09991  -0.0538  0.0053  1.0000  -7.5090   0.0000   0.0000   0.0000   0.2617
  17.300   1.3535   0.10608   0.10213  -0.0548  0.0053  1.0000  -7.5185   0.0000   0.0000   0.0000   0.2624
  17.400   1.3481   0.10857   0.10468  -0.0561  0.0053  1.0000  -7.5117   0.0000   0.0000   0.0000   0.2632
  17.500   1.3441   0.11074   0.10690  -0.0571  0.0053  1.0000  -7.5186   0.0000   0.0000   0.0000   0.2639
  17.600   1.3406   0.11277   0.10899  -0.0581  0.0053  1.0000  -7.5309   0.0000   0.0000   0.0000   0.2645
  17.700   1.3375   0.11475   0.11103  -0.0590  0.0053  1.0000  -7.5456   0.0000   0.0000   0.0000   0.2651
  17.800   1.3343   0.11671   0.11304  -0.0600  0.0053  1.0000  -7.5594   0.0000   0.0000   0.0000   0.2658
  17.900   1.3310   0.11859   0.11498  -0.0610  0.0053  1.0000  -7.5702   0.0000   0.0000   0.0000   0.2664
  18.000   1.3263   0.12073   0.11718  -0.0623  0.0053  1.0000  -7.5644   0.0000   0.0000   0.0000   0.2673
  18.100   1.3214   0.12298   0.11949  -0.0636  0.0053  1.0000  -7.5537   0.0000   0.0000   0.0000   0.2683
  18.200   1.3177   0.12500   0.12156  -0.0648  0.0053  1.0000  -7.5563   0.0000   0.0000   0.0000   0.2691
  18.300   1.3145   0.12697   0.12358  -0.0659  0.0053  1.0000  -7.5645   0.0000   0.0000   0.0000   0.2699
  18.400   1.3115   0.12896   0.12563  -0.0671  0.0053  1.0000  -7.5727   0.0000   0.0000   0.0000   0.2707
  18.500   1.3083   0.13101   0.12773  -0.0682  0.0053  1.0000  -7.5785   0.0000   0.0000   0.0000   0.2715
  18.600   1.3049   0.13316   0.12994  -0.0695  0.0053  1.0000  -7.5802   0.0000   0.0000   0.0000   0.2724
  18.700   1.2997   0.13580   0.13264  -0.0711  0.0053  1.0000  -7.5574   0.0000   0.0000   0.0000   0.2736
  18.800   1.2949   0.13841   0.13530  -0.0726  0.0053  1.0000  -7.5378   0.0000   0.0000   0.0000   0.2748
  18.900   1.2913   0.14078   0.13773  -0.0740  0.0053  1.0000  -7.5325   0.0000   0.0000   0.0000   0.2758
  19.000   1.2880   0.14312   0.14012  -0.0753  0.0053  1.0000  -7.5294   0.0000   0.0000   0.0000   0.2768
  19.100   1.2846   0.14550   0.14256  -0.0767  0.0053  1.0000  -7.5244   0.0000   0.0000   0.0000   0.2778
  19.200   1.2809   0.14798   0.14509  -0.0781  0.0053  1.0000  -7.5150   0.0000   0.0000   0.0000   0.2789
  19.300   1.2768   0.15065   0.14781  -0.0796  0.0053  1.0000  -7.4963   0.0000   0.0000   0.0000   0.2801
  19.400   1.2703   0.15401   0.15123  -0.0816  0.0053  1.0000  -7.4431   0.0000   0.0000   0.0000   0.2819
  19.500   1.2658   0.15693   0.15421  -0.0833  0.0053  1.0000  -7.4143   0.0000   0.0000   0.0000   0.2832
  19.600   1.2618   0.15973   0.15705  -0.0848  0.0053  1.0000  -7.3922   0.0000   0.0000   0.0000   0.2845
  19.700   1.2578   0.16256   0.15994  -0.0864  0.0053  1.0000  -7.3685   0.0000   0.0000   0.0000   0.2858
  19.800   1.2535   0.16552   0.16295  -0.0880  0.0053  1.0000  -7.3385   0.0000   0.0000   0.0000   0.2872
  19.900   1.2485   0.16872   0.16620  -0.0898  0.0053  1.0000  -7.2964   0.0000   0.0000   0.0000   0.2887
  20.000   1.2410   0.17285   0.17039  -0.0921  0.0054  1.0000  -7.2088   0.0000   0.0000   0.0000   0.2909
  20.100   1.2355   0.17638   0.17398  -0.0940  0.0054  1.0000  -7.1522   0.0000   0.0000   0.0000   0.2926
  20.200   1.2305   0.17981   0.17746  -0.0958  0.0054  1.0000  -7.1010   0.0000   0.0000   0.0000   0.2942
  20.300   1.2252   0.18337   0.18107  -0.0976  0.0054  1.0000  -7.0429   0.0000   0.0000   0.0000   0.2959
  20.400   1.2192   0.18725   0.18500  -0.0996  0.0054  1.0000  -6.9698   0.0000   0.0000   0.0000   0.2978
  20.500   1.2096   0.19248   0.19029  -0.1022  0.0055  1.0000  -6.8284   0.0000   0.0000   0.0000   0.3006
  20.600   1.2026   0.19692   0.19478  -0.1044  0.0055  1.0000  -6.7276   0.0000   0.0000   0.0000   0.3029
  20.700   1.1958   0.20134   0.19925  -0.1065  0.0055  1.0000  -6.6276   0.0000   0.0000   0.0000   0.3050
  20.800   1.1880   0.20623   0.20420  -0.1087  0.0055  1.0000  -6.5040   0.0000   0.0000   0.0000   0.3075
  20.900   1.1748   0.21333   0.21136  -0.1119  0.0056  1.0000  -6.2676   0.0000   0.0000   0.0000   0.3113
  21.000   1.1647   0.21937   0.21745  -0.1144  0.0057  1.0000  -6.0856   0.0000   0.0000   0.0000   0.3144
  21.100   1.1528   0.22633   0.22446  -0.1172  0.0057  1.0000  -5.8549   0.0000   0.0000   0.0000   0.3180
  21.200   1.1314   0.23759   0.23577  -0.1213  0.0059  1.0000  -5.4018   0.0000   0.0000   0.0000   0.3240
  21.300   1.0978   0.25500   0.25318  -0.1267  0.0061  1.0000  -4.6148   0.0000   0.0000   0.0000   0.3332
  22.700   0.9129   0.30293   0.30126  -0.1302  0.0152  1.0000  -1.9494   0.0000   0.0000   0.0000   0.3637
  22.800   0.9093   0.30353   0.30187  -0.1304  0.0152  1.0000  -1.9284   0.0000   0.0000   0.0000   0.3644
  22.900   0.9058   0.30415   0.30250  -0.1306  0.0152  1.0000  -1.9060   0.0000   0.0000   0.0000   0.3651
  23.000   0.9026   0.30480   0.30315  -0.1308  0.0152  1.0000  -1.8838   0.0000   0.0000   0.0000   0.3658
  23.100   0.8996   0.30546   0.30383  -0.1310  0.0151  1.0000  -1.8626   0.0000   0.0000   0.0000   0.3665
  23.200   0.8969   0.30615   0.30452  -0.1313  0.0151  1.0000  -1.8421   0.0000   0.0000   0.0000   0.3671
  23.300   0.8944   0.30685   0.30523  -0.1315  0.0151  1.0000  -1.8217   0.0000   0.0000   0.0000   0.3677
  23.400   0.8921   0.30757   0.30596  -0.1318  0.0151  1.0000  -1.8013   0.0000   0.0000   0.0000   0.3684
  23.500   0.8901   0.30830   0.30670  -0.1321  0.0150  1.0000  -1.7807   0.0000   0.0000   0.0000   0.3690
  23.600   0.8884   0.30906   0.30746  -0.1325  0.0150  1.0000  -1.7602   0.0000   0.0000   0.0000   0.3695
  23.700   0.8873   0.30985   0.30825  -0.1329  0.0148  1.0000  -1.7433   0.0000   0.0000   0.0000   0.3701
  23.800   0.8921   0.31169   0.31010  -0.1345  0.0109  1.0000  -1.7768   0.0000   0.0000   0.0000   0.3709
  23.900   0.8910   0.31225   0.31066  -0.1349  0.0101  1.0000  -1.7843   0.0000   0.0000   0.0000   0.3714
  24.000   0.8903   0.31270   0.31112  -0.1352  0.0095  1.0000  -1.8033   0.0000   0.0000   0.0000   0.3717
  24.100   0.8900   0.31303   0.31147  -0.1356  0.0090  1.0000  -1.8336   0.0000   0.0000   0.0000   0.3719
  24.200   0.8901   0.31325   0.31169  -0.1359  0.0085  1.0000  -1.8769   0.0000   0.0000   0.0000   0.3720
  24.300   0.8906   0.31332   0.31177  -0.1361  0.0082  1.0000  -1.9358   0.0000   0.0000   0.0000   0.3719
  24.400   0.8918   0.31319   0.31165  -0.1364  0.0078  1.0000  -2.0160   0.0000   0.0000   0.0000   0.3716
  24.500   0.8925   0.31311   0.31159  -0.1366  0.0075  1.0000  -2.0894   0.0000   0.0000   0.0000   0.3715
  24.600   0.8917   0.31335   0.31183  -0.1369  0.0072  1.0000  -2.1208   0.0000   0.0000   0.0000   0.3717
  24.700   0.8892   0.31386   0.31235  -0.1372  0.0070  1.0000  -2.1040   0.0000   0.0000   0.0000   0.3723
  24.800   0.8851   0.31474   0.31323  -0.1373  0.0068  1.0000  -2.0315   0.0000   0.0000   0.0000   0.3732
  24.900   0.8782   0.31614   0.31464  -0.1374  0.0066  1.0000  -1.8785   0.0000   0.0000   0.0000   0.3746
  25.000   0.8689   0.31821   0.31667  -0.1375  0.0064  1.0000  -1.6483   0.0000   0.0000   0.0000   0.3767
  25.100   0.8676   0.31904   0.31751  -0.1378  0.0064  1.0000  -1.6203   0.0000   0.0000   0.0000   0.3772
  25.200   0.8663   0.31987   0.31835  -0.1381  0.0064  1.0000  -1.5939   0.0000   0.0000   0.0000   0.3776
  25.300   0.8651   0.32070   0.31918  -0.1384  0.0064  1.0000  -1.5690   0.0000   0.0000   0.0000   0.3781
  25.400   0.8640   0.32153   0.32001  -0.1387  0.0064  1.0000  -1.5454   0.0000   0.0000   0.0000   0.3786
  25.500   0.8629   0.32235   0.32084  -0.1390  0.0064  1.0000  -1.5230   0.0000   0.0000   0.0000   0.3790
  25.600   0.8619   0.32317   0.32167  -0.1394  0.0064  1.0000  -1.5017   0.0000   0.0000   0.0000   0.3795
  25.700   0.8609   0.32400   0.32249  -0.1397  0.0064  1.0000  -1.4815   0.0000   0.0000   0.0000   0.3799
  25.800   0.8600   0.32482   0.32332  -0.1401  0.0064  1.0000  -1.4621   0.0000   0.0000   0.0000   0.3803
  25.900   0.8591   0.32564   0.32414  -0.1404  0.0064  1.0000  -1.4436   0.0000   0.0000   0.0000   0.3807
  26.000   0.8583   0.32646   0.32497  -0.1407  0.0064  1.0000  -1.4259   0.0000   0.0000   0.0000   0.3812
  26.100   0.8575   0.32728   0.32579  -0.1411  0.0064  1.0000  -1.4088   0.0000   0.0000   0.0000   0.3816
  26.200   0.8567   0.32809   0.32662  -0.1414  0.0064  1.0000  -1.3925   0.0000   0.0000   0.0000   0.3820
  26.300   0.8560   0.32891   0.32744  -0.1418  0.0064  1.0000  -1.3767   0.0000   0.0000   0.0000   0.3824
  26.400   0.8553   0.32973   0.32826  -0.1421  0.0064  1.0000  -1.3616   0.0000   0.0000   0.0000   0.3828
  26.500   0.8547   0.33055   0.32908  -0.1425  0.0064  1.0000  -1.3469   0.0000   0.0000   0.0000   0.3832
  26.600   0.8541   0.33136   0.32990  -0.1428  0.0064  1.0000  -1.3328   0.0000   0.0000   0.0000   0.3835
  26.700   0.8535   0.33218   0.33072  -0.1432  0.0064  1.0000  -1.3191   0.0000   0.0000   0.0000   0.3839
  26.800   0.8529   0.33299   0.33157  -0.1436  0.0064  1.0000  -1.3046   0.0000   0.0000   0.0000   0.3843
  26.900   0.8523   0.33380   0.33239  -0.1439  0.0064  1.0000  -1.2914   0.0000   0.0000   0.0000   0.3847
  27.000   0.8518   0.33462   0.33321  -0.1443  0.0064  1.0000  -1.2787   0.0000   0.0000   0.0000   0.3850
  27.100   0.8513   0.33543   0.33403  -0.1447  0.0064  1.0000  -1.2665   0.0000   0.0000   0.0000   0.3854
  27.200   0.8508   0.33624   0.33485  -0.1451  0.0063  1.0000  -1.2546   0.0000   0.0000   0.0000   0.3858
  27.300   0.8503   0.33706   0.33567  -0.1454  0.0063  1.0000  -1.2431   0.0000   0.0000   0.0000   0.3861
  27.400   0.8499   0.33787   0.33648  -0.1458  0.0063  1.0000  -1.2320   0.0000   0.0000   0.0000   0.3865
  27.500   0.8495   0.33868   0.33730  -0.1462  0.0063  1.0000  -1.2211   0.0000   0.0000   0.0000   0.3868
  27.600   0.8490   0.33949   0.33812  -0.1466  0.0063  1.0000  -1.2106   0.0000   0.0000   0.0000   0.3872
  27.700   0.8486   0.34031   0.33893  -0.1469  0.0063  1.0000  -1.2003   0.0000   0.0000   0.0000   0.3875
  27.800   0.8483   0.34112   0.33975  -0.1473  0.0063  1.0000  -1.1903   0.0000   0.0000   0.0000   0.3879


