xflr5 v6.61

 Calculated polar for: S4310

 1 1 Reynolds number fixed          Mach number fixed         

 xtrf =   1.000 (top)        1.000 (bottom)
 Mach =   0.000     Re =     0.563 e 6     Ncrit =   9.000

  alpha     CL        CD       CDp       Cm    Top Xtr Bot Xtr   Cpmin    Chinge    XCp    
 ------- -------- --------- --------- -------- ------- ------- -------- --------- ---------
 -10.000  -0.2814   0.11133   0.10916  -0.0325  1.0000  0.0157  -1.4647   0.0000   0.0000   0.0000   0.1228
  -9.900  -0.2790   0.10996   0.10780  -0.0331  1.0000  0.0157  -1.4711   0.0000   0.0000   0.0000   0.1197
  -9.800  -0.2766   0.10860   0.10645  -0.0337  1.0000  0.0157  -1.4777   0.0000   0.0000   0.0000   0.1165
  -9.700  -0.2742   0.10724   0.10510  -0.0343  1.0000  0.0157  -1.4844   0.0000   0.0000   0.0000   0.1133
  -9.600  -0.2718   0.10588   0.10375  -0.0349  1.0000  0.0157  -1.4914   0.0000   0.0000   0.0000   0.1100
  -9.500  -0.2695   0.10452   0.10240  -0.0355  1.0000  0.0157  -1.4987   0.0000   0.0000   0.0000   0.1067
  -9.400  -0.2673   0.10317   0.10106  -0.0361  1.0000  0.0157  -1.5061   0.0000   0.0000   0.0000   0.1033
  -9.300  -0.2651   0.10182   0.09972  -0.0367  1.0000  0.0157  -1.5139   0.0000   0.0000   0.0000   0.1000
  -9.200  -0.2630   0.10048   0.09839  -0.0373  1.0000  0.0157  -1.5219   0.0000   0.0000   0.0000   0.0966
  -9.000  -0.2519   0.09701   0.09493  -0.0407  0.9820  0.0157  -1.5371   0.0000   0.0000   0.0000   0.0767
  -8.900  -0.2452   0.09516   0.09307  -0.0428  0.9760  0.0157  -1.5451   0.0000   0.0000   0.0000   0.0635
  -8.700  -0.2315   0.09142   0.08931  -0.0471  0.9641  0.0157  -1.5624   0.0000   0.0000   0.0000   0.0343
  -8.600  -0.2250   0.08957   0.08745  -0.0491  0.9572  0.0157  -1.5719   0.0000   0.0000   0.0000   0.0192
  -8.500  -0.2188   0.08775   0.08561  -0.0510  0.9501  0.0157  -1.5822   0.0000   0.0000   0.0000   0.0038
  -8.400  -0.2151   0.08619   0.08404  -0.0522  0.9416  0.0157  -1.5934   0.0000   0.0000   0.0000  -0.0056
  -8.300  -0.2123   0.08472   0.08254  -0.0531  0.9327  0.0157  -1.6055   0.0000   0.0000   0.0000  -0.0132
  -8.100  -0.2087   0.08195   0.07973  -0.0545  0.9170  0.0157  -1.6320   0.0000   0.0000   0.0000  -0.0236
  -8.000  -0.2078   0.08062   0.07838  -0.0549  0.9096  0.0157  -1.6466   0.0000   0.0000   0.0000  -0.0269
  -7.900  -0.2070   0.07927   0.07701  -0.0554  0.9022  0.0157  -1.6623   0.0000   0.0000   0.0000  -0.0300
  -7.800  -0.2064   0.07792   0.07563  -0.0558  0.8951  0.0156  -1.6792   0.0000   0.0000   0.0000  -0.0329
  -7.700  -0.2058   0.07652   0.07422  -0.0564  0.8890  0.0156  -1.6978   0.0000   0.0000   0.0000  -0.0362
  -7.600  -0.2054   0.07507   0.07277  -0.0570  0.8840  0.0156  -1.7189   0.0000   0.0000   0.0000  -0.0396
  -7.500  -0.2055   0.07359   0.07128  -0.0577  0.8785  0.0155  -1.7432   0.0000   0.0000   0.0000  -0.0424
  -7.400  -0.2063   0.07205   0.06973  -0.0583  0.8726  0.0155  -1.7730   0.0000   0.0000   0.0000  -0.0442
  -7.300  -0.2085   0.07039   0.06805  -0.0590  0.8666  0.0154  -1.8140   0.0000   0.0000   0.0000  -0.0441
  -7.200  -0.2138   0.06842   0.06605  -0.0599  0.8600  0.0151  -1.8852   0.0000   0.0000   0.0000  -0.0406
  -7.100  -0.2190   0.06576   0.06337  -0.0622  0.8540  0.0146  -1.9879   0.0000   0.0000   0.0000  -0.0440
  -7.000  -0.2206   0.06318   0.06079  -0.0649  0.8505  0.0143  -2.0691   0.0000   0.0000   0.0000  -0.0539
  -6.900  -0.2205   0.06065   0.05825  -0.0675  0.8465  0.0139  -2.1414   0.0000   0.0000   0.0000  -0.0658
  -6.800  -0.2194   0.05809   0.05567  -0.0701  0.8422  0.0136  -2.2121   0.0000   0.0000   0.0000  -0.0791
  -6.700  -0.2176   0.05547   0.05301  -0.0726  0.8379  0.0134  -2.2842   0.0000   0.0000   0.0000  -0.0933
  -6.600  -0.2152   0.05278   0.05025  -0.0750  0.8337  0.0131  -2.3600   0.0000   0.0000   0.0000  -0.1082
  -6.500  -0.2123   0.05000   0.04740  -0.0773  0.8296  0.0128  -2.4409   0.0000   0.0000   0.0000  -0.1234
  -6.400  -0.2091   0.04715   0.04446  -0.0793  0.8254  0.0125  -2.5285   0.0000   0.0000   0.0000  -0.1387
  -6.300  -0.2055   0.04420   0.04140  -0.0811  0.8207  0.0122  -2.6248   0.0000   0.0000   0.0000  -0.1544
  -6.200  -0.2014   0.04115   0.03821  -0.0827  0.8160  0.0119  -2.7321   0.0000   0.0000   0.0000  -0.1705
  -6.100  -0.1971   0.03796   0.03489  -0.0840  0.8143  0.0116  -2.8524   0.0000   0.0000   0.0000  -0.1865
  -6.000  -0.1926   0.03472   0.03148  -0.0850  0.8123  0.0112  -2.9855   0.0000   0.0000   0.0000  -0.2020
  -5.900  -0.1878   0.03150   0.02805  -0.0857  0.8099  0.0109  -3.1283   0.0000   0.0000   0.0000  -0.2171
  -5.800  -0.1826   0.02845   0.02477  -0.0860  0.8074  0.0106  -3.2694   0.0000   0.0000   0.0000  -0.2324
  -5.700  -0.1766   0.02574   0.02180  -0.0861  0.8047  0.0103  -3.3917   0.0000   0.0000   0.0000  -0.2493
  -5.600  -0.1698   0.02343   0.01922  -0.0860  0.8018  0.0101  -3.4865   0.0000   0.0000   0.0000  -0.2689
  -5.500  -0.1620   0.02154   0.01710  -0.0858  0.7988  0.0100  -3.5450   0.0000   0.0000   0.0000  -0.2924
  -5.400  -0.1536   0.02000   0.01533  -0.0856  0.7957  0.0099  -3.5724   0.0000   0.0000   0.0000  -0.3206
  -5.300  -0.1446   0.01873   0.01387  -0.0853  0.7925  0.0100  -3.5828   0.0000   0.0000   0.0000  -0.3540
  -5.200  -0.1353   0.01768   0.01263  -0.0851  0.7892  0.0101  -3.5751   0.0000   0.0000   0.0000  -0.3937
  -5.100  -0.1256   0.01679   0.01160  -0.0848  0.7857  0.0102  -3.5522   0.0000   0.0000   0.0000  -0.4410
  -5.000  -0.1156   0.01606   0.01072  -0.0846  0.7820  0.0105  -3.5170   0.0000   0.0000   0.0000  -0.4983
  -4.900  -0.1053   0.01546   0.00999  -0.0844  0.7778  0.0109  -3.4704   0.0000   0.0000   0.0000  -0.5693
  -4.800  -0.0947   0.01500   0.00945  -0.0843  0.7742  0.0114  -3.4081   0.0000   0.0000   0.0000  -0.6596
  -4.700  -0.0838   0.01467   0.00907  -0.0842  0.7730  0.0121  -3.3263   0.0000   0.0000   0.0000  -0.7764
  -4.600  -0.0727   0.01452   0.00890  -0.0842  0.7715  0.0128  -3.2226   0.0000   0.0000   0.0000  -0.9319
  -4.500  -0.0614   0.01452   0.00891  -0.0842  0.7697  0.0135  -3.1004   0.0000   0.0000   0.0000  -1.1478
  -4.400  -0.0500   0.01469   0.00911  -0.0842  0.7678  0.0142  -2.9617   0.0000   0.0000   0.0000  -1.4672
  -4.300  -0.0376   0.01574   0.01024  -0.0844  0.7656  0.0152  -2.7556   0.0000   0.0000   0.0000  -2.0378
  -4.200  -0.0259   0.01620   0.01076  -0.0845  0.7632  0.0156  -2.5982   0.0000   0.0000   0.0000  -3.0722
  -4.100  -0.0137   0.01709   0.01174  -0.0846  0.7607  0.0159  -2.4138   0.0000   0.0000   0.0000  -6.0250
  -4.000  -0.0061   0.01446   0.00877  -0.0843  0.7585  0.0179  -2.4723   0.0000   0.0000   0.0000  -13.8926
  -3.900   0.0041   0.01377   0.00800  -0.0842  0.7559  0.0190  -2.4040   0.0000   0.0000   0.0000  20.9776
  -3.800   0.0148   0.01346   0.00765  -0.0842  0.7531  0.0199  -2.3099   0.0000   0.0000   0.0000   6.0380
  -3.700   0.0256   0.01326   0.00742  -0.0841  0.7502  0.0207  -2.2096   0.0000   0.0000   0.0000   3.5934
  -3.600   0.0364   0.01308   0.00722  -0.0840  0.7471  0.0214  -2.1103   0.0000   0.0000   0.0000   2.5963
  -3.500   0.0472   0.01290   0.00701  -0.0840  0.7437  0.0220  -2.0148   0.0000   0.0000   0.0000   2.0557
  -3.400   0.0580   0.01271   0.00677  -0.0839  0.7398  0.0226  -1.9447   0.0000   0.0000   0.0000   1.7161
  -3.300   0.0689   0.01251   0.00651  -0.0838  0.7355  0.0230  -1.8901   0.0000   0.0000   0.0000   1.4823
  -3.200   0.0799   0.01231   0.00626  -0.0837  0.7308  0.0234  -1.8391   0.0000   0.0000   0.0000   1.3111
  -3.100   0.0910   0.01205   0.00597  -0.0836  0.7293  0.0237  -1.7910   0.0000   0.0000   0.0000   1.1805
  -3.000   0.1021   0.01179   0.00568  -0.0836  0.7281  0.0240  -1.7451   0.0000   0.0000   0.0000   1.0782
  -2.900   0.1132   0.01152   0.00539  -0.0835  0.7267  0.0242  -1.7010   0.0000   0.0000   0.0000   0.9959
  -2.800   0.1243   0.01127   0.00511  -0.0834  0.7252  0.0244  -1.6582   0.0000   0.0000   0.0000   0.9283
  -2.700   0.1354   0.01105   0.00487  -0.0833  0.7234  0.0247  -1.6119   0.0000   0.0000   0.0000   0.8718
  -2.600   0.1466   0.01092   0.00473  -0.0833  0.7214  0.0256  -1.5534   0.0000   0.0000   0.0000   0.8240
  -2.500   0.1578   0.01081   0.00461  -0.0833  0.7194  0.0268  -1.4930   0.0000   0.0000   0.0000   0.7829
  -2.400   0.1689   0.01070   0.00449  -0.0832  0.7171  0.0278  -1.4357   0.0000   0.0000   0.0000   0.7472
  -2.300   0.1800   0.01055   0.00433  -0.0832  0.7146  0.0286  -1.3845   0.0000   0.0000   0.0000   0.7159
  -2.200   0.1911   0.01038   0.00412  -0.0831  0.7119  0.0291  -1.3404   0.0000   0.0000   0.0000   0.6882
  -2.100   0.2021   0.01018   0.00388  -0.0830  0.7090  0.0292  -1.3029   0.0000   0.0000   0.0000   0.6635
  -2.000   0.2131   0.00996   0.00361  -0.0828  0.7060  0.0292  -1.2707   0.0000   0.0000   0.0000   0.6413
  -1.900   0.2240   0.00976   0.00334  -0.0826  0.7028  0.0289  -1.2408   0.0000   0.0000   0.0000   0.6212
  -1.800   0.2350   0.00960   0.00311  -0.0825  0.6995  0.0287  -1.2095   0.0000   0.0000   0.0000   0.6030
  -1.700   0.2461   0.00946   0.00290  -0.0824  0.6958  0.0287  -1.1773   0.0000   0.0000   0.0000   0.5864
  -1.600   0.2572   0.00936   0.00273  -0.0823  0.6918  0.0287  -1.1444   0.0000   0.0000   0.0000   0.5712
  -1.500   0.2685   0.00928   0.00258  -0.0822  0.6878  0.0289  -1.1116   0.0000   0.0000   0.0000   0.5573
  -1.300   0.2898   0.00834   0.00213  -0.0820  0.6833  0.1842  -1.1602   0.0000   0.0000   0.0000   0.5339
  -1.200   0.3006   0.00814   0.00211  -0.0821  0.6822  0.2383  -1.1085   0.0000   0.0000   0.0000   0.5236
  -1.100   0.3113   0.00792   0.00210  -0.0821  0.6808  0.2975  -1.0552   0.0000   0.0000   0.0000   0.5142
  -1.000   0.3215   0.00763   0.00208  -0.0821  0.6791  0.3825  -1.0104   0.0000   0.0000   0.0000   0.5056
  -0.900   0.3320   0.00743   0.00207  -0.0821  0.6771  0.4452  -0.9550   0.0000   0.0000   0.0000   0.4972
  -0.800   0.3416   0.00711   0.00208  -0.0819  0.6749  0.5482  -0.9025   0.0000   0.0000   0.0000   0.4896
  -0.700   0.3506   0.00680   0.00210  -0.0815  0.6725  0.6515  -0.8518   0.0000   0.0000   0.0000   0.4821
  -0.500   0.3690   0.00646   0.00212  -0.0804  0.6671  0.7716  -0.7506   0.0000   0.0000   0.0000   0.4674
  -0.400   0.3773   0.00633   0.00214  -0.0796  0.6643  0.8277  -0.7029   0.0000   0.0000   0.0000   0.4602
  -0.300   0.3856   0.00626   0.00215  -0.0787  0.6614  0.8728  -0.6876   0.0000   0.0000   0.0000   0.4533
  -0.200   0.3949   0.00622   0.00215  -0.0781  0.6582  0.9072  -0.6963   0.0000   0.0000   0.0000   0.4467
  -0.100   0.4063   0.00621   0.00213  -0.0779  0.6547  0.9338  -0.7061   0.0000   0.0000   0.0000   0.4406
   0.000   0.4215   0.00621   0.00210  -0.0786  0.6506  0.9593  -0.7190   0.0000   0.0000   0.0000   0.4352
   0.100   0.4408   0.00623   0.00207  -0.0802  0.6459  0.9788  -0.7348   0.0000   0.0000   0.0000   0.4306
   0.200   0.4602   0.00626   0.00205  -0.0820  0.6410  0.9905  -0.7507   0.0000   0.0000   0.0000   0.4266
   0.300   0.4805   0.00629   0.00203  -0.0839  0.6370  0.9995  -0.7671   0.0000   0.0000   0.0000   0.4231
   0.400   0.4915   0.00629   0.00202  -0.0839  0.6359  1.0000  -0.7780   0.0000   0.0000   0.0000   0.4190
   0.500   0.5019   0.00629   0.00202  -0.0838  0.6345  1.0000  -0.7887   0.0000   0.0000   0.0000   0.4150
   0.600   0.5124   0.00630   0.00201  -0.0836  0.6327  1.0000  -0.7994   0.0000   0.0000   0.0000   0.4112
   0.700   0.5230   0.00631   0.00201  -0.0835  0.6305  1.0000  -0.8101   0.0000   0.0000   0.0000   0.4076
   0.800   0.5336   0.00632   0.00200  -0.0834  0.6280  1.0000  -0.8209   0.0000   0.0000   0.0000   0.4040
   0.900   0.5442   0.00633   0.00200  -0.0832  0.6253  1.0000  -0.8318   0.0000   0.0000   0.0000   0.4007
   1.000   0.5549   0.00635   0.00200  -0.0831  0.6225  1.0000  -0.8426   0.0000   0.0000   0.0000   0.3974
   1.100   0.5655   0.00637   0.00200  -0.0830  0.6196  1.0000  -0.8547   0.0000   0.0000   0.0000   0.3943
   1.200   0.5762   0.00640   0.00197  -0.0829  0.6167  1.0000  -0.8672   0.0000   0.0000   0.0000   0.3913
   1.300   0.5868   0.00643   0.00198  -0.0828  0.6136  1.0000  -0.8797   0.0000   0.0000   0.0000   0.3884
   1.400   0.5975   0.00646   0.00198  -0.0827  0.6103  1.0000  -0.8922   0.0000   0.0000   0.0000   0.3856
   1.500   0.6081   0.00650   0.00198  -0.0825  0.6067  1.0000  -0.9048   0.0000   0.0000   0.0000   0.3829
   1.600   0.6186   0.00655   0.00199  -0.0824  0.6025  1.0000  -0.9173   0.0000   0.0000   0.0000   0.3802
   1.700   0.6291   0.00661   0.00200  -0.0823  0.5975  1.0000  -0.9298   0.0000   0.0000   0.0000   0.3777
   1.800   0.6397   0.00668   0.00203  -0.0822  0.5918  1.0000  -0.9428   0.0000   0.0000   0.0000   0.3753
   1.900   0.6506   0.00672   0.00205  -0.0821  0.5885  1.0000  -0.9575   0.0000   0.0000   0.0000   0.3730
   2.000   0.6616   0.00673   0.00206  -0.0821  0.5870  1.0000  -0.9725   0.0000   0.0000   0.0000   0.3707
   2.100   0.6726   0.00674   0.00207  -0.0821  0.5850  1.0000  -0.9875   0.0000   0.0000   0.0000   0.3685
   2.200   0.6836   0.00676   0.00209  -0.0820  0.5828  1.0000  -1.0025   0.0000   0.0000   0.0000   0.3664
   2.300   0.6946   0.00678   0.00210  -0.0820  0.5803  1.0000  -1.0175   0.0000   0.0000   0.0000   0.3644
   2.400   0.7056   0.00680   0.00212  -0.0820  0.5772  1.0000  -1.0326   0.0000   0.0000   0.0000   0.3624
   2.500   0.7165   0.00683   0.00213  -0.0819  0.5736  1.0000  -1.0477   0.0000   0.0000   0.0000   0.3604
   2.600   0.7273   0.00686   0.00217  -0.0818  0.5696  1.0000  -1.0627   0.0000   0.0000   0.0000   0.3586
   2.700   0.7380   0.00691   0.00218  -0.0818  0.5650  1.0000  -1.0778   0.0000   0.0000   0.0000   0.3567
   2.800   0.7486   0.00696   0.00219  -0.0817  0.5600  1.0000  -1.0935   0.0000   0.0000   0.0000   0.3549
   2.900   0.7591   0.00702   0.00221  -0.0815  0.5545  1.0000  -1.1108   0.0000   0.0000   0.0000   0.3531
   3.000   0.7695   0.00709   0.00224  -0.0814  0.5484  1.0000  -1.1281   0.0000   0.0000   0.0000   0.3514
   3.100   0.7801   0.00718   0.00228  -0.0813  0.5424  1.0000  -1.1455   0.0000   0.0000   0.0000   0.3498
   3.200   0.7911   0.00721   0.00232  -0.0813  0.5399  1.0000  -1.1634   0.0000   0.0000   0.0000   0.3482
   3.300   0.8022   0.00723   0.00234  -0.0813  0.5381  1.0000  -1.1815   0.0000   0.0000   0.0000   0.3467
   3.400   0.8133   0.00725   0.00237  -0.0813  0.5357  1.0000  -1.1996   0.0000   0.0000   0.0000   0.3452
   3.500   0.8243   0.00728   0.00240  -0.0813  0.5326  1.0000  -1.2177   0.0000   0.0000   0.0000   0.3438
   3.600   0.8352   0.00732   0.00243  -0.0813  0.5286  1.0000  -1.2358   0.0000   0.0000   0.0000   0.3423
   3.700   0.8460   0.00736   0.00246  -0.0812  0.5236  1.0000  -1.2539   0.0000   0.0000   0.0000   0.3409
   3.800   0.8566   0.00742   0.00248  -0.0812  0.5180  1.0000  -1.2718   0.0000   0.0000   0.0000   0.3395
   3.900   0.8670   0.00749   0.00252  -0.0810  0.5118  1.0000  -1.2897   0.0000   0.0000   0.0000   0.3382
   4.000   0.8772   0.00758   0.00255  -0.0809  0.5049  1.0000  -1.3101   0.0000   0.0000   0.0000   0.3368
   4.100   0.8874   0.00767   0.00261  -0.0808  0.4975  1.0000  -1.3309   0.0000   0.0000   0.0000   0.3355
   4.200   0.8980   0.00775   0.00266  -0.0807  0.4921  1.0000  -1.3522   0.0000   0.0000   0.0000   0.3342
   4.300   0.9091   0.00778   0.00270  -0.0807  0.4898  1.0000  -1.3742   0.0000   0.0000   0.0000   0.3330
   4.400   0.9200   0.00781   0.00275  -0.0807  0.4867  1.0000  -1.3961   0.0000   0.0000   0.0000   0.3319
   4.500   0.9308   0.00786   0.00279  -0.0807  0.4827  1.0000  -1.4180   0.0000   0.0000   0.0000   0.3307
   4.600   0.9415   0.00792   0.00284  -0.0806  0.4778  1.0000  -1.4398   0.0000   0.0000   0.0000   0.3296
   4.700   0.9520   0.00799   0.00288  -0.0806  0.4717  1.0000  -1.4615   0.0000   0.0000   0.0000   0.3284
   4.800   0.9621   0.00808   0.00294  -0.0804  0.4645  1.0000  -1.4847   0.0000   0.0000   0.0000   0.3273
   4.900   0.9719   0.00820   0.00300  -0.0802  0.4558  1.0000  -1.5096   0.0000   0.0000   0.0000   0.3261
   5.000   0.9817   0.00833   0.00308  -0.0801  0.4456  1.0000  -1.5345   0.0000   0.0000   0.0000   0.3250
   5.100   0.9925   0.00838   0.00313  -0.0800  0.4418  1.0000  -1.5610   0.0000   0.0000   0.0000   0.3240
   5.200   1.0032   0.00844   0.00319  -0.0800  0.4372  1.0000  -1.5875   0.0000   0.0000   0.0000   0.3230
   5.300   1.0137   0.00851   0.00325  -0.0799  0.4316  1.0000  -1.6138   0.0000   0.0000   0.0000   0.3220
   5.400   1.0240   0.00860   0.00332  -0.0798  0.4250  1.0000  -1.6400   0.0000   0.0000   0.0000   0.3210
   5.500   1.0339   0.00871   0.00339  -0.0797  0.4177  1.0000  -1.6658   0.0000   0.0000   0.0000   0.3199
   5.600   1.0435   0.00885   0.00348  -0.0795  0.4092  1.0000  -1.6912   0.0000   0.0000   0.0000   0.3189
   5.700   1.0530   0.00900   0.00358  -0.0793  0.3989  1.0000  -1.7165   0.0000   0.0000   0.0000   0.3179
   5.800   1.0635   0.00907   0.00365  -0.0792  0.3943  1.0000  -1.7435   0.0000   0.0000   0.0000   0.3170
   5.900   1.0738   0.00916   0.00388  -0.0791  0.3878  1.0000  -1.7696   0.0000   0.0000   0.0000   0.3161
   6.000   1.0837   0.00928   0.00397  -0.0790  0.3795  1.0000  -1.7958   0.0000   0.0000   0.0000   0.3151
   6.100   1.0930   0.00944   0.00408  -0.0788  0.3700  1.0000  -1.8251   0.0000   0.0000   0.0000   0.3142
   6.200   1.1020   0.00962   0.00420  -0.0785  0.3593  1.0000  -1.8559   0.0000   0.0000   0.0000   0.3132
   6.300   1.1116   0.00976   0.00431  -0.0783  0.3507  1.0000  -1.8877   0.0000   0.0000   0.0000   0.3123
   6.400   1.1220   0.00984   0.00440  -0.0783  0.3467  1.0000  -1.9209   0.0000   0.0000   0.0000   0.3115
   6.500   1.1321   0.00994   0.00449  -0.0782  0.3411  1.0000  -1.9539   0.0000   0.0000   0.0000   0.3106
   6.600   1.1418   0.01007   0.00459  -0.0780  0.3343  1.0000  -1.9864   0.0000   0.0000   0.0000   0.3098
   6.700   1.1510   0.01023   0.00471  -0.0778  0.3265  1.0000  -2.0182   0.0000   0.0000   0.0000   0.3089
   6.800   1.1598   0.01043   0.00485  -0.0775  0.3168  1.0000  -2.0492   0.0000   0.0000   0.0000   0.3080
   6.900   1.1687   0.01061   0.00499  -0.0772  0.3065  1.0000  -2.0807   0.0000   0.0000   0.0000   0.3072
   7.000   1.1788   0.01071   0.00509  -0.0771  0.3023  1.0000  -2.1144   0.0000   0.0000   0.0000   0.3064
   7.100   1.1885   0.01083   0.00520  -0.0770  0.2960  1.0000  -2.1475   0.0000   0.0000   0.0000   0.3056
   7.200   1.1976   0.01100   0.00533  -0.0768  0.2885  1.0000  -2.1800   0.0000   0.0000   0.0000   0.3048
   7.300   1.2062   0.01120   0.00548  -0.0765  0.2805  1.0000  -2.2122   0.0000   0.0000   0.0000   0.3039
   7.400   1.2148   0.01140   0.00564  -0.0762  0.2716  1.0000  -2.2514   0.0000   0.0000   0.0000   0.3031
   7.500   1.2237   0.01158   0.00579  -0.0759  0.2638  1.0000  -2.2917   0.0000   0.0000   0.0000   0.3023
   7.600   1.2337   0.01167   0.00590  -0.0758  0.2609  1.0000  -2.3346   0.0000   0.0000   0.0000   0.3015
   7.700   1.2433   0.01179   0.00602  -0.0756  0.2568  1.0000  -2.3769   0.0000   0.0000   0.0000   0.3008
   7.800   1.2525   0.01193   0.00615  -0.0754  0.2516  1.0000  -2.4187   0.0000   0.0000   0.0000   0.3000
   7.900   1.2613   0.01211   0.00630  -0.0752  0.2456  1.0000  -2.4598   0.0000   0.0000   0.0000   0.2993
   8.000   1.2696   0.01232   0.00647  -0.0748  0.2389  1.0000  -2.5328   0.0000   0.0000   0.0000   0.2985
   8.100   1.2777   0.01254   0.00665  -0.0745  0.2309  1.0000  -2.6252   0.0000   0.0000   0.0000   0.2977
   8.200   1.2860   0.01274   0.00683  -0.0741  0.2234  1.0000  -2.7198   0.0000   0.0000   0.0000   0.2969
   8.300   1.2957   0.01284   0.00695  -0.0740  0.2211  1.0000  -2.8227   0.0000   0.0000   0.0000   0.2962
   8.400   1.3049   0.01297   0.00709  -0.0738  0.2177  1.0000  -2.9250   0.0000   0.0000   0.0000   0.2955
   8.500   1.3138   0.01313   0.00724  -0.0735  0.2131  1.0000  -3.0261   0.0000   0.0000   0.0000   0.2948
   8.600   1.3219   0.01332   0.00741  -0.0732  0.2072  1.0000  -3.1251   0.0000   0.0000   0.0000   0.2940
   8.700   1.3292   0.01358   0.00760  -0.0727  0.2000  1.0000  -3.2207   0.0000   0.0000   0.0000   0.2932
   8.800   1.3361   0.01386   0.00783  -0.0722  0.1905  1.0000  -3.3150   0.0000   0.0000   0.0000   0.2924
   8.900   1.3442   0.01404   0.00801  -0.0718  0.1843  1.0000  -3.4168   0.0000   0.0000   0.0000   0.2917
   9.000   1.3526   0.01421   0.00817  -0.0715  0.1791  1.0000  -3.5219   0.0000   0.0000   0.0000   0.2909
   9.100   1.3595   0.01447   0.00836  -0.0710  0.1712  1.0000  -3.6198   0.0000   0.0000   0.0000   0.2902
   9.200   1.3650   0.01482   0.00861  -0.0704  0.1611  1.0000  -3.7104   0.0000   0.0000   0.0000   0.2893
   9.300   1.3710   0.01513   0.00887  -0.0697  0.1503  1.0000  -3.8045   0.0000   0.0000   0.0000   0.2885
   9.400   1.3787   0.01532   0.00904  -0.0693  0.1453  1.0000  -3.9098   0.0000   0.0000   0.0000   0.2877
   9.500   1.3794   0.01594   0.00954  -0.0681  0.1235  1.0000  -3.9590   0.0000   0.0000   0.0000   0.2867
   9.600   1.3860   0.01617   0.00976  -0.0675  0.1174  1.0000  -4.0541   0.0000   0.0000   0.0000   0.2859
   9.700   1.3924   0.01638   0.00997  -0.0669  0.1135  1.0000  -4.1505   0.0000   0.0000   0.0000   0.2851
   9.800   1.3977   0.01664   0.01020  -0.0662  0.1085  1.0000  -4.2420   0.0000   0.0000   0.0000   0.2842
   9.900   1.4017   0.01695   0.01047  -0.0652  0.1031  1.0000  -4.3269   0.0000   0.0000   0.0000   0.2832
  10.000   1.4053   0.01730   0.01076  -0.0642  0.0971  1.0000  -4.4094   0.0000   0.0000   0.0000   0.2822
  10.100   1.4101   0.01759   0.01102  -0.0634  0.0907  1.0000  -4.4993   0.0000   0.0000   0.0000   0.2814
  10.200   1.4159   0.01782   0.01126  -0.0628  0.0881  1.0000  -4.5954   0.0000   0.0000   0.0000   0.2805
  10.300   1.4208   0.01810   0.01153  -0.0620  0.0845  1.0000  -4.6866   0.0000   0.0000   0.0000   0.2797
  10.400   1.4246   0.01845   0.01185  -0.0612  0.0798  1.0000  -4.7713   0.0000   0.0000   0.0000   0.2788
  10.500   1.4273   0.01888   0.01223  -0.0602  0.0744  1.0000  -4.8483   0.0000   0.0000   0.0000   0.2779
  10.600   1.4301   0.01930   0.01260  -0.0593  0.0683  1.0000  -4.9248   0.0000   0.0000   0.0000   0.2770
  10.700   1.4350   0.01961   0.01291  -0.0586  0.0646  1.0000  -5.0119   0.0000   0.0000   0.0000   0.2762
  10.800   1.4397   0.01993   0.01323  -0.0580  0.0615  1.0000  -5.0944   0.0000   0.0000   0.0000   0.2755
  10.900   1.4425   0.02038   0.01364  -0.0571  0.0565  1.0000  -5.1608   0.0000   0.0000   0.0000   0.2746
  11.000   1.4400   0.02119   0.01434  -0.0558  0.0463  1.0000  -5.1962   0.0000   0.0000   0.0000   0.2736
  11.100   1.4375   0.02202   0.01507  -0.0545  0.0356  1.0000  -5.2298   0.0000   0.0000   0.0000   0.2726
  11.200   1.4342   0.02291   0.01587  -0.0531  0.0261  1.0000  -5.2577   0.0000   0.0000   0.0000   0.2716
  11.300   1.4292   0.02397   0.01685  -0.0517  0.0172  1.0000  -5.2776   0.0000   0.0000   0.0000   0.2706
  11.400   1.4277   0.02481   0.01766  -0.0507  0.0115  1.0000  -5.3133   0.0000   0.0000   0.0000   0.2697
  11.500   1.4274   0.02559   0.01844  -0.0498  0.0087  1.0000  -5.3555   0.0000   0.0000   0.0000   0.2689
  11.600   1.4302   0.02615   0.01902  -0.0492  0.0066  1.0000  -5.4119   0.0000   0.0000   0.0000   0.2683
  11.700   1.4341   0.02664   0.01954  -0.0487  0.0062  1.0000  -5.4793   0.0000   0.0000   0.0000   0.2676
  11.800   1.4380   0.02713   0.02007  -0.0482  0.0060  1.0000  -5.5493   0.0000   0.0000   0.0000   0.2670
  11.900   1.4418   0.02764   0.02062  -0.0477  0.0058  1.0000  -5.6200   0.0000   0.0000   0.0000   0.2664
  12.000   1.4455   0.02816   0.02118  -0.0472  0.0056  1.0000  -5.6907   0.0000   0.0000   0.0000   0.2658
  12.100   1.4485   0.02873   0.02181  -0.0468  0.0055  1.0000  -5.7584   0.0000   0.0000   0.0000   0.2652
  12.200   1.4513   0.02934   0.02245  -0.0463  0.0054  1.0000  -5.8253   0.0000   0.0000   0.0000   0.2646
  12.300   1.4542   0.02993   0.02310  -0.0458  0.0053  1.0000  -5.8932   0.0000   0.0000   0.0000   0.2640
  12.400   1.4570   0.03053   0.02374  -0.0453  0.0053  1.0000  -5.9610   0.0000   0.0000   0.0000   0.2635
  12.500   1.4597   0.03114   0.02440  -0.0449  0.0052  1.0000  -6.0281   0.0000   0.0000   0.0000   0.2629
  12.600   1.4623   0.03178   0.02508  -0.0444  0.0052  1.0000  -6.0948   0.0000   0.0000   0.0000   0.2623
  12.700   1.4643   0.03248   0.02584  -0.0440  0.0051  1.0000  -6.1577   0.0000   0.0000   0.0000   0.2618
  12.800   1.4657   0.03325   0.02665  -0.0435  0.0051  1.0000  -6.2174   0.0000   0.0000   0.0000   0.2613
  12.900   1.4673   0.03401   0.02747  -0.0431  0.0050  1.0000  -6.2783   0.0000   0.0000   0.0000   0.2608
  13.000   1.4692   0.03478   0.02828  -0.0427  0.0050  1.0000  -6.3401   0.0000   0.0000   0.0000   0.2603
  13.100   1.4709   0.03556   0.02911  -0.0424  0.0050  1.0000  -6.4016   0.0000   0.0000   0.0000   0.2598
  13.200   1.4726   0.03636   0.02997  -0.0420  0.0049  1.0000  -6.4622   0.0000   0.0000   0.0000   0.2593
  13.300   1.4737   0.03722   0.03088  -0.0417  0.0049  1.0000  -6.5197   0.0000   0.0000   0.0000   0.2588
  13.400   1.4736   0.03823   0.03195  -0.0414  0.0049  1.0000  -6.5694   0.0000   0.0000   0.0000   0.2584
  13.500   1.4737   0.03923   0.03300  -0.0411  0.0049  1.0000  -6.6198   0.0000   0.0000   0.0000   0.2580
  13.600   1.4740   0.04021   0.03404  -0.0408  0.0049  1.0000  -6.6717   0.0000   0.0000   0.0000   0.2576
  13.700   1.4743   0.04121   0.03509  -0.0405  0.0049  1.0000  -6.7232   0.0000   0.0000   0.0000   0.2572
  13.800   1.4744   0.04223   0.03617  -0.0402  0.0048  1.0000  -6.7734   0.0000   0.0000   0.0000   0.2568
  13.900   1.4740   0.04332   0.03732  -0.0400  0.0048  1.0000  -6.8199   0.0000   0.0000   0.0000   0.2565
  14.000   1.4721   0.04460   0.03867  -0.0399  0.0048  1.0000  -6.8567   0.0000   0.0000   0.0000   0.2562
  14.100   1.4707   0.04584   0.03997  -0.0398  0.0048  1.0000  -6.8965   0.0000   0.0000   0.0000   0.2559
  14.200   1.4696   0.04705   0.04123  -0.0396  0.0048  1.0000  -6.9384   0.0000   0.0000   0.0000   0.2556
  14.300   1.4686   0.04826   0.04249  -0.0395  0.0048  1.0000  -6.9802   0.0000   0.0000   0.0000   0.2553
  14.400   1.4675   0.04950   0.04380  -0.0394  0.0048  1.0000  -7.0204   0.0000   0.0000   0.0000   0.2551
  14.500   1.4654   0.05087   0.04523  -0.0394  0.0048  1.0000  -7.0544   0.0000   0.0000   0.0000   0.2549
  14.600   1.4621   0.05245   0.04687  -0.0395  0.0048  1.0000  -7.0797   0.0000   0.0000   0.0000   0.2548
  14.700   1.4595   0.05389   0.04837  -0.0396  0.0048  1.0000  -7.1093   0.0000   0.0000   0.0000   0.2547
  14.800   1.4580   0.05517   0.04978  -0.0396  0.0048  1.0000  -7.1566   0.0000   0.0000   0.0000   0.2545
  14.900   1.4557   0.05658   0.05124  -0.0396  0.0048  1.0000  -7.1895   0.0000   0.0000   0.0000   0.2544
  15.000   1.4532   0.05806   0.05278  -0.0397  0.0048  1.0000  -7.2195   0.0000   0.0000   0.0000   0.2543
  15.100   1.4494   0.05981   0.05459  -0.0400  0.0048  1.0000  -7.2392   0.0000   0.0000   0.0000   0.2543
  15.200   1.4454   0.06163   0.05648  -0.0404  0.0048  1.0000  -7.2571   0.0000   0.0000   0.0000   0.2544
  15.300   1.4424   0.06332   0.05823  -0.0406  0.0048  1.0000  -7.2810   0.0000   0.0000   0.0000   0.2544
  15.400   1.4397   0.06499   0.05997  -0.0409  0.0048  1.0000  -7.3063   0.0000   0.0000   0.0000   0.2544
  15.500   1.4370   0.06670   0.06174  -0.0412  0.0048  1.0000  -7.3428   0.0000   0.0000   0.0000   0.2545
  15.600   1.4338   0.06850   0.06360  -0.0416  0.0048  1.0000  -7.3759   0.0000   0.0000   0.0000   0.2546
  15.700   1.4287   0.07069   0.06586  -0.0423  0.0048  1.0000  -7.3899   0.0000   0.0000   0.0000   0.2549
  15.800   1.4247   0.07270   0.06793  -0.0428  0.0048  1.0000  -7.4141   0.0000   0.0000   0.0000   0.2552
  15.900   1.4215   0.07461   0.06989  -0.0433  0.0048  1.0000  -7.4440   0.0000   0.0000   0.0000   0.2554
  16.000   1.4183   0.07649   0.07184  -0.0438  0.0048  1.0000  -7.4743   0.0000   0.0000   0.0000   0.2556
  16.100   1.4150   0.07842   0.07382  -0.0443  0.0049  1.0000  -7.5028   0.0000   0.0000   0.0000   0.2558
  16.200   1.4106   0.08056   0.07603  -0.0450  0.0049  1.0000  -7.5206   0.0000   0.0000   0.0000   0.2562
  16.300   1.4054   0.08293   0.07846  -0.0459  0.0049  1.0000  -7.5293   0.0000   0.0000   0.0000   0.2567
  16.400   1.4016   0.08502   0.08061  -0.0466  0.0049  1.0000  -7.5506   0.0000   0.0000   0.0000   0.2571
  16.500   1.3982   0.08702   0.08266  -0.0473  0.0049  1.0000  -7.5755   0.0000   0.0000   0.0000   0.2574
  16.600   1.3948   0.08900   0.08470  -0.0480  0.0049  1.0000  -7.6003   0.0000   0.0000   0.0000   0.2577
  16.700   1.3913   0.09101   0.08678  -0.0487  0.0049  1.0000  -7.6238   0.0000   0.0000   0.0000   0.2581
  16.800   1.3865   0.09335   0.08918  -0.0497  0.0049  1.0000  -7.6317   0.0000   0.0000   0.0000   0.2587
  16.900   1.3814   0.09574   0.09163  -0.0507  0.0049  1.0000  -7.6365   0.0000   0.0000   0.0000   0.2594
  17.000   1.3776   0.09785   0.09379  -0.0515  0.0049  1.0000  -7.6539   0.0000   0.0000   0.0000   0.2599
  17.100   1.3742   0.09986   0.09586  -0.0524  0.0049  1.0000  -7.6746   0.0000   0.0000   0.0000   0.2604
  17.200   1.3709   0.10185   0.09791  -0.0532  0.0049  1.0000  -7.6965   0.0000   0.0000   0.0000   0.2608
  17.300   1.3677   0.10387   0.09998  -0.0541  0.0049  1.0000  -7.7170   0.0000   0.0000   0.0000   0.2613
  17.400   1.3633   0.10613   0.10230  -0.0551  0.0049  1.0000  -7.7242   0.0000   0.0000   0.0000   0.2620
  17.500   1.3579   0.10862   0.10484  -0.0564  0.0049  1.0000  -7.7189   0.0000   0.0000   0.0000   0.2629
  17.600   1.3540   0.11075   0.10703  -0.0574  0.0048  1.0000  -7.7303   0.0000   0.0000   0.0000   0.2636
  17.700   1.3507   0.11276   0.10909  -0.0584  0.0048  1.0000  -7.7472   0.0000   0.0000   0.0000   0.2642
  17.800   1.3477   0.11473   0.11112  -0.0593  0.0048  1.0000  -7.7662   0.0000   0.0000   0.0000   0.2648
  17.900   1.3446   0.11671   0.11315  -0.0603  0.0048  1.0000  -7.7835   0.0000   0.0000   0.0000   0.2654
  18.000   1.3413   0.11863   0.11512  -0.0614  0.0048  1.0000  -7.7968   0.0000   0.0000   0.0000   0.2660
  18.100   1.3357   0.12097   0.11753  -0.0628  0.0048  1.0000  -7.7815   0.0000   0.0000   0.0000   0.2671
  18.200   1.3312   0.12310   0.11970  -0.0641  0.0048  1.0000  -7.7784   0.0000   0.0000   0.0000   0.2680
  18.300   1.3279   0.12503   0.12169  -0.0652  0.0048  1.0000  -7.7883   0.0000   0.0000   0.0000   0.2688
  18.400   1.3249   0.12695   0.12366  -0.0663  0.0048  1.0000  -7.8014   0.0000   0.0000   0.0000   0.2695
  18.500   1.3220   0.12890   0.12566  -0.0674  0.0048  1.0000  -7.8139   0.0000   0.0000   0.0000   0.2703
  18.600   1.3189   0.13093   0.12774  -0.0686  0.0048  1.0000  -7.8234   0.0000   0.0000   0.0000   0.2711
  18.700   1.3154   0.13309   0.12995  -0.0699  0.0048  1.0000  -7.8262   0.0000   0.0000   0.0000   0.2719
  18.800   1.3094   0.13589   0.13281  -0.0716  0.0048  1.0000  -7.7951   0.0000   0.0000   0.0000   0.2733
  18.900   1.3055   0.13830   0.13527  -0.0730  0.0048  1.0000  -7.7883   0.0000   0.0000   0.0000   0.2744
  19.000   1.3022   0.14056   0.13758  -0.0743  0.0047  1.0000  -7.7907   0.0000   0.0000   0.0000   0.2753
  19.100   1.2992   0.14281   0.13988  -0.0756  0.0047  1.0000  -7.7941   0.0000   0.0000   0.0000   0.2762
  19.200   1.2960   0.14511   0.14223  -0.0769  0.0047  1.0000  -7.7952   0.0000   0.0000   0.0000   0.2772
  19.300   1.2926   0.14752   0.14468  -0.0783  0.0047  1.0000  -7.7911   0.0000   0.0000   0.0000   0.2782
  19.400   1.2882   0.15021   0.14743  -0.0799  0.0047  1.0000  -7.7718   0.0000   0.0000   0.0000   0.2794
  19.500   1.2820   0.15348   0.15076  -0.0818  0.0047  1.0000  -7.7237   0.0000   0.0000   0.0000   0.2811
  19.600   1.2780   0.15624   0.15356  -0.0834  0.0047  1.0000  -7.7044   0.0000   0.0000   0.0000   0.2823
  19.700   1.2744   0.15888   0.15626  -0.0848  0.0047  1.0000  -7.6913   0.0000   0.0000   0.0000   0.2835
  19.800   1.2708   0.16156   0.15898  -0.0863  0.0047  1.0000  -7.6768   0.0000   0.0000   0.0000   0.2847
  19.900   1.2669   0.16436   0.16183  -0.0879  0.0047  1.0000  -7.6561   0.0000   0.0000   0.0000   0.2859
  20.000   1.2625   0.16734   0.16487  -0.0896  0.0047  1.0000  -7.6260   0.0000   0.0000   0.0000   0.2873
  20.100   1.2553   0.17130   0.16888  -0.0917  0.0047  1.0000  -7.5460   0.0000   0.0000   0.0000   0.2893
  20.200   1.2499   0.17474   0.17238  -0.0936  0.0047  1.0000  -7.4936   0.0000   0.0000   0.0000   0.2910
  20.300   1.2454   0.17796   0.17564  -0.0953  0.0047  1.0000  -7.4540   0.0000   0.0000   0.0000   0.2925
  20.400   1.2409   0.18123   0.17896  -0.0970  0.0047  1.0000  -7.4117   0.0000   0.0000   0.0000   0.2940
  20.500   1.2359   0.18469   0.18247  -0.0988  0.0047  1.0000  -7.3599   0.0000   0.0000   0.0000   0.2956
  20.600   1.2294   0.18876   0.18660  -0.1009  0.0048  1.0000  -7.2771   0.0000   0.0000   0.0000   0.2976
  20.700   1.2205   0.19373   0.19162  -0.1034  0.0048  1.0000  -7.1476   0.0000   0.0000   0.0000   0.3002
  20.800   1.2146   0.19777   0.19571  -0.1054  0.0048  1.0000  -7.0674   0.0000   0.0000   0.0000   0.3022
  20.900   1.2086   0.20187   0.19986  -0.1073  0.0048  1.0000  -6.9838   0.0000   0.0000   0.0000   0.3041
  21.000   1.2018   0.20639   0.20443  -0.1094  0.0049  1.0000  -6.8801   0.0000   0.0000   0.0000   0.3063
  21.100   1.1890   0.21321   0.21132  -0.1125  0.0049  1.0000  -6.6539   0.0000   0.0000   0.0000   0.3100
  21.200   1.1801   0.21874   0.21690  -0.1149  0.0050  1.0000  -6.4965   0.0000   0.0000   0.0000   0.3127
  21.300   1.1708   0.22456   0.22277  -0.1173  0.0050  1.0000  -6.3237   0.0000   0.0000   0.0000   0.3156
  21.400   1.1502   0.23521   0.23349  -0.1213  0.0052  1.0000  -5.8924   0.0000   0.0000   0.0000   0.3213
  21.500   1.1318   0.24537   0.24370  -0.1248  0.0054  1.0000  -5.4839   0.0000   0.0000   0.0000   0.3265
  21.600   1.0819   0.27089   0.26918  -0.1315  0.0059  1.0000  -4.2186   0.0000   0.0000   0.0000   0.3395
  21.700   1.0643   0.28179   0.28006  -0.1338  0.0061  1.0000  -3.7398   0.0000   0.0000   0.0000   0.3442
  22.200   1.0369   0.30319   0.30149  -0.1379  0.0066  1.0000  -3.1603   0.0000   0.0000   0.0000   0.3516
  22.300   1.0318   0.30623   0.30454  -0.1384  0.0066  1.0000  -3.0987   0.0000   0.0000   0.0000   0.3527
  22.400   1.0254   0.30907   0.30739  -0.1388  0.0066  1.0000  -3.0294   0.0000   0.0000   0.0000   0.3539
  22.500   0.9873   0.30248   0.30087  -0.1352  0.0067  1.0000  -2.9563   0.0000   0.0000   0.0000   0.3559
  22.600   0.9724   0.30136   0.29978  -0.1344  0.0067  1.0000  -2.8853   0.0000   0.0000   0.0000   0.3573
  22.700   0.9615   0.30125   0.29968  -0.1340  0.0067  1.0000  -2.8142   0.0000   0.0000   0.0000   0.3586
  22.800   0.9522   0.30147   0.29991  -0.1339  0.0067  1.0000  -2.7442   0.0000   0.0000   0.0000   0.3599
  22.900   0.9445   0.30187   0.30033  -0.1338  0.0067  1.0000  -2.6831   0.0000   0.0000   0.0000   0.3610
  23.000   0.9390   0.30232   0.30079  -0.1339  0.0067  1.0000  -2.6461   0.0000   0.0000   0.0000   0.3619
  23.100   0.9357   0.30274   0.30122  -0.1340  0.0067  1.0000  -2.6387   0.0000   0.0000   0.0000   0.3624
  23.200   0.9327   0.30320   0.30169  -0.1342  0.0068  1.0000  -2.6310   0.0000   0.0000   0.0000   0.3630
  23.300   0.9297   0.30371   0.30220  -0.1344  0.0068  1.0000  -2.6200   0.0000   0.0000   0.0000   0.3636
  23.400   0.9267   0.30426   0.30277  -0.1346  0.0069  1.0000  -2.6047   0.0000   0.0000   0.0000   0.3641
  23.500   0.9237   0.30487   0.30338  -0.1348  0.0069  1.0000  -2.5841   0.0000   0.0000   0.0000   0.3648
  23.600   0.9205   0.30552   0.30404  -0.1350  0.0070  1.0000  -2.5574   0.0000   0.0000   0.0000   0.3654
  23.700   0.9172   0.30621   0.30474  -0.1352  0.0070  1.0000  -2.5242   0.0000   0.0000   0.0000   0.3661
  25.000   0.8692   0.31889   0.31745  -0.1382  0.0064  1.0000  -1.5992   0.0000   0.0000   0.0000   0.3775
  25.100   0.8678   0.31971   0.31827  -0.1385  0.0064  1.0000  -1.5727   0.0000   0.0000   0.0000   0.3780
  25.200   0.8666   0.32053   0.31909  -0.1388  0.0064  1.0000  -1.5480   0.0000   0.0000   0.0000   0.3784
  25.300   0.8654   0.32134   0.31991  -0.1391  0.0064  1.0000  -1.5247   0.0000   0.0000   0.0000   0.3789
  25.400   0.8643   0.32216   0.32073  -0.1394  0.0064  1.0000  -1.5027   0.0000   0.0000   0.0000   0.3794
  25.500   0.8633   0.32297   0.32155  -0.1397  0.0064  1.0000  -1.4819   0.0000   0.0000   0.0000   0.3798
  25.600   0.8623   0.32379   0.32237  -0.1401  0.0064  1.0000  -1.4621   0.0000   0.0000   0.0000   0.3802
  25.700   0.8613   0.32460   0.32319  -0.1404  0.0064  1.0000  -1.4432   0.0000   0.0000   0.0000   0.3807
  25.800   0.8604   0.32541   0.32401  -0.1407  0.0064  1.0000  -1.4252   0.0000   0.0000   0.0000   0.3811
  25.900   0.8596   0.32623   0.32482  -0.1411  0.0064  1.0000  -1.4079   0.0000   0.0000   0.0000   0.3815
  26.000   0.8588   0.32704   0.32564  -0.1414  0.0064  1.0000  -1.3914   0.0000   0.0000   0.0000   0.3819
  26.100   0.8580   0.32785   0.32646  -0.1418  0.0063  1.0000  -1.3755   0.0000   0.0000   0.0000   0.3823
  26.200   0.8573   0.32867   0.32728  -0.1421  0.0063  1.0000  -1.3602   0.0000   0.0000   0.0000   0.3827
  26.300   0.8566   0.32948   0.32809  -0.1425  0.0063  1.0000  -1.3455   0.0000   0.0000   0.0000   0.3831
  26.400   0.8559   0.33029   0.32891  -0.1428  0.0063  1.0000  -1.3312   0.0000   0.0000   0.0000   0.3835
  26.500   0.8553   0.33110   0.32972  -0.1432  0.0063  1.0000  -1.3174   0.0000   0.0000   0.0000   0.3839
  26.600   0.8547   0.33192   0.33054  -0.1435  0.0063  1.0000  -1.3040   0.0000   0.0000   0.0000   0.3843
  26.700   0.8541   0.33273   0.33136  -0.1439  0.0063  1.0000  -1.2911   0.0000   0.0000   0.0000   0.3846
  26.800   0.8535   0.33354   0.33221  -0.1443  0.0063  1.0000  -1.2776   0.0000   0.0000   0.0000   0.3850
  26.900   0.8530   0.33435   0.33302  -0.1446  0.0063  1.0000  -1.2651   0.0000   0.0000   0.0000   0.3854
  27.000   0.8525   0.33516   0.33383  -0.1450  0.0063  1.0000  -1.2532   0.0000   0.0000   0.0000   0.3857
  27.100   0.8520   0.33597   0.33465  -0.1454  0.0063  1.0000  -1.2418   0.0000   0.0000   0.0000   0.3861
  27.200   0.8515   0.33677   0.33546  -0.1458  0.0063  1.0000  -1.2307   0.0000   0.0000   0.0000   0.3865
  27.300   0.8511   0.33758   0.33627  -0.1461  0.0063  1.0000  -1.2200   0.0000   0.0000   0.0000   0.3868


