xflr5 v6.61

 Calculated polar for: S4310

 1 1 Reynolds number fixed          Mach number fixed         

 xtrf =   1.000 (top)        1.000 (bottom)
 Mach =   0.000     Re =     0.450 e 6     Ncrit =   9.000

  alpha     CL        CD       CDp       Cm    Top Xtr Bot Xtr   Cpmin    Chinge    XCp    
 ------- -------- --------- --------- -------- ------- ------- -------- --------- ---------
 -10.000  -0.2823   0.11163   0.10920  -0.0330  1.0000  0.0158  -1.4924   0.0000   0.0000   0.0000   0.1213
  -9.900  -0.2799   0.11026   0.10784  -0.0336  1.0000  0.0158  -1.4989   0.0000   0.0000   0.0000   0.1181
  -9.800  -0.2775   0.10889   0.10649  -0.0342  1.0000  0.0158  -1.5056   0.0000   0.0000   0.0000   0.1150
  -9.700  -0.2751   0.10753   0.10513  -0.0348  1.0000  0.0158  -1.5125   0.0000   0.0000   0.0000   0.1117
  -9.600  -0.2728   0.10616   0.10378  -0.0354  1.0000  0.0158  -1.5196   0.0000   0.0000   0.0000   0.1085
  -9.500  -0.2705   0.10480   0.10243  -0.0360  1.0000  0.0158  -1.5269   0.0000   0.0000   0.0000   0.1051
  -9.400  -0.2682   0.10345   0.10109  -0.0367  1.0000  0.0158  -1.5345   0.0000   0.0000   0.0000   0.1018
  -9.300  -0.2661   0.10210   0.09975  -0.0373  1.0000  0.0158  -1.5423   0.0000   0.0000   0.0000   0.0985
  -9.200  -0.2640   0.10076   0.09842  -0.0379  1.0000  0.0158  -1.5504   0.0000   0.0000   0.0000   0.0951
  -9.100  -0.2621   0.09943   0.09711  -0.0385  1.0000  0.0158  -1.5588   0.0000   0.0000   0.0000   0.0918
  -9.000  -0.2603   0.09812   0.09582  -0.0390  1.0000  0.0158  -1.5676   0.0000   0.0000   0.0000   0.0887
  -8.900  -0.2584   0.09681   0.09452  -0.0397  0.9996  0.0158  -1.5766   0.0000   0.0000   0.0000   0.0852
  -8.700  -0.2452   0.09308   0.09079  -0.0438  0.9825  0.0158  -1.5932   0.0000   0.0000   0.0000   0.0597
  -8.600  -0.2382   0.09118   0.08888  -0.0460  0.9769  0.0158  -1.6022   0.0000   0.0000   0.0000   0.0451
  -8.500  -0.2309   0.08923   0.08692  -0.0483  0.9721  0.0158  -1.6117   0.0000   0.0000   0.0000   0.0287
  -8.400  -0.2242   0.08734   0.08502  -0.0504  0.9663  0.0158  -1.6219   0.0000   0.0000   0.0000   0.0127
  -8.300  -0.2179   0.08548   0.08316  -0.0525  0.9597  0.0158  -1.6329   0.0000   0.0000   0.0000  -0.0034
  -8.200  -0.2118   0.08364   0.08131  -0.0545  0.9532  0.0158  -1.6447   0.0000   0.0000   0.0000  -0.0200
  -8.100  -0.2073   0.08196   0.07961  -0.0560  0.9458  0.0158  -1.6575   0.0000   0.0000   0.0000  -0.0332
  -8.000  -0.2049   0.08049   0.07812  -0.0569  0.9372  0.0158  -1.6713   0.0000   0.0000   0.0000  -0.0409
  -7.900  -0.2027   0.07902   0.07663  -0.0578  0.9289  0.0158  -1.6859   0.0000   0.0000   0.0000  -0.0479
  -7.800  -0.2011   0.07760   0.07519  -0.0585  0.9213  0.0158  -1.7016   0.0000   0.0000   0.0000  -0.0536
  -7.700  -0.2007   0.07625   0.07383  -0.0590  0.9142  0.0158  -1.7184   0.0000   0.0000   0.0000  -0.0565
  -7.600  -0.2004   0.07488   0.07245  -0.0595  0.9068  0.0158  -1.7365   0.0000   0.0000   0.0000  -0.0591
  -7.500  -0.2005   0.07350   0.07105  -0.0600  0.8997  0.0157  -1.7564   0.0000   0.0000   0.0000  -0.0612
  -7.400  -0.2009   0.07210   0.06962  -0.0605  0.8928  0.0157  -1.7786   0.0000   0.0000   0.0000  -0.0628
  -7.300  -0.2015   0.07062   0.06813  -0.0612  0.8873  0.0157  -1.8046   0.0000   0.0000   0.0000  -0.0651
  -7.200  -0.2030   0.06908   0.06660  -0.0620  0.8819  0.0156  -1.8366   0.0000   0.0000   0.0000  -0.0665
  -7.100  -0.2051   0.06717   0.06468  -0.0633  0.8762  0.0155  -1.8876   0.0000   0.0000   0.0000  -0.0696
  -7.000  -0.2103   0.06410   0.06159  -0.0658  0.8702  0.0150  -2.0055   0.0000   0.0000   0.0000  -0.0735
  -6.900  -0.2121   0.06142   0.05887  -0.0683  0.8648  0.0146  -2.0937   0.0000   0.0000   0.0000  -0.0823
  -6.800  -0.2121   0.05887   0.05627  -0.0708  0.8593  0.0144  -2.1687   0.0000   0.0000   0.0000  -0.0937
  -6.700  -0.2106   0.05627   0.05362  -0.0733  0.8543  0.0141  -2.2422   0.0000   0.0000   0.0000  -0.1079
  -6.600  -0.2083   0.05355   0.05087  -0.0758  0.8512  0.0139  -2.3170   0.0000   0.0000   0.0000  -0.1236
  -6.500  -0.2054   0.05079   0.04805  -0.0781  0.8478  0.0136  -2.3944   0.0000   0.0000   0.0000  -0.1400
  -6.400  -0.2021   0.04798   0.04518  -0.0802  0.8441  0.0134  -2.4753   0.0000   0.0000   0.0000  -0.1566
  -6.300  -0.1984   0.04515   0.04225  -0.0820  0.8405  0.0131  -2.5604   0.0000   0.0000   0.0000  -0.1732
  -6.200  -0.1944   0.04230   0.03929  -0.0835  0.8368  0.0129  -2.6499   0.0000   0.0000   0.0000  -0.1896
  -6.100  -0.1902   0.03946   0.03632  -0.0847  0.8332  0.0127  -2.7435   0.0000   0.0000   0.0000  -0.2057
  -6.000  -0.1856   0.03667   0.03336  -0.0856  0.8298  0.0124  -2.8397   0.0000   0.0000   0.0000  -0.2217
  -5.900  -0.1807   0.03399   0.03049  -0.0862  0.8263  0.0122  -2.9353   0.0000   0.0000   0.0000  -0.2381
  -5.800  -0.1753   0.03144   0.02773  -0.0866  0.8226  0.0120  -3.0266   0.0000   0.0000   0.0000  -0.2555
  -5.700  -0.1692   0.02909   0.02516  -0.0868  0.8185  0.0118  -3.1090   0.0000   0.0000   0.0000  -0.2751
  -5.600  -0.1623   0.02697   0.02282  -0.0869  0.8154  0.0117  -3.1770   0.0000   0.0000   0.0000  -0.2982
  -5.500  -0.1547   0.02506   0.02071  -0.0869  0.8136  0.0116  -3.2311   0.0000   0.0000   0.0000  -0.3249
  -5.400  -0.1465   0.02340   0.01885  -0.0868  0.8114  0.0116  -3.2683   0.0000   0.0000   0.0000  -0.3562
  -5.300  -0.1379   0.02196   0.01723  -0.0867  0.8090  0.0116  -3.2878   0.0000   0.0000   0.0000  -0.3931
  -5.200  -0.1288   0.02072   0.01581  -0.0865  0.8063  0.0117  -3.2922   0.0000   0.0000   0.0000  -0.4368
  -5.100  -0.1194   0.01966   0.01458  -0.0863  0.8034  0.0119  -3.2831   0.0000   0.0000   0.0000  -0.4892
  -5.000  -0.1096   0.01875   0.01353  -0.0861  0.8005  0.0122  -3.2609   0.0000   0.0000   0.0000  -0.5527
  -4.900  -0.0996   0.01801   0.01266  -0.0859  0.7975  0.0126  -3.2244   0.0000   0.0000   0.0000  -0.6308
  -4.800  -0.0894   0.01746   0.01201  -0.0857  0.7944  0.0131  -3.1686   0.0000   0.0000   0.0000  -0.7295
  -4.700  -0.0788   0.01714   0.01162  -0.0855  0.7914  0.0136  -3.0903   0.0000   0.0000   0.0000  -0.8581
  -4.600  -0.0680   0.01706   0.01150  -0.0854  0.7885  0.0143  -2.9872   0.0000   0.0000   0.0000  -1.0321
  -4.500  -0.0569   0.01723   0.01167  -0.0854  0.7854  0.0148  -2.8602   0.0000   0.0000   0.0000  -1.2806
  -4.400  -0.0441   0.01874   0.01328  -0.0854  0.7819  0.0157  -2.6373   0.0000   0.0000   0.0000  -1.7243
  -4.300  -0.0355   0.01719   0.01146  -0.0853  0.7783  0.0172  -2.6292   0.0000   0.0000   0.0000  -2.2003
  -4.200  -0.0264   0.01581   0.00990  -0.0853  0.7743  0.0189  -2.6109   0.0000   0.0000   0.0000  -3.0343
  -4.100  -0.0159   0.01550   0.00959  -0.0853  0.7731  0.0201  -2.5094   0.0000   0.0000   0.0000  -5.2205
  -4.000  -0.0050   0.01537   0.00947  -0.0853  0.7715  0.0211  -2.3982   0.0000   0.0000   0.0000  -16.9773
  -3.900   0.0059   0.01524   0.00934  -0.0853  0.7697  0.0221  -2.2915   0.0000   0.0000   0.0000  15.0174
  -3.800   0.0168   0.01506   0.00915  -0.0853  0.7677  0.0229  -2.1925   0.0000   0.0000   0.0000   5.4053
  -3.700   0.0278   0.01483   0.00889  -0.0853  0.7655  0.0237  -2.0999   0.0000   0.0000   0.0000   3.3686
  -3.600   0.0387   0.01457   0.00860  -0.0852  0.7631  0.0243  -2.0115   0.0000   0.0000   0.0000   2.4841
  -3.500   0.0496   0.01429   0.00827  -0.0851  0.7606  0.0248  -1.9267   0.0000   0.0000   0.0000   1.9893
  -3.400   0.0606   0.01399   0.00793  -0.0850  0.7580  0.0253  -1.8681   0.0000   0.0000   0.0000   1.6731
  -3.300   0.0715   0.01368   0.00757  -0.0849  0.7552  0.0257  -1.8224   0.0000   0.0000   0.0000   1.4536
  -3.200   0.0824   0.01337   0.00721  -0.0847  0.7523  0.0260  -1.7790   0.0000   0.0000   0.0000   1.2922
  -3.100   0.0932   0.01307   0.00684  -0.0846  0.7493  0.0263  -1.7372   0.0000   0.0000   0.0000   1.1686
  -3.000   0.1041   0.01278   0.00649  -0.0844  0.7462  0.0265  -1.6967   0.0000   0.0000   0.0000   1.0710
  -2.900   0.1149   0.01259   0.00626  -0.0843  0.7430  0.0272  -1.6452   0.0000   0.0000   0.0000   0.9918
  -2.800   0.1259   0.01251   0.00614  -0.0842  0.7396  0.0283  -1.5833   0.0000   0.0000   0.0000   0.9263
  -2.700   0.1370   0.01248   0.00609  -0.0842  0.7359  0.0296  -1.5193   0.0000   0.0000   0.0000   0.8710
  -2.600   0.1482   0.01248   0.00606  -0.0842  0.7318  0.0306  -1.4569   0.0000   0.0000   0.0000   0.8236
  -2.500   0.1595   0.01242   0.00600  -0.0842  0.7296  0.0314  -1.3995   0.0000   0.0000   0.0000   0.7826
  -2.400   0.1707   0.01225   0.00580  -0.0841  0.7284  0.0317  -1.3527   0.0000   0.0000   0.0000   0.7471
  -2.300   0.1817   0.01192   0.00545  -0.0840  0.7269  0.0318  -1.3203   0.0000   0.0000   0.0000   0.7161
  -2.200   0.1926   0.01151   0.00500  -0.0838  0.7253  0.0316  -1.2984   0.0000   0.0000   0.0000   0.6887
  -2.100   0.2034   0.01115   0.00459  -0.0836  0.7233  0.0313  -1.2754   0.0000   0.0000   0.0000   0.6643
  -2.000   0.2143   0.01085   0.00425  -0.0835  0.7211  0.0312  -1.2497   0.0000   0.0000   0.0000   0.6422
  -1.900   0.2253   0.01060   0.00395  -0.0833  0.7187  0.0311  -1.2219   0.0000   0.0000   0.0000   0.6223
  -1.800   0.2364   0.01038   0.00368  -0.0832  0.7161  0.0310  -1.1926   0.0000   0.0000   0.0000   0.6041
  -1.700   0.2475   0.01019   0.00344  -0.0831  0.7134  0.0311  -1.1622   0.0000   0.0000   0.0000   0.5875
  -1.600   0.2586   0.01003   0.00323  -0.0830  0.7106  0.0312  -1.1313   0.0000   0.0000   0.0000   0.5723
  -1.400   0.2797   0.00903   0.00254  -0.0826  0.7050  0.1596  -1.2023   0.0000   0.0000   0.0000   0.5463
  -1.300   0.2898   0.00870   0.00252  -0.0826  0.7022  0.2463  -1.1610   0.0000   0.0000   0.0000   0.5357
  -1.200   0.3003   0.00850   0.00250  -0.0826  0.6994  0.3049  -1.1085   0.0000   0.0000   0.0000   0.5256
  -1.100   0.3106   0.00830   0.00250  -0.0825  0.6963  0.3686  -1.0560   0.0000   0.0000   0.0000   0.5161
  -1.000   0.3201   0.00799   0.00249  -0.0824  0.6929  0.4724  -1.0138   0.0000   0.0000   0.0000   0.5076
  -0.900   0.3291   0.00770   0.00253  -0.0821  0.6889  0.5800  -0.9623   0.0000   0.0000   0.0000   0.4994
  -0.800   0.3370   0.00742   0.00261  -0.0814  0.6844  0.6951  -0.9138   0.0000   0.0000   0.0000   0.4913
  -0.700   0.3447   0.00717   0.00264  -0.0804  0.6833  0.7769  -0.8659   0.0000   0.0000   0.0000   0.4830
  -0.600   0.3527   0.00703   0.00266  -0.0794  0.6819  0.8355  -0.8177   0.0000   0.0000   0.0000   0.4749
  -0.500   0.3612   0.00694   0.00266  -0.0786  0.6802  0.8815  -0.7686   0.0000   0.0000   0.0000   0.4670
  -0.400   0.3715   0.00689   0.00265  -0.0781  0.6782  0.9168  -0.7157   0.0000   0.0000   0.0000   0.4595
  -0.300   0.3852   0.00686   0.00262  -0.0784  0.6759  0.9437  -0.6868   0.0000   0.0000   0.0000   0.4527
  -0.200   0.4031   0.00683   0.00258  -0.0797  0.6734  0.9669  -0.7002   0.0000   0.0000   0.0000   0.4467
  -0.100   0.4248   0.00680   0.00252  -0.0818  0.6707  0.9855  -0.7159   0.0000   0.0000   0.0000   0.4415
   0.000   0.4473   0.00677   0.00245  -0.0842  0.6676  0.9973  -0.7337   0.0000   0.0000   0.0000   0.4370
   0.100   0.4605   0.00678   0.00242  -0.0847  0.6644  1.0000  -0.7459   0.0000   0.0000   0.0000   0.4325
   0.200   0.4707   0.00679   0.00239  -0.0844  0.6611  1.0000  -0.7563   0.0000   0.0000   0.0000   0.4279
   0.300   0.4810   0.00682   0.00237  -0.0842  0.6578  1.0000  -0.7667   0.0000   0.0000   0.0000   0.4235
   0.400   0.4912   0.00685   0.00236  -0.0840  0.6546  1.0000  -0.7772   0.0000   0.0000   0.0000   0.4193
   0.500   0.5015   0.00688   0.00235  -0.0838  0.6512  1.0000  -0.7877   0.0000   0.0000   0.0000   0.4153
   0.600   0.5117   0.00693   0.00234  -0.0836  0.6473  1.0000  -0.7982   0.0000   0.0000   0.0000   0.4115
   0.700   0.5221   0.00700   0.00236  -0.0835  0.6427  1.0000  -0.8088   0.0000   0.0000   0.0000   0.4078
   0.800   0.5327   0.00708   0.00240  -0.0834  0.6374  1.0000  -0.8194   0.0000   0.0000   0.0000   0.4044
   0.900   0.5434   0.00708   0.00239  -0.0832  0.6360  1.0000  -0.8303   0.0000   0.0000   0.0000   0.4010
   1.000   0.5540   0.00709   0.00239  -0.0831  0.6343  1.0000  -0.8411   0.0000   0.0000   0.0000   0.3977
   1.100   0.5647   0.00709   0.00238  -0.0830  0.6323  1.0000  -0.8533   0.0000   0.0000   0.0000   0.3946
   1.200   0.5754   0.00710   0.00236  -0.0829  0.6300  1.0000  -0.8658   0.0000   0.0000   0.0000   0.3916
   1.300   0.5862   0.00712   0.00236  -0.0828  0.6276  1.0000  -0.8784   0.0000   0.0000   0.0000   0.3887
   1.400   0.5970   0.00714   0.00237  -0.0827  0.6251  1.0000  -0.8910   0.0000   0.0000   0.0000   0.3859
   1.500   0.6078   0.00716   0.00237  -0.0827  0.6224  1.0000  -0.9036   0.0000   0.0000   0.0000   0.3832
   1.600   0.6186   0.00719   0.00238  -0.0826  0.6194  1.0000  -0.9163   0.0000   0.0000   0.0000   0.3806
   1.700   0.6294   0.00722   0.00238  -0.0825  0.6163  1.0000  -0.9290   0.0000   0.0000   0.0000   0.3780
   1.800   0.6401   0.00725   0.00238  -0.0824  0.6130  1.0000  -0.9422   0.0000   0.0000   0.0000   0.3756
   1.900   0.6508   0.00728   0.00239  -0.0823  0.6093  1.0000  -0.9569   0.0000   0.0000   0.0000   0.3732
   2.000   0.6614   0.00732   0.00239  -0.0822  0.6052  1.0000  -0.9715   0.0000   0.0000   0.0000   0.3709
   2.100   0.6719   0.00738   0.00240  -0.0820  0.6005  1.0000  -0.9861   0.0000   0.0000   0.0000   0.3686
   2.200   0.6825   0.00745   0.00242  -0.0819  0.5950  1.0000  -1.0007   0.0000   0.0000   0.0000   0.3665
   2.300   0.6932   0.00754   0.00247  -0.0819  0.5892  1.0000  -1.0154   0.0000   0.0000   0.0000   0.3644
   2.400   0.7042   0.00755   0.00248  -0.0818  0.5877  1.0000  -1.0305   0.0000   0.0000   0.0000   0.3624
   2.500   0.7151   0.00756   0.00250  -0.0818  0.5859  1.0000  -1.0456   0.0000   0.0000   0.0000   0.3605
   2.600   0.7261   0.00758   0.00256  -0.0817  0.5837  1.0000  -1.0607   0.0000   0.0000   0.0000   0.3586
   2.700   0.7370   0.00760   0.00257  -0.0817  0.5809  1.0000  -1.0759   0.0000   0.0000   0.0000   0.3568
   2.800   0.7479   0.00762   0.00259  -0.0817  0.5776  1.0000  -1.0917   0.0000   0.0000   0.0000   0.3550
   2.900   0.7588   0.00765   0.00260  -0.0816  0.5737  1.0000  -1.1093   0.0000   0.0000   0.0000   0.3533
   3.000   0.7695   0.00768   0.00262  -0.0815  0.5693  1.0000  -1.1269   0.0000   0.0000   0.0000   0.3516
   3.100   0.7802   0.00772   0.00263  -0.0814  0.5647  1.0000  -1.1445   0.0000   0.0000   0.0000   0.3499
   3.200   0.7908   0.00777   0.00264  -0.0813  0.5600  1.0000  -1.1621   0.0000   0.0000   0.0000   0.3483
   3.300   0.8013   0.00783   0.00266  -0.0812  0.5550  1.0000  -1.1796   0.0000   0.0000   0.0000   0.3467
   3.400   0.8117   0.00791   0.00270  -0.0811  0.5497  1.0000  -1.1971   0.0000   0.0000   0.0000   0.3451
   3.500   0.8222   0.00800   0.00274  -0.0810  0.5437  1.0000  -1.2147   0.0000   0.0000   0.0000   0.3436
   3.600   0.8331   0.00805   0.00279  -0.0810  0.5400  1.0000  -1.2326   0.0000   0.0000   0.0000   0.3422
   3.700   0.8440   0.00807   0.00283  -0.0810  0.5379  1.0000  -1.2508   0.0000   0.0000   0.0000   0.3408
   3.800   0.8550   0.00810   0.00286  -0.0809  0.5350  1.0000  -1.2691   0.0000   0.0000   0.0000   0.3395
   3.900   0.8658   0.00813   0.00289  -0.0809  0.5311  1.0000  -1.2873   0.0000   0.0000   0.0000   0.3381
   4.000   0.8766   0.00817   0.00293  -0.0808  0.5264  1.0000  -1.3081   0.0000   0.0000   0.0000   0.3368
   4.100   0.8872   0.00822   0.00295  -0.0808  0.5210  1.0000  -1.3294   0.0000   0.0000   0.0000   0.3355
   4.200   0.8976   0.00828   0.00298  -0.0806  0.5152  1.0000  -1.3507   0.0000   0.0000   0.0000   0.3342
   4.300   0.9079   0.00836   0.00302  -0.0805  0.5091  1.0000  -1.3718   0.0000   0.0000   0.0000   0.3329
   4.400   0.9180   0.00845   0.00307  -0.0804  0.5027  1.0000  -1.3928   0.0000   0.0000   0.0000   0.3317
   4.500   0.9281   0.00856   0.00313  -0.0802  0.4955  1.0000  -1.4138   0.0000   0.0000   0.0000   0.3305
   4.600   0.9388   0.00862   0.00319  -0.0802  0.4913  1.0000  -1.4356   0.0000   0.0000   0.0000   0.3293
   4.700   0.9497   0.00865   0.00324  -0.0802  0.4885  1.0000  -1.4577   0.0000   0.0000   0.0000   0.3282
   4.800   0.9605   0.00870   0.00330  -0.0801  0.4846  1.0000  -1.4810   0.0000   0.0000   0.0000   0.3271
   4.900   0.9711   0.00875   0.00335  -0.0801  0.4796  1.0000  -1.5070   0.0000   0.0000   0.0000   0.3260
   5.000   0.9815   0.00882   0.00340  -0.0800  0.4734  1.0000  -1.5328   0.0000   0.0000   0.0000   0.3249
   5.100   0.9916   0.00892   0.00345  -0.0798  0.4662  1.0000  -1.5584   0.0000   0.0000   0.0000   0.3238
   5.200   1.0012   0.00903   0.00352  -0.0796  0.4579  1.0000  -1.5835   0.0000   0.0000   0.0000   0.3227
   5.300   1.0107   0.00918   0.00360  -0.0794  0.4482  1.0000  -1.6084   0.0000   0.0000   0.0000   0.3216
   5.400   1.0211   0.00925   0.00367  -0.0793  0.4426  1.0000  -1.6346   0.0000   0.0000   0.0000   0.3206
   5.500   1.0317   0.00931   0.00374  -0.0792  0.4383  1.0000  -1.6613   0.0000   0.0000   0.0000   0.3197
   5.600   1.0421   0.00938   0.00381  -0.0792  0.4328  1.0000  -1.6878   0.0000   0.0000   0.0000   0.3187
   5.700   1.0523   0.00947   0.00389  -0.0791  0.4263  1.0000  -1.7142   0.0000   0.0000   0.0000   0.3177
   5.800   1.0621   0.00959   0.00396  -0.0789  0.4189  1.0000  -1.7402   0.0000   0.0000   0.0000   0.3168
   5.900   1.0713   0.00975   0.00423  -0.0786  0.4097  1.0000  -1.7648   0.0000   0.0000   0.0000   0.3157
   6.000   1.0804   0.00992   0.00435  -0.0783  0.3989  1.0000  -1.7896   0.0000   0.0000   0.0000   0.3147
   6.100   1.0907   0.01000   0.00444  -0.0782  0.3938  1.0000  -1.8190   0.0000   0.0000   0.0000   0.3139
   6.200   1.1009   0.01009   0.00453  -0.0781  0.3872  1.0000  -1.8517   0.0000   0.0000   0.0000   0.3130
   6.300   1.1105   0.01022   0.00463  -0.0780  0.3790  1.0000  -1.8838   0.0000   0.0000   0.0000   0.3121
   6.400   1.1197   0.01038   0.00473  -0.0777  0.3699  1.0000  -1.9150   0.0000   0.0000   0.0000   0.3111
   6.500   1.1284   0.01057   0.00487  -0.0774  0.3601  1.0000  -1.9456   0.0000   0.0000   0.0000   0.3102
   6.600   1.1375   0.01074   0.00500  -0.0771  0.3510  1.0000  -1.9769   0.0000   0.0000   0.0000   0.3093
   6.700   1.1477   0.01082   0.00510  -0.0771  0.3468  1.0000  -2.0103   0.0000   0.0000   0.0000   0.3085
   6.800   1.1576   0.01093   0.00521  -0.0769  0.3410  1.0000  -2.0432   0.0000   0.0000   0.0000   0.3077
   6.900   1.1670   0.01107   0.00532  -0.0767  0.3341  1.0000  -2.0756   0.0000   0.0000   0.0000   0.3068
   7.000   1.1759   0.01125   0.00545  -0.0765  0.3260  1.0000  -2.1072   0.0000   0.0000   0.0000   0.3060
   7.100   1.1842   0.01147   0.00561  -0.0761  0.3163  1.0000  -2.1378   0.0000   0.0000   0.0000   0.3051
   7.200   1.1927   0.01167   0.00578  -0.0758  0.3064  1.0000  -2.1690   0.0000   0.0000   0.0000   0.3042
   7.300   1.2026   0.01177   0.00589  -0.0757  0.3019  1.0000  -2.2028   0.0000   0.0000   0.0000   0.3035
   7.400   1.2120   0.01191   0.00602  -0.0755  0.2955  1.0000  -2.2434   0.0000   0.0000   0.0000   0.3027
   7.500   1.2208   0.01209   0.00616  -0.0752  0.2881  1.0000  -2.2835   0.0000   0.0000   0.0000   0.3019
   7.600   1.2290   0.01230   0.00632  -0.0748  0.2803  1.0000  -2.3227   0.0000   0.0000   0.0000   0.3010
   7.700   1.2370   0.01253   0.00650  -0.0745  0.2717  1.0000  -2.3613   0.0000   0.0000   0.0000   0.3002
   7.800   1.2454   0.01273   0.00669  -0.0741  0.2638  1.0000  -2.4008   0.0000   0.0000   0.0000   0.2994
   7.900   1.2551   0.01283   0.00681  -0.0740  0.2607  1.0000  -2.4438   0.0000   0.0000   0.0000   0.2986
   8.000   1.2644   0.01296   0.00695  -0.0738  0.2563  1.0000  -2.4977   0.0000   0.0000   0.0000   0.2979
   8.100   1.2732   0.01313   0.00710  -0.0735  0.2510  1.0000  -2.5933   0.0000   0.0000   0.0000   0.2971
   8.200   1.2815   0.01333   0.00727  -0.0732  0.2449  1.0000  -2.6874   0.0000   0.0000   0.0000   0.2964
   8.300   1.2892   0.01356   0.00745  -0.0728  0.2382  1.0000  -2.7799   0.0000   0.0000   0.0000   0.2956
   8.400   1.2965   0.01381   0.00767  -0.0723  0.2302  1.0000  -2.8711   0.0000   0.0000   0.0000   0.2947
   8.500   1.3044   0.01403   0.00788  -0.0719  0.2232  1.0000  -2.9656   0.0000   0.0000   0.0000   0.2939
   8.600   1.3137   0.01414   0.00802  -0.0717  0.2207  1.0000  -3.0699   0.0000   0.0000   0.0000   0.2932
   8.700   1.3225   0.01429   0.00818  -0.0714  0.2169  1.0000  -3.1726   0.0000   0.0000   0.0000   0.2925
   8.800   1.3307   0.01447   0.00835  -0.0711  0.2118  1.0000  -3.2730   0.0000   0.0000   0.0000   0.2918
   8.900   1.3381   0.01470   0.00855  -0.0706  0.2057  1.0000  -3.3702   0.0000   0.0000   0.0000   0.2910
   9.000   1.3446   0.01498   0.00877  -0.0701  0.1987  1.0000  -3.4640   0.0000   0.0000   0.0000   0.2902
   9.100   1.3506   0.01529   0.00903  -0.0694  0.1901  1.0000  -3.5554   0.0000   0.0000   0.0000   0.2893
   9.200   1.3581   0.01549   0.00924  -0.0690  0.1845  1.0000  -3.6559   0.0000   0.0000   0.0000   0.2886
   9.300   1.3664   0.01564   0.00940  -0.0687  0.1803  1.0000  -3.7629   0.0000   0.0000   0.0000   0.2879
   9.400   1.3732   0.01588   0.00960  -0.0682  0.1736  1.0000  -3.8624   0.0000   0.0000   0.0000   0.2871
   9.500   1.3731   0.01652   0.01010  -0.0668  0.1479  1.0000  -3.9120   0.0000   0.0000   0.0000   0.2860
   9.600   1.3791   0.01674   0.01031  -0.0662  0.1421  1.0000  -4.0015   0.0000   0.0000   0.0000   0.2852
   9.700   1.3840   0.01702   0.01055  -0.0654  0.1361  1.0000  -4.0883   0.0000   0.0000   0.0000   0.2842
   9.800   1.3877   0.01736   0.01083  -0.0644  0.1299  1.0000  -4.1700   0.0000   0.0000   0.0000   0.2833
   9.900   1.3915   0.01770   0.01112  -0.0635  0.1230  1.0000  -4.2526   0.0000   0.0000   0.0000   0.2823
  10.000   1.3970   0.01796   0.01137  -0.0628  0.1181  1.0000  -4.3454   0.0000   0.0000   0.0000   0.2815
  10.100   1.4030   0.01818   0.01161  -0.0622  0.1149  1.0000  -4.4426   0.0000   0.0000   0.0000   0.2807
  10.200   1.4081   0.01846   0.01188  -0.0615  0.1109  1.0000  -4.5349   0.0000   0.0000   0.0000   0.2799
  10.300   1.4124   0.01879   0.01219  -0.0607  0.1062  1.0000  -4.6226   0.0000   0.0000   0.0000   0.2790
  10.400   1.4157   0.01918   0.01254  -0.0598  0.1011  1.0000  -4.7053   0.0000   0.0000   0.0000   0.2781
  10.500   1.4187   0.01960   0.01291  -0.0589  0.0957  1.0000  -4.7854   0.0000   0.0000   0.0000   0.2772
  10.600   1.4230   0.01995   0.01325  -0.0582  0.0905  1.0000  -4.8731   0.0000   0.0000   0.0000   0.2764
  10.700   1.4285   0.02023   0.01354  -0.0576  0.0881  1.0000  -4.9682   0.0000   0.0000   0.0000   0.2757
  10.800   1.4335   0.02055   0.01386  -0.0570  0.0848  1.0000  -5.0593   0.0000   0.0000   0.0000   0.2750
  10.900   1.4375   0.02093   0.01423  -0.0563  0.0809  1.0000  -5.1444   0.0000   0.0000   0.0000   0.2742
  11.000   1.4405   0.02138   0.01466  -0.0555  0.0767  1.0000  -5.2220   0.0000   0.0000   0.0000   0.2734
  11.100   1.4430   0.02189   0.01512  -0.0547  0.0722  1.0000  -5.2941   0.0000   0.0000   0.0000   0.2726
  11.200   1.4460   0.02237   0.01558  -0.0540  0.0670  1.0000  -5.3662   0.0000   0.0000   0.0000   0.2719
  11.300   1.4489   0.02285   0.01605  -0.0533  0.0622  1.0000  -5.4344   0.0000   0.0000   0.0000   0.2711
  11.400   1.4471   0.02365   0.01676  -0.0522  0.0533  1.0000  -5.4768   0.0000   0.0000   0.0000   0.2703
  11.500   1.4458   0.02448   0.01749  -0.0512  0.0445  1.0000  -5.5187   0.0000   0.0000   0.0000   0.2694
  11.600   1.4462   0.02519   0.01818  -0.0504  0.0383  1.0000  -5.5679   0.0000   0.0000   0.0000   0.2687
  11.700   1.4430   0.02619   0.01911  -0.0493  0.0313  1.0000  -5.5986   0.0000   0.0000   0.0000   0.2678
  11.800   1.4420   0.02705   0.01992  -0.0485  0.0245  1.0000  -5.6394   0.0000   0.0000   0.0000   0.2671
  12.000   1.4364   0.02912   0.02192  -0.0467  0.0129  1.0000  -5.7021   0.0000   0.0000   0.0000   0.2656
  12.100   1.4361   0.02998   0.02280  -0.0461  0.0110  1.0000  -5.7458   0.0000   0.0000   0.0000   0.2650
  12.200   1.4363   0.03081   0.02363  -0.0454  0.0094  1.0000  -5.7912   0.0000   0.0000   0.0000   0.2644
  12.300   1.4379   0.03152   0.02437  -0.0449  0.0081  1.0000  -5.8403   0.0000   0.0000   0.0000   0.2638
  12.400   1.4404   0.03217   0.02507  -0.0444  0.0070  1.0000  -5.8872   0.0000   0.0000   0.0000   0.2632
  12.500   1.4422   0.03290   0.02586  -0.0439  0.0064  1.0000  -5.9220   0.0000   0.0000   0.0000   0.2626
  12.600   1.4437   0.03366   0.02666  -0.0435  0.0063  1.0000  -5.9759   0.0000   0.0000   0.0000   0.2621
  12.700   1.4455   0.03442   0.02747  -0.0431  0.0062  1.0000  -6.0319   0.0000   0.0000   0.0000   0.2615
  12.800   1.4474   0.03518   0.02829  -0.0427  0.0061  1.0000  -6.0894   0.0000   0.0000   0.0000   0.2610
  12.900   1.4492   0.03596   0.02912  -0.0423  0.0061  1.0000  -6.1473   0.0000   0.0000   0.0000   0.2605
  13.000   1.4510   0.03675   0.02997  -0.0419  0.0060  1.0000  -6.2046   0.0000   0.0000   0.0000   0.2601
  13.100   1.4524   0.03760   0.03088  -0.0416  0.0059  1.0000  -6.2601   0.0000   0.0000   0.0000   0.2596
  13.200   1.4526   0.03857   0.03191  -0.0413  0.0059  1.0000  -6.3087   0.0000   0.0000   0.0000   0.2592
  13.300   1.4528   0.03957   0.03297  -0.0410  0.0059  1.0000  -6.3571   0.0000   0.0000   0.0000   0.2588
  13.400   1.4531   0.04054   0.03401  -0.0407  0.0058  1.0000  -6.4068   0.0000   0.0000   0.0000   0.2583
  13.500   1.4535   0.04153   0.03506  -0.0404  0.0058  1.0000  -6.4563   0.0000   0.0000   0.0000   0.2579
  13.600   1.4537   0.04255   0.03614  -0.0402  0.0058  1.0000  -6.5047   0.0000   0.0000   0.0000   0.2576
  13.700   1.4535   0.04362   0.03727  -0.0399  0.0057  1.0000  -6.5505   0.0000   0.0000   0.0000   0.2572
  13.800   1.4520   0.04485   0.03856  -0.0398  0.0057  1.0000  -6.5882   0.0000   0.0000   0.0000   0.2569
  13.900   1.4506   0.04608   0.03985  -0.0397  0.0057  1.0000  -6.6266   0.0000   0.0000   0.0000   0.2566
  14.000   1.4497   0.04727   0.04111  -0.0395  0.0057  1.0000  -6.6671   0.0000   0.0000   0.0000   0.2563
  14.100   1.4488   0.04847   0.04237  -0.0394  0.0057  1.0000  -6.7076   0.0000   0.0000   0.0000   0.2561
  14.200   1.4477   0.04970   0.04366  -0.0393  0.0057  1.0000  -6.7468   0.0000   0.0000   0.0000   0.2558
  14.300   1.4461   0.05100   0.04503  -0.0393  0.0056  1.0000  -6.7825   0.0000   0.0000   0.0000   0.2556
  14.400   1.4431   0.05253   0.04663  -0.0393  0.0056  1.0000  -6.8084   0.0000   0.0000   0.0000   0.2555
  14.500   1.4404   0.05399   0.04814  -0.0394  0.0056  1.0000  -6.8363   0.0000   0.0000   0.0000   0.2553
  14.600   1.4380   0.05538   0.04960  -0.0394  0.0056  1.0000  -6.8660   0.0000   0.0000   0.0000   0.2552
  14.700   1.4356   0.05681   0.05109  -0.0395  0.0056  1.0000  -6.8955   0.0000   0.0000   0.0000   0.2551
  14.800   1.4332   0.05828   0.05263  -0.0396  0.0056  1.0000  -6.9238   0.0000   0.0000   0.0000   0.2550
  14.900   1.4298   0.05995   0.05437  -0.0398  0.0056  1.0000  -6.9452   0.0000   0.0000   0.0000   0.2550
  15.000   1.4258   0.06179   0.05627  -0.0402  0.0056  1.0000  -6.9615   0.0000   0.0000   0.0000   0.2551
  15.100   1.4227   0.06351   0.05805  -0.0404  0.0056  1.0000  -6.9833   0.0000   0.0000   0.0000   0.2551
  15.200   1.4198   0.06520   0.05980  -0.0407  0.0056  1.0000  -7.0065   0.0000   0.0000   0.0000   0.2552
  15.300   1.4181   0.06676   0.06150  -0.0410  0.0056  1.0000  -7.0486   0.0000   0.0000   0.0000   0.2552
  15.400   1.4151   0.06853   0.06334  -0.0414  0.0056  1.0000  -7.0709   0.0000   0.0000   0.0000   0.2553
  15.500   1.4105   0.07063   0.06550  -0.0420  0.0056  1.0000  -7.0800   0.0000   0.0000   0.0000   0.2556
  15.600   1.4062   0.07268   0.06761  -0.0425  0.0056  1.0000  -7.0912   0.0000   0.0000   0.0000   0.2558
  15.700   1.4029   0.07460   0.06960  -0.0431  0.0056  1.0000  -7.1079   0.0000   0.0000   0.0000   0.2561
  15.800   1.3997   0.07650   0.07156  -0.0436  0.0056  1.0000  -7.1250   0.0000   0.0000   0.0000   0.2563
  15.900   1.3964   0.07842   0.07355  -0.0441  0.0056  1.0000  -7.1465   0.0000   0.0000   0.0000   0.2565
  16.000   1.3924   0.08047   0.07566  -0.0447  0.0056  1.0000  -7.1670   0.0000   0.0000   0.0000   0.2568
  16.100   1.3872   0.08282   0.07807  -0.0456  0.0056  1.0000  -7.1746   0.0000   0.0000   0.0000   0.2573
  16.200   1.3833   0.08494   0.08025  -0.0463  0.0056  1.0000  -7.1924   0.0000   0.0000   0.0000   0.2577
  16.300   1.3797   0.08695   0.08232  -0.0470  0.0056  1.0000  -7.2140   0.0000   0.0000   0.0000   0.2581
  16.400   1.3763   0.08893   0.08437  -0.0476  0.0056  1.0000  -7.2359   0.0000   0.0000   0.0000   0.2584
  16.500   1.3728   0.09094   0.08643  -0.0483  0.0056  1.0000  -7.2561   0.0000   0.0000   0.0000   0.2588
  16.600   1.3687   0.09310   0.08866  -0.0492  0.0056  1.0000  -7.2696   0.0000   0.0000   0.0000   0.2593
  16.700   1.3635   0.09552   0.09114  -0.0502  0.0056  1.0000  -7.2712   0.0000   0.0000   0.0000   0.2600
  16.800   1.3595   0.09766   0.09335  -0.0511  0.0056  1.0000  -7.2834   0.0000   0.0000   0.0000   0.2605
  16.900   1.3559   0.09970   0.09544  -0.0519  0.0056  1.0000  -7.2994   0.0000   0.0000   0.0000   0.2610
  17.000   1.3525   0.10170   0.09750  -0.0527  0.0056  1.0000  -7.3158   0.0000   0.0000   0.0000   0.2615
  17.100   1.3491   0.10370   0.09957  -0.0535  0.0056  1.0000  -7.3320   0.0000   0.0000   0.0000   0.2620
  17.200   1.3456   0.10577   0.10169  -0.0544  0.0056  1.0000  -7.3447   0.0000   0.0000   0.0000   0.2626
  17.300   1.3403   0.10821   0.10420  -0.0556  0.0057  1.0000  -7.3389   0.0000   0.0000   0.0000   0.2634
  17.400   1.3360   0.11044   0.10648  -0.0567  0.0057  1.0000  -7.3418   0.0000   0.0000   0.0000   0.2641
  17.500   1.3324   0.11250   0.10860  -0.0577  0.0057  1.0000  -7.3508   0.0000   0.0000   0.0000   0.2648
  17.600   1.3291   0.11450   0.11066  -0.0586  0.0057  1.0000  -7.3616   0.0000   0.0000   0.0000   0.2654
  17.700   1.3258   0.11645   0.11266  -0.0596  0.0057  1.0000  -7.3724   0.0000   0.0000   0.0000   0.2660
  17.800   1.3225   0.11831   0.11459  -0.0606  0.0057  1.0000  -7.3805   0.0000   0.0000   0.0000   0.2667
  17.900   1.3186   0.12027   0.11661  -0.0617  0.0057  1.0000  -7.3819   0.0000   0.0000   0.0000   0.2674
  18.000   1.3133   0.12260   0.11900  -0.0631  0.0057  1.0000  -7.3659   0.0000   0.0000   0.0000   0.2685
  18.100   1.3092   0.12472   0.12117  -0.0643  0.0057  1.0000  -7.3614   0.0000   0.0000   0.0000   0.2694
  18.200   1.3056   0.12674   0.12326  -0.0655  0.0057  1.0000  -7.3626   0.0000   0.0000   0.0000   0.2702
  18.300   1.3024   0.12878   0.12536  -0.0666  0.0057  1.0000  -7.3653   0.0000   0.0000   0.0000   0.2710
  18.400   1.2990   0.13088   0.12751  -0.0678  0.0057  1.0000  -7.3662   0.0000   0.0000   0.0000   0.2718
  18.500   1.2955   0.13306   0.12975  -0.0691  0.0057  1.0000  -7.3637   0.0000   0.0000   0.0000   0.2727
  18.600   1.2912   0.13549   0.13224  -0.0705  0.0058  1.0000  -7.3503   0.0000   0.0000   0.0000   0.2738
  18.700   1.2856   0.13829   0.13509  -0.0722  0.0058  1.0000  -7.3196   0.0000   0.0000   0.0000   0.2751
  18.800   1.2814   0.14080   0.13767  -0.0736  0.0058  1.0000  -7.3039   0.0000   0.0000   0.0000   0.2763
  18.900   1.2777   0.14325   0.14018  -0.0750  0.0058  1.0000  -7.2925   0.0000   0.0000   0.0000   0.2773
  19.000   1.2739   0.14574   0.14272  -0.0764  0.0058  1.0000  -7.2799   0.0000   0.0000   0.0000   0.2784
  19.100   1.2700   0.14832   0.14536  -0.0779  0.0058  1.0000  -7.2630   0.0000   0.0000   0.0000   0.2796
  19.200   1.2656   0.15105   0.14814  -0.0794  0.0058  1.0000  -7.2394   0.0000   0.0000   0.0000   0.2808
  19.300   1.2592   0.15443   0.15159  -0.0814  0.0058  1.0000  -7.1842   0.0000   0.0000   0.0000   0.2826
  19.400   1.2540   0.15755   0.15476  -0.0832  0.0058  1.0000  -7.1446   0.0000   0.0000   0.0000   0.2841
  19.500   1.2495   0.16052   0.15779  -0.0848  0.0058  1.0000  -7.1116   0.0000   0.0000   0.0000   0.2855
  19.600   1.2450   0.16355   0.16087  -0.0865  0.0058  1.0000  -7.0764   0.0000   0.0000   0.0000   0.2869
  19.700   1.2400   0.16672   0.16410  -0.0882  0.0058  1.0000  -7.0341   0.0000   0.0000   0.0000   0.2884
  19.800   1.2341   0.17027   0.16771  -0.0902  0.0059  1.0000  -6.9734   0.0000   0.0000   0.0000   0.2902
  19.900   1.2265   0.17446   0.17196  -0.0925  0.0059  1.0000  -6.8840   0.0000   0.0000   0.0000   0.2925
  20.000   1.2207   0.17817   0.17572  -0.0944  0.0059  1.0000  -6.8178   0.0000   0.0000   0.0000   0.2943
  20.100   1.2149   0.18190   0.17951  -0.0964  0.0059  1.0000  -6.7503   0.0000   0.0000   0.0000   0.2961
  20.200   1.2086   0.18588   0.18354  -0.0984  0.0059  1.0000  -6.6707   0.0000   0.0000   0.0000   0.2981
  20.300   1.1998   0.19082   0.18854  -0.1009  0.0059  1.0000  -6.5452   0.0000   0.0000   0.0000   0.3008
  20.400   1.1913   0.19579   0.19357  -0.1033  0.0060  1.0000  -6.4191   0.0000   0.0000   0.0000   0.3034
  20.500   1.1837   0.20053   0.19836  -0.1056  0.0060  1.0000  -6.3035   0.0000   0.0000   0.0000   0.3058
  20.600   1.1752   0.20571   0.20359  -0.1079  0.0060  1.0000  -6.1659   0.0000   0.0000   0.0000   0.3085
  20.700   1.1625   0.21268   0.21062  -0.1110  0.0061  1.0000  -5.9427   0.0000   0.0000   0.0000   0.3123
  20.800   1.1518   0.21906   0.21705  -0.1137  0.0061  1.0000  -5.7463   0.0000   0.0000   0.0000   0.3156
  20.900   1.1393   0.22634   0.22438  -0.1166  0.0062  1.0000  -5.5042   0.0000   0.0000   0.0000   0.3194
  21.000   1.1171   0.23812   0.23614  -0.1208  0.0063  1.0000  -5.0370   0.0000   0.0000   0.0000   0.3257
  21.100   1.0830   0.25601   0.25408  -0.1260  0.0065  1.0000  -4.2153   0.0000   0.0000   0.0000   0.3350
  21.200   1.0818   0.25917   0.25724  -0.1270  0.0065  1.0000  -4.1897   0.0000   0.0000   0.0000   0.3359
  21.300   1.0807   0.26226   0.26034  -0.1280  0.0066  1.0000  -4.1667   0.0000   0.0000   0.0000   0.3368
  21.400   1.0795   0.26539   0.26348  -0.1289  0.0067  1.0000  -4.1409   0.0000   0.0000   0.0000   0.3377
  21.500   1.0782   0.26853   0.26662  -0.1298  0.0067  1.0000  -4.1135   0.0000   0.0000   0.0000   0.3386
  21.600   1.0770   0.27159   0.26969  -0.1307  0.0068  1.0000  -4.0889   0.0000   0.0000   0.0000   0.3394
  21.700   1.0758   0.27461   0.27271  -0.1316  0.0069  1.0000  -4.0654   0.0000   0.0000   0.0000   0.3402
  21.800   1.0745   0.27765   0.27576  -0.1324  0.0070  1.0000  -4.0386   0.0000   0.0000   0.0000   0.3410
  21.900   1.0728   0.28084   0.27896  -0.1332  0.0071  1.0000  -4.0004   0.0000   0.0000   0.0000   0.3419
  22.000   1.0702   0.28446   0.28258  -0.1341  0.0073  1.0000  -3.9333   0.0000   0.0000   0.0000   0.3429
  22.200   0.9757   0.30376   0.30190  -0.1325  0.0121  1.0000  -2.3820   0.0000   0.0000   0.0000   0.3562
  22.300   0.9579   0.30241   0.30058  -0.1314  0.0127  1.0000  -2.2863   0.0000   0.0000   0.0000   0.3578
  22.400   0.9470   0.30219   0.30038  -0.1310  0.0133  1.0000  -2.2226   0.0000   0.0000   0.0000   0.3590
  22.500   0.9198   0.30133   0.29954  -0.1290  0.0154  1.0000  -2.0025   0.0000   0.0000   0.0000   0.3615
  22.600   0.9154   0.30186   0.30009  -0.1292  0.0153  1.0000  -1.9781   0.0000   0.0000   0.0000   0.3622
  22.700   0.9115   0.30244   0.30068  -0.1293  0.0153  1.0000  -1.9560   0.0000   0.0000   0.0000   0.3630
  22.800   0.9080   0.30306   0.30130  -0.1296  0.0153  1.0000  -1.9356   0.0000   0.0000   0.0000   0.3637
  22.900   0.9048   0.30370   0.30195  -0.1298  0.0153  1.0000  -1.9166   0.0000   0.0000   0.0000   0.3644
  23.000   0.9019   0.30435   0.30262  -0.1301  0.0153  1.0000  -1.8982   0.0000   0.0000   0.0000   0.3651
  23.100   0.8991   0.30503   0.30330  -0.1303  0.0152  1.0000  -1.8792   0.0000   0.0000   0.0000   0.3658
  23.200   0.8963   0.30571   0.30399  -0.1306  0.0152  1.0000  -1.8586   0.0000   0.0000   0.0000   0.3664
  23.300   0.8936   0.30641   0.30469  -0.1308  0.0152  1.0000  -1.8379   0.0000   0.0000   0.0000   0.3671
  23.400   0.8912   0.30712   0.30542  -0.1311  0.0152  1.0000  -1.8172   0.0000   0.0000   0.0000   0.3677
  23.500   0.8889   0.30785   0.30615  -0.1314  0.0152  1.0000  -1.7961   0.0000   0.0000   0.0000   0.3683
  23.600   0.8867   0.30859   0.30690  -0.1316  0.0152  1.0000  -1.7743   0.0000   0.0000   0.0000   0.3689
  23.700   0.8848   0.30935   0.30767  -0.1320  0.0151  1.0000  -1.7514   0.0000   0.0000   0.0000   0.3695
  23.800   0.8829   0.31012   0.30845  -0.1323  0.0151  1.0000  -1.7271   0.0000   0.0000   0.0000   0.3701
  23.900   0.8813   0.31091   0.30924  -0.1326  0.0150  1.0000  -1.7016   0.0000   0.0000   0.0000   0.3706
  24.000   0.8799   0.31171   0.31005  -0.1330  0.0150  1.0000  -1.6761   0.0000   0.0000   0.0000   0.3712
  24.100   0.8789   0.31254   0.31088  -0.1335  0.0148  1.0000  -1.6531   0.0000   0.0000   0.0000   0.3718
  24.200   0.8818   0.31463   0.31297  -0.1350  0.0121  1.0000  -1.6292   0.0000   0.0000   0.0000   0.3730
  24.300   0.8807   0.31542   0.31377  -0.1355  0.0111  1.0000  -1.6179   0.0000   0.0000   0.0000   0.3735
  24.400   0.8796   0.31609   0.31444  -0.1358  0.0104  1.0000  -1.6139   0.0000   0.0000   0.0000   0.3740
  24.500   0.8788   0.31669   0.31505  -0.1362  0.0099  1.0000  -1.6143   0.0000   0.0000   0.0000   0.3744
  24.600   0.8780   0.31726   0.31563  -0.1365  0.0094  1.0000  -1.6179   0.0000   0.0000   0.0000   0.3747
  24.700   0.8773   0.31780   0.31618  -0.1368  0.0091  1.0000  -1.6238   0.0000   0.0000   0.0000   0.3750
  24.800   0.8767   0.31832   0.31670  -0.1372  0.0088  1.0000  -1.6320   0.0000   0.0000   0.0000   0.3753
  24.900   0.8761   0.31881   0.31720  -0.1375  0.0085  1.0000  -1.6420   0.0000   0.0000   0.0000   0.3756
  25.000   0.8756   0.31929   0.31768  -0.1378  0.0083  1.0000  -1.6536   0.0000   0.0000   0.0000   0.3759
  25.100   0.8752   0.31974   0.31815  -0.1381  0.0081  1.0000  -1.6666   0.0000   0.0000   0.0000   0.3761
  25.200   0.8748   0.32018   0.31859  -0.1384  0.0079  1.0000  -1.6809   0.0000   0.0000   0.0000   0.3763
  25.300   0.8745   0.32060   0.31902  -0.1387  0.0078  1.0000  -1.6964   0.0000   0.0000   0.0000   0.3765
  25.400   0.8741   0.32100   0.31942  -0.1390  0.0076  1.0000  -1.7130   0.0000   0.0000   0.0000   0.3766
  25.500   0.8738   0.32138   0.31981  -0.1392  0.0075  1.0000  -1.7304   0.0000   0.0000   0.0000   0.3768
  25.600   0.8736   0.32174   0.32018  -0.1395  0.0074  1.0000  -1.7483   0.0000   0.0000   0.0000   0.3769
  25.700   0.8727   0.32227   0.32071  -0.1398  0.0072  1.0000  -1.7520   0.0000   0.0000   0.0000   0.3772
  25.800   0.8717   0.32283   0.32128  -0.1401  0.0071  1.0000  -1.7500   0.0000   0.0000   0.0000   0.3775
  25.900   0.8702   0.32344   0.32190  -0.1403  0.0070  1.0000  -1.7390   0.0000   0.0000   0.0000   0.3779
  26.000   0.8672   0.32428   0.32274  -0.1405  0.0068  1.0000  -1.6908   0.0000   0.0000   0.0000   0.3786
  26.400   0.8549   0.32918   0.32763  -0.1415  0.0064  1.0000  -1.3936   0.0000   0.0000   0.0000   0.3820
  26.500   0.8542   0.33000   0.32846  -0.1418  0.0064  1.0000  -1.3780   0.0000   0.0000   0.0000   0.3824
  26.600   0.8536   0.33083   0.32928  -0.1422  0.0064  1.0000  -1.3630   0.0000   0.0000   0.0000   0.3828
  26.700   0.8530   0.33165   0.33011  -0.1426  0.0064  1.0000  -1.3484   0.0000   0.0000   0.0000   0.3832
  26.800   0.8524   0.33246   0.33097  -0.1429  0.0064  1.0000  -1.3330   0.0000   0.0000   0.0000   0.3836
  26.900   0.8518   0.33328   0.33179  -0.1433  0.0064  1.0000  -1.3192   0.0000   0.0000   0.0000   0.3840
  27.000   0.8513   0.33410   0.33261  -0.1437  0.0064  1.0000  -1.3060   0.0000   0.0000   0.0000   0.3844
  27.100   0.8508   0.33492   0.33344  -0.1440  0.0064  1.0000  -1.2931   0.0000   0.0000   0.0000   0.3847
  27.200   0.8503   0.33573   0.33426  -0.1444  0.0064  1.0000  -1.2807   0.0000   0.0000   0.0000   0.3851
  27.300   0.8498   0.33655   0.33508  -0.1448  0.0064  1.0000  -1.2687   0.0000   0.0000   0.0000   0.3854
  27.400   0.8493   0.33737   0.33590  -0.1451  0.0064  1.0000  -1.2569   0.0000   0.0000   0.0000   0.3858
  27.500   0.8489   0.33818   0.33672  -0.1455  0.0064  1.0000  -1.2454   0.0000   0.0000   0.0000   0.3862
  27.600   0.8485   0.33900   0.33754  -0.1459  0.0064  1.0000  -1.2342   0.0000   0.0000   0.0000   0.3865
  27.700   0.8480   0.33981   0.33836  -0.1463  0.0064  1.0000  -1.2233   0.0000   0.0000   0.0000   0.3869
  27.800   0.8476   0.34063   0.33918  -0.1467  0.0064  1.0000  -1.2127   0.0000   0.0000   0.0000   0.3872
  27.900   0.8473   0.34144   0.34000  -0.1470  0.0064  1.0000  -1.2024   0.0000   0.0000   0.0000   0.3876
  28.000   0.8469   0.34225   0.34082  -0.1474  0.0064  1.0000  -1.1924   0.0000   0.0000   0.0000   0.3879
  28.100   0.8465   0.34307   0.34164  -0.1478  0.0064  1.0000  -1.1826   0.0000   0.0000   0.0000   0.3883
  28.200   0.8462   0.34388   0.34245  -0.1482  0.0063  1.0000  -1.1730   0.0000   0.0000   0.0000   0.3886
  28.300   0.8458   0.34469   0.34326  -0.1486  0.0063  1.0000  -1.1636   0.0000   0.0000   0.0000   0.3889


