xflr5 v6.61

 Calculated polar for: S4310

 1 1 Reynolds number fixed          Mach number fixed         

 xtrf =   1.000 (top)        1.000 (bottom)
 Mach =   0.000     Re =     0.719 e 6     Ncrit =   9.000

  alpha     CL        CD       CDp       Cm    Top Xtr Bot Xtr   Cpmin    Chinge    XCp    
 ------- -------- --------- --------- -------- ------- ------- -------- --------- ---------
 -10.000  -0.2806   0.11108   0.10917  -0.0321  1.0000  0.0156  -1.4385   0.0000   0.0000   0.0000   0.1240
  -9.900  -0.2782   0.10973   0.10782  -0.0327  1.0000  0.0156  -1.4447   0.0000   0.0000   0.0000   0.1209
  -9.800  -0.2757   0.10837   0.10647  -0.0333  1.0000  0.0156  -1.4510   0.0000   0.0000   0.0000   0.1177
  -9.700  -0.2734   0.10701   0.10512  -0.0338  1.0000  0.0156  -1.4576   0.0000   0.0000   0.0000   0.1145
  -9.600  -0.2710   0.10566   0.10378  -0.0345  1.0000  0.0156  -1.4644   0.0000   0.0000   0.0000   0.1112
  -9.500  -0.2687   0.10430   0.10243  -0.0351  1.0000  0.0156  -1.4714   0.0000   0.0000   0.0000   0.1079
  -9.400  -0.2632   0.10259   0.10072  -0.0366  0.9854  0.0156  -1.4777   0.0000   0.0000   0.0000   0.0991
  -9.300  -0.2564   0.10074   0.09886  -0.0387  0.9780  0.0156  -1.4840   0.0000   0.0000   0.0000   0.0871
  -9.200  -0.2491   0.09883   0.09695  -0.0409  0.9721  0.0156  -1.4905   0.0000   0.0000   0.0000   0.0736
  -9.100  -0.2422   0.09699   0.09509  -0.0430  0.9657  0.0156  -1.4976   0.0000   0.0000   0.0000   0.0601
  -9.000  -0.2357   0.09518   0.09327  -0.0450  0.9587  0.0156  -1.5051   0.0000   0.0000   0.0000   0.0465
  -8.900  -0.2293   0.09340   0.09147  -0.0469  0.9514  0.0156  -1.5131   0.0000   0.0000   0.0000   0.0326
  -8.800  -0.2248   0.09181   0.08986  -0.0483  0.9430  0.0156  -1.5219   0.0000   0.0000   0.0000   0.0223
  -8.700  -0.2214   0.09033   0.08835  -0.0493  0.9337  0.0156  -1.5314   0.0000   0.0000   0.0000   0.0145
  -8.500  -0.2167   0.08757   0.08554  -0.0507  0.9171  0.0156  -1.5521   0.0000   0.0000   0.0000   0.0034
  -8.400  -0.2152   0.08625   0.08421  -0.0511  0.9096  0.0156  -1.5633   0.0000   0.0000   0.0000  -0.0005
  -8.300  -0.2138   0.08494   0.08287  -0.0516  0.9021  0.0156  -1.5751   0.0000   0.0000   0.0000  -0.0040
  -8.200  -0.2127   0.08366   0.08155  -0.0520  0.8946  0.0156  -1.5875   0.0000   0.0000   0.0000  -0.0072
  -8.100  -0.2114   0.08233   0.08021  -0.0525  0.8886  0.0156  -1.6007   0.0000   0.0000   0.0000  -0.0110
  -8.000  -0.2102   0.08098   0.07885  -0.0531  0.8837  0.0156  -1.6147   0.0000   0.0000   0.0000  -0.0150
  -7.900  -0.2091   0.07961   0.07748  -0.0537  0.8784  0.0156  -1.6295   0.0000   0.0000   0.0000  -0.0188
  -7.800  -0.2082   0.07824   0.07610  -0.0542  0.8727  0.0156  -1.6455   0.0000   0.0000   0.0000  -0.0224
  -7.700  -0.2076   0.07688   0.07471  -0.0547  0.8669  0.0156  -1.6626   0.0000   0.0000   0.0000  -0.0256
  -7.600  -0.2073   0.07552   0.07332  -0.0553  0.8606  0.0155  -1.6813   0.0000   0.0000   0.0000  -0.0283
  -7.500  -0.2070   0.07410   0.07188  -0.0559  0.8545  0.0155  -1.7020   0.0000   0.0000   0.0000  -0.0316
  -7.400  -0.2069   0.07261   0.07039  -0.0567  0.8513  0.0155  -1.7254   0.0000   0.0000   0.0000  -0.0352
  -7.300  -0.2074   0.07109   0.06888  -0.0574  0.8472  0.0154  -1.7525   0.0000   0.0000   0.0000  -0.0380
  -7.200  -0.2089   0.06955   0.06734  -0.0582  0.8425  0.0154  -1.7846   0.0000   0.0000   0.0000  -0.0395
  -7.100  -0.2112   0.06790   0.06569  -0.0593  0.8375  0.0153  -1.8266   0.0000   0.0000   0.0000  -0.0412
  -7.000  -0.2147   0.06522   0.06298  -0.0618  0.8324  0.0149  -1.9196   0.0000   0.0000   0.0000  -0.0478
  -6.900  -0.2197   0.06179   0.05952  -0.0652  0.8268  0.0143  -2.0569   0.0000   0.0000   0.0000  -0.0561
  -6.800  -0.2207   0.05888   0.05655  -0.0681  0.8209  0.0138  -2.1539   0.0000   0.0000   0.0000  -0.0680
  -6.700  -0.2198   0.05601   0.05364  -0.0710  0.8158  0.0134  -2.2426   0.0000   0.0000   0.0000  -0.0824
  -6.600  -0.2178   0.05306   0.05065  -0.0738  0.8138  0.0130  -2.3320   0.0000   0.0000   0.0000  -0.0980
  -6.500  -0.2151   0.05003   0.04758  -0.0764  0.8114  0.0126  -2.4263   0.0000   0.0000   0.0000  -0.1142
  -6.400  -0.2119   0.04689   0.04437  -0.0787  0.8087  0.0122  -2.5298   0.0000   0.0000   0.0000  -0.1306
  -6.300  -0.2084   0.04362   0.04100  -0.0807  0.8057  0.0117  -2.6468   0.0000   0.0000   0.0000  -0.1467
  -6.200  -0.2049   0.04016   0.03741  -0.0824  0.8025  0.0113  -2.7842   0.0000   0.0000   0.0000  -0.1620
  -6.100  -0.2015   0.03642   0.03350  -0.0838  0.7992  0.0108  -2.9530   0.0000   0.0000   0.0000  -0.1759
  -6.000  -0.1986   0.03224   0.02907  -0.0848  0.7960  0.0102  -3.1739   0.0000   0.0000   0.0000  -0.1873
  -5.900  -0.1965   0.02749   0.02397  -0.0853  0.7927  0.0096  -3.4721   0.0000   0.0000   0.0000  -0.1949
  -5.800  -0.1937   0.02301   0.01903  -0.0852  0.7894  0.0090  -3.7842   0.0000   0.0000   0.0000  -0.2012
  -5.700  -0.1881   0.01996   0.01559  -0.0848  0.7858  0.0086  -3.9749   0.0000   0.0000   0.0000  -0.2128
  -5.600  -0.1804   0.01807   0.01342  -0.0845  0.7815  0.0085  -4.0504   0.0000   0.0000   0.0000  -0.2306
  -5.500  -0.1716   0.01667   0.01179  -0.0842  0.7768  0.0084  -4.0733   0.0000   0.0000   0.0000  -0.2534
  -5.400  -0.1621   0.01561   0.01056  -0.0840  0.7739  0.0084  -4.0563   0.0000   0.0000   0.0000  -0.2816
  -5.300  -0.1520   0.01478   0.00961  -0.0838  0.7726  0.0084  -4.0132   0.0000   0.0000   0.0000  -0.3153
  -5.200  -0.1416   0.01413   0.00885  -0.0836  0.7711  0.0086  -3.9613   0.0000   0.0000   0.0000  -0.3553
  -5.100  -0.1311   0.01359   0.00824  -0.0835  0.7694  0.0087  -3.8968   0.0000   0.0000   0.0000  -0.4027
  -5.000  -0.1204   0.01316   0.00774  -0.0834  0.7675  0.0090  -3.8233   0.0000   0.0000   0.0000  -0.4594
  -4.900  -0.1095   0.01281   0.00734  -0.0833  0.7655  0.0094  -3.7420   0.0000   0.0000   0.0000  -0.5282
  -4.800  -0.0986   0.01256   0.00705  -0.0832  0.7632  0.0100  -3.6509   0.0000   0.0000   0.0000  -0.6134
  -4.700  -0.0875   0.01239   0.00686  -0.0832  0.7607  0.0107  -3.5475   0.0000   0.0000   0.0000  -0.7215
  -4.600  -0.0763   0.01232   0.00678  -0.0831  0.7581  0.0114  -3.4310   0.0000   0.0000   0.0000  -0.8627
  -4.500  -0.0651   0.01232   0.00677  -0.0831  0.7555  0.0122  -3.3042   0.0000   0.0000   0.0000  -1.0540
  -4.400  -0.0538   0.01240   0.00686  -0.0831  0.7527  0.0130  -3.1683   0.0000   0.0000   0.0000  -1.3276
  -4.300  -0.0423   0.01259   0.00707  -0.0832  0.7498  0.0137  -3.0225   0.0000   0.0000   0.0000  -1.7520
  -4.200  -0.0303   0.01335   0.00787  -0.0833  0.7466  0.0147  -2.8292   0.0000   0.0000   0.0000  -2.5496
  -4.100  -0.0190   0.01361   0.00814  -0.0834  0.7430  0.0150  -2.6838   0.0000   0.0000   0.0000  -4.2214
  -4.000  -0.0076   0.01396   0.00850  -0.0834  0.7389  0.0154  -2.5352   0.0000   0.0000   0.0000  -10.9805
  -3.900   0.0041   0.01450   0.00908  -0.0835  0.7341  0.0157  -2.3764   0.0000   0.0000   0.0000  20.9055
  -3.800   0.0150   0.01442   0.00895  -0.0835  0.7301  0.0166  -2.2556   0.0000   0.0000   0.0000   5.9132
  -3.700   0.0245   0.01293   0.00728  -0.0834  0.7291  0.0177  -2.2414   0.0000   0.0000   0.0000   3.7118
  -3.600   0.0350   0.01230   0.00659  -0.0833  0.7279  0.0186  -2.1717   0.0000   0.0000   0.0000   2.6660
  -3.500   0.0458   0.01190   0.00617  -0.0832  0.7263  0.0193  -2.0874   0.0000   0.0000   0.0000   2.0924
  -3.400   0.0568   0.01161   0.00585  -0.0831  0.7246  0.0199  -2.0214   0.0000   0.0000   0.0000   1.7348
  -3.300   0.0678   0.01137   0.00559  -0.0831  0.7228  0.0204  -1.9644   0.0000   0.0000   0.0000   1.4917
  -3.200   0.0789   0.01115   0.00535  -0.0831  0.7209  0.0208  -1.9080   0.0000   0.0000   0.0000   1.3162
  -3.100   0.0900   0.01093   0.00511  -0.0830  0.7188  0.0212  -1.8538   0.0000   0.0000   0.0000   1.1838
  -3.000   0.1011   0.01072   0.00488  -0.0829  0.7165  0.0215  -1.8020   0.0000   0.0000   0.0000   1.0804
  -2.900   0.1122   0.01051   0.00464  -0.0829  0.7141  0.0218  -1.7526   0.0000   0.0000   0.0000   0.9974
  -2.800   0.1232   0.01031   0.00440  -0.0828  0.7116  0.0220  -1.7053   0.0000   0.0000   0.0000   0.9292
  -2.700   0.1342   0.01011   0.00417  -0.0827  0.7090  0.0222  -1.6595   0.0000   0.0000   0.0000   0.8724
  -2.600   0.1452   0.00993   0.00394  -0.0826  0.7061  0.0223  -1.6150   0.0000   0.0000   0.0000   0.8241
  -2.500   0.1562   0.00975   0.00372  -0.0824  0.7030  0.0224  -1.5714   0.0000   0.0000   0.0000   0.7828
  -2.400   0.1672   0.00962   0.00355  -0.0824  0.6994  0.0229  -1.5203   0.0000   0.0000   0.0000   0.7470
  -2.300   0.1782   0.00953   0.00343  -0.0823  0.6953  0.0237  -1.4624   0.0000   0.0000   0.0000   0.7157
  -2.200   0.1892   0.00946   0.00333  -0.0823  0.6907  0.0246  -1.4046   0.0000   0.0000   0.0000   0.6881
  -2.100   0.2004   0.00939   0.00322  -0.0822  0.6859  0.0254  -1.3510   0.0000   0.0000   0.0000   0.6633
  -2.000   0.2116   0.00926   0.00307  -0.0822  0.6838  0.0260  -1.3028   0.0000   0.0000   0.0000   0.6410
  -1.900   0.2230   0.00912   0.00290  -0.0822  0.6829  0.0263  -1.2600   0.0000   0.0000   0.0000   0.6207
  -1.800   0.2343   0.00897   0.00272  -0.0821  0.6818  0.0264  -1.2216   0.0000   0.0000   0.0000   0.6023
  -1.700   0.2457   0.00882   0.00255  -0.0820  0.6805  0.0262  -1.1867   0.0000   0.0000   0.0000   0.5856
  -1.600   0.2571   0.00870   0.00238  -0.0820  0.6791  0.0261  -1.1525   0.0000   0.0000   0.0000   0.5702
  -1.500   0.2686   0.00859   0.00224  -0.0819  0.6774  0.0260  -1.1178   0.0000   0.0000   0.0000   0.5562
  -1.400   0.2800   0.00850   0.00211  -0.0819  0.6755  0.0262  -1.0827   0.0000   0.0000   0.0000   0.5433
  -1.200   0.3012   0.00761   0.00173  -0.0818  0.6708  0.1859  -1.1073   0.0000   0.0000   0.0000   0.5220
  -1.100   0.3120   0.00744   0.00172  -0.0818  0.6680  0.2347  -1.0539   0.0000   0.0000   0.0000   0.5125
  -1.000   0.3224   0.00717   0.00168  -0.0818  0.6650  0.3152  -1.0082   0.0000   0.0000   0.0000   0.5039
  -0.900   0.3332   0.00704   0.00167  -0.0818  0.6619  0.3610  -0.9520   0.0000   0.0000   0.0000   0.4955
  -0.800   0.3437   0.00687   0.00166  -0.0818  0.6587  0.4192  -0.8970   0.0000   0.0000   0.0000   0.4877
  -0.700   0.3536   0.00662   0.00167  -0.0817  0.6553  0.5106  -0.8442   0.0000   0.0000   0.0000   0.4805
  -0.600   0.3634   0.00641   0.00167  -0.0814  0.6514  0.5899  -0.7921   0.0000   0.0000   0.0000   0.4736
  -0.500   0.3736   0.00629   0.00168  -0.0812  0.6470  0.6404  -0.7397   0.0000   0.0000   0.0000   0.4668
  -0.400   0.3835   0.00619   0.00170  -0.0810  0.6420  0.6929  -0.6885   0.0000   0.0000   0.0000   0.4603
  -0.300   0.3932   0.00609   0.00173  -0.0806  0.6372  0.7475  -0.6919   0.0000   0.0000   0.0000   0.4540
  -0.200   0.4025   0.00594   0.00175  -0.0801  0.6363  0.8017  -0.7006   0.0000   0.0000   0.0000   0.4479
  -0.100   0.4114   0.00584   0.00177  -0.0794  0.6352  0.8488  -0.7091   0.0000   0.0000   0.0000   0.4418
   0.000   0.4203   0.00577   0.00179  -0.0787  0.6341  0.8861  -0.7184   0.0000   0.0000   0.0000   0.4360
   0.100   0.4295   0.00572   0.00180  -0.0781  0.6326  0.9181  -0.7283   0.0000   0.0000   0.0000   0.4303
   0.200   0.4406   0.00568   0.00179  -0.0778  0.6308  0.9474  -0.7393   0.0000   0.0000   0.0000   0.4251
   0.300   0.4564   0.00566   0.00177  -0.0787  0.6285  0.9690  -0.7532   0.0000   0.0000   0.0000   0.4208
   0.400   0.4747   0.00565   0.00174  -0.0802  0.6256  0.9811  -0.7685   0.0000   0.0000   0.0000   0.4171
   0.500   0.4933   0.00565   0.00171  -0.0818  0.6223  0.9910  -0.7841   0.0000   0.0000   0.0000   0.4139
   0.600   0.5117   0.00565   0.00168  -0.0833  0.6188  0.9983  -0.7997   0.0000   0.0000   0.0000   0.4108
   0.700   0.5241   0.00567   0.00168  -0.0836  0.6156  1.0000  -0.8115   0.0000   0.0000   0.0000   0.4074
   0.800   0.5345   0.00570   0.00167  -0.0834  0.6124  1.0000  -0.8222   0.0000   0.0000   0.0000   0.4039
   0.900   0.5448   0.00574   0.00167  -0.0832  0.6090  1.0000  -0.8329   0.0000   0.0000   0.0000   0.4005
   1.000   0.5552   0.00578   0.00167  -0.0831  0.6053  1.0000  -0.8436   0.0000   0.0000   0.0000   0.3972
   1.100   0.5656   0.00582   0.00168  -0.0829  0.6010  1.0000  -0.8554   0.0000   0.0000   0.0000   0.3941
   1.200   0.5760   0.00587   0.00167  -0.0828  0.5964  1.0000  -0.8677   0.0000   0.0000   0.0000   0.3911
   1.300   0.5866   0.00593   0.00169  -0.0827  0.5913  1.0000  -0.8800   0.0000   0.0000   0.0000   0.3882
   1.400   0.5974   0.00596   0.00170  -0.0826  0.5887  1.0000  -0.8927   0.0000   0.0000   0.0000   0.3854
   1.500   0.6083   0.00597   0.00171  -0.0825  0.5874  1.0000  -0.9055   0.0000   0.0000   0.0000   0.3828
   1.600   0.6193   0.00598   0.00171  -0.0825  0.5857  1.0000  -0.9183   0.0000   0.0000   0.0000   0.3802
   1.700   0.6303   0.00599   0.00172  -0.0824  0.5836  1.0000  -0.9312   0.0000   0.0000   0.0000   0.3777
   1.800   0.6412   0.00601   0.00173  -0.0824  0.5810  1.0000  -0.9447   0.0000   0.0000   0.0000   0.3753
   1.900   0.6522   0.00603   0.00174  -0.0823  0.5781  1.0000  -0.9595   0.0000   0.0000   0.0000   0.3730
   2.000   0.6631   0.00606   0.00175  -0.0823  0.5751  1.0000  -0.9744   0.0000   0.0000   0.0000   0.3707
   2.100   0.6740   0.00609   0.00176  -0.0822  0.5717  1.0000  -0.9893   0.0000   0.0000   0.0000   0.3685
   2.200   0.6848   0.00612   0.00177  -0.0822  0.5678  1.0000  -1.0042   0.0000   0.0000   0.0000   0.3664
   2.300   0.6955   0.00617   0.00178  -0.0821  0.5633  1.0000  -1.0190   0.0000   0.0000   0.0000   0.3643
   2.400   0.7061   0.00622   0.00180  -0.0820  0.5580  1.0000  -1.0338   0.0000   0.0000   0.0000   0.3623
   2.600   0.7271   0.00636   0.00187  -0.0818  0.5450  1.0000  -1.0633   0.0000   0.0000   0.0000   0.3585
   2.700   0.7379   0.00641   0.00190  -0.0817  0.5405  1.0000  -1.0784   0.0000   0.0000   0.0000   0.3566
   2.800   0.7491   0.00643   0.00192  -0.0817  0.5391  1.0000  -1.0947   0.0000   0.0000   0.0000   0.3549
   2.900   0.7603   0.00645   0.00194  -0.0817  0.5373  1.0000  -1.1126   0.0000   0.0000   0.0000   0.3532
   3.000   0.7714   0.00647   0.00196  -0.0817  0.5349  1.0000  -1.1305   0.0000   0.0000   0.0000   0.3516
   3.100   0.7824   0.00650   0.00199  -0.0817  0.5321  1.0000  -1.1484   0.0000   0.0000   0.0000   0.3500
   3.200   0.7934   0.00654   0.00201  -0.0817  0.5284  1.0000  -1.1663   0.0000   0.0000   0.0000   0.3484
   3.300   0.8042   0.00658   0.00204  -0.0817  0.5239  1.0000  -1.1842   0.0000   0.0000   0.0000   0.3469
   3.400   0.8149   0.00663   0.00206  -0.0816  0.5185  1.0000  -1.2021   0.0000   0.0000   0.0000   0.3453
   3.500   0.8254   0.00671   0.00209  -0.0815  0.5122  1.0000  -1.2197   0.0000   0.0000   0.0000   0.3438
   3.600   0.8357   0.00679   0.00212  -0.0814  0.5047  1.0000  -1.2373   0.0000   0.0000   0.0000   0.3424
   3.700   0.8461   0.00688   0.00217  -0.0813  0.4965  1.0000  -1.2549   0.0000   0.0000   0.0000   0.3409
   3.800   0.8569   0.00693   0.00221  -0.0812  0.4918  1.0000  -1.2730   0.0000   0.0000   0.0000   0.3396
   3.900   0.8680   0.00696   0.00224  -0.0813  0.4898  1.0000  -1.2915   0.0000   0.0000   0.0000   0.3383
   4.000   0.8790   0.00700   0.00228  -0.0813  0.4869  1.0000  -1.3129   0.0000   0.0000   0.0000   0.3370
   4.100   0.8900   0.00704   0.00231  -0.0813  0.4832  1.0000  -1.3346   0.0000   0.0000   0.0000   0.3358
   4.200   0.9008   0.00709   0.00235  -0.0812  0.4786  1.0000  -1.3562   0.0000   0.0000   0.0000   0.3345
   4.300   0.9114   0.00716   0.00240  -0.0812  0.4733  1.0000  -1.3778   0.0000   0.0000   0.0000   0.3333
   4.400   0.9219   0.00724   0.00244  -0.0811  0.4669  1.0000  -1.3992   0.0000   0.0000   0.0000   0.3321
   4.500   0.9320   0.00734   0.00250  -0.0809  0.4590  1.0000  -1.4203   0.0000   0.0000   0.0000   0.3309
   4.600   0.9420   0.00746   0.00256  -0.0808  0.4492  1.0000  -1.4413   0.0000   0.0000   0.0000   0.3297
   4.700   0.9526   0.00753   0.00261  -0.0808  0.4433  1.0000  -1.4631   0.0000   0.0000   0.0000   0.3286
   4.800   0.9635   0.00757   0.00266  -0.0807  0.4394  1.0000  -1.4875   0.0000   0.0000   0.0000   0.3275
   4.900   0.9742   0.00764   0.00271  -0.0807  0.4339  1.0000  -1.5136   0.0000   0.0000   0.0000   0.3264
   5.000   0.9846   0.00772   0.00277  -0.0806  0.4275  1.0000  -1.5396   0.0000   0.0000   0.0000   0.3253
   5.100   0.9949   0.00782   0.00283  -0.0805  0.4206  1.0000  -1.5654   0.0000   0.0000   0.0000   0.3243
   5.200   1.0048   0.00794   0.00291  -0.0804  0.4125  1.0000  -1.5908   0.0000   0.0000   0.0000   0.3232
   5.300   1.0146   0.00807   0.00299  -0.0802  0.4029  1.0000  -1.6162   0.0000   0.0000   0.0000   0.3222
   5.400   1.0250   0.00816   0.00306  -0.0802  0.3965  1.0000  -1.6425   0.0000   0.0000   0.0000   0.3212
   5.500   1.0357   0.00822   0.00312  -0.0801  0.3926  1.0000  -1.6693   0.0000   0.0000   0.0000   0.3202
   5.600   1.0461   0.00830   0.00318  -0.0801  0.3865  1.0000  -1.6960   0.0000   0.0000   0.0000   0.3193
   5.700   1.0561   0.00842   0.00326  -0.0800  0.3781  1.0000  -1.7221   0.0000   0.0000   0.0000   0.3183
   5.800   1.0654   0.00859   0.00349  -0.0797  0.3672  1.0000  -1.7472   0.0000   0.0000   0.0000   0.3173
   5.900   1.0747   0.00877   0.00361  -0.0795  0.3544  1.0000  -1.7720   0.0000   0.0000   0.0000   0.3163
   6.000   1.0851   0.00885   0.00370  -0.0794  0.3491  1.0000  -1.7989   0.0000   0.0000   0.0000   0.3154
   6.100   1.0955   0.00893   0.00377  -0.0794  0.3446  1.0000  -1.8309   0.0000   0.0000   0.0000   0.3146
   6.200   1.1057   0.00904   0.00386  -0.0793  0.3387  1.0000  -1.8637   0.0000   0.0000   0.0000   0.3137
   6.300   1.1154   0.00917   0.00396  -0.0791  0.3316  1.0000  -1.8959   0.0000   0.0000   0.0000   0.3128
   6.400   1.1248   0.00933   0.00407  -0.0789  0.3235  1.0000  -1.9276   0.0000   0.0000   0.0000   0.3119
   6.500   1.1340   0.00951   0.00420  -0.0787  0.3129  1.0000  -1.9589   0.0000   0.0000   0.0000   0.3110
   6.600   1.1439   0.00963   0.00430  -0.0786  0.3055  1.0000  -1.9916   0.0000   0.0000   0.0000   0.3102
   6.700   1.1540   0.00972   0.00439  -0.0785  0.3009  1.0000  -2.0251   0.0000   0.0000   0.0000   0.3093
   6.800   1.1638   0.00985   0.00449  -0.0783  0.2943  1.0000  -2.0580   0.0000   0.0000   0.0000   0.3085
   6.900   1.1730   0.01002   0.00461  -0.0781  0.2863  1.0000  -2.0901   0.0000   0.0000   0.0000   0.3077
   7.000   1.1819   0.01022   0.00475  -0.0779  0.2775  1.0000  -2.1218   0.0000   0.0000   0.0000   0.3068
   7.100   1.1910   0.01040   0.00489  -0.0776  0.2679  1.0000  -2.1538   0.0000   0.0000   0.0000   0.3060
   7.200   1.2008   0.01051   0.00500  -0.0775  0.2630  1.0000  -2.1874   0.0000   0.0000   0.0000   0.3052
   7.300   1.2109   0.01060   0.00510  -0.0774  0.2599  1.0000  -2.2235   0.0000   0.0000   0.0000   0.3045
   7.400   1.2207   0.01071   0.00520  -0.0773  0.2556  1.0000  -2.2657   0.0000   0.0000   0.0000   0.3037
   7.500   1.2302   0.01085   0.00532  -0.0771  0.2502  1.0000  -2.3074   0.0000   0.0000   0.0000   0.3029
   7.600   1.2392   0.01102   0.00546  -0.0769  0.2441  1.0000  -2.3483   0.0000   0.0000   0.0000   0.3021
   7.700   1.2479   0.01121   0.00561  -0.0766  0.2371  1.0000  -2.3888   0.0000   0.0000   0.0000   0.3014
   7.800   1.2566   0.01141   0.00577  -0.0763  0.2286  1.0000  -2.4293   0.0000   0.0000   0.0000   0.3006
   7.900   1.2659   0.01155   0.00590  -0.0761  0.2230  1.0000  -2.4714   0.0000   0.0000   0.0000   0.2998
   8.000   1.2758   0.01165   0.00601  -0.0760  0.2206  1.0000  -2.5718   0.0000   0.0000   0.0000   0.2991
   8.100   1.2853   0.01176   0.00613  -0.0758  0.2171  1.0000  -2.6724   0.0000   0.0000   0.0000   0.2984
   8.200   1.2945   0.01191   0.00626  -0.0756  0.2126  1.0000  -2.7726   0.0000   0.0000   0.0000   0.2977
   8.300   1.3031   0.01209   0.00641  -0.0753  0.2066  1.0000  -2.8709   0.0000   0.0000   0.0000   0.2969
   8.400   1.3109   0.01234   0.00660  -0.0750  0.1988  1.0000  -2.9663   0.0000   0.0000   0.0000   0.2961
   8.500   1.3186   0.01259   0.00679  -0.0745  0.1884  1.0000  -3.0619   0.0000   0.0000   0.0000   0.2953
   8.600   1.3276   0.01273   0.00693  -0.0743  0.1836  1.0000  -3.1660   0.0000   0.0000   0.0000   0.2946
   8.700   1.3360   0.01291   0.00708  -0.0740  0.1773  1.0000  -3.2688   0.0000   0.0000   0.0000   0.2939
   8.800   1.3429   0.01320   0.00728  -0.0735  0.1677  1.0000  -3.3642   0.0000   0.0000   0.0000   0.2931
   8.900   1.3490   0.01354   0.00754  -0.0729  0.1552  1.0000  -3.4559   0.0000   0.0000   0.0000   0.2923
   9.000   1.3570   0.01374   0.00771  -0.0726  0.1483  1.0000  -3.5592   0.0000   0.0000   0.0000   0.2915
   9.100   1.3647   0.01395   0.00789  -0.0722  0.1422  1.0000  -3.6620   0.0000   0.0000   0.0000   0.2908
   9.200   1.3714   0.01423   0.00810  -0.0716  0.1349  1.0000  -3.7603   0.0000   0.0000   0.0000   0.2900
   9.300   1.3779   0.01451   0.00833  -0.0711  0.1281  1.0000  -3.8578   0.0000   0.0000   0.0000   0.2892
   9.400   1.3827   0.01491   0.00872  -0.0703  0.1124  1.0000  -3.9330   0.0000   0.0000   0.0000   0.2883
   9.500   1.3878   0.01526   0.00898  -0.0696  0.1037  1.0000  -4.0183   0.0000   0.0000   0.0000   0.2874
   9.600   1.3929   0.01560   0.00925  -0.0688  0.0951  1.0000  -4.1063   0.0000   0.0000   0.0000   0.2866
   9.700   1.3997   0.01583   0.00947  -0.0683  0.0895  1.0000  -4.2052   0.0000   0.0000   0.0000   0.2858
   9.800   1.4059   0.01605   0.00968  -0.0677  0.0858  1.0000  -4.3025   0.0000   0.0000   0.0000   0.2850
   9.900   1.4106   0.01633   0.00992  -0.0668  0.0808  1.0000  -4.3912   0.0000   0.0000   0.0000   0.2840
  10.000   1.4137   0.01669   0.01022  -0.0657  0.0750  1.0000  -4.4711   0.0000   0.0000   0.0000   0.2830
  10.100   1.4173   0.01703   0.01050  -0.0647  0.0679  1.0000  -4.5531   0.0000   0.0000   0.0000   0.2820
  10.200   1.4224   0.01729   0.01075  -0.0640  0.0640  1.0000  -4.6441   0.0000   0.0000   0.0000   0.2812
  10.300   1.4263   0.01762   0.01105  -0.0630  0.0593  1.0000  -4.7267   0.0000   0.0000   0.0000   0.2802
  10.400   1.4275   0.01810   0.01147  -0.0618  0.0527  1.0000  -4.7918   0.0000   0.0000   0.0000   0.2792
  10.500   1.4294   0.01856   0.01186  -0.0607  0.0449  1.0000  -4.8575   0.0000   0.0000   0.0000   0.2782
  10.600   1.4329   0.01894   0.01222  -0.0598  0.0404  1.0000  -4.9206   0.0000   0.0000   0.0000   0.2773
  10.700   1.4283   0.01982   0.01297  -0.0581  0.0287  1.0000  -4.9405   0.0000   0.0000   0.0000   0.2761
  11.000   1.4198   0.02232   0.01529  -0.0538  0.0059  1.0000  -5.0228   0.0000   0.0000   0.0000   0.2728
  11.100   1.4233   0.02275   0.01575  -0.0531  0.0055  1.0000  -5.0853   0.0000   0.0000   0.0000   0.2720
  11.200   1.4271   0.02318   0.01621  -0.0524  0.0052  1.0000  -5.1522   0.0000   0.0000   0.0000   0.2713
  11.300   1.4312   0.02361   0.01666  -0.0518  0.0050  1.0000  -5.2233   0.0000   0.0000   0.0000   0.2706
  11.400   1.4355   0.02402   0.01710  -0.0513  0.0049  1.0000  -5.2975   0.0000   0.0000   0.0000   0.2699
  11.500   1.4400   0.02444   0.01755  -0.0507  0.0047  1.0000  -5.3739   0.0000   0.0000   0.0000   0.2693
  11.600   1.4442   0.02488   0.01802  -0.0502  0.0046  1.0000  -5.4499   0.0000   0.0000   0.0000   0.2686
  11.700   1.4480   0.02534   0.01853  -0.0497  0.0045  1.0000  -5.5249   0.0000   0.0000   0.0000   0.2680
  11.800   1.4519   0.02581   0.01904  -0.0492  0.0044  1.0000  -5.6009   0.0000   0.0000   0.0000   0.2674
  11.900   1.4559   0.02628   0.01955  -0.0487  0.0044  1.0000  -5.6783   0.0000   0.0000   0.0000   0.2667
  12.000   1.4600   0.02676   0.02007  -0.0482  0.0043  1.0000  -5.7564   0.0000   0.0000   0.0000   0.2661
  12.100   1.4639   0.02725   0.02060  -0.0477  0.0043  1.0000  -5.8343   0.0000   0.0000   0.0000   0.2655
  12.200   1.4676   0.02777   0.02116  -0.0473  0.0042  1.0000  -5.9113   0.0000   0.0000   0.0000   0.2649
  12.300   1.4705   0.02835   0.02178  -0.0468  0.0042  1.0000  -5.9840   0.0000   0.0000   0.0000   0.2643
  12.400   1.4732   0.02895   0.02243  -0.0463  0.0042  1.0000  -6.0556   0.0000   0.0000   0.0000   0.2638
  12.500   1.4761   0.02955   0.02307  -0.0458  0.0041  1.0000  -6.1280   0.0000   0.0000   0.0000   0.2632
  12.600   1.4788   0.03014   0.02372  -0.0453  0.0041  1.0000  -6.2000   0.0000   0.0000   0.0000   0.2626
  12.700   1.4815   0.03075   0.02437  -0.0449  0.0041  1.0000  -6.2715   0.0000   0.0000   0.0000   0.2621
  12.800   1.4841   0.03138   0.02504  -0.0444  0.0041  1.0000  -6.3425   0.0000   0.0000   0.0000   0.2615
  12.900   1.4859   0.03209   0.02580  -0.0440  0.0041  1.0000  -6.4088   0.0000   0.0000   0.0000   0.2610
  13.000   1.4872   0.03286   0.02663  -0.0435  0.0041  1.0000  -6.4712   0.0000   0.0000   0.0000   0.2604
  13.100   1.4888   0.03363   0.02744  -0.0431  0.0041  1.0000  -6.5357   0.0000   0.0000   0.0000   0.2599
  13.200   1.4905   0.03439   0.02826  -0.0427  0.0041  1.0000  -6.6012   0.0000   0.0000   0.0000   0.2595
  13.300   1.4923   0.03517   0.02908  -0.0424  0.0041  1.0000  -6.6664   0.0000   0.0000   0.0000   0.2590
  13.400   1.4939   0.03598   0.02994  -0.0420  0.0041  1.0000  -6.7304   0.0000   0.0000   0.0000   0.2585
  13.500   1.4949   0.03685   0.03086  -0.0417  0.0040  1.0000  -6.7904   0.0000   0.0000   0.0000   0.2580
  13.600   1.4946   0.03787   0.03194  -0.0414  0.0040  1.0000  -6.8416   0.0000   0.0000   0.0000   0.2576
  13.700   1.4947   0.03887   0.03299  -0.0411  0.0040  1.0000  -6.8950   0.0000   0.0000   0.0000   0.2572
  13.800   1.4951   0.03984   0.03402  -0.0408  0.0040  1.0000  -6.9502   0.0000   0.0000   0.0000   0.2568
  13.900   1.4955   0.04082   0.03505  -0.0405  0.0040  1.0000  -7.0047   0.0000   0.0000   0.0000   0.2564
  14.000   1.4957   0.04184   0.03612  -0.0403  0.0041  1.0000  -7.0575   0.0000   0.0000   0.0000   0.2560
  14.100   1.4952   0.04293   0.03727  -0.0401  0.0041  1.0000  -7.1057   0.0000   0.0000   0.0000   0.2557
  14.200   1.4930   0.04424   0.03864  -0.0399  0.0041  1.0000  -7.1425   0.0000   0.0000   0.0000   0.2554
  14.300   1.4916   0.04548   0.03994  -0.0398  0.0041  1.0000  -7.1836   0.0000   0.0000   0.0000   0.2551
  14.400   1.4906   0.04669   0.04120  -0.0397  0.0041  1.0000  -7.2267   0.0000   0.0000   0.0000   0.2549
  14.500   1.4904   0.04781   0.04243  -0.0396  0.0041  1.0000  -7.2864   0.0000   0.0000   0.0000   0.2546
  14.600   1.4892   0.04904   0.04372  -0.0395  0.0041  1.0000  -7.3298   0.0000   0.0000   0.0000   0.2543
  14.700   1.4872   0.05041   0.04514  -0.0395  0.0041  1.0000  -7.3673   0.0000   0.0000   0.0000   0.2541
  14.800   1.4837   0.05201   0.04681  -0.0396  0.0041  1.0000  -7.3933   0.0000   0.0000   0.0000   0.2540
  14.900   1.4812   0.05346   0.04831  -0.0396  0.0041  1.0000  -7.4266   0.0000   0.0000   0.0000   0.2539
  15.000   1.4790   0.05483   0.04974  -0.0397  0.0041  1.0000  -7.4620   0.0000   0.0000   0.0000   0.2537
  15.100   1.4768   0.05622   0.05118  -0.0397  0.0040  1.0000  -7.5088   0.0000   0.0000   0.0000   0.2536
  15.200   1.4744   0.05766   0.05268  -0.0398  0.0040  1.0000  -7.5558   0.0000   0.0000   0.0000   0.2535
  15.300   1.4707   0.05940   0.05448  -0.0401  0.0040  1.0000  -7.5894   0.0000   0.0000   0.0000   0.2535
  15.400   1.4665   0.06123   0.05637  -0.0405  0.0040  1.0000  -7.6192   0.0000   0.0000   0.0000   0.2536
  15.500   1.4637   0.06289   0.05809  -0.0407  0.0040  1.0000  -7.6606   0.0000   0.0000   0.0000   0.2536
  15.600   1.4614   0.06451   0.05976  -0.0410  0.0040  1.0000  -7.7059   0.0000   0.0000   0.0000   0.2536
  15.700   1.4590   0.06616   0.06147  -0.0413  0.0040  1.0000  -7.7510   0.0000   0.0000   0.0000   0.2537
  15.800   1.4563   0.06788   0.06324  -0.0417  0.0040  1.0000  -7.7930   0.0000   0.0000   0.0000   0.2537
  15.900   1.4512   0.07007   0.06549  -0.0423  0.0040  1.0000  -7.8101   0.0000   0.0000   0.0000   0.2541
  16.000   1.4473   0.07208   0.06756  -0.0429  0.0040  1.0000  -7.8389   0.0000   0.0000   0.0000   0.2543
  16.100   1.4443   0.07393   0.06947  -0.0434  0.0040  1.0000  -7.8768   0.0000   0.0000   0.0000   0.2545
  16.200   1.4416   0.07575   0.07135  -0.0439  0.0039  1.0000  -7.9162   0.0000   0.0000   0.0000   0.2547
  16.300   1.4387   0.07761   0.07325  -0.0444  0.0039  1.0000  -7.9539   0.0000   0.0000   0.0000   0.2549
  16.400   1.4351   0.07960   0.07530  -0.0450  0.0039  1.0000  -7.9844   0.0000   0.0000   0.0000   0.2551
  16.500   1.4293   0.08209   0.07786  -0.0460  0.0039  1.0000  -7.9903   0.0000   0.0000   0.0000   0.2557
  16.600   1.4255   0.08420   0.08001  -0.0467  0.0039  1.0000  -8.0159   0.0000   0.0000   0.0000   0.2561
  16.700   1.4223   0.08616   0.08203  -0.0474  0.0039  1.0000  -8.0478   0.0000   0.0000   0.0000   0.2564
  16.800   1.4191   0.08811   0.08403  -0.0481  0.0039  1.0000  -8.0801   0.0000   0.0000   0.0000   0.2567
  16.900   1.4159   0.09009   0.08607  -0.0488  0.0039  1.0000  -8.1113   0.0000   0.0000   0.0000   0.2571
  17.000   1.4114   0.09237   0.08841  -0.0497  0.0039  1.0000  -8.1264   0.0000   0.0000   0.0000   0.2577
  17.100   1.4055   0.09493   0.09103  -0.0509  0.0038  1.0000  -8.1257   0.0000   0.0000   0.0000   0.2584
  17.200   1.4016   0.09707   0.09321  -0.0518  0.0038  1.0000  -8.1464   0.0000   0.0000   0.0000   0.2589
  17.300   1.3982   0.09909   0.09528  -0.0526  0.0038  1.0000  -8.1719   0.0000   0.0000   0.0000   0.2594
  17.400   1.3951   0.10109   0.09734  -0.0534  0.0038  1.0000  -8.1992   0.0000   0.0000   0.0000   0.2598
  17.500   1.3917   0.10313   0.09943  -0.0543  0.0038  1.0000  -8.2231   0.0000   0.0000   0.0000   0.2603
  17.600   1.3864   0.10559   0.10194  -0.0555  0.0038  1.0000  -8.2234   0.0000   0.0000   0.0000   0.2611
  17.700   1.3807   0.10813   0.10454  -0.0568  0.0038  1.0000  -8.2172   0.0000   0.0000   0.0000   0.2620
  17.800   1.3768   0.11027   0.10673  -0.0578  0.0038  1.0000  -8.2319   0.0000   0.0000   0.0000   0.2627
  17.900   1.3736   0.11230   0.10881  -0.0588  0.0038  1.0000  -8.2531   0.0000   0.0000   0.0000   0.2632
  18.000   1.3704   0.11431   0.11087  -0.0598  0.0038  1.0000  -8.2736   0.0000   0.0000   0.0000   0.2638
  18.100   1.3670   0.11636   0.11297  -0.0609  0.0038  1.0000  -8.2904   0.0000   0.0000   0.0000   0.2645
  18.200   1.3622   0.11868   0.11534  -0.0621  0.0037  1.0000  -8.2891   0.0000   0.0000   0.0000   0.2654
  18.300   1.3559   0.12117   0.11789  -0.0636  0.0038  1.0000  -8.2666   0.0000   0.0000   0.0000   0.2665
  18.400   1.3521   0.12314   0.11991  -0.0648  0.0037  1.0000  -8.2732   0.0000   0.0000   0.0000   0.2673
  18.500   1.3488   0.12501   0.12183  -0.0659  0.0037  1.0000  -8.2863   0.0000   0.0000   0.0000   0.2680
  18.600   1.3457   0.12691   0.12378  -0.0670  0.0037  1.0000  -8.2991   0.0000   0.0000   0.0000   0.2687
  18.700   1.3424   0.12888   0.12580  -0.0682  0.0037  1.0000  -8.3087   0.0000   0.0000   0.0000   0.2695
  18.800   1.3387   0.13098   0.12794  -0.0694  0.0037  1.0000  -8.3123   0.0000   0.0000   0.0000   0.2703
  18.900   1.3322   0.13380   0.13082  -0.0712  0.0037  1.0000  -8.2759   0.0000   0.0000   0.0000   0.2717
  19.000   1.3277   0.13624   0.13331  -0.0726  0.0037  1.0000  -8.2646   0.0000   0.0000   0.0000   0.2728
  19.100   1.3243   0.13846   0.13558  -0.0739  0.0038  1.0000  -8.2654   0.0000   0.0000   0.0000   0.2737
  19.200   1.3210   0.14066   0.13783  -0.0752  0.0038  1.0000  -8.2683   0.0000   0.0000   0.0000   0.2746
  19.300   1.3178   0.14291   0.14012  -0.0765  0.0038  1.0000  -8.2693   0.0000   0.0000   0.0000   0.2755
  19.400   1.3143   0.14524   0.14251  -0.0778  0.0038  1.0000  -8.2658   0.0000   0.0000   0.0000   0.2764
  19.500   1.3103   0.14774   0.14505  -0.0793  0.0038  1.0000  -8.2542   0.0000   0.0000   0.0000   0.2775
  19.600   1.3035   0.15109   0.14846  -0.0812  0.0038  1.0000  -8.1994   0.0000   0.0000   0.0000   0.2792
  19.700   1.2991   0.15383   0.15125  -0.0828  0.0038  1.0000  -8.1777   0.0000   0.0000   0.0000   0.2804
  19.800   1.2955   0.15640   0.15387  -0.0843  0.0038  1.0000  -8.1657   0.0000   0.0000   0.0000   0.2815
  19.900   1.2920   0.15897   0.15649  -0.0857  0.0038  1.0000  -8.1539   0.0000   0.0000   0.0000   0.2826
  20.000   1.2883   0.16162   0.15918  -0.0872  0.0038  1.0000  -8.1382   0.0000   0.0000   0.0000   0.2838
  20.100   1.2843   0.16441   0.16202  -0.0888  0.0038  1.0000  -8.1161   0.0000   0.0000   0.0000   0.2850
  20.200   1.2791   0.16763   0.16530  -0.0906  0.0038  1.0000  -8.0725   0.0000   0.0000   0.0000   0.2865
  20.300   1.2720   0.17151   0.16923  -0.0927  0.0038  1.0000  -7.9954   0.0000   0.0000   0.0000   0.2885
  20.400   1.2674   0.17464   0.17241  -0.0944  0.0038  1.0000  -7.9579   0.0000   0.0000   0.0000   0.2899
  20.500   1.2632   0.17769   0.17551  -0.0960  0.0038  1.0000  -7.9246   0.0000   0.0000   0.0000   0.2913
  20.600   1.2590   0.18083   0.17869  -0.0977  0.0038  1.0000  -7.8877   0.0000   0.0000   0.0000   0.2927
  20.700   1.2544   0.18414   0.18205  -0.0994  0.0039  1.0000  -7.8431   0.0000   0.0000   0.0000   0.2942
  20.800   1.2482   0.18802   0.18599  -0.1014  0.0039  1.0000  -7.7690   0.0000   0.0000   0.0000   0.2961
  20.900   1.2398   0.19275   0.19077  -0.1038  0.0039  1.0000  -7.6517   0.0000   0.0000   0.0000   0.2985
  21.000   1.2344   0.19650   0.19456  -0.1057  0.0039  1.0000  -7.5856   0.0000   0.0000   0.0000   0.3003
  21.100   1.2294   0.20022   0.19833  -0.1075  0.0039  1.0000  -7.5220   0.0000   0.0000   0.0000   0.3020
  21.200   1.2240   0.20415   0.20230  -0.1094  0.0039  1.0000  -7.4484   0.0000   0.0000   0.0000   0.3038
  21.300   1.2173   0.20859   0.20679  -0.1114  0.0039  1.0000  -7.3483   0.0000   0.0000   0.0000   0.3059
  21.400   1.2061   0.21478   0.21304  -0.1143  0.0040  1.0000  -7.1576   0.0000   0.0000   0.0000   0.3091
  21.500   1.1994   0.21945   0.21775  -0.1163  0.0040  1.0000  -7.0469   0.0000   0.0000   0.0000   0.3113
  21.600   1.1926   0.22422   0.22256  -0.1183  0.0040  1.0000  -6.9310   0.0000   0.0000   0.0000   0.3135
  21.700   1.1840   0.22980   0.22819  -0.1206  0.0040  1.0000  -6.7721   0.0000   0.0000   0.0000   0.3162
  21.800   1.1688   0.23818   0.23663  -0.1238  0.0041  1.0000  -6.4664   0.0000   0.0000   0.0000   0.3205
  21.900   1.1591   0.24454   0.24303  -0.1262  0.0041  1.0000  -6.2649   0.0000   0.0000   0.0000   0.3235
  22.100   1.1190   0.26686   0.26543  -0.1330  0.0043  1.0000  -5.3236   0.0000   0.0000   0.0000   0.3345
  22.200   1.0792   0.28776   0.28629  -0.1374  0.0047  1.0000  -4.2426   0.0000   0.0000   0.0000   0.3443
  22.300   1.0701   0.29398   0.29251  -0.1386  0.0048  1.0000  -4.0162   0.0000   0.0000   0.0000   0.3468
  22.400   1.0627   0.29907   0.29759  -0.1396  0.0048  1.0000  -3.8501   0.0000   0.0000   0.0000   0.3487
  22.500   1.0553   0.30367   0.30219  -0.1404  0.0049  1.0000  -3.7015   0.0000   0.0000   0.0000   0.3505
  22.600   1.0474   0.30781   0.30634  -0.1411  0.0049  1.0000  -3.5622   0.0000   0.0000   0.0000   0.3522
  22.700   1.0384   0.31131   0.30985  -0.1415  0.0050  1.0000  -3.4346   0.0000   0.0000   0.0000   0.3538
  22.800   0.9701   0.30237   0.30098  -0.1361  0.0052  1.0000  -3.0280   0.0000   0.0000   0.0000   0.3591
  22.900   0.9588   0.30264   0.30126  -0.1358  0.0052  1.0000  -2.9214   0.0000   0.0000   0.0000   0.3606
  23.000   0.9499   0.30313   0.30176  -0.1358  0.0052  1.0000  -2.8335   0.0000   0.0000   0.0000   0.3620
  23.100   0.9426   0.30373   0.30238  -0.1358  0.0053  1.0000  -2.7581   0.0000   0.0000   0.0000   0.3632
  23.200   0.9363   0.30439   0.30304  -0.1359  0.0053  1.0000  -2.6921   0.0000   0.0000   0.0000   0.3643
  23.300   0.9308   0.30509   0.30375  -0.1360  0.0053  1.0000  -2.6334   0.0000   0.0000   0.0000   0.3653
  23.400   0.9259   0.30581   0.30448  -0.1362  0.0053  1.0000  -2.5806   0.0000   0.0000   0.0000   0.3662
  23.500   0.9216   0.30655   0.30523  -0.1364  0.0053  1.0000  -2.5324   0.0000   0.0000   0.0000   0.3671
  23.600   0.9177   0.30731   0.30599  -0.1366  0.0053  1.0000  -2.4877   0.0000   0.0000   0.0000   0.3679
  23.700   0.9141   0.30808   0.30677  -0.1368  0.0053  1.0000  -2.4450   0.0000   0.0000   0.0000   0.3687
  23.800   0.9109   0.30887   0.30757  -0.1371  0.0052  1.0000  -2.4028   0.0000   0.0000   0.0000   0.3695
  23.900   0.9078   0.30969   0.30839  -0.1373  0.0051  1.0000  -2.3594   0.0000   0.0000   0.0000   0.3702
  24.000   0.9049   0.31054   0.30925  -0.1376  0.0050  1.0000  -2.3114   0.0000   0.0000   0.0000   0.3709
  24.100   0.9020   0.31145   0.31016  -0.1379  0.0049  1.0000  -2.2540   0.0000   0.0000   0.0000   0.3716
  24.200   0.8990   0.31243   0.31114  -0.1381  0.0047  1.0000  -2.1836   0.0000   0.0000   0.0000   0.3724
  24.300   0.8958   0.31345   0.31216  -0.1384  0.0046  1.0000  -2.1035   0.0000   0.0000   0.0000   0.3732
  24.400   0.8927   0.31447   0.31319  -0.1386  0.0046  1.0000  -2.0212   0.0000   0.0000   0.0000   0.3740
  24.500   0.8897   0.31546   0.31417  -0.1389  0.0047  1.0000  -1.9433   0.0000   0.0000   0.0000   0.3748
  24.600   0.8869   0.31637   0.31509  -0.1391  0.0049  1.0000  -1.8736   0.0000   0.0000   0.0000   0.3755
  24.700   0.8838   0.31723   0.31595  -0.1393  0.0053  1.0000  -1.8032   0.0000   0.0000   0.0000   0.3762
  24.800   0.8727   0.31843   0.31715  -0.1388  0.0063  1.0000  -1.5652   0.0000   0.0000   0.0000   0.3779
  24.900   0.8712   0.31923   0.31796  -0.1391  0.0063  1.0000  -1.5387   0.0000   0.0000   0.0000   0.3784
  25.000   0.8699   0.32004   0.31877  -0.1394  0.0063  1.0000  -1.5144   0.0000   0.0000   0.0000   0.3789
  25.100   0.8686   0.32084   0.31958  -0.1397  0.0063  1.0000  -1.4920   0.0000   0.0000   0.0000   0.3794
  25.200   0.8674   0.32165   0.32038  -0.1401  0.0063  1.0000  -1.4710   0.0000   0.0000   0.0000   0.3798
  25.300   0.8663   0.32245   0.32119  -0.1404  0.0063  1.0000  -1.4513   0.0000   0.0000   0.0000   0.3803
  25.400   0.8653   0.32326   0.32200  -0.1407  0.0063  1.0000  -1.4327   0.0000   0.0000   0.0000   0.3807
  25.500   0.8643   0.32406   0.32281  -0.1410  0.0063  1.0000  -1.4150   0.0000   0.0000   0.0000   0.3811
  25.600   0.8634   0.32487   0.32362  -0.1414  0.0063  1.0000  -1.3981   0.0000   0.0000   0.0000   0.3816
  25.700   0.8625   0.32567   0.32443  -0.1417  0.0063  1.0000  -1.3820   0.0000   0.0000   0.0000   0.3820
  25.800   0.8617   0.32648   0.32524  -0.1421  0.0063  1.0000  -1.3666   0.0000   0.0000   0.0000   0.3824
  25.900   0.8609   0.32728   0.32605  -0.1424  0.0063  1.0000  -1.3519   0.0000   0.0000   0.0000   0.3828
  26.000   0.8602   0.32809   0.32685  -0.1428  0.0063  1.0000  -1.3379   0.0000   0.0000   0.0000   0.3832
  26.100   0.8595   0.32889   0.32766  -0.1431  0.0063  1.0000  -1.3245   0.0000   0.0000   0.0000   0.3836
  26.200   0.8588   0.32970   0.32847  -0.1435  0.0062  1.0000  -1.3116   0.0000   0.0000   0.0000   0.3840
  26.300   0.8582   0.33050   0.32928  -0.1438  0.0062  1.0000  -1.2993   0.0000   0.0000   0.0000   0.3844
  26.400   0.8576   0.33130   0.33009  -0.1442  0.0062  1.0000  -1.2876   0.0000   0.0000   0.0000   0.3848


