xflr5 v6.61

 Calculated polar for: S4310

 1 1 Reynolds number fixed          Mach number fixed         

 xtrf =   1.000 (top)        1.000 (bottom)
 Mach =   0.000     Re =     0.625 e 6     Ncrit =   9.000

  alpha     CL        CD       CDp       Cm    Top Xtr Bot Xtr   Cpmin    Chinge    XCp    
 ------- -------- --------- --------- -------- ------- ------- -------- --------- ---------
 -10.000  -0.2811   0.11121   0.10916  -0.0323  1.0000  0.0157  -1.4530   0.0000   0.0000   0.0000   0.1234
  -9.900  -0.2786   0.10985   0.10780  -0.0329  1.0000  0.0157  -1.4593   0.0000   0.0000   0.0000   0.1203
  -9.800  -0.2762   0.10849   0.10645  -0.0335  1.0000  0.0157  -1.4658   0.0000   0.0000   0.0000   0.1171
  -9.700  -0.2738   0.10713   0.10510  -0.0341  1.0000  0.0157  -1.4725   0.0000   0.0000   0.0000   0.1139
  -9.600  -0.2714   0.10577   0.10375  -0.0347  1.0000  0.0157  -1.4794   0.0000   0.0000   0.0000   0.1106
  -9.500  -0.2691   0.10442   0.10241  -0.0353  1.0000  0.0157  -1.4866   0.0000   0.0000   0.0000   0.1073
  -9.400  -0.2669   0.10306   0.10106  -0.0359  1.0000  0.0157  -1.4940   0.0000   0.0000   0.0000   0.1039
  -9.300  -0.2647   0.10172   0.09973  -0.0365  1.0000  0.0157  -1.5017   0.0000   0.0000   0.0000   0.1005
  -9.200  -0.2586   0.09992   0.09794  -0.0383  0.9857  0.0157  -1.5085   0.0000   0.0000   0.0000   0.0901
  -9.100  -0.2520   0.09809   0.09609  -0.0404  0.9786  0.0157  -1.5157   0.0000   0.0000   0.0000   0.0779
  -9.000  -0.2449   0.09620   0.09420  -0.0425  0.9729  0.0157  -1.5232   0.0000   0.0000   0.0000   0.0642
  -8.900  -0.2382   0.09436   0.09235  -0.0446  0.9668  0.0157  -1.5312   0.0000   0.0000   0.0000   0.0503
  -8.800  -0.2317   0.09254   0.09052  -0.0466  0.9599  0.0157  -1.5397   0.0000   0.0000   0.0000   0.0363
  -8.700  -0.2252   0.09072   0.08867  -0.0486  0.9528  0.0157  -1.5487   0.0000   0.0000   0.0000   0.0214
  -8.600  -0.2203   0.08905   0.08699  -0.0501  0.9448  0.0157  -1.5586   0.0000   0.0000   0.0000   0.0096
  -8.500  -0.2171   0.08755   0.08547  -0.0511  0.9357  0.0157  -1.5692   0.0000   0.0000   0.0000   0.0015
  -8.400  -0.2144   0.08612   0.08401  -0.0520  0.9269  0.0157  -1.5806   0.0000   0.0000   0.0000  -0.0054
  -8.300  -0.2125   0.08475   0.08262  -0.0526  0.9191  0.0157  -1.5927   0.0000   0.0000   0.0000  -0.0104
  -8.200  -0.2112   0.08343   0.08128  -0.0531  0.9118  0.0156  -1.6055   0.0000   0.0000   0.0000  -0.0140
  -8.100  -0.2102   0.08211   0.07994  -0.0535  0.9043  0.0156  -1.6191   0.0000   0.0000   0.0000  -0.0173
  -8.000  -0.2093   0.08080   0.07860  -0.0540  0.8970  0.0156  -1.6335   0.0000   0.0000   0.0000  -0.0203
  -7.900  -0.2084   0.07945   0.07723  -0.0545  0.8900  0.0156  -1.6490   0.0000   0.0000   0.0000  -0.0237
  -7.800  -0.2074   0.07805   0.07582  -0.0551  0.8854  0.0156  -1.6659   0.0000   0.0000   0.0000  -0.0277
  -7.700  -0.2068   0.07664   0.07441  -0.0557  0.8801  0.0156  -1.6843   0.0000   0.0000   0.0000  -0.0313
  -7.600  -0.2064   0.07521   0.07297  -0.0563  0.8744  0.0156  -1.7048   0.0000   0.0000   0.0000  -0.0343
  -7.500  -0.2065   0.07377   0.07151  -0.0568  0.8686  0.0155  -1.7280   0.0000   0.0000   0.0000  -0.0368
  -7.400  -0.2073   0.07229   0.07000  -0.0574  0.8625  0.0155  -1.7555   0.0000   0.0000   0.0000  -0.0384
  -7.200  -0.2121   0.06888   0.06658  -0.0591  0.8520  0.0152  -1.8446   0.0000   0.0000   0.0000  -0.0393
  -7.100  -0.2182   0.06618   0.06389  -0.0613  0.8477  0.0147  -1.9517   0.0000   0.0000   0.0000  -0.0411
  -7.000  -0.2211   0.06338   0.06108  -0.0641  0.8430  0.0143  -2.0492   0.0000   0.0000   0.0000  -0.0498
  -6.900  -0.2216   0.06078   0.05845  -0.0668  0.8383  0.0139  -2.1283   0.0000   0.0000   0.0000  -0.0611
  -6.800  -0.2209   0.05817   0.05580  -0.0695  0.8337  0.0136  -2.2031   0.0000   0.0000   0.0000  -0.0739
  -6.700  -0.2194   0.05553   0.05311  -0.0720  0.8292  0.0133  -2.2785   0.0000   0.0000   0.0000  -0.0875
  -6.600  -0.2172   0.05280   0.05031  -0.0744  0.8244  0.0129  -2.3575   0.0000   0.0000   0.0000  -0.1020
  -6.500  -0.2144   0.04997   0.04740  -0.0768  0.8192  0.0126  -2.4429   0.0000   0.0000   0.0000  -0.1174
  -6.400  -0.2109   0.04699   0.04434  -0.0790  0.8154  0.0123  -2.5373   0.0000   0.0000   0.0000  -0.1338
  -6.300  -0.2071   0.04386   0.04112  -0.0810  0.8135  0.0119  -2.6431   0.0000   0.0000   0.0000  -0.1504
  -6.200  -0.2032   0.04060   0.03775  -0.0826  0.8113  0.0116  -2.7631   0.0000   0.0000   0.0000  -0.1665
  -6.100  -0.1992   0.03720   0.03421  -0.0840  0.8088  0.0112  -2.9015   0.0000   0.0000   0.0000  -0.1817
  -6.000  -0.1951   0.03367   0.03048  -0.0850  0.8061  0.0108  -3.0624   0.0000   0.0000   0.0000  -0.1958
  -5.900  -0.1910   0.03006   0.02662  -0.0855  0.8032  0.0103  -3.2449   0.0000   0.0000   0.0000  -0.2087
  -5.800  -0.1865   0.02661   0.02287  -0.0857  0.8002  0.0099  -3.4322   0.0000   0.0000   0.0000  -0.2212
  -5.700  -0.1809   0.02366   0.01961  -0.0857  0.7971  0.0096  -3.5887   0.0000   0.0000   0.0000  -0.2355
  -5.600  -0.1740   0.02135   0.01701  -0.0854  0.7939  0.0094  -3.6926   0.0000   0.0000   0.0000  -0.2534
  -5.500  -0.1660   0.01957   0.01498  -0.0852  0.7907  0.0093  -3.7477   0.0000   0.0000   0.0000  -0.2758
  -5.400  -0.1573   0.01818   0.01337  -0.0849  0.7872  0.0092  -3.7648   0.0000   0.0000   0.0000  -0.3028
  -5.300  -0.1481   0.01708   0.01209  -0.0846  0.7833  0.0093  -3.7558   0.0000   0.0000   0.0000  -0.3354
  -5.200  -0.1383   0.01620   0.01105  -0.0844  0.7790  0.0094  -3.7327   0.0000   0.0000   0.0000  -0.3746
  -5.100  -0.1282   0.01548   0.01018  -0.0842  0.7744  0.0095  -3.6952   0.0000   0.0000   0.0000  -0.4221
  -5.000  -0.1178   0.01483   0.00944  -0.0840  0.7732  0.0098  -3.6458   0.0000   0.0000   0.0000  -0.4801
  -4.900  -0.1072   0.01430   0.00883  -0.0839  0.7719  0.0102  -3.5865   0.0000   0.0000   0.0000  -0.5509
  -4.800  -0.0964   0.01389   0.00836  -0.0838  0.7703  0.0107  -3.5143   0.0000   0.0000   0.0000  -0.6390
  -4.700  -0.0854   0.01362   0.00806  -0.0837  0.7685  0.0114  -3.4251   0.0000   0.0000   0.0000  -0.7519
  -4.600  -0.0742   0.01350   0.00792  -0.0837  0.7664  0.0122  -3.3164   0.0000   0.0000   0.0000  -0.9011
  -4.500  -0.0630   0.01349   0.00792  -0.0837  0.7642  0.0129  -3.1925   0.0000   0.0000   0.0000  -1.1062
  -4.400  -0.0516   0.01361   0.00805  -0.0837  0.7619  0.0137  -3.0559   0.0000   0.0000   0.0000  -1.4048
  -4.300  -0.0400   0.01394   0.00843  -0.0838  0.7593  0.0144  -2.9009   0.0000   0.0000   0.0000  -1.8847
  -4.200  -0.0279   0.01480   0.00934  -0.0840  0.7566  0.0152  -2.7069   0.0000   0.0000   0.0000  -2.8174
  -4.100  -0.0163   0.01524   0.00982  -0.0840  0.7538  0.0155  -2.5514   0.0000   0.0000   0.0000  -5.0026
  -4.000  -0.0043   0.01604   0.01070  -0.0841  0.7508  0.0159  -2.3733   0.0000   0.0000   0.0000  -19.5842
  -3.900   0.0041   0.01406   0.00843  -0.0839  0.7481  0.0175  -2.3867   0.0000   0.0000   0.0000  20.9712
  -3.800   0.0141   0.01322   0.00748  -0.0837  0.7449  0.0186  -2.3311   0.0000   0.0000   0.0000   6.2986
  -3.700   0.0246   0.01283   0.00702  -0.0836  0.7412  0.0194  -2.2467   0.0000   0.0000   0.0000   3.7090
  -3.600   0.0353   0.01258   0.00674  -0.0836  0.7369  0.0201  -2.1530   0.0000   0.0000   0.0000   2.6548
  -3.500   0.0462   0.01240   0.00652  -0.0835  0.7322  0.0208  -2.0569   0.0000   0.0000   0.0000   2.0855
  -3.400   0.0572   0.01221   0.00630  -0.0835  0.7297  0.0214  -1.9847   0.0000   0.0000   0.0000   1.7298
  -3.300   0.0683   0.01199   0.00607  -0.0834  0.7285  0.0218  -1.9255   0.0000   0.0000   0.0000   1.4883
  -3.200   0.0794   0.01176   0.00583  -0.0834  0.7270  0.0223  -1.8702   0.0000   0.0000   0.0000   1.3140
  -3.100   0.0905   0.01153   0.00557  -0.0833  0.7255  0.0226  -1.8185   0.0000   0.0000   0.0000   1.1823
  -3.000   0.1016   0.01129   0.00531  -0.0833  0.7238  0.0229  -1.7698   0.0000   0.0000   0.0000   1.0793
  -2.900   0.1127   0.01105   0.00505  -0.0832  0.7219  0.0231  -1.7233   0.0000   0.0000   0.0000   0.9965
  -2.800   0.1238   0.01082   0.00478  -0.0831  0.7200  0.0233  -1.6785   0.0000   0.0000   0.0000   0.9286
  -2.700   0.1349   0.01059   0.00453  -0.0830  0.7178  0.0235  -1.6351   0.0000   0.0000   0.0000   0.8719
  -2.600   0.1460   0.01040   0.00430  -0.0829  0.7155  0.0237  -1.5895   0.0000   0.0000   0.0000   0.8238
  -2.500   0.1571   0.01027   0.00416  -0.0829  0.7130  0.0245  -1.5320   0.0000   0.0000   0.0000   0.7826
  -2.400   0.1682   0.01017   0.00404  -0.0829  0.7102  0.0255  -1.4721   0.0000   0.0000   0.0000   0.7470
  -2.300   0.1793   0.01007   0.00391  -0.0828  0.7073  0.0265  -1.4156   0.0000   0.0000   0.0000   0.7157
  -2.200   0.1903   0.00994   0.00376  -0.0827  0.7042  0.0273  -1.3648   0.0000   0.0000   0.0000   0.6880
  -2.100   0.2013   0.00980   0.00357  -0.0826  0.7008  0.0278  -1.3203   0.0000   0.0000   0.0000   0.6634
  -2.000   0.2123   0.00964   0.00336  -0.0825  0.6971  0.0280  -1.2814   0.0000   0.0000   0.0000   0.6412
  -1.900   0.2233   0.00949   0.00314  -0.0824  0.6929  0.0280  -1.2469   0.0000   0.0000   0.0000   0.6211
  -1.800   0.2344   0.00936   0.00294  -0.0822  0.6885  0.0277  -1.2148   0.0000   0.0000   0.0000   0.6029
  -1.700   0.2457   0.00925   0.00276  -0.0822  0.6843  0.0276  -1.1819   0.0000   0.0000   0.0000   0.5862
  -1.600   0.2571   0.00911   0.00259  -0.0821  0.6835  0.0275  -1.1482   0.0000   0.0000   0.0000   0.5709
  -1.500   0.2685   0.00898   0.00243  -0.0821  0.6825  0.0276  -1.1143   0.0000   0.0000   0.0000   0.5568
  -1.300   0.2902   0.00815   0.00195  -0.0819  0.6798  0.1499  -1.1573   0.0000   0.0000   0.0000   0.5329
  -1.200   0.3008   0.00788   0.00194  -0.0819  0.6781  0.2181  -1.1082   0.0000   0.0000   0.0000   0.5229
  -1.100   0.3116   0.00768   0.00193  -0.0820  0.6761  0.2715  -1.0547   0.0000   0.0000   0.0000   0.5134
  -1.000   0.3220   0.00742   0.00189  -0.0820  0.6738  0.3509  -1.0092   0.0000   0.0000   0.0000   0.5048
  -0.900   0.3327   0.00725   0.00188  -0.0820  0.6713  0.4039  -0.9533   0.0000   0.0000   0.0000   0.4964
  -0.800   0.3428   0.00699   0.00189  -0.0819  0.6685  0.4874  -0.8994   0.0000   0.0000   0.0000   0.4887
  -0.700   0.3522   0.00669   0.00190  -0.0816  0.6657  0.5916  -0.8478   0.0000   0.0000   0.0000   0.4814
  -0.600   0.3621   0.00651   0.00190  -0.0814  0.6627  0.6568  -0.7954   0.0000   0.0000   0.0000   0.4742
  -0.400   0.3808   0.00622   0.00192  -0.0804  0.6564  0.7696  -0.6948   0.0000   0.0000   0.0000   0.4604
  -0.300   0.3891   0.00611   0.00194  -0.0796  0.6528  0.8242  -0.6897   0.0000   0.0000   0.0000   0.4537
  -0.200   0.3974   0.00605   0.00196  -0.0788  0.6486  0.8687  -0.6978   0.0000   0.0000   0.0000   0.4472
  -0.100   0.4064   0.00604   0.00197  -0.0781  0.6439  0.9026  -0.7063   0.0000   0.0000   0.0000   0.4410
   0.000   0.4170   0.00606   0.00199  -0.0778  0.6389  0.9303  -0.7163   0.0000   0.0000   0.0000   0.4352
   0.100   0.4315   0.00604   0.00198  -0.0783  0.6366  0.9572  -0.7293   0.0000   0.0000   0.0000   0.4301
   0.200   0.4499   0.00602   0.00195  -0.0798  0.6356  0.9764  -0.7446   0.0000   0.0000   0.0000   0.4258
   0.300   0.4684   0.00600   0.00192  -0.0813  0.6341  0.9881  -0.7601   0.0000   0.0000   0.0000   0.4219
   0.400   0.4885   0.00598   0.00188  -0.0832  0.6322  0.9969  -0.7766   0.0000   0.0000   0.0000   0.4186
   0.500   0.5026   0.00598   0.00187  -0.0838  0.6300  1.0000  -0.7894   0.0000   0.0000   0.0000   0.4149
   0.600   0.5130   0.00599   0.00186  -0.0837  0.6275  1.0000  -0.8001   0.0000   0.0000   0.0000   0.4111
   0.700   0.5235   0.00600   0.00185  -0.0835  0.6247  1.0000  -0.8108   0.0000   0.0000   0.0000   0.4075
   0.800   0.5341   0.00602   0.00185  -0.0834  0.6217  1.0000  -0.8216   0.0000   0.0000   0.0000   0.4040
   0.900   0.5446   0.00605   0.00185  -0.0832  0.6187  1.0000  -0.8324   0.0000   0.0000   0.0000   0.4006
   1.000   0.5552   0.00607   0.00185  -0.0831  0.6158  1.0000  -0.8432   0.0000   0.0000   0.0000   0.3973
   1.100   0.5657   0.00610   0.00185  -0.0830  0.6126  1.0000  -0.8552   0.0000   0.0000   0.0000   0.3942
   1.200   0.5763   0.00614   0.00182  -0.0828  0.6093  1.0000  -0.8676   0.0000   0.0000   0.0000   0.3912
   1.300   0.5868   0.00618   0.00183  -0.0827  0.6056  1.0000  -0.8800   0.0000   0.0000   0.0000   0.3883
   1.400   0.5973   0.00623   0.00183  -0.0826  0.6014  1.0000  -0.8924   0.0000   0.0000   0.0000   0.3855
   1.500   0.6078   0.00629   0.00185  -0.0824  0.5964  1.0000  -0.9048   0.0000   0.0000   0.0000   0.3828
   1.600   0.6184   0.00635   0.00187  -0.0823  0.5909  1.0000  -0.9173   0.0000   0.0000   0.0000   0.3802
   1.700   0.6293   0.00638   0.00189  -0.0823  0.5884  1.0000  -0.9301   0.0000   0.0000   0.0000   0.3777
   1.800   0.6403   0.00639   0.00190  -0.0823  0.5869  1.0000  -0.9436   0.0000   0.0000   0.0000   0.3753
   1.900   0.6513   0.00640   0.00190  -0.0822  0.5850  1.0000  -0.9585   0.0000   0.0000   0.0000   0.3729
   2.000   0.6623   0.00641   0.00192  -0.0822  0.5827  1.0000  -0.9734   0.0000   0.0000   0.0000   0.3707
   2.100   0.6733   0.00643   0.00193  -0.0821  0.5801  1.0000  -0.9884   0.0000   0.0000   0.0000   0.3685
   2.200   0.6843   0.00646   0.00194  -0.0821  0.5773  1.0000  -1.0033   0.0000   0.0000   0.0000   0.3664
   2.300   0.6952   0.00649   0.00196  -0.0821  0.5739  1.0000  -1.0183   0.0000   0.0000   0.0000   0.3644
   2.400   0.7060   0.00652   0.00197  -0.0820  0.5700  1.0000  -1.0333   0.0000   0.0000   0.0000   0.3624
   2.600   0.7274   0.00661   0.00202  -0.0818  0.5608  1.0000  -1.0632   0.0000   0.0000   0.0000   0.3585
   2.700   0.7379   0.00667   0.00204  -0.0817  0.5551  1.0000  -1.0781   0.0000   0.0000   0.0000   0.3566
   2.800   0.7484   0.00674   0.00206  -0.0816  0.5487  1.0000  -1.0937   0.0000   0.0000   0.0000   0.3548
   2.900   0.7589   0.00682   0.00210  -0.0815  0.5424  1.0000  -1.1110   0.0000   0.0000   0.0000   0.3531
   3.000   0.7700   0.00685   0.00213  -0.0815  0.5400  1.0000  -1.1288   0.0000   0.0000   0.0000   0.3515
   3.100   0.7811   0.00687   0.00215  -0.0815  0.5383  1.0000  -1.1468   0.0000   0.0000   0.0000   0.3499
   3.200   0.7922   0.00689   0.00218  -0.0815  0.5362  1.0000  -1.1648   0.0000   0.0000   0.0000   0.3483
   3.300   0.8033   0.00692   0.00220  -0.0815  0.5334  1.0000  -1.1828   0.0000   0.0000   0.0000   0.3468
   3.400   0.8142   0.00695   0.00223  -0.0815  0.5298  1.0000  -1.2009   0.0000   0.0000   0.0000   0.3453
   3.500   0.8251   0.00700   0.00226  -0.0814  0.5252  1.0000  -1.2189   0.0000   0.0000   0.0000   0.3438
   3.600   0.8358   0.00705   0.00228  -0.0814  0.5199  1.0000  -1.2368   0.0000   0.0000   0.0000   0.3424
   3.700   0.8463   0.00712   0.00231  -0.0813  0.5138  1.0000  -1.2546   0.0000   0.0000   0.0000   0.3409
   3.800   0.8566   0.00720   0.00234  -0.0812  0.5069  1.0000  -1.2723   0.0000   0.0000   0.0000   0.3395
   3.900   0.8668   0.00729   0.00239  -0.0810  0.4992  1.0000  -1.2899   0.0000   0.0000   0.0000   0.3382
   4.000   0.8773   0.00737   0.00244  -0.0809  0.4925  1.0000  -1.3105   0.0000   0.0000   0.0000   0.3368
   4.100   0.8884   0.00740   0.00248  -0.0810  0.4905  1.0000  -1.3324   0.0000   0.0000   0.0000   0.3356
   4.200   0.8994   0.00744   0.00252  -0.0810  0.4878  1.0000  -1.3542   0.0000   0.0000   0.0000   0.3344
   4.300   0.9103   0.00748   0.00256  -0.0809  0.4842  1.0000  -1.3760   0.0000   0.0000   0.0000   0.3332
   4.400   0.9211   0.00753   0.00260  -0.0809  0.4797  1.0000  -1.3978   0.0000   0.0000   0.0000   0.3320
   4.500   0.9317   0.00759   0.00265  -0.0809  0.4743  1.0000  -1.4195   0.0000   0.0000   0.0000   0.3308
   4.600   0.9421   0.00768   0.00270  -0.0808  0.4678  1.0000  -1.4410   0.0000   0.0000   0.0000   0.3296
   4.700   0.9521   0.00778   0.00275  -0.0806  0.4599  1.0000  -1.4622   0.0000   0.0000   0.0000   0.3285
   4.800   0.9619   0.00791   0.00282  -0.0804  0.4501  1.0000  -1.4850   0.0000   0.0000   0.0000   0.3273
   4.900   0.9724   0.00799   0.00288  -0.0804  0.4435  1.0000  -1.5107   0.0000   0.0000   0.0000   0.3262
   5.000   0.9832   0.00803   0.00293  -0.0803  0.4395  1.0000  -1.5371   0.0000   0.0000   0.0000   0.3252
   5.100   0.9939   0.00810   0.00299  -0.0803  0.4342  1.0000  -1.5634   0.0000   0.0000   0.0000   0.3241
   5.200   1.0043   0.00818   0.00305  -0.0802  0.4281  1.0000  -1.5896   0.0000   0.0000   0.0000   0.3231
   5.300   1.0145   0.00828   0.00312  -0.0801  0.4212  1.0000  -1.6155   0.0000   0.0000   0.0000   0.3221
   5.400   1.0243   0.00840   0.00319  -0.0800  0.4133  1.0000  -1.6410   0.0000   0.0000   0.0000   0.3210
   5.500   1.0339   0.00854   0.00328  -0.0798  0.4038  1.0000  -1.6664   0.0000   0.0000   0.0000   0.3200
   5.600   1.0441   0.00864   0.00336  -0.0797  0.3965  1.0000  -1.6925   0.0000   0.0000   0.0000   0.3190
   5.700   1.0547   0.00871   0.00343  -0.0796  0.3921  1.0000  -1.7195   0.0000   0.0000   0.0000   0.3181
   5.800   1.0650   0.00880   0.00349  -0.0795  0.3855  1.0000  -1.7462   0.0000   0.0000   0.0000   0.3172
   5.900   1.0747   0.00894   0.00374  -0.0794  0.3758  1.0000  -1.7714   0.0000   0.0000   0.0000   0.3162
   6.000   1.0839   0.00911   0.00385  -0.0791  0.3656  1.0000  -1.7967   0.0000   0.0000   0.0000   0.3152
   6.100   1.0931   0.00929   0.00397  -0.0789  0.3540  1.0000  -1.8260   0.0000   0.0000   0.0000   0.3143
   6.200   1.1034   0.00938   0.00406  -0.0788  0.3490  1.0000  -1.8589   0.0000   0.0000   0.0000   0.3134
   6.300   1.1137   0.00946   0.00414  -0.0787  0.3444  1.0000  -1.8920   0.0000   0.0000   0.0000   0.3126
   6.400   1.1237   0.00957   0.00423  -0.0786  0.3383  1.0000  -1.9248   0.0000   0.0000   0.0000   0.3117
   6.500   1.1334   0.00970   0.00433  -0.0785  0.3311  1.0000  -1.9570   0.0000   0.0000   0.0000   0.3108
   6.600   1.1425   0.00988   0.00446  -0.0782  0.3227  1.0000  -1.9885   0.0000   0.0000   0.0000   0.3099
   6.700   1.1514   0.01007   0.00460  -0.0780  0.3119  1.0000  -2.0196   0.0000   0.0000   0.0000   0.3090
   6.800   1.1612   0.01020   0.00471  -0.0778  0.3051  1.0000  -2.0524   0.0000   0.0000   0.0000   0.3082
   6.900   1.1712   0.01030   0.00480  -0.0777  0.3000  1.0000  -2.0859   0.0000   0.0000   0.0000   0.3074
   7.000   1.1808   0.01044   0.00491  -0.0775  0.2932  1.0000  -2.1188   0.0000   0.0000   0.0000   0.3066
   7.100   1.1898   0.01061   0.00504  -0.0773  0.2853  1.0000  -2.1509   0.0000   0.0000   0.0000   0.3058
   7.200   1.1985   0.01081   0.00520  -0.0770  0.2768  1.0000  -2.1825   0.0000   0.0000   0.0000   0.3049
   7.300   1.2073   0.01101   0.00534  -0.0768  0.2674  1.0000  -2.2151   0.0000   0.0000   0.0000   0.3041
   7.400   1.2170   0.01112   0.00546  -0.0766  0.2627  1.0000  -2.2569   0.0000   0.0000   0.0000   0.3033
   7.500   1.2270   0.01122   0.00557  -0.0765  0.2594  1.0000  -2.2995   0.0000   0.0000   0.0000   0.3026
   7.600   1.2366   0.01134   0.00569  -0.0763  0.2549  1.0000  -2.3417   0.0000   0.0000   0.0000   0.3018
   7.700   1.2458   0.01149   0.00581  -0.0761  0.2494  1.0000  -2.3833   0.0000   0.0000   0.0000   0.3011
   7.800   1.2546   0.01167   0.00596  -0.0759  0.2431  1.0000  -2.4241   0.0000   0.0000   0.0000   0.3003
   7.900   1.2630   0.01188   0.00613  -0.0755  0.2360  1.0000  -2.4642   0.0000   0.0000   0.0000   0.2995
   8.000   1.2713   0.01209   0.00630  -0.0752  0.2275  1.0000  -2.5451   0.0000   0.0000   0.0000   0.2987
   8.100   1.2806   0.01223   0.00644  -0.0750  0.2227  1.0000  -2.6434   0.0000   0.0000   0.0000   0.2980
   8.200   1.2902   0.01234   0.00656  -0.0748  0.2200  1.0000  -2.7453   0.0000   0.0000   0.0000   0.2973
   8.300   1.2995   0.01247   0.00669  -0.0746  0.2162  1.0000  -2.8468   0.0000   0.0000   0.0000   0.2965
   8.400   1.3083   0.01263   0.00684  -0.0744  0.2114  1.0000  -2.9473   0.0000   0.0000   0.0000   0.2958
   8.500   1.3165   0.01283   0.00700  -0.0740  0.2051  1.0000  -3.0455   0.0000   0.0000   0.0000   0.2951
   8.600   1.3238   0.01310   0.00721  -0.0736  0.1969  1.0000  -3.1403   0.0000   0.0000   0.0000   0.2943
   8.700   1.3311   0.01336   0.00743  -0.0731  0.1867  1.0000  -3.2355   0.0000   0.0000   0.0000   0.2934
   8.800   1.3401   0.01350   0.00756  -0.0729  0.1826  1.0000  -3.3417   0.0000   0.0000   0.0000   0.2928
   8.900   1.3480   0.01370   0.00773  -0.0725  0.1759  1.0000  -3.4437   0.0000   0.0000   0.0000   0.2920
   9.000   1.3544   0.01400   0.00794  -0.0720  0.1665  1.0000  -3.5383   0.0000   0.0000   0.0000   0.2912
   9.100   1.3601   0.01435   0.00821  -0.0713  0.1543  1.0000  -3.6293   0.0000   0.0000   0.0000   0.2903
   9.200   1.3679   0.01455   0.00839  -0.0709  0.1480  1.0000  -3.7328   0.0000   0.0000   0.0000   0.2896
   9.300   1.3751   0.01478   0.00858  -0.0705  0.1416  1.0000  -3.8344   0.0000   0.0000   0.0000   0.2888
   9.500   1.3840   0.01558   0.00927  -0.0689  0.1154  1.0000  -3.9901   0.0000   0.0000   0.0000   0.2871
   9.600   1.3905   0.01583   0.00949  -0.0683  0.1100  1.0000  -4.0857   0.0000   0.0000   0.0000   0.2863
   9.700   1.3956   0.01613   0.00974  -0.0675  0.1039  1.0000  -4.1752   0.0000   0.0000   0.0000   0.2854
   9.800   1.3997   0.01646   0.01000  -0.0666  0.0973  1.0000  -4.2595   0.0000   0.0000   0.0000   0.2844
   9.900   1.4047   0.01673   0.01024  -0.0658  0.0906  1.0000  -4.3498   0.0000   0.0000   0.0000   0.2835
  10.000   1.4106   0.01694   0.01046  -0.0651  0.0879  1.0000  -4.4461   0.0000   0.0000   0.0000   0.2827
  10.100   1.4156   0.01721   0.01071  -0.0643  0.0840  1.0000  -4.5375   0.0000   0.0000   0.0000   0.2818
  10.200   1.4194   0.01754   0.01101  -0.0634  0.0790  1.0000  -4.6218   0.0000   0.0000   0.0000   0.2809
  10.300   1.4219   0.01795   0.01136  -0.0623  0.0733  1.0000  -4.6982   0.0000   0.0000   0.0000   0.2799
  10.400   1.4256   0.01831   0.01167  -0.0614  0.0665  1.0000  -4.7803   0.0000   0.0000   0.0000   0.2790
  10.500   1.4307   0.01860   0.01195  -0.0607  0.0631  1.0000  -4.8696   0.0000   0.0000   0.0000   0.2782
  10.600   1.4342   0.01897   0.01230  -0.0599  0.0586  1.0000  -4.9473   0.0000   0.0000   0.0000   0.2773
  10.700   1.4364   0.01943   0.01272  -0.0589  0.0536  1.0000  -5.0129   0.0000   0.0000   0.0000   0.2764
  10.800   1.4372   0.02000   0.01322  -0.0578  0.0459  1.0000  -5.0644   0.0000   0.0000   0.0000   0.2754
  10.900   1.4347   0.02079   0.01390  -0.0564  0.0352  1.0000  -5.0968   0.0000   0.0000   0.0000   0.2744
  11.000   1.4306   0.02171   0.01473  -0.0549  0.0241  1.0000  -5.1194   0.0000   0.0000   0.0000   0.2733
  11.100   1.4239   0.02283   0.01573  -0.0532  0.0134  1.0000  -5.1310   0.0000   0.0000   0.0000   0.2721
  11.200   1.4223   0.02364   0.01652  -0.0521  0.0089  1.0000  -5.1647   0.0000   0.0000   0.0000   0.2712
  11.300   1.4248   0.02419   0.01708  -0.0513  0.0063  1.0000  -5.2187   0.0000   0.0000   0.0000   0.2704
  11.400   1.4289   0.02463   0.01756  -0.0508  0.0060  1.0000  -5.2867   0.0000   0.0000   0.0000   0.2697
  11.500   1.4328   0.02509   0.01805  -0.0502  0.0057  1.0000  -5.3562   0.0000   0.0000   0.0000   0.2691
  11.600   1.4364   0.02558   0.01858  -0.0497  0.0055  1.0000  -5.4257   0.0000   0.0000   0.0000   0.2684
  11.700   1.4401   0.02607   0.01911  -0.0491  0.0054  1.0000  -5.4969   0.0000   0.0000   0.0000   0.2678
  11.800   1.4440   0.02656   0.01963  -0.0486  0.0052  1.0000  -5.5699   0.0000   0.0000   0.0000   0.2672
  11.900   1.4479   0.02705   0.02016  -0.0481  0.0051  1.0000  -5.6440   0.0000   0.0000   0.0000   0.2665
  12.000   1.4518   0.02755   0.02071  -0.0477  0.0050  1.0000  -5.7187   0.0000   0.0000   0.0000   0.2659
  12.100   1.4554   0.02807   0.02127  -0.0472  0.0049  1.0000  -5.7925   0.0000   0.0000   0.0000   0.2653
  12.200   1.4584   0.02865   0.02189  -0.0467  0.0049  1.0000  -5.8629   0.0000   0.0000   0.0000   0.2648
  12.300   1.4612   0.02925   0.02253  -0.0462  0.0048  1.0000  -5.9327   0.0000   0.0000   0.0000   0.2642
  12.400   1.4642   0.02984   0.02317  -0.0458  0.0048  1.0000  -6.0034   0.0000   0.0000   0.0000   0.2636
  12.500   1.4670   0.03043   0.02381  -0.0453  0.0047  1.0000  -6.0736   0.0000   0.0000   0.0000   0.2630
  12.600   1.4698   0.03103   0.02446  -0.0448  0.0047  1.0000  -6.1435   0.0000   0.0000   0.0000   0.2625
  12.700   1.4725   0.03165   0.02513  -0.0444  0.0046  1.0000  -6.2129   0.0000   0.0000   0.0000   0.2619
  12.800   1.4743   0.03237   0.02589  -0.0439  0.0046  1.0000  -6.2771   0.0000   0.0000   0.0000   0.2614
  12.900   1.4756   0.03314   0.02672  -0.0435  0.0046  1.0000  -6.3379   0.0000   0.0000   0.0000   0.2609
  13.000   1.4772   0.03391   0.02754  -0.0431  0.0046  1.0000  -6.4004   0.0000   0.0000   0.0000   0.2603
  13.100   1.4790   0.03468   0.02836  -0.0427  0.0046  1.0000  -6.4634   0.0000   0.0000   0.0000   0.2598
  13.200   1.4806   0.03547   0.02920  -0.0423  0.0045  1.0000  -6.5258   0.0000   0.0000   0.0000   0.2594
  13.300   1.4821   0.03629   0.03007  -0.0420  0.0045  1.0000  -6.5870   0.0000   0.0000   0.0000   0.2589
  13.400   1.4829   0.03719   0.03102  -0.0416  0.0045  1.0000  -6.6436   0.0000   0.0000   0.0000   0.2584
  13.500   1.4827   0.03822   0.03210  -0.0413  0.0045  1.0000  -6.6932   0.0000   0.0000   0.0000   0.2580
  13.600   1.4827   0.03922   0.03316  -0.0410  0.0045  1.0000  -6.7447   0.0000   0.0000   0.0000   0.2576
  13.700   1.4831   0.04020   0.03419  -0.0408  0.0045  1.0000  -6.7976   0.0000   0.0000   0.0000   0.2572
  13.800   1.4834   0.04119   0.03524  -0.0405  0.0045  1.0000  -6.8499   0.0000   0.0000   0.0000   0.2568
  13.900   1.4834   0.04222   0.03632  -0.0402  0.0045  1.0000  -6.9006   0.0000   0.0000   0.0000   0.2564
  14.000   1.4827   0.04334   0.03750  -0.0400  0.0045  1.0000  -6.9458   0.0000   0.0000   0.0000   0.2561
  14.100   1.4807   0.04464   0.03886  -0.0399  0.0045  1.0000  -6.9825   0.0000   0.0000   0.0000   0.2558
  14.200   1.4794   0.04587   0.04015  -0.0398  0.0045  1.0000  -7.0236   0.0000   0.0000   0.0000   0.2555
  14.300   1.4784   0.04707   0.04140  -0.0396  0.0045  1.0000  -7.0663   0.0000   0.0000   0.0000   0.2553
  14.400   1.4774   0.04828   0.04267  -0.0395  0.0045  1.0000  -7.1086   0.0000   0.0000   0.0000   0.2550
  14.500   1.4762   0.04953   0.04398  -0.0394  0.0045  1.0000  -7.1490   0.0000   0.0000   0.0000   0.2547
  14.600   1.4747   0.05085   0.04541  -0.0395  0.0045  1.0000  -7.1967   0.0000   0.0000   0.0000   0.2546
  14.700   1.4715   0.05241   0.04704  -0.0396  0.0045  1.0000  -7.2249   0.0000   0.0000   0.0000   0.2545
  14.800   1.4690   0.05384   0.04853  -0.0396  0.0045  1.0000  -7.2566   0.0000   0.0000   0.0000   0.2543
  14.900   1.4667   0.05522   0.04997  -0.0396  0.0045  1.0000  -7.2890   0.0000   0.0000   0.0000   0.2542
  15.000   1.4643   0.05664   0.05144  -0.0397  0.0045  1.0000  -7.3206   0.0000   0.0000   0.0000   0.2540
  15.100   1.4618   0.05812   0.05298  -0.0398  0.0045  1.0000  -7.3502   0.0000   0.0000   0.0000   0.2539
  15.200   1.4576   0.05994   0.05487  -0.0401  0.0045  1.0000  -7.3671   0.0000   0.0000   0.0000   0.2540
  15.300   1.4538   0.06175   0.05674  -0.0404  0.0045  1.0000  -7.3947   0.0000   0.0000   0.0000   0.2541
  15.400   1.4508   0.06342   0.05847  -0.0407  0.0045  1.0000  -7.4323   0.0000   0.0000   0.0000   0.2541
  15.500   1.4482   0.06509   0.06020  -0.0410  0.0045  1.0000  -7.4721   0.0000   0.0000   0.0000   0.2541
  15.600   1.4455   0.06679   0.06196  -0.0413  0.0045  1.0000  -7.5111   0.0000   0.0000   0.0000   0.2542
  15.700   1.4423   0.06862   0.06385  -0.0417  0.0045  1.0000  -7.5444   0.0000   0.0000   0.0000   0.2543
  15.800   1.4370   0.07083   0.06613  -0.0424  0.0045  1.0000  -7.5584   0.0000   0.0000   0.0000   0.2546
  15.900   1.4333   0.07281   0.06816  -0.0429  0.0045  1.0000  -7.5868   0.0000   0.0000   0.0000   0.2549
  16.000   1.4303   0.07468   0.07009  -0.0434  0.0045  1.0000  -7.6204   0.0000   0.0000   0.0000   0.2550
  16.100   1.4272   0.07654   0.07201  -0.0439  0.0045  1.0000  -7.6541   0.0000   0.0000   0.0000   0.2552
  16.200   1.4240   0.07845   0.07398  -0.0445  0.0045  1.0000  -7.6857   0.0000   0.0000   0.0000   0.2555
  16.300   1.4195   0.08065   0.07624  -0.0452  0.0045  1.0000  -7.7032   0.0000   0.0000   0.0000   0.2559
  16.400   1.4144   0.08300   0.07865  -0.0461  0.0045  1.0000  -7.7145   0.0000   0.0000   0.0000   0.2564
  16.500   1.4108   0.08505   0.08076  -0.0468  0.0045  1.0000  -7.7395   0.0000   0.0000   0.0000   0.2567
  16.600   1.4075   0.08702   0.08279  -0.0475  0.0045  1.0000  -7.7679   0.0000   0.0000   0.0000   0.2570
  16.700   1.4042   0.08899   0.08481  -0.0481  0.0045  1.0000  -7.7960   0.0000   0.0000   0.0000   0.2574
  16.800   1.4009   0.09100   0.08687  -0.0489  0.0044  1.0000  -7.8228   0.0000   0.0000   0.0000   0.2578
  16.900   1.3956   0.09343   0.08937  -0.0499  0.0044  1.0000  -7.8278   0.0000   0.0000   0.0000   0.2584
  17.000   1.3907   0.09579   0.09179  -0.0509  0.0044  1.0000  -7.8355   0.0000   0.0000   0.0000   0.2591
  17.100   1.3870   0.09787   0.09392  -0.0518  0.0044  1.0000  -7.8562   0.0000   0.0000   0.0000   0.2596
  17.200   1.3837   0.09988   0.09598  -0.0526  0.0044  1.0000  -7.8799   0.0000   0.0000   0.0000   0.2600
  17.300   1.3805   0.10187   0.09802  -0.0534  0.0044  1.0000  -7.9049   0.0000   0.0000   0.0000   0.2605
  17.400   1.3772   0.10390   0.10010  -0.0543  0.0044  1.0000  -7.9273   0.0000   0.0000   0.0000   0.2610
  17.500   1.3720   0.10635   0.10261  -0.0555  0.0044  1.0000  -7.9264   0.0000   0.0000   0.0000   0.2618
  17.600   1.3669   0.10876   0.10509  -0.0567  0.0044  1.0000  -7.9259   0.0000   0.0000   0.0000   0.2626
  17.700   1.3632   0.11086   0.10724  -0.0577  0.0044  1.0000  -7.9411   0.0000   0.0000   0.0000   0.2633
  17.800   1.3601   0.11286   0.10929  -0.0587  0.0044  1.0000  -7.9617   0.0000   0.0000   0.0000   0.2639
  17.900   1.3571   0.11484   0.11132  -0.0597  0.0043  1.0000  -7.9828   0.0000   0.0000   0.0000   0.2645
  18.000   1.3539   0.11685   0.11338  -0.0607  0.0043  1.0000  -8.0011   0.0000   0.0000   0.0000   0.2651
  18.100   1.3499   0.11893   0.11551  -0.0619  0.0043  1.0000  -8.0080   0.0000   0.0000   0.0000   0.2659
  18.200   1.3438   0.12137   0.11801  -0.0634  0.0043  1.0000  -7.9877   0.0000   0.0000   0.0000   0.2670
  18.300   1.3399   0.12337   0.12006  -0.0645  0.0043  1.0000  -7.9929   0.0000   0.0000   0.0000   0.2678
  18.400   1.3368   0.12526   0.12199  -0.0657  0.0043  1.0000  -8.0074   0.0000   0.0000   0.0000   0.2685
  18.500   1.3339   0.12715   0.12393  -0.0668  0.0043  1.0000  -8.0229   0.0000   0.0000   0.0000   0.2692
  18.600   1.3309   0.12910   0.12593  -0.0679  0.0043  1.0000  -8.0365   0.0000   0.0000   0.0000   0.2700
  18.700   1.3276   0.13114   0.12802  -0.0691  0.0043  1.0000  -8.0456   0.0000   0.0000   0.0000   0.2708
  18.800   1.3226   0.13366   0.13060  -0.0706  0.0043  1.0000  -8.0286   0.0000   0.0000   0.0000   0.2720
  18.900   1.3174   0.13629   0.13328  -0.0722  0.0043  1.0000  -8.0079   0.0000   0.0000   0.0000   0.2732
  19.000   1.3139   0.13855   0.13559  -0.0735  0.0043  1.0000  -8.0099   0.0000   0.0000   0.0000   0.2741
  19.100   1.3109   0.14075   0.13783  -0.0748  0.0042  1.0000  -8.0161   0.0000   0.0000   0.0000   0.2750
  19.200   1.3079   0.14297   0.14010  -0.0761  0.0042  1.0000  -8.0214   0.0000   0.0000   0.0000   0.2759
  19.300   1.3047   0.14526   0.14244  -0.0774  0.0042  1.0000  -8.0229   0.0000   0.0000   0.0000   0.2769
  19.400   1.3011   0.14769   0.14492  -0.0788  0.0042  1.0000  -8.0175   0.0000   0.0000   0.0000   0.2779
  19.500   1.2952   0.15080   0.14809  -0.0806  0.0042  1.0000  -7.9757   0.0000   0.0000   0.0000   0.2794
  19.600   1.2902   0.15373   0.15107  -0.0823  0.0042  1.0000  -7.9457   0.0000   0.0000   0.0000   0.2808
  19.700   1.2865   0.15635   0.15373  -0.0838  0.0042  1.0000  -7.9334   0.0000   0.0000   0.0000   0.2820
  19.800   1.2831   0.15893   0.15636  -0.0853  0.0042  1.0000  -7.9234   0.0000   0.0000   0.0000   0.2831
  19.900   1.2796   0.16157   0.15905  -0.0868  0.0042  1.0000  -7.9101   0.0000   0.0000   0.0000   0.2842
  20.000   1.2756   0.16434   0.16187  -0.0883  0.0042  1.0000  -7.8898   0.0000   0.0000   0.0000   0.2854
  20.100   1.2713   0.16733   0.16491  -0.0900  0.0042  1.0000  -7.8596   0.0000   0.0000   0.0000   0.2868
  20.200   1.2638   0.17132   0.16896  -0.0922  0.0042  1.0000  -7.7769   0.0000   0.0000   0.0000   0.2889
  20.300   1.2590   0.17457   0.17226  -0.0939  0.0042  1.0000  -7.7344   0.0000   0.0000   0.0000   0.2904
  20.400   1.2547   0.17768   0.17541  -0.0956  0.0042  1.0000  -7.6996   0.0000   0.0000   0.0000   0.2918
  20.500   1.2504   0.18086   0.17864  -0.0973  0.0042  1.0000  -7.6613   0.0000   0.0000   0.0000   0.2932
  20.600   1.2457   0.18420   0.18203  -0.0990  0.0042  1.0000  -7.6154   0.0000   0.0000   0.0000   0.2948
  20.700   1.2399   0.18799   0.18588  -0.1010  0.0043  1.0000  -7.5468   0.0000   0.0000   0.0000   0.2966
  20.800   1.2312   0.19286   0.19079  -0.1034  0.0043  1.0000  -7.4229   0.0000   0.0000   0.0000   0.2991
  20.900   1.2256   0.19672   0.19471  -0.1053  0.0043  1.0000  -7.3515   0.0000   0.0000   0.0000   0.3009
  21.000   1.2202   0.20056   0.19859  -0.1072  0.0043  1.0000  -7.2820   0.0000   0.0000   0.0000   0.3027
  21.100   1.2145   0.20462   0.20270  -0.1091  0.0043  1.0000  -7.2021   0.0000   0.0000   0.0000   0.3046
  21.200   1.2067   0.20952   0.20765  -0.1114  0.0043  1.0000  -7.0786   0.0000   0.0000   0.0000   0.3070
  21.300   1.1957   0.21571   0.21389  -0.1141  0.0044  1.0000  -6.8873   0.0000   0.0000   0.0000   0.3102
  21.400   1.1885   0.22060   0.21883  -0.1162  0.0044  1.0000  -6.7643   0.0000   0.0000   0.0000   0.3126
  21.500   1.1806   0.22588   0.22415  -0.1184  0.0045  1.0000  -6.6214   0.0000   0.0000   0.0000   0.3151
  21.600   1.1624   0.23544   0.23378  -0.1221  0.0046  1.0000  -6.2469   0.0000   0.0000   0.0000   0.3201
  21.700   1.1487   0.24347   0.24186  -0.1250  0.0047  1.0000  -5.9522   0.0000   0.0000   0.0000   0.3241
  21.800   1.0899   0.27258   0.27098  -0.1328  0.0054  1.0000  -4.4663   0.0000   0.0000   0.0000   0.3392
  21.900   1.0763   0.28148   0.27987  -0.1348  0.0055  1.0000  -4.1000   0.0000   0.0000   0.0000   0.3429
  22.000   1.0673   0.28803   0.28641  -0.1362  0.0056  1.0000  -3.8654   0.0000   0.0000   0.0000   0.3455
  22.100   1.0610   0.29300   0.29139  -0.1372  0.0056  1.0000  -3.7193   0.0000   0.0000   0.0000   0.3473
  22.200   1.0558   0.29720   0.29559  -0.1381  0.0056  1.0000  -3.6139   0.0000   0.0000   0.0000   0.3487
  22.300   1.0511   0.30092   0.29932  -0.1389  0.0056  1.0000  -3.5295   0.0000   0.0000   0.0000   0.3500
  22.400   1.0463   0.30432   0.30272  -0.1395  0.0056  1.0000  -3.4563   0.0000   0.0000   0.0000   0.3512
  22.500   1.0410   0.30745   0.30585  -0.1401  0.0056  1.0000  -3.3871   0.0000   0.0000   0.0000   0.3524
  22.600   1.0345   0.31030   0.30871  -0.1405  0.0055  1.0000  -3.3147   0.0000   0.0000   0.0000   0.3536
  22.700   0.9664   0.30212   0.30061  -0.1351  0.0058  1.0000  -2.8943   0.0000   0.0000   0.0000   0.3590
  22.800   0.9569   0.30228   0.30079  -0.1349  0.0057  1.0000  -2.8257   0.0000   0.0000   0.0000   0.3602
  22.900   0.9490   0.30265   0.30117  -0.1349  0.0057  1.0000  -2.7625   0.0000   0.0000   0.0000   0.3614
  23.000   0.9414   0.30318   0.30171  -0.1349  0.0058  1.0000  -2.6902   0.0000   0.0000   0.0000   0.3626
  23.100   0.9346   0.30381   0.30235  -0.1349  0.0058  1.0000  -2.6193   0.0000   0.0000   0.0000   0.3637
  23.200   0.9286   0.30448   0.30303  -0.1350  0.0058  1.0000  -2.5562   0.0000   0.0000   0.0000   0.3648
  23.300   0.9233   0.30518   0.30373  -0.1352  0.0059  1.0000  -2.4999   0.0000   0.0000   0.0000   0.3658
  23.400   0.9187   0.30590   0.30446  -0.1353  0.0059  1.0000  -2.4502   0.0000   0.0000   0.0000   0.3667
  23.500   0.9147   0.30662   0.30519  -0.1355  0.0059  1.0000  -2.4069   0.0000   0.0000   0.0000   0.3675
  23.600   0.9112   0.30735   0.30592  -0.1358  0.0059  1.0000  -2.3698   0.0000   0.0000   0.0000   0.3683
  23.700   0.9081   0.30808   0.30666  -0.1360  0.0059  1.0000  -2.3378   0.0000   0.0000   0.0000   0.3690
  23.800   0.9054   0.30881   0.30740  -0.1363  0.0058  1.0000  -2.3090   0.0000   0.0000   0.0000   0.3696
  23.900   0.9030   0.30956   0.30815  -0.1365  0.0058  1.0000  -2.2819   0.0000   0.0000   0.0000   0.3703
  24.000   0.9008   0.31032   0.30892  -0.1368  0.0057  1.0000  -2.2541   0.0000   0.0000   0.0000   0.3709
  24.100   0.8986   0.31112   0.30972  -0.1371  0.0056  1.0000  -2.2221   0.0000   0.0000   0.0000   0.3715
  24.200   0.8965   0.31196   0.31057  -0.1374  0.0055  1.0000  -2.1821   0.0000   0.0000   0.0000   0.3721
  24.300   0.8941   0.31285   0.31147  -0.1377  0.0054  1.0000  -2.1307   0.0000   0.0000   0.0000   0.3727
  24.400   0.8916   0.31379   0.31241  -0.1379  0.0053  1.0000  -2.0684   0.0000   0.0000   0.0000   0.3734
  24.500   0.8890   0.31475   0.31337  -0.1382  0.0053  1.0000  -2.0011   0.0000   0.0000   0.0000   0.3741
  24.600   0.8862   0.31568   0.31431  -0.1384  0.0053  1.0000  -1.9324   0.0000   0.0000   0.0000   0.3748
  24.700   0.8829   0.31661   0.31524  -0.1387  0.0056  1.0000  -1.8551   0.0000   0.0000   0.0000   0.3756
  24.800   0.8724   0.31779   0.31642  -0.1382  0.0063  1.0000  -1.6171   0.0000   0.0000   0.0000   0.3772
  24.900   0.8709   0.31861   0.31724  -0.1385  0.0063  1.0000  -1.5874   0.0000   0.0000   0.0000   0.3777
  25.000   0.8695   0.31942   0.31805  -0.1387  0.0063  1.0000  -1.5604   0.0000   0.0000   0.0000   0.3781
  25.100   0.8682   0.32023   0.31887  -0.1390  0.0063  1.0000  -1.5354   0.0000   0.0000   0.0000   0.3786
  25.200   0.8669   0.32104   0.31968  -0.1394  0.0063  1.0000  -1.5121   0.0000   0.0000   0.0000   0.3791
  25.300   0.8658   0.32185   0.32050  -0.1397  0.0063  1.0000  -1.4903   0.0000   0.0000   0.0000   0.3795
  25.400   0.8647   0.32266   0.32131  -0.1400  0.0063  1.0000  -1.4697   0.0000   0.0000   0.0000   0.3800
  25.500   0.8637   0.32347   0.32212  -0.1403  0.0063  1.0000  -1.4501   0.0000   0.0000   0.0000   0.3804
  25.600   0.8627   0.32428   0.32294  -0.1406  0.0063  1.0000  -1.4316   0.0000   0.0000   0.0000   0.3808
  25.700   0.8618   0.32509   0.32375  -0.1410  0.0063  1.0000  -1.4139   0.0000   0.0000   0.0000   0.3813
  25.800   0.8609   0.32590   0.32456  -0.1413  0.0063  1.0000  -1.3970   0.0000   0.0000   0.0000   0.3817
  25.900   0.8601   0.32670   0.32537  -0.1417  0.0063  1.0000  -1.3808   0.0000   0.0000   0.0000   0.3821
  26.000   0.8593   0.32751   0.32619  -0.1420  0.0063  1.0000  -1.3652   0.0000   0.0000   0.0000   0.3825
  26.100   0.8586   0.32832   0.32700  -0.1424  0.0063  1.0000  -1.3502   0.0000   0.0000   0.0000   0.3829
  26.200   0.8579   0.32913   0.32782  -0.1427  0.0063  1.0000  -1.3357   0.0000   0.0000   0.0000   0.3833
  26.300   0.8572   0.32994   0.32863  -0.1431  0.0063  1.0000  -1.3218   0.0000   0.0000   0.0000   0.3837
  26.400   0.8565   0.33075   0.32944  -0.1434  0.0063  1.0000  -1.3084   0.0000   0.0000   0.0000   0.3841
  26.500   0.8559   0.33156   0.33026  -0.1438  0.0063  1.0000  -1.2955   0.0000   0.0000   0.0000   0.3845
  26.600   0.8553   0.33237   0.33107  -0.1441  0.0063  1.0000  -1.2830   0.0000   0.0000   0.0000   0.3848
  26.700   0.8548   0.33318   0.33188  -0.1445  0.0063  1.0000  -1.2710   0.0000   0.0000   0.0000   0.3852
  26.800   0.8542   0.33399   0.33269  -0.1449  0.0063  1.0000  -1.2593   0.0000   0.0000   0.0000   0.3856
  26.900   0.8538   0.33479   0.33354  -0.1452  0.0063  1.0000  -1.2468   0.0000   0.0000   0.0000   0.3859


