xflr5 v6.61

 Calculated polar for: S5010

 1 1 Reynolds number fixed          Mach number fixed         

 xtrf =   1.000 (top)        1.000 (bottom)
 Mach =   0.000     Re =     0.500 e 6     Ncrit =   9.000

  alpha     CL        CD       CDp       Cm    Top Xtr Bot Xtr   Cpmin    Chinge    XCp    
 ------- -------- --------- --------- -------- ------- ------- -------- --------- ---------
 -10.000  -0.5372   0.12468   0.12253   0.0333  1.0000  0.0144  -1.7268   0.0000   0.0000   0.0000   0.3068
  -9.900  -0.5354   0.12305   0.12091   0.0325  1.0000  0.0144  -1.7361   0.0000   0.0000   0.0000   0.3057
  -9.800  -0.5337   0.12142   0.11928   0.0318  1.0000  0.0144  -1.7457   0.0000   0.0000   0.0000   0.3045
  -9.700  -0.5319   0.11978   0.11764   0.0310  1.0000  0.0144  -1.7555   0.0000   0.0000   0.0000   0.3033
  -9.600  -0.5300   0.11810   0.11597   0.0302  1.0000  0.0144  -1.7655   0.0000   0.0000   0.0000   0.3021
  -9.500  -0.5281   0.11641   0.11429   0.0294  1.0000  0.0145  -1.7757   0.0000   0.0000   0.0000   0.3008
  -9.400  -0.5263   0.11472   0.11261   0.0286  1.0000  0.0145  -1.7863   0.0000   0.0000   0.0000   0.2995
  -9.300  -0.5245   0.11302   0.11091   0.0277  1.0000  0.0145  -1.7972   0.0000   0.0000   0.0000   0.2981
  -9.200  -0.5227   0.11131   0.10922   0.0269  1.0000  0.0145  -1.8085   0.0000   0.0000   0.0000   0.2967
  -9.100  -0.5210   0.10960   0.10752   0.0260  1.0000  0.0145  -1.8202   0.0000   0.0000   0.0000   0.2953
  -9.000  -0.5193   0.10789   0.10581   0.0251  1.0000  0.0145  -1.8324   0.0000   0.0000   0.0000   0.2938
  -8.900  -0.5177   0.10617   0.10410   0.0242  1.0000  0.0145  -1.8449   0.0000   0.0000   0.0000   0.2923
  -8.800  -0.5162   0.10445   0.10239   0.0233  1.0000  0.0145  -1.8580   0.0000   0.0000   0.0000   0.2907
  -8.700  -0.5147   0.10272   0.10068   0.0224  1.0000  0.0145  -1.8716   0.0000   0.0000   0.0000   0.2891
  -8.600  -0.5134   0.10100   0.09896   0.0215  1.0000  0.0145  -1.8857   0.0000   0.0000   0.0000   0.2874
  -8.500  -0.5121   0.09927   0.09724   0.0205  1.0000  0.0145  -1.9004   0.0000   0.0000   0.0000   0.2857
  -8.400  -0.5110   0.09754   0.09552   0.0195  1.0000  0.0145  -1.9158   0.0000   0.0000   0.0000   0.2839
  -8.300  -0.5099   0.09579   0.09379   0.0185  1.0000  0.0145  -1.9319   0.0000   0.0000   0.0000   0.2820
  -8.200  -0.5086   0.09400   0.09201   0.0174  1.0000  0.0145  -1.9486   0.0000   0.0000   0.0000   0.2799
  -6.800  -0.5064   0.06760   0.06508  -0.0013  0.8038  0.0144  -2.3160   0.0000   0.0000   0.0000   0.2440
  -6.700  -0.5041   0.06548   0.06292  -0.0024  0.8008  0.0144  -2.3439   0.0000   0.0000   0.0000   0.2418
  -6.600  -0.5015   0.06339   0.06078  -0.0033  0.7973  0.0144  -2.3704   0.0000   0.0000   0.0000   0.2400
  -6.500  -0.4987   0.06132   0.05865  -0.0042  0.7937  0.0144  -2.3957   0.0000   0.0000   0.0000   0.2383
  -6.400  -0.4957   0.05928   0.05655  -0.0049  0.7899  0.0144  -2.4197   0.0000   0.0000   0.0000   0.2368
  -6.300  -0.4925   0.05725   0.05444  -0.0054  0.7861  0.0144  -2.4428   0.0000   0.0000   0.0000   0.2356
  -6.200  -0.4890   0.05523   0.05234  -0.0059  0.7822  0.0144  -2.4650   0.0000   0.0000   0.0000   0.2345
  -6.100  -0.4853   0.05320   0.05023  -0.0063  0.7783  0.0144  -2.4871   0.0000   0.0000   0.0000   0.2336
  -6.000  -0.4814   0.05115   0.04808  -0.0067  0.7743  0.0144  -2.5107   0.0000   0.0000   0.0000   0.2328
  -5.900  -0.4775   0.04900   0.04584  -0.0070  0.7702  0.0143  -2.5389   0.0000   0.0000   0.0000   0.2321
  -5.700  -0.4853   0.03872   0.03507  -0.0080  0.7630  0.0126  -2.9842   0.0000   0.0000   0.0000   0.2299
  -5.600  -0.4818   0.03548   0.03160  -0.0079  0.7601  0.0119  -3.1101   0.0000   0.0000   0.0000   0.2300
  -5.500  -0.4767   0.03265   0.02854  -0.0076  0.7586  0.0112  -3.2160   0.0000   0.0000   0.0000   0.2305
  -5.400  -0.4706   0.02997   0.02563  -0.0071  0.7568  0.0107  -3.3207   0.0000   0.0000   0.0000   0.2312
  -5.300  -0.4639   0.02748   0.02288  -0.0065  0.7547  0.0102  -3.4196   0.0000   0.0000   0.0000   0.2322
  -5.200  -0.4564   0.02514   0.02029  -0.0059  0.7524  0.0097  -3.5132   0.0000   0.0000   0.0000   0.2333
  -5.100  -0.4484   0.02303   0.01793  -0.0052  0.7499  0.0094  -3.5906   0.0000   0.0000   0.0000   0.2345
  -5.000  -0.4397   0.02124   0.01590  -0.0046  0.7471  0.0092  -3.6408   0.0000   0.0000   0.0000   0.2357
  -4.900  -0.4305   0.01974   0.01418  -0.0040  0.7439  0.0091  -3.6635   0.0000   0.0000   0.0000   0.2368
  -4.800  -0.4209   0.01849   0.01274  -0.0035  0.7405  0.0090  -3.6594   0.0000   0.0000   0.0000   0.2378
  -4.700  -0.4110   0.01746   0.01156  -0.0030  0.7369  0.0091  -3.6316   0.0000   0.0000   0.0000   0.2387
  -4.600  -0.4009   0.01661   0.01056  -0.0026  0.7331  0.0092  -3.5843   0.0000   0.0000   0.0000   0.2396
  -4.500  -0.3908   0.01590   0.00974  -0.0022  0.7291  0.0095  -3.5205   0.0000   0.0000   0.0000   0.2404
  -4.400  -0.3805   0.01533   0.00906  -0.0019  0.7246  0.0098  -3.4445   0.0000   0.0000   0.0000   0.2411
  -4.300  -0.3701   0.01487   0.00851  -0.0016  0.7196  0.0102  -3.3676   0.0000   0.0000   0.0000   0.2418
  -4.200  -0.3598   0.01442   0.00789  -0.0014  0.7142  0.0098  -3.3492   0.0000   0.0000   0.0000   0.2423
  -4.100  -0.3490   0.01405   0.00747  -0.0011  0.7120  0.0104  -3.2533   0.0000   0.0000   0.0000   0.2428
  -4.000  -0.3382   0.01376   0.00716  -0.0010  0.7105  0.0110  -3.1494   0.0000   0.0000   0.0000   0.2432
  -3.900  -0.3272   0.01358   0.00696  -0.0009  0.7086  0.0116  -3.0398   0.0000   0.0000   0.0000   0.2434
  -3.800  -0.3162   0.01347   0.00685  -0.0008  0.7064  0.0121  -2.9259   0.0000   0.0000   0.0000   0.2435
  -3.700  -0.3050   0.01343   0.00681  -0.0008  0.7039  0.0127  -2.8078   0.0000   0.0000   0.0000   0.2435
  -3.600  -0.2937   0.01345   0.00685  -0.0008  0.7012  0.0132  -2.6852   0.0000   0.0000   0.0000   0.2434
  -3.500  -0.2824   0.01355   0.00696  -0.0009  0.6983  0.0136  -2.5583   0.0000   0.0000   0.0000   0.2432
  -3.400  -0.2710   0.01372   0.00715  -0.0009  0.6951  0.0139  -2.4274   0.0000   0.0000   0.0000   0.2428
  -3.300  -0.2595   0.01400   0.00745  -0.0010  0.6916  0.0143  -2.2902   0.0000   0.0000   0.0000   0.2424
  -3.200  -0.2477   0.01457   0.00805  -0.0012  0.6877  0.0145  -2.1309   0.0000   0.0000   0.0000   0.2416
  -3.100  -0.2386   0.01329   0.00665  -0.0007  0.6844  0.0154  -2.1504   0.0000   0.0000   0.0000   0.2435
  -3.000  -0.2288   0.01264   0.00591  -0.0003  0.6805  0.0162  -2.1272   0.0000   0.0000   0.0000   0.2449
  -2.900  -0.2186   0.01223   0.00543  -0.0000  0.6761  0.0169  -2.0864   0.0000   0.0000   0.0000   0.2460
  -2.800  -0.2082   0.01194   0.00509   0.0002  0.6709  0.0176  -2.0379   0.0000   0.0000   0.0000   0.2471
  -2.700  -0.1976   0.01172   0.00482   0.0004  0.6651  0.0182  -1.9853   0.0000   0.0000   0.0000   0.2479
  -2.600  -0.1869   0.01150   0.00458   0.0005  0.6628  0.0187  -1.9304   0.0000   0.0000   0.0000   0.2488
  -2.500  -0.1760   0.01129   0.00435   0.0006  0.6614  0.0192  -1.8747   0.0000   0.0000   0.0000   0.2496
  -2.400  -0.1651   0.01109   0.00415   0.0008  0.6597  0.0197  -1.8191   0.0000   0.0000   0.0000   0.2506
  -2.300  -0.1541   0.01092   0.00396   0.0009  0.6577  0.0202  -1.7640   0.0000   0.0000   0.0000   0.2516
  -2.200  -0.1431   0.01075   0.00377   0.0010  0.6555  0.0207  -1.7098   0.0000   0.0000   0.0000   0.2527
  -2.100  -0.1321   0.01062   0.00364   0.0011  0.6530  0.0217  -1.6463   0.0000   0.0000   0.0000   0.2538
  -2.000  -0.1210   0.01054   0.00357   0.0011  0.6502  0.0234  -1.5688   0.0000   0.0000   0.0000   0.2545
  -1.900  -0.1099   0.01048   0.00353   0.0011  0.6473  0.0253  -1.4927   0.0000   0.0000   0.0000   0.2554
  -1.800  -0.0989   0.01041   0.00345   0.0011  0.6441  0.0270  -1.4252   0.0000   0.0000   0.0000   0.2569
  -1.700  -0.0879   0.01030   0.00331   0.0012  0.6406  0.0279  -1.3694   0.0000   0.0000   0.0000   0.2593
  -1.600  -0.0769   0.01015   0.00310   0.0014  0.6370  0.0282  -1.3274   0.0000   0.0000   0.0000   0.2632
  -1.500  -0.0659   0.01000   0.00288   0.0016  0.6330  0.0283  -1.2914   0.0000   0.0000   0.0000   0.2687
  -1.400  -0.0549   0.00988   0.00267   0.0018  0.6286  0.0284  -1.2537   0.0000   0.0000   0.0000   0.2762
  -1.300  -0.0438   0.00980   0.00250   0.0019  0.6235  0.0285  -1.2107   0.0000   0.0000   0.0000   0.2870
  -1.200  -0.0326   0.00980   0.00235   0.0020  0.6177  0.0270  -1.1259   0.0000   0.0000   0.0000   0.3028
  -1.100  -0.0213   0.00974   0.00224   0.0021  0.6132  0.0275  -1.0882   0.0000   0.0000   0.0000   0.3364
  -1.000  -0.0100   0.00965   0.00212   0.0022  0.6120  0.0286  -1.0533   0.0000   0.0000   0.0000   0.4472
  -0.900   0.0002   0.00919   0.00192   0.0024  0.6105  0.1064  -1.0601   0.0000   0.0000   0.0000  -12.7536
  -0.800   0.0075   0.00828   0.00181   0.0026  0.6088  0.3163  -1.0300   0.0000   0.0000   0.0000  -0.0775
  -0.700   0.0169   0.00790   0.00177   0.0028  0.6068  0.4082  -0.9795   0.0000   0.0000   0.0000   0.0914
  -0.600   0.0268   0.00765   0.00174   0.0030  0.6042  0.4723  -0.9258   0.0000   0.0000   0.0000   0.1419
  -0.500   0.0364   0.00740   0.00172   0.0033  0.6014  0.5356  -0.8724   0.0000   0.0000   0.0000   0.1622
  -0.400   0.0457   0.00716   0.00170   0.0036  0.5981  0.5976  -0.8198   0.0000   0.0000   0.0000   0.1714
  -0.300   0.0548   0.00693   0.00168   0.0041  0.5945  0.6605  -0.7682   0.0000   0.0000   0.0000   0.1749
  -0.200   0.0634   0.00671   0.00167   0.0047  0.5908  0.7260  -0.7180   0.0000   0.0000   0.0000   0.1746
  -0.100   0.0714   0.00648   0.00167   0.0056  0.5870  0.7911  -0.6695   0.0000   0.0000   0.0000   0.1706
   0.000   0.0803   0.00631   0.00168   0.0064  0.5831  0.8535  -0.6193   0.0000   0.0000   0.0000   0.1694
   0.100   0.0956   0.00624   0.00172   0.0059  0.5787  0.9098  -0.5542   0.0000   0.0000   0.0000   0.1871
   0.200   0.1201   0.00628   0.00176   0.0033  0.5730  0.9468  -0.5577   0.0000   0.0000   0.0000   0.2214
   0.300   0.1401   0.00636   0.00179   0.0015  0.5667  0.9658  -0.5743   0.0000   0.0000   0.0000   0.2379
   0.400   0.1579   0.00642   0.00181   0.0002  0.5624  0.9769  -0.5895   0.0000   0.0000   0.0000   0.2472
   0.600   0.2060   0.00642   0.00179  -0.0052  0.5578  0.9956  -0.6284   0.0000   0.0000   0.0000   0.2733
   0.700   0.2280   0.00640   0.00175  -0.0075  0.5544  1.0000  -0.6491   0.0000   0.0000   0.0000   0.2810
   0.800   0.2385   0.00640   0.00173  -0.0074  0.5510  1.0000  -0.6619   0.0000   0.0000   0.0000   0.2789
   0.900   0.2490   0.00641   0.00171  -0.0072  0.5475  1.0000  -0.6748   0.0000   0.0000   0.0000   0.2769
   1.000   0.2596   0.00642   0.00170  -0.0071  0.5439  1.0000  -0.6877   0.0000   0.0000   0.0000   0.2752
   1.100   0.2701   0.00644   0.00169  -0.0070  0.5402  1.0000  -0.7007   0.0000   0.0000   0.0000   0.2735
   1.200   0.2806   0.00646   0.00167  -0.0068  0.5363  1.0000  -0.7137   0.0000   0.0000   0.0000   0.2720
   1.300   0.2912   0.00649   0.00166  -0.0067  0.5320  1.0000  -0.7267   0.0000   0.0000   0.0000   0.2706
   1.400   0.3017   0.00652   0.00165  -0.0066  0.5269  1.0000  -0.7398   0.0000   0.0000   0.0000   0.2693
   1.500   0.3122   0.00657   0.00166  -0.0065  0.5207  1.0000  -0.7528   0.0000   0.0000   0.0000   0.2681
   1.600   0.3228   0.00663   0.00167  -0.0063  0.5137  1.0000  -0.7659   0.0000   0.0000   0.0000   0.2670
   1.700   0.3334   0.00664   0.00168  -0.0062  0.5112  1.0000  -0.7792   0.0000   0.0000   0.0000   0.2660
   1.800   0.3441   0.00664   0.00168  -0.0061  0.5092  1.0000  -0.7941   0.0000   0.0000   0.0000   0.2650
   1.900   0.3548   0.00665   0.00169  -0.0060  0.5066  1.0000  -0.8098   0.0000   0.0000   0.0000   0.2641
   2.000   0.3655   0.00666   0.00169  -0.0059  0.5037  1.0000  -0.8255   0.0000   0.0000   0.0000   0.2632
   2.100   0.3761   0.00668   0.00174  -0.0058  0.5005  1.0000  -0.8412   0.0000   0.0000   0.0000   0.2624
   2.200   0.3868   0.00670   0.00174  -0.0057  0.4968  1.0000  -0.8570   0.0000   0.0000   0.0000   0.2616
   2.300   0.3974   0.00673   0.00175  -0.0056  0.4929  1.0000  -0.8728   0.0000   0.0000   0.0000   0.2609
   2.400   0.4081   0.00676   0.00175  -0.0054  0.4886  1.0000  -0.8887   0.0000   0.0000   0.0000   0.2602
   2.500   0.4187   0.00680   0.00176  -0.0053  0.4840  1.0000  -0.9046   0.0000   0.0000   0.0000   0.2595
   2.600   0.4293   0.00685   0.00177  -0.0052  0.4786  1.0000  -0.9223   0.0000   0.0000   0.0000   0.2589
   2.700   0.4398   0.00691   0.00179  -0.0051  0.4719  1.0000  -0.9411   0.0000   0.0000   0.0000   0.2583
   2.800   0.4504   0.00699   0.00182  -0.0050  0.4642  1.0000  -0.9598   0.0000   0.0000   0.0000   0.2577
   2.900   0.4611   0.00701   0.00184  -0.0049  0.4612  1.0000  -0.9788   0.0000   0.0000   0.0000   0.2572
   3.000   0.4718   0.00702   0.00186  -0.0048  0.4587  1.0000  -0.9981   0.0000   0.0000   0.0000   0.2567
   3.100   0.4826   0.00704   0.00188  -0.0047  0.4556  1.0000  -1.0173   0.0000   0.0000   0.0000   0.2562
   3.200   0.4933   0.00707   0.00190  -0.0047  0.4520  1.0000  -1.0367   0.0000   0.0000   0.0000   0.2557
   3.300   0.5040   0.00710   0.00192  -0.0046  0.4479  1.0000  -1.0560   0.0000   0.0000   0.0000   0.2553
   3.400   0.5146   0.00714   0.00194  -0.0045  0.4433  1.0000  -1.0755   0.0000   0.0000   0.0000   0.2548
   3.500   0.5252   0.00719   0.00196  -0.0044  0.4379  1.0000  -1.0950   0.0000   0.0000   0.0000   0.2544
   3.600   0.5358   0.00725   0.00198  -0.0043  0.4316  1.0000  -1.1145   0.0000   0.0000   0.0000   0.2540
   3.700   0.5463   0.00733   0.00202  -0.0042  0.4238  1.0000  -1.1341   0.0000   0.0000   0.0000   0.2536
   3.800   0.5568   0.00743   0.00207  -0.0041  0.4147  1.0000  -1.1559   0.0000   0.0000   0.0000   0.2532
   3.900   0.5676   0.00746   0.00210  -0.0040  0.4116  1.0000  -1.1799   0.0000   0.0000   0.0000   0.2528
   4.000   0.5783   0.00748   0.00214  -0.0039  0.4087  1.0000  -1.2041   0.0000   0.0000   0.0000   0.2525
   4.100   0.5890   0.00752   0.00217  -0.0039  0.4051  1.0000  -1.2283   0.0000   0.0000   0.0000   0.2521
   4.200   0.5997   0.00756   0.00221  -0.0038  0.4006  1.0000  -1.2526   0.0000   0.0000   0.0000   0.2518
   4.300   0.6103   0.00762   0.00225  -0.0037  0.3954  1.0000  -1.2769   0.0000   0.0000   0.0000   0.2515
   4.400   0.6209   0.00768   0.00229  -0.0036  0.3896  1.0000  -1.3013   0.0000   0.0000   0.0000   0.2511
   4.500   0.6315   0.00776   0.00233  -0.0035  0.3831  1.0000  -1.3257   0.0000   0.0000   0.0000   0.2508
   4.600   0.6420   0.00786   0.00239  -0.0035  0.3754  1.0000  -1.3501   0.0000   0.0000   0.0000   0.2505
   4.700   0.6524   0.00797   0.00246  -0.0034  0.3662  1.0000  -1.3744   0.0000   0.0000   0.0000   0.2503
   4.800   0.6631   0.00801   0.00251  -0.0033  0.3633  1.0000  -1.4017   0.0000   0.0000   0.0000   0.2500
   4.900   0.6738   0.00805   0.00256  -0.0032  0.3593  1.0000  -1.4320   0.0000   0.0000   0.0000   0.2497
   5.000   0.6844   0.00811   0.00261  -0.0032  0.3535  1.0000  -1.4624   0.0000   0.0000   0.0000   0.2494
   5.100   0.6949   0.00819   0.00266  -0.0031  0.3467  1.0000  -1.4929   0.0000   0.0000   0.0000   0.2491
   5.200   0.7054   0.00829   0.00272  -0.0030  0.3393  1.0000  -1.5234   0.0000   0.0000   0.0000   0.2489
   5.300   0.7157   0.00840   0.00279  -0.0029  0.3313  1.0000  -1.5539   0.0000   0.0000   0.0000   0.2486
   5.400   0.7261   0.00853   0.00288  -0.0029  0.3220  1.0000  -1.5844   0.0000   0.0000   0.0000   0.2484
   5.500   0.7367   0.00859   0.00295  -0.0028  0.3179  1.0000  -1.6157   0.0000   0.0000   0.0000   0.2481
   5.600   0.7473   0.00865   0.00302  -0.0027  0.3144  1.0000  -1.6489   0.0000   0.0000   0.0000   0.2479
   5.700   0.7580   0.00870   0.00323  -0.0027  0.3106  1.0000  -1.6916   0.0000   0.0000   0.0000   0.2476
   5.800   0.7676   0.00895   0.00329  -0.0026  0.2858  1.0000  -1.7291   0.0000   0.0000   0.0000   0.2474
   5.900   0.7766   0.00934   0.00341  -0.0026  0.2457  1.0000  -1.7659   0.0000   0.0000   0.0000   0.2473
   6.000   0.7858   0.00969   0.00357  -0.0026  0.2135  1.0000  -1.8030   0.0000   0.0000   0.0000   0.2471
   6.100   0.7953   0.00996   0.00371  -0.0026  0.1938  1.0000  -1.8409   0.0000   0.0000   0.0000   0.2469
   6.200   0.8055   0.01010   0.00381  -0.0025  0.1854  1.0000  -1.8804   0.0000   0.0000   0.0000   0.2467
   6.300   0.8154   0.01030   0.00394  -0.0025  0.1740  1.0000  -1.9195   0.0000   0.0000   0.0000   0.2465
   6.400   0.8252   0.01053   0.00407  -0.0024  0.1618  1.0000  -1.9584   0.0000   0.0000   0.0000   0.2463
   6.500   0.8354   0.01065   0.00418  -0.0023  0.1551  1.0000  -1.9987   0.0000   0.0000   0.0000   0.2461
   6.600   0.8456   0.01079   0.00429  -0.0023  0.1483  1.0000  -2.0390   0.0000   0.0000   0.0000   0.2458
   6.700   0.8554   0.01099   0.00443  -0.0022  0.1394  1.0000  -2.0789   0.0000   0.0000   0.0000   0.2456
   6.800   0.8651   0.01123   0.00459  -0.0022  0.1291  1.0000  -2.1184   0.0000   0.0000   0.0000   0.2454
   6.900   0.8752   0.01137   0.00470  -0.0021  0.1228  1.0000  -2.1592   0.0000   0.0000   0.0000   0.2452
   7.000   0.8853   0.01152   0.00483  -0.0020  0.1167  1.0000  -2.2295   0.0000   0.0000   0.0000   0.2450
   7.100   0.8950   0.01173   0.00498  -0.0020  0.1087  1.0000  -2.3065   0.0000   0.0000   0.0000   0.2448
   7.200   0.9045   0.01199   0.00516  -0.0019  0.0990  1.0000  -2.3832   0.0000   0.0000   0.0000   0.2446
   7.300   0.9144   0.01217   0.00531  -0.0018  0.0922  1.0000  -2.4633   0.0000   0.0000   0.0000   0.2444
   7.400   0.9239   0.01242   0.00549  -0.0018  0.0824  1.0000  -2.5426   0.0000   0.0000   0.0000   0.2442
   7.500   0.9328   0.01276   0.00572  -0.0017  0.0697  1.0000  -2.6208   0.0000   0.0000   0.0000   0.2439
   7.600   0.9421   0.01303   0.00593  -0.0016  0.0606  1.0000  -2.7022   0.0000   0.0000   0.0000   0.2437
   7.700   0.9508   0.01341   0.00620  -0.0015  0.0486  1.0000  -2.7816   0.0000   0.0000   0.0000   0.2435
   7.800   0.9603   0.01364   0.00639  -0.0014  0.0421  1.0000  -2.8667   0.0000   0.0000   0.0000   0.2433
   7.900   0.9687   0.01405   0.00671  -0.0013  0.0314  1.0000  -2.9478   0.0000   0.0000   0.0000   0.2430
   8.000   0.9780   0.01430   0.00692  -0.0012  0.0257  1.0000  -3.0358   0.0000   0.0000   0.0000   0.2428
   8.100   0.9841   0.01508   0.00754  -0.0010  0.0072  1.0000  -3.1072   0.0000   0.0000   0.0000   0.2424
   8.200   0.9938   0.01526   0.00772  -0.0009  0.0068  1.0000  -3.2024   0.0000   0.0000   0.0000   0.2421
   8.300   1.0034   0.01544   0.00790  -0.0008  0.0065  1.0000  -3.3007   0.0000   0.0000   0.0000   0.2419
   8.400   1.0130   0.01563   0.00808  -0.0007  0.0061  1.0000  -3.4021   0.0000   0.0000   0.0000   0.2417
   8.500   1.0225   0.01582   0.00828  -0.0006  0.0057  1.0000  -3.5069   0.0000   0.0000   0.0000   0.2414
   8.600   1.0320   0.01602   0.00848  -0.0004  0.0054  1.0000  -3.6153   0.0000   0.0000   0.0000   0.2412
   8.700   1.0414   0.01622   0.00869  -0.0003  0.0051  1.0000  -3.7267   0.0000   0.0000   0.0000   0.2409
   8.800   1.0508   0.01643   0.00891  -0.0002  0.0048  1.0000  -3.8404   0.0000   0.0000   0.0000   0.2407
   8.900   1.0601   0.01663   0.00913  -0.0001  0.0046  1.0000  -3.9559   0.0000   0.0000   0.0000   0.2404
   9.000   1.0694   0.01684   0.00937   0.0001  0.0044  1.0000  -4.0728   0.0000   0.0000   0.0000   0.2401
   9.100   1.0793   0.01691   0.00960   0.0001  0.0053  1.0000  -4.0727   0.0000   0.0000   0.0000   0.2400
   9.200   1.0888   0.01708   0.00980   0.0002  0.0054  1.0000  -4.1582   0.0000   0.0000   0.0000   0.2397
   9.300   1.0979   0.01730   0.01005   0.0003  0.0052  1.0000  -4.2723   0.0000   0.0000   0.0000   0.2395
   9.400   1.1069   0.01754   0.01031   0.0005  0.0049  1.0000  -4.3952   0.0000   0.0000   0.0000   0.2392
   9.500   1.1158   0.01778   0.01059   0.0006  0.0047  1.0000  -4.5224   0.0000   0.0000   0.0000   0.2389
   9.600   1.1246   0.01802   0.01087   0.0008  0.0045  1.0000  -4.6511   0.0000   0.0000   0.0000   0.2386
   9.700   1.1334   0.01827   0.01117   0.0010  0.0043  1.0000  -4.7797   0.0000   0.0000   0.0000   0.2383
   9.800   1.1421   0.01853   0.01147   0.0012  0.0042  1.0000  -4.9075   0.0000   0.0000   0.0000   0.2380
   9.900   1.1506   0.01880   0.01181   0.0014  0.0041  1.0000  -5.0337   0.0000   0.0000   0.0000   0.2377
  10.000   1.1589   0.01909   0.01215   0.0016  0.0040  1.0000  -5.1584   0.0000   0.0000   0.0000   0.2374
  10.100   1.1670   0.01940   0.01252   0.0018  0.0040  1.0000  -5.2815   0.0000   0.0000   0.0000   0.2370
  10.200   1.1749   0.01972   0.01290   0.0020  0.0039  1.0000  -5.4027   0.0000   0.0000   0.0000   0.2367
  10.300   1.1825   0.02007   0.01331   0.0023  0.0039  1.0000  -5.5218   0.0000   0.0000   0.0000   0.2364
  10.400   1.1898   0.02043   0.01374   0.0025  0.0039  1.0000  -5.6384   0.0000   0.0000   0.0000   0.2360
  10.500   1.1969   0.02082   0.01419   0.0028  0.0039  1.0000  -5.7522   0.0000   0.0000   0.0000   0.2356
  10.600   1.2035   0.02123   0.01466   0.0031  0.0039  1.0000  -5.8628   0.0000   0.0000   0.0000   0.2352
  10.700   1.2098   0.02166   0.01516   0.0034  0.0039  1.0000  -5.9696   0.0000   0.0000   0.0000   0.2348
  10.800   1.2155   0.02214   0.01571   0.0038  0.0039  1.0000  -6.0712   0.0000   0.0000   0.0000   0.2344
  10.900   1.2206   0.02264   0.01629   0.0042  0.0039  1.0000  -6.1674   0.0000   0.0000   0.0000   0.2339
  11.000   1.2251   0.02319   0.01691   0.0046  0.0040  1.0000  -6.2575   0.0000   0.0000   0.0000   0.2334
  11.100   1.2288   0.02377   0.01757   0.0050  0.0040  1.0000  -6.3404   0.0000   0.0000   0.0000   0.2329
  11.200   1.2313   0.02440   0.01827   0.0055  0.0040  1.0000  -6.4137   0.0000   0.0000   0.0000   0.2323
  11.300   1.2314   0.02508   0.01901   0.0062  0.0040  1.0000  -6.4694   0.0000   0.0000   0.0000   0.2316
  11.400   1.2309   0.02583   0.01983   0.0068  0.0041  1.0000  -6.5185   0.0000   0.0000   0.0000   0.2309
  11.500   1.2303   0.02667   0.02074   0.0072  0.0041  1.0000  -6.5645   0.0000   0.0000   0.0000   0.2304
  11.600   1.2296   0.02758   0.02171   0.0076  0.0041  1.0000  -6.6083   0.0000   0.0000   0.0000   0.2300
  11.700   1.2287   0.02857   0.02277   0.0078  0.0042  1.0000  -6.6477   0.0000   0.0000   0.0000   0.2296
  11.800   1.2277   0.02960   0.02387   0.0080  0.0042  1.0000  -6.6856   0.0000   0.0000   0.0000   0.2293
  11.900   1.2262   0.03073   0.02507   0.0080  0.0043  1.0000  -6.7180   0.0000   0.0000   0.0000   0.2290
  12.000   1.2247   0.03188   0.02629   0.0081  0.0043  1.0000  -6.7485   0.0000   0.0000   0.0000   0.2288
  12.100   1.2227   0.03309   0.02757   0.0081  0.0044  1.0000  -6.7751   0.0000   0.0000   0.0000   0.2285
  12.200   1.2203   0.03439   0.02894   0.0081  0.0044  1.0000  -6.7970   0.0000   0.0000   0.0000   0.2284
  12.300   1.2181   0.03569   0.03031   0.0080  0.0044  1.0000  -6.8186   0.0000   0.0000   0.0000   0.2282
  12.400   1.2156   0.03704   0.03174   0.0079  0.0045  1.0000  -6.8372   0.0000   0.0000   0.0000   0.2281
  12.500   1.2125   0.03852   0.03328   0.0077  0.0045  1.0000  -6.8501   0.0000   0.0000   0.0000   0.2281
  12.600   1.2095   0.03997   0.03480   0.0075  0.0046  1.0000  -6.8632   0.0000   0.0000   0.0000   0.2280
  12.700   1.2066   0.04142   0.03632   0.0074  0.0047  1.0000  -6.8752   0.0000   0.0000   0.0000   0.2279
  12.800   1.2031   0.04293   0.03790   0.0072  0.0047  1.0000  -6.8825   0.0000   0.0000   0.0000   0.2279
  12.900   1.1990   0.04453   0.03958   0.0069  0.0048  1.0000  -6.8854   0.0000   0.0000   0.0000   0.2279
  13.000   1.1954   0.04610   0.04122   0.0066  0.0048  1.0000  -6.8893   0.0000   0.0000   0.0000   0.2279
  13.100   1.1918   0.04769   0.04288   0.0064  0.0049  1.0000  -6.8925   0.0000   0.0000   0.0000   0.2279
  13.200   1.1881   0.04933   0.04458   0.0061  0.0049  1.0000  -6.8936   0.0000   0.0000   0.0000   0.2280
  13.300   1.1836   0.05114   0.04647   0.0056  0.0050  1.0000  -6.8885   0.0000   0.0000   0.0000   0.2282
  13.400   1.1793   0.05293   0.04833   0.0051  0.0050  1.0000  -6.8836   0.0000   0.0000   0.0000   0.2284
  13.500   1.1752   0.05470   0.05017   0.0047  0.0051  1.0000  -6.8785   0.0000   0.0000   0.0000   0.2285
  13.600   1.1710   0.05649   0.05203   0.0043  0.0052  1.0000  -6.8711   0.0000   0.0000   0.0000   0.2287
  13.700   1.1666   0.05834   0.05396   0.0038  0.0052  1.0000  -6.8606   0.0000   0.0000   0.0000   0.2289
  13.800   1.1613   0.06040   0.05609   0.0030  0.0053  1.0000  -6.8442   0.0000   0.0000   0.0000   0.2294
  13.900   1.1562   0.06241   0.05817   0.0023  0.0053  1.0000  -6.8281   0.0000   0.0000   0.0000   0.2298
  14.000   1.1514   0.06441   0.06024   0.0016  0.0054  1.0000  -6.8117   0.0000   0.0000   0.0000   0.2302
  14.100   1.1465   0.06644   0.06235   0.0009  0.0054  1.0000  -6.7937   0.0000   0.0000   0.0000   0.2307
  14.200   1.1411   0.06851   0.06448   0.0001  0.0055  1.0000  -6.7727   0.0000   0.0000   0.0000   0.2312
  14.300   1.1350   0.07082   0.06686  -0.0009  0.0055  1.0000  -6.7466   0.0000   0.0000   0.0000   0.2319
  14.400   1.1293   0.07309   0.06920  -0.0019  0.0056  1.0000  -6.7213   0.0000   0.0000   0.0000   0.2326
  14.500   1.1240   0.07539   0.07157  -0.0029  0.0056  1.0000  -6.6955   0.0000   0.0000   0.0000   0.2333
  14.600   1.1185   0.07775   0.07400  -0.0040  0.0057  1.0000  -6.6679   0.0000   0.0000   0.0000   0.2341
  14.700   1.1127   0.08028   0.07660  -0.0052  0.0057  1.0000  -6.6368   0.0000   0.0000   0.0000   0.2351
  14.800   1.1065   0.08300   0.07938  -0.0067  0.0057  1.0000  -6.6027   0.0000   0.0000   0.0000   0.2363
  14.900   1.1007   0.08562   0.08207  -0.0080  0.0058  1.0000  -6.5690   0.0000   0.0000   0.0000   0.2373
  15.000   1.0951   0.08824   0.08476  -0.0093  0.0058  1.0000  -6.5343   0.0000   0.0000   0.0000   0.2384
  15.100   1.0893   0.09095   0.08753  -0.0107  0.0059  1.0000  -6.4976   0.0000   0.0000   0.0000   0.2396
  15.200   1.0828   0.09393   0.09056  -0.0124  0.0059  1.0000  -6.4563   0.0000   0.0000   0.0000   0.2410
  15.300   1.0767   0.09679   0.09348  -0.0140  0.0059  1.0000  -6.4153   0.0000   0.0000   0.0000   0.2424
  15.400   1.0709   0.09962   0.09638  -0.0155  0.0059  1.0000  -6.3737   0.0000   0.0000   0.0000   0.2438
  15.500   1.0651   0.10248   0.09930  -0.0171  0.0059  1.0000  -6.3305   0.0000   0.0000   0.0000   0.2452
  15.600   1.0586   0.10557   0.10244  -0.0189  0.0059  1.0000  -6.2830   0.0000   0.0000   0.0000   0.2469
  15.700   1.0525   0.10862   0.10555  -0.0207  0.0060  1.0000  -6.2347   0.0000   0.0000   0.0000   0.2486
  15.800   1.0466   0.11159   0.10856  -0.0224  0.0060  1.0000  -6.1862   0.0000   0.0000   0.0000   0.2502
  15.900   1.0407   0.11456   0.11159  -0.0241  0.0060  1.0000  -6.1359   0.0000   0.0000   0.0000   0.2518
  16.000   1.0344   0.11776   0.11483  -0.0260  0.0060  1.0000  -6.0810   0.0000   0.0000   0.0000   0.2538
  16.100   1.0283   0.12093   0.11805  -0.0279  0.0060  1.0000  -6.0247   0.0000   0.0000   0.0000   0.2557
  16.200   1.0225   0.12398   0.12116  -0.0297  0.0060  1.0000  -5.9680   0.0000   0.0000   0.0000   0.2575
  16.300   1.0167   0.12705   0.12427  -0.0315  0.0060  1.0000  -5.9092   0.0000   0.0000   0.0000   0.2593
  16.400   1.0105   0.13038   0.12764  -0.0335  0.0060  1.0000  -5.8440   0.0000   0.0000   0.0000   0.2615
  16.500   1.0045   0.13364   0.13094  -0.0355  0.0060  1.0000  -5.7774   0.0000   0.0000   0.0000   0.2636
  16.600   0.9987   0.13670   0.13404  -0.0373  0.0060  1.0000  -5.7104   0.0000   0.0000   0.0000   0.2656
  16.700   0.9931   0.13965   0.13703  -0.0392  0.0060  1.0000  -5.6403   0.0000   0.0000   0.0000   0.2676
  16.800   0.9868   0.14289   0.14031  -0.0412  0.0059  1.0000  -5.5608   0.0000   0.0000   0.0000   0.2699
  16.900   0.9809   0.14607   0.14352  -0.0432  0.0059  1.0000  -5.4801   0.0000   0.0000   0.0000   0.2721
  17.000   0.9752   0.14929   0.14678  -0.0451  0.0059  1.0000  -5.3959   0.0000   0.0000   0.0000   0.2743
  17.100   0.9693   0.15274   0.15027  -0.0471  0.0059  1.0000  -5.3028   0.0000   0.0000   0.0000   0.2767
  17.200   0.9627   0.15655   0.15411  -0.0493  0.0059  1.0000  -5.1955   0.0000   0.0000   0.0000   0.2793
  17.300   0.9567   0.16027   0.15786  -0.0513  0.0059  1.0000  -5.0866   0.0000   0.0000   0.0000   0.2818
  17.400   0.9504   0.16419   0.16180  -0.0534  0.0059  1.0000  -4.9660   0.0000   0.0000   0.0000   0.2843
  17.500   0.9431   0.16869   0.16632  -0.0556  0.0058  1.0000  -4.8161   0.0000   0.0000   0.0000   0.2873
  17.600   0.9363   0.17310   0.17075  -0.0578  0.0058  1.0000  -4.6618   0.0000   0.0000   0.0000   0.2901
  17.700   0.9287   0.17799   0.17566  -0.0600  0.0058  1.0000  -4.4754   0.0000   0.0000   0.0000   0.2931
  17.800   0.9207   0.18324   0.18092  -0.0622  0.0059  1.0000  -4.2601   0.0000   0.0000   0.0000   0.2963
  17.900   0.9132   0.18856   0.18624  -0.0643  0.0059  1.0000  -4.0309   0.0000   0.0000   0.0000   0.2994
  18.000   0.9057   0.19420   0.19187  -0.0664  0.0061  1.0000  -3.7741   0.0000   0.0000   0.0000   0.3025
  18.100   0.8996   0.19948   0.19714  -0.0683  0.0063  1.0000  -3.5373   0.0000   0.0000   0.0000   0.3052
  18.200   0.8946   0.20445   0.20210  -0.0700  0.0065  1.0000  -3.3250   0.0000   0.0000   0.0000   0.3077
  18.300   0.8900   0.20935   0.20699  -0.0716  0.0067  1.0000  -3.1192   0.0000   0.0000   0.0000   0.3101
  18.500   0.8972   0.21161   0.20928  -0.0723  0.0081  1.0000  -3.1681   0.0000   0.0000   0.0000   0.3098
  19.500   0.8809   0.25383   0.25145  -0.0829  0.0170  1.0000  -1.8879   0.0000   0.0000   0.0000   0.3237
  19.600   0.8823   0.25621   0.25383  -0.0837  0.0170  1.0000  -1.8764   0.0000   0.0000   0.0000   0.3243
  19.700   0.8836   0.25859   0.25621  -0.0844  0.0169  1.0000  -1.8652   0.0000   0.0000   0.0000   0.3250
  19.800   0.8850   0.26095   0.25858  -0.0852  0.0169  1.0000  -1.8545   0.0000   0.0000   0.0000   0.3256
  19.900   0.8863   0.26331   0.26093  -0.0860  0.0169  1.0000  -1.8442   0.0000   0.0000   0.0000   0.3262
  20.000   0.8876   0.26564   0.26327  -0.0868  0.0169  1.0000  -1.8345   0.0000   0.0000   0.0000   0.3268
  20.100   0.8890   0.26796   0.26559  -0.0875  0.0169  1.0000  -1.8253   0.0000   0.0000   0.0000   0.3274
  20.200   0.8903   0.27026   0.26788  -0.0883  0.0168  1.0000  -1.8167   0.0000   0.0000   0.0000   0.3280
  20.300   0.8916   0.27252   0.27015  -0.0891  0.0168  1.0000  -1.8090   0.0000   0.0000   0.0000   0.3286
  20.400   0.8930   0.27475   0.27238  -0.0899  0.0167  1.0000  -1.8019   0.0000   0.0000   0.0000   0.3292
  20.500   0.8944   0.27692   0.27456  -0.0906  0.0167  1.0000  -1.7960   0.0000   0.0000   0.0000   0.3298
  20.600   0.8959   0.27902   0.27666  -0.0914  0.0165  1.0000  -1.7918   0.0000   0.0000   0.0000   0.3304
  20.700   0.8975   0.28103   0.27867  -0.0922  0.0164  1.0000  -1.7892   0.0000   0.0000   0.0000   0.3310
  20.800   0.8994   0.28296   0.28060  -0.0930  0.0161  1.0000  -1.7872   0.0000   0.0000   0.0000   0.3316
  20.900   0.9006   0.28508   0.28273  -0.0941  0.0158  1.0000  -1.7704   0.0000   0.0000   0.0000   0.3325
  21.000   0.9019   0.28736   0.28501  -0.0950  0.0154  1.0000  -1.7507   0.0000   0.0000   0.0000   0.3333
  21.100   0.9029   0.28972   0.28737  -0.0959  0.0149  1.0000  -1.7321   0.0000   0.0000   0.0000   0.3341
  21.200   0.9038   0.29210   0.28976  -0.0967  0.0145  1.0000  -1.7160   0.0000   0.0000   0.0000   0.3347
  21.300   0.9046   0.29447   0.29213  -0.0975  0.0142  1.0000  -1.7023   0.0000   0.0000   0.0000   0.3354
  21.400   0.9053   0.29681   0.29448  -0.0982  0.0138  1.0000  -1.6904   0.0000   0.0000   0.0000   0.3360
  21.500   0.9058   0.29913   0.29680  -0.0989  0.0135  1.0000  -1.6800   0.0000   0.0000   0.0000   0.3366
  21.600   0.9063   0.30142   0.29909  -0.0996  0.0132  1.0000  -1.6707   0.0000   0.0000   0.0000   0.3372
  21.700   0.9066   0.30369   0.30136  -0.1002  0.0130  1.0000  -1.6622   0.0000   0.0000   0.0000   0.3377
  21.800   0.9069   0.30592   0.30360  -0.1009  0.0127  1.0000  -1.6543   0.0000   0.0000   0.0000   0.3383
  21.900   0.9070   0.30812   0.30580  -0.1015  0.0125  1.0000  -1.6470   0.0000   0.0000   0.0000   0.3388
  22.000   0.9070   0.31029   0.30798  -0.1021  0.0122  1.0000  -1.6400   0.0000   0.0000   0.0000   0.3394
  22.100   0.9070   0.31235   0.31005  -0.1027  0.0119  1.0000  -1.6377   0.0000   0.0000   0.0000   0.3399
  22.200   0.9068   0.31434   0.31204  -0.1032  0.0115  1.0000  -1.6385   0.0000   0.0000   0.0000   0.3404
  22.300   0.9065   0.31625   0.31396  -0.1038  0.0111  1.0000  -1.6407   0.0000   0.0000   0.0000   0.3409
  22.400   0.9061   0.31809   0.31580  -0.1043  0.0108  1.0000  -1.6444   0.0000   0.0000   0.0000   0.3414
  22.500   0.9054   0.31983   0.31756  -0.1047  0.0105  1.0000  -1.6496   0.0000   0.0000   0.0000   0.3419
  22.600   0.9045   0.32149   0.31922  -0.1052  0.0102  1.0000  -1.6560   0.0000   0.0000   0.0000   0.3424
  22.700   0.9034   0.32302   0.32076  -0.1056  0.0100  1.0000  -1.6635   0.0000   0.0000   0.0000   0.3428
  22.800   0.9018   0.32442   0.32217  -0.1059  0.0098  1.0000  -1.6718   0.0000   0.0000   0.0000   0.3433
  22.900   0.8997   0.32564   0.32340  -0.1062  0.0095  1.0000  -1.6805   0.0000   0.0000   0.0000   0.3438
  23.000   0.8571   0.31671   0.31455  -0.1023  0.0096  1.0000  -1.5444   0.0000   0.0000   0.0000   0.3460
  23.100   0.8510   0.31608   0.31394  -0.1022  0.0095  1.0000  -1.5388   0.0000   0.0000   0.0000   0.3466
  23.200   0.8465   0.31576   0.31363  -0.1021  0.0093  1.0000  -1.5403   0.0000   0.0000   0.0000   0.3471
  23.300   0.8428   0.31558   0.31347  -0.1022  0.0091  1.0000  -1.5470   0.0000   0.0000   0.0000   0.3476
  23.400   0.8398   0.31548   0.31338  -0.1022  0.0089  1.0000  -1.5580   0.0000   0.0000   0.0000   0.3481
  23.500   0.8372   0.31542   0.31333  -0.1023  0.0088  1.0000  -1.5730   0.0000   0.0000   0.0000   0.3484
  23.600   0.8349   0.31537   0.31329  -0.1024  0.0086  1.0000  -1.5917   0.0000   0.0000   0.0000   0.3487
  23.700   0.8330   0.31532   0.31326  -0.1025  0.0084  1.0000  -1.6142   0.0000   0.0000   0.0000   0.3490
  23.800   0.8312   0.31527   0.31323  -0.1025  0.0083  1.0000  -1.6402   0.0000   0.0000   0.0000   0.3492
  23.900   0.8293   0.31526   0.31322  -0.1025  0.0081  1.0000  -1.6639   0.0000   0.0000   0.0000   0.3493
  24.000   0.8254   0.31540   0.31338  -0.1025  0.0079  1.0000  -1.6558   0.0000   0.0000   0.0000   0.3498
  24.100   0.8089   0.31700   0.31497  -0.1020  0.0074  1.0000  -1.3997   0.0000   0.0000   0.0000   0.3523
  24.200   0.8073   0.31753   0.31551  -0.1024  0.0074  1.0000  -1.3857   0.0000   0.0000   0.0000   0.3529
  24.300   0.8058   0.31808   0.31606  -0.1027  0.0074  1.0000  -1.3722   0.0000   0.0000   0.0000   0.3535
  24.400   0.8044   0.31863   0.31662  -0.1031  0.0073  1.0000  -1.3592   0.0000   0.0000   0.0000   0.3541
  24.500   0.8031   0.31920   0.31720  -0.1034  0.0073  1.0000  -1.3467   0.0000   0.0000   0.0000   0.3547
  24.600   0.8019   0.31977   0.31778  -0.1038  0.0073  1.0000  -1.3346   0.0000   0.0000   0.0000   0.3553
  24.700   0.8008   0.32035   0.31837  -0.1042  0.0073  1.0000  -1.3229   0.0000   0.0000   0.0000   0.3559
  24.800   0.7997   0.32094   0.31897  -0.1046  0.0073  1.0000  -1.3114   0.0000   0.0000   0.0000   0.3564
  24.900   0.7987   0.32154   0.31957  -0.1050  0.0073  1.0000  -1.3003   0.0000   0.0000   0.0000   0.3570
  25.000   0.7977   0.32215   0.32019  -0.1054  0.0073  1.0000  -1.2896   0.0000   0.0000   0.0000   0.3576
  25.100   0.7969   0.32276   0.32080  -0.1058  0.0073  1.0000  -1.2793   0.0000   0.0000   0.0000   0.3581
  25.200   0.7961   0.32337   0.32143  -0.1062  0.0073  1.0000  -1.2695   0.0000   0.0000   0.0000   0.3587
  25.300   0.7954   0.32399   0.32206  -0.1066  0.0073  1.0000  -1.2600   0.0000   0.0000   0.0000   0.3592
  25.400   0.7947   0.32462   0.32269  -0.1071  0.0072  1.0000  -1.2509   0.0000   0.0000   0.0000   0.3598
  25.500   0.7941   0.32525   0.32333  -0.1075  0.0072  1.0000  -1.2423   0.0000   0.0000   0.0000   0.3603
  25.600   0.7935   0.32589   0.32397  -0.1079  0.0072  1.0000  -1.2341   0.0000   0.0000   0.0000   0.3609
  25.700   0.7931   0.32653   0.32462  -0.1084  0.0072  1.0000  -1.2264   0.0000   0.0000   0.0000   0.3614
  25.800   0.7926   0.32717   0.32527  -0.1088  0.0072  1.0000  -1.2188   0.0000   0.0000   0.0000   0.3619
  25.900   0.7923   0.32783   0.32593  -0.1093  0.0071  1.0000  -1.2113   0.0000   0.0000   0.0000   0.3624
  26.000   0.7920   0.32849   0.32660  -0.1098  0.0071  1.0000  -1.2045   0.0000   0.0000   0.0000   0.3630
  26.100   0.7920   0.32917   0.32732  -0.1103  0.0070  1.0000  -1.2004   0.0000   0.0000   0.0000   0.3635
  26.200   0.7922   0.32991   0.32806  -0.1109  0.0069  1.0000  -1.1945   0.0000   0.0000   0.0000   0.3641
  26.300   0.7924   0.33072   0.32888  -0.1115  0.0068  1.0000  -1.1844   0.0000   0.0000   0.0000   0.3647
  26.400   0.7928   0.33162   0.32979  -0.1121  0.0066  1.0000  -1.1722   0.0000   0.0000   0.0000   0.3653
  26.500   0.7932   0.33255   0.33073  -0.1127  0.0063  1.0000  -1.1574   0.0000   0.0000   0.0000   0.3658
  26.600   0.7934   0.33343   0.33161  -0.1132  0.0061  1.0000  -1.1430   0.0000   0.0000   0.0000   0.3663
  26.700   0.7934   0.33424   0.33243  -0.1136  0.0058  1.0000  -1.1309   0.0000   0.0000   0.0000   0.3668
  26.800   0.7932   0.33500   0.33319  -0.1141  0.0056  1.0000  -1.1211   0.0000   0.0000   0.0000   0.3672
  26.900   0.7930   0.33572   0.33392  -0.1145  0.0054  1.0000  -1.1131   0.0000   0.0000   0.0000   0.3677
  27.000   0.7928   0.33643   0.33464  -0.1149  0.0052  1.0000  -1.1065   0.0000   0.0000   0.0000   0.3681
  27.100   0.7926   0.33713   0.33534  -0.1154  0.0050  1.0000  -1.1008   0.0000   0.0000   0.0000   0.3685
  27.200   0.7924   0.33781   0.33603  -0.1158  0.0049  1.0000  -1.0960   0.0000   0.0000   0.0000   0.3690
  27.300   0.7922   0.33849   0.33672  -0.1162  0.0047  1.0000  -1.0918   0.0000   0.0000   0.0000   0.3694
  27.400   0.7920   0.33917   0.33740  -0.1167  0.0046  1.0000  -1.0882   0.0000   0.0000   0.0000   0.3699
  27.500   0.7918   0.33984   0.33808  -0.1171  0.0044  1.0000  -1.0851   0.0000   0.0000   0.0000   0.3703
  27.600   0.7916   0.34051   0.33876  -0.1175  0.0043  1.0000  -1.0824   0.0000   0.0000   0.0000   0.3707
  27.700   0.7915   0.34118   0.33943  -0.1180  0.0042  1.0000  -1.0802   0.0000   0.0000   0.0000   0.3711
  27.800   0.7913   0.34184   0.34010  -0.1184  0.0041  1.0000  -1.0783   0.0000   0.0000   0.0000   0.3715
  27.900   0.7912   0.34251   0.34077  -0.1188  0.0040  1.0000  -1.0768   0.0000   0.0000   0.0000   0.3720
  28.000   0.7911   0.34317   0.34144  -0.1193  0.0039  1.0000  -1.0757   0.0000   0.0000   0.0000   0.3724
  28.100   0.7910   0.34383   0.34211  -0.1197  0.0038  1.0000  -1.0749   0.0000   0.0000   0.0000   0.3728
  28.200   0.7909   0.34449   0.34277  -0.1201  0.0037  1.0000  -1.0744   0.0000   0.0000   0.0000   0.3732
  28.300   0.7908   0.34515   0.34344  -0.1206  0.0036  1.0000  -1.0743   0.0000   0.0000   0.0000   0.3736
  28.400   0.7907   0.34580   0.34410  -0.1210  0.0035  1.0000  -1.0744   0.0000   0.0000   0.0000   0.3740
  28.500   0.7906   0.34646   0.34476  -0.1215  0.0034  1.0000  -1.0749   0.0000   0.0000   0.0000   0.3744
  28.600   0.7905   0.34711   0.34542  -0.1219  0.0033  1.0000  -1.0757   0.0000   0.0000   0.0000   0.3748
  28.700   0.7905   0.34776   0.34608  -0.1224  0.0033  1.0000  -1.0768   0.0000   0.0000   0.0000   0.3752
  28.800   0.7904   0.34841   0.34673  -0.1228  0.0032  1.0000  -1.0782   0.0000   0.0000   0.0000   0.3756
  28.900   0.7904   0.34906   0.34739  -0.1233  0.0031  1.0000  -1.0800   0.0000   0.0000   0.0000   0.3760
  29.000   0.7904   0.34970   0.34804  -0.1237  0.0031  1.0000  -1.0820   0.0000   0.0000   0.0000   0.3764
  29.100   0.7903   0.35034   0.34869  -0.1242  0.0030  1.0000  -1.0844   0.0000   0.0000   0.0000   0.3767
  29.200   0.7903   0.35098   0.34933  -0.1246  0.0029  1.0000  -1.0871   0.0000   0.0000   0.0000   0.3771
  29.300   0.7903   0.35162   0.34998  -0.1251  0.0029  1.0000  -1.0901   0.0000   0.0000   0.0000   0.3775
  29.400   0.7903   0.35226   0.35062  -0.1255  0.0028  1.0000  -1.0935   0.0000   0.0000   0.0000   0.3779
  29.500   0.7903   0.35289   0.35125  -0.1260  0.0028  1.0000  -1.0973   0.0000   0.0000   0.0000   0.3782
  29.600   0.7903   0.35351   0.35189  -0.1264  0.0027  1.0000  -1.1014   0.0000   0.0000   0.0000   0.3786
  29.700   0.7903   0.35414   0.35252  -0.1269  0.0027  1.0000  -1.1059   0.0000   0.0000   0.0000   0.3790
  29.800   0.7903   0.35476   0.35315  -0.1273  0.0026  1.0000  -1.1107   0.0000   0.0000   0.0000   0.3794
  29.900   0.7903   0.35538   0.35377  -0.1278  0.0026  1.0000  -1.1159   0.0000   0.0000   0.0000   0.3797
  30.000   0.7903   0.35599   0.35439  -0.1282  0.0025  1.0000  -1.1215   0.0000   0.0000   0.0000   0.3801


