xflr5 v6.61

 Calculated polar for: S5010

 1 1 Reynolds number fixed          Mach number fixed         

 xtrf =   1.000 (top)        1.000 (bottom)
 Mach =   0.000     Re =     0.130 e 6     Ncrit =   9.000

  alpha     CL        CD       CDp       Cm    Top Xtr Bot Xtr   Cpmin    Chinge    XCp    
 ------- -------- --------- --------- -------- ------- ------- -------- --------- ---------
 -10.000  -0.5342   0.12545   0.12132   0.0315  1.0000  0.0438  -1.4405   0.0000   0.0000   0.0000   0.3040
  -9.900  -0.5327   0.12399   0.11988   0.0306  1.0000  0.0444  -1.4488   0.0000   0.0000   0.0000   0.3026
  -9.800  -0.5313   0.12256   0.11846   0.0297  1.0000  0.0450  -1.4584   0.0000   0.0000   0.0000   0.3011
  -9.700  -0.5300   0.12114   0.11706   0.0287  1.0000  0.0456  -1.4698   0.0000   0.0000   0.0000   0.2995
  -9.600  -0.5288   0.11974   0.11567   0.0276  1.0000  0.0463  -1.4833   0.0000   0.0000   0.0000   0.2976
  -9.500  -0.5276   0.11836   0.11430   0.0264  1.0000  0.0470  -1.4995   0.0000   0.0000   0.0000   0.2955
  -9.400  -0.5265   0.11704   0.11301   0.0251  1.0000  0.0477  -1.5189   0.0000   0.0000   0.0000   0.2931
  -9.300  -0.5256   0.11583   0.11181   0.0235  1.0000  0.0483  -1.5418   0.0000   0.0000   0.0000   0.2903
  -9.200  -0.5246   0.11475   0.11076   0.0219  1.0000  0.0490  -1.5660   0.0000   0.0000   0.0000   0.2872
  -9.100  -0.5239   0.11372   0.10974   0.0201  1.0000  0.0496  -1.5908   0.0000   0.0000   0.0000   0.2840
  -9.000  -0.5222   0.11270   0.10874   0.0186  1.0000  0.0500  -1.6064   0.0000   0.0000   0.0000   0.2813
  -8.900  -0.5206   0.11154   0.10760   0.0172  1.0000  0.0503  -1.6198   0.0000   0.0000   0.0000   0.2788
  -8.800  -0.5192   0.11024   0.10632   0.0159  1.0000  0.0505  -1.6332   0.0000   0.0000   0.0000   0.2764
  -8.700  -0.5178   0.10885   0.10495   0.0145  1.0000  0.0506  -1.6468   0.0000   0.0000   0.0000   0.2739
  -8.600  -0.5165   0.10738   0.10350   0.0131  1.0000  0.0507  -1.6609   0.0000   0.0000   0.0000   0.2714
  -8.500  -0.5152   0.10583   0.10197   0.0117  1.0000  0.0508  -1.6757   0.0000   0.0000   0.0000   0.2687
  -8.400  -0.5141   0.10423   0.10039   0.0102  1.0000  0.0509  -1.6913   0.0000   0.0000   0.0000   0.2659
  -8.300  -0.5132   0.10258   0.09876   0.0086  1.0000  0.0509  -1.7082   0.0000   0.0000   0.0000   0.2629
  -8.200  -0.5124   0.10088   0.09708   0.0069  1.0000  0.0510  -1.7265   0.0000   0.0000   0.0000   0.2597
  -8.100  -0.5118   0.09910   0.09532   0.0050  1.0000  0.0510  -1.7467   0.0000   0.0000   0.0000   0.2560
  -8.000  -0.5115   0.09727   0.09351   0.0028  1.0000  0.0510  -1.7694   0.0000   0.0000   0.0000   0.2519
  -7.900  -0.5112   0.09543   0.09168   0.0008  1.0000  0.0511  -1.7928   0.0000   0.0000   0.0000   0.2480
  -7.800  -0.5105   0.09364   0.08988  -0.0009  1.0000  0.0511  -1.8142   0.0000   0.0000   0.0000   0.2448
  -7.700  -0.5090   0.09180   0.08803  -0.0026  1.0000  0.0511  -1.8341   0.0000   0.0000   0.0000   0.2415
  -7.600  -0.5073   0.08997   0.08618  -0.0041  1.0000  0.0512  -1.8527   0.0000   0.0000   0.0000   0.2385
  -7.500  -0.5054   0.08814   0.08434  -0.0056  1.0000  0.0512  -1.8699   0.0000   0.0000   0.0000   0.2356
  -7.400  -0.5161   0.08195   0.07821  -0.0082  1.0000  0.0523  -1.9886   0.0000   0.0000   0.0000   0.2308
  -7.300  -0.5185   0.07839   0.07467  -0.0093  1.0000  0.0531  -2.0163   0.0000   0.0000   0.0000   0.2287
  -7.200  -0.5173   0.07595   0.07224  -0.0101  1.0000  0.0538  -2.0144   0.0000   0.0000   0.0000   0.2272
  -7.100  -0.5124   0.07423   0.07056  -0.0099  1.0000  0.0546  -1.9728   0.0000   0.0000   0.0000   0.2274
  -7.000  -0.5077   0.07265   0.06902  -0.0101  1.0000  0.0553  -1.9391   0.0000   0.0000   0.0000   0.2270
  -6.900  -0.5031   0.07109   0.06747  -0.0105  1.0000  0.0559  -1.9124   0.0000   0.0000   0.0000   0.2259
  -6.800  -0.4984   0.06949   0.06588  -0.0112  1.0000  0.0566  -1.8916   0.0000   0.0000   0.0000   0.2243
  -6.700  -0.4935   0.06786   0.06425  -0.0122  1.0000  0.0573  -1.8750   0.0000   0.0000   0.0000   0.2223
  -6.600  -0.4885   0.06619   0.06257  -0.0132  1.0000  0.0580  -1.8615   0.0000   0.0000   0.0000   0.2199
  -6.500  -0.4830   0.06450   0.06088  -0.0144  1.0000  0.0588  -1.8496   0.0000   0.0000   0.0000   0.2172
  -6.400  -0.4772   0.06279   0.05915  -0.0156  1.0000  0.0596  -1.8394   0.0000   0.0000   0.0000   0.2143
  -6.300  -0.4711   0.06105   0.05738  -0.0170  1.0000  0.0604  -1.8313   0.0000   0.0000   0.0000   0.2110
  -6.200  -0.4646   0.05928   0.05558  -0.0184  1.0000  0.0613  -1.8250   0.0000   0.0000   0.0000   0.2075
  -6.100  -0.4577   0.05751   0.05377  -0.0198  1.0000  0.0623  -1.8200   0.0000   0.0000   0.0000   0.2038
  -6.000  -0.4506   0.05575   0.05195  -0.0212  1.0000  0.0633  -1.8165   0.0000   0.0000   0.0000   0.2000
  -5.900  -0.4433   0.05401   0.05015  -0.0226  1.0000  0.0642  -1.8149   0.0000   0.0000   0.0000   0.1960
  -5.800  -0.4363   0.05216   0.04809  -0.0240  1.0000  0.0640  -1.8275   0.0000   0.0000   0.0000   0.1921
  -5.700  -0.4261   0.05028   0.04611  -0.0257  0.9834  0.0650  -1.8238   0.0000   0.0000   0.0000   0.1866
  -5.400  -0.3899   0.03695   0.03142  -0.0299  0.9528  0.0322  -2.4336   0.0000   0.0000   0.0000   0.1696
  -5.300  -0.3757   0.03670   0.03102  -0.0300  0.9446  0.0313  -2.3883   0.0000   0.0000   0.0000   0.1662
  -5.200  -0.3649   0.03591   0.03009  -0.0299  0.9360  0.0292  -2.3534   0.0000   0.0000   0.0000   0.1641
  -5.100  -0.3577   0.03426   0.02825  -0.0296  0.9280  0.0289  -2.3610   0.0000   0.0000   0.0000   0.1632
  -4.900  -0.3428   0.03179   0.02542  -0.0286  0.9136  0.0288  -2.3480   0.0000   0.0000   0.0000   0.1624
  -4.800  -0.3350   0.03081   0.02427  -0.0280  0.9064  0.0290  -2.3306   0.0000   0.0000   0.0000   0.1622
  -4.700  -0.3270   0.03005   0.02335  -0.0273  0.8997  0.0293  -2.3038   0.0000   0.0000   0.0000   0.1623
  -4.600  -0.3188   0.02960   0.02275  -0.0265  0.8937  0.0297  -2.2634   0.0000   0.0000   0.0000   0.1626
  -4.500  -0.3106   0.02940   0.02244  -0.0257  0.8881  0.0304  -2.2143   0.0000   0.0000   0.0000   0.1630
  -4.400  -0.3032   0.02753   0.02031  -0.0253  0.8834  0.0308  -2.2338   0.0000   0.0000   0.0000   0.1625
  -4.300  -0.2952   0.02578   0.01834  -0.0249  0.8784  0.0316  -2.2444   0.0000   0.0000   0.0000   0.1615
  -4.200  -0.2868   0.02443   0.01682  -0.0244  0.8732  0.0326  -2.2337   0.0000   0.0000   0.0000   0.1605
  -4.100  -0.2782   0.02353   0.01585  -0.0240  0.8680  0.0338  -2.1977   0.0000   0.0000   0.0000   0.1594
  -4.000  -0.2696   0.02299   0.01526  -0.0235  0.8629  0.0352  -2.1460   0.0000   0.0000   0.0000   0.1584
  -3.900  -0.2610   0.02260   0.01483  -0.0229  0.8581  0.0365  -2.0926   0.0000   0.0000   0.0000   0.1578
  -3.800  -0.2525   0.02227   0.01445  -0.0222  0.8535  0.0377  -2.0436   0.0000   0.0000   0.0000   0.1575
  -3.700  -0.2442   0.02224   0.01441  -0.0216  0.8488  0.0402  -1.9754   0.0000   0.0000   0.0000   0.1569
  -3.600  -0.2338   0.02247   0.01468  -0.0217  0.8443  0.0452  -1.8771   0.0000   0.0000   0.0000   0.1526
  -3.500  -0.2227   0.02347   0.01571  -0.0217  0.8389  0.0504  -1.7653   0.0000   0.0000   0.0000   0.1481
  -3.400  -0.2137   0.02206   0.01414  -0.0214  0.8342  0.0540  -1.7568   0.0000   0.0000   0.0000   0.1453
  -3.300  -0.2048   0.02116   0.01323  -0.0211  0.8293  0.0573  -1.7222   0.0000   0.0000   0.0000   0.1424
  -3.200  -0.1954   0.02069   0.01273  -0.0206  0.8243  0.0588  -1.6876   0.0000   0.0000   0.0000   0.1399
  -3.100  -0.1857   0.02016   0.01212  -0.0199  0.8197  0.0585  -1.6705   0.0000   0.0000   0.0000   0.1381
  -3.000  -0.1762   0.01967   0.01156  -0.0191  0.8154  0.0583  -1.6537   0.0000   0.0000   0.0000   0.1365
  -2.900  -0.1670   0.01924   0.01106  -0.0184  0.8112  0.0582  -1.6358   0.0000   0.0000   0.0000   0.1351
  -2.800  -0.1578   0.01890   0.01065  -0.0176  0.8069  0.0584  -1.6169   0.0000   0.0000   0.0000   0.1332
  -2.700  -0.1470   0.01844   0.01017  -0.0174  0.8033  0.0588  -1.5958   0.0000   0.0000   0.0000   0.1264
  -2.600  -0.1361   0.01799   0.00971  -0.0172  0.7996  0.0595  -1.5746   0.0000   0.0000   0.0000   0.1183
  -2.500  -0.1257   0.01759   0.00930  -0.0169  0.7955  0.0606  -1.5541   0.0000   0.0000   0.0000   0.1098
  -2.400  -0.1156   0.01723   0.00892  -0.0165  0.7913  0.0622  -1.5349   0.0000   0.0000   0.0000   0.1009
  -2.300  -0.1058   0.01690   0.00856  -0.0161  0.7871  0.0645  -1.5188   0.0000   0.0000   0.0000   0.0915
  -2.200  -0.0961   0.01659   0.00821  -0.0156  0.7830  0.0682  -1.5093   0.0000   0.0000   0.0000   0.0813
  -2.000  -0.0942   0.01307   0.00708  -0.0115  0.7762  0.5785  -1.7251   0.0000   0.0000   0.0000   0.1212
  -1.900  -0.0885   0.01257   0.00714  -0.0095  0.7727  0.7222  -1.6872   0.0000   0.0000   0.0000   0.1358
  -1.800  -0.0371   0.01243   0.00740  -0.0141  0.7694  0.9517  -1.4989   0.0000   0.0000   0.0000  -0.1439
  -1.700   0.0055   0.01251   0.00724  -0.0194  0.7651  0.9850  -1.3247   0.0000   0.0000   0.0000   3.8933
  -1.400   0.0571   0.01243   0.00668  -0.0234  0.7520  1.0000  -1.0481   0.0000   0.0000   0.0000   0.6671
  -1.300   0.0666   0.01243   0.00661  -0.0233  0.7475  1.0000  -0.9954   0.0000   0.0000   0.0000   0.6047
  -1.200   0.0760   0.01243   0.00655  -0.0231  0.7431  1.0000  -0.9431   0.0000   0.0000   0.0000   0.5577
  -1.100   0.0853   0.01244   0.00649  -0.0228  0.7388  1.0000  -0.8915   0.0000   0.0000   0.0000   0.5207
  -1.000   0.0944   0.01245   0.00643  -0.0225  0.7347  1.0000  -0.8406   0.0000   0.0000   0.0000   0.4907
  -0.900   0.1034   0.01246   0.00637  -0.0221  0.7307  1.0000  -0.7904   0.0000   0.0000   0.0000   0.4656
  -0.800   0.1122   0.01248   0.00631  -0.0216  0.7268  1.0000  -0.7408   0.0000   0.0000   0.0000   0.4442
  -0.700   0.1209   0.01252   0.00626  -0.0211  0.7231  1.0000  -0.6920   0.0000   0.0000   0.0000   0.4257
  -0.600   0.1296   0.01258   0.00625  -0.0206  0.7191  1.0000  -0.6439   0.0000   0.0000   0.0000   0.4096
  -0.500   0.1383   0.01275   0.00633  -0.0201  0.7145  1.0000  -0.5963   0.0000   0.0000   0.0000   0.3958
  -0.400   0.1484   0.01281   0.00634  -0.0200  0.7107  1.0000  -0.5463   0.0000   0.0000   0.0000   0.3850
  -0.300   0.1587   0.01280   0.00630  -0.0199  0.7068  1.0000  -0.5454   0.0000   0.0000   0.0000   0.3756
  -0.200   0.1689   0.01280   0.00628  -0.0198  0.7024  1.0000  -0.5557   0.0000   0.0000   0.0000   0.3671
  -0.100   0.1788   0.01282   0.00625  -0.0196  0.6978  1.0000  -0.5658   0.0000   0.0000   0.0000   0.3593
   0.000   0.1885   0.01283   0.00622  -0.0193  0.6932  1.0000  -0.5760   0.0000   0.0000   0.0000   0.3520
   0.100   0.1981   0.01285   0.00620  -0.0190  0.6888  1.0000  -0.5861   0.0000   0.0000   0.0000   0.3453
   0.200   0.2077   0.01288   0.00617  -0.0187  0.6848  1.0000  -0.5963   0.0000   0.0000   0.0000   0.3390
   0.300   0.2172   0.01291   0.00614  -0.0183  0.6810  1.0000  -0.6064   0.0000   0.0000   0.0000   0.3331
   0.400   0.2265   0.01293   0.00612  -0.0178  0.6773  1.0000  -0.6166   0.0000   0.0000   0.0000   0.3276
   0.500   0.2357   0.01297   0.00610  -0.0173  0.6736  1.0000  -0.6279   0.0000   0.0000   0.0000   0.3223
   0.600   0.2448   0.01306   0.00611  -0.0168  0.6697  1.0000  -0.6396   0.0000   0.0000   0.0000   0.3174
   0.700   0.2540   0.01327   0.00626  -0.0164  0.6648  1.0000  -0.6511   0.0000   0.0000   0.0000   0.3132
   0.800   0.2644   0.01332   0.00629  -0.0163  0.6611  1.0000  -0.6634   0.0000   0.0000   0.0000   0.3103
   0.900   0.2749   0.01332   0.00629  -0.0163  0.6572  1.0000  -0.6759   0.0000   0.0000   0.0000   0.3076
   1.000   0.2852   0.01333   0.00629  -0.0161  0.6527  1.0000  -0.6884   0.0000   0.0000   0.0000   0.3049
   1.100   0.2954   0.01335   0.00629  -0.0159  0.6481  1.0000  -0.7008   0.0000   0.0000   0.0000   0.3022
   1.200   0.3054   0.01337   0.00629  -0.0157  0.6434  1.0000  -0.7132   0.0000   0.0000   0.0000   0.2995
   1.300   0.3153   0.01339   0.00628  -0.0154  0.6390  1.0000  -0.7256   0.0000   0.0000   0.0000   0.2968
   1.400   0.3251   0.01342   0.00627  -0.0150  0.6350  1.0000  -0.7381   0.0000   0.0000   0.0000   0.2942
   1.500   0.3349   0.01344   0.00626  -0.0147  0.6311  1.0000  -0.7506   0.0000   0.0000   0.0000   0.2917
   1.600   0.3445   0.01347   0.00624  -0.0143  0.6273  1.0000  -0.7631   0.0000   0.0000   0.0000   0.2892
   1.700   0.3541   0.01350   0.00623  -0.0138  0.6235  1.0000  -0.7776   0.0000   0.0000   0.0000   0.2867
   1.800   0.3635   0.01359   0.00626  -0.0133  0.6193  1.0000  -0.7922   0.0000   0.0000   0.0000   0.2844
   1.900   0.3729   0.01385   0.00646  -0.0130  0.6139  1.0000  -0.8063   0.0000   0.0000   0.0000   0.2824
   2.000   0.3834   0.01386   0.00648  -0.0129  0.6104  1.0000  -0.8215   0.0000   0.0000   0.0000   0.2812
   2.100   0.3940   0.01386   0.00657  -0.0128  0.6063  1.0000  -0.8368   0.0000   0.0000   0.0000   0.2800
   2.200   0.4043   0.01388   0.00658  -0.0127  0.6015  1.0000  -0.8520   0.0000   0.0000   0.0000   0.2787
   2.300   0.4146   0.01390   0.00659  -0.0125  0.5966  1.0000  -0.8673   0.0000   0.0000   0.0000   0.2774
   2.400   0.4247   0.01391   0.00659  -0.0122  0.5918  1.0000  -0.8825   0.0000   0.0000   0.0000   0.2760
   2.500   0.4347   0.01393   0.00659  -0.0119  0.5872  1.0000  -0.8979   0.0000   0.0000   0.0000   0.2745
   2.600   0.4447   0.01395   0.00658  -0.0116  0.5830  1.0000  -0.9153   0.0000   0.0000   0.0000   0.2731
   2.700   0.4546   0.01396   0.00655  -0.0112  0.5788  1.0000  -0.9335   0.0000   0.0000   0.0000   0.2716
   2.800   0.4644   0.01398   0.00653  -0.0108  0.5747  1.0000  -0.9517   0.0000   0.0000   0.0000   0.2702
   2.900   0.4741   0.01404   0.00653  -0.0104  0.5702  1.0000  -0.9698   0.0000   0.0000   0.0000   0.2687
   3.000   0.4837   0.01426   0.00668  -0.0100  0.5647  1.0000  -0.9876   0.0000   0.0000   0.0000   0.2674
   3.100   0.4940   0.01435   0.00678  -0.0099  0.5603  1.0000  -1.0059   0.0000   0.0000   0.0000   0.2667
   3.200   0.5046   0.01435   0.00681  -0.0098  0.5560  1.0000  -1.0247   0.0000   0.0000   0.0000   0.2660
   3.300   0.5150   0.01436   0.00684  -0.0096  0.5509  1.0000  -1.0435   0.0000   0.0000   0.0000   0.2653
   3.400   0.5253   0.01437   0.00685  -0.0094  0.5455  1.0000  -1.0623   0.0000   0.0000   0.0000   0.2644
   3.500   0.5355   0.01439   0.00686  -0.0092  0.5402  1.0000  -1.0813   0.0000   0.0000   0.0000   0.2635
   3.600   0.5456   0.01439   0.00685  -0.0089  0.5353  1.0000  -1.1003   0.0000   0.0000   0.0000   0.2626
   3.700   0.5558   0.01441   0.00684  -0.0086  0.5306  1.0000  -1.1195   0.0000   0.0000   0.0000   0.2616
   3.800   0.5658   0.01443   0.00682  -0.0082  0.5261  1.0000  -1.1413   0.0000   0.0000   0.0000   0.2607
   3.900   0.5757   0.01449   0.00682  -0.0079  0.5212  1.0000  -1.1644   0.0000   0.0000   0.0000   0.2597
   4.000   0.5855   0.01467   0.00694  -0.0075  0.5153  1.0000  -1.1871   0.0000   0.0000   0.0000   0.2588
   4.100   0.5957   0.01482   0.00709  -0.0074  0.5101  1.0000  -1.2100   0.0000   0.0000   0.0000   0.2583
   4.200   0.6063   0.01483   0.00715  -0.0073  0.5054  1.0000  -1.2336   0.0000   0.0000   0.0000   0.2578
   4.300   0.6167   0.01484   0.00719  -0.0072  0.4998  1.0000  -1.2573   0.0000   0.0000   0.0000   0.2573
   4.400   0.6270   0.01485   0.00721  -0.0070  0.4937  1.0000  -1.2811   0.0000   0.0000   0.0000   0.2567
   4.500   0.6373   0.01485   0.00721  -0.0067  0.4877  1.0000  -1.3050   0.0000   0.0000   0.0000   0.2560
   4.600   0.6474   0.01485   0.00718  -0.0064  0.4820  1.0000  -1.3292   0.0000   0.0000   0.0000   0.2553
   4.700   0.6575   0.01487   0.00716  -0.0061  0.4765  1.0000  -1.3533   0.0000   0.0000   0.0000   0.2546
   4.800   0.6675   0.01495   0.00717  -0.0057  0.4709  1.0000  -1.3781   0.0000   0.0000   0.0000   0.2538
   4.900   0.6773   0.01521   0.00735  -0.0054  0.4636  1.0000  -1.4064   0.0000   0.0000   0.0000   0.2532
   5.000   0.6877   0.01528   0.00747  -0.0054  0.4588  1.0000  -1.4357   0.0000   0.0000   0.0000   0.2529
   5.100   0.6982   0.01530   0.00755  -0.0053  0.4531  1.0000  -1.4654   0.0000   0.0000   0.0000   0.2525
   5.200   0.7085   0.01533   0.00761  -0.0051  0.4466  1.0000  -1.4954   0.0000   0.0000   0.0000   0.2521
   5.300   0.7188   0.01535   0.00763  -0.0049  0.4398  1.0000  -1.5256   0.0000   0.0000   0.0000   0.2516
   5.400   0.7290   0.01535   0.00762  -0.0046  0.4332  1.0000  -1.5562   0.0000   0.0000   0.0000   0.2510
   5.500   0.7390   0.01539   0.00760  -0.0043  0.4267  1.0000  -1.5869   0.0000   0.0000   0.0000   0.2504
   5.600   0.7488   0.01553   0.00764  -0.0040  0.4196  1.0000  -1.6172   0.0000   0.0000   0.0000   0.2498
   5.700   0.7587   0.01580   0.00786  -0.0038  0.4122  1.0000  -1.6545   0.0000   0.0000   0.0000   0.2494
   5.800   0.7693   0.01583   0.00829  -0.0037  0.4084  1.0000  -1.6956   0.0000   0.0000   0.0000   0.2491
   5.900   0.7797   0.01589   0.00842  -0.0037  0.4030  1.0000  -1.7325   0.0000   0.0000   0.0000   0.2488
   6.000   0.7900   0.01596   0.00853  -0.0035  0.3968  1.0000  -1.7700   0.0000   0.0000   0.0000   0.2485
   6.100   0.8002   0.01602   0.00860  -0.0034  0.3903  1.0000  -1.8081   0.0000   0.0000   0.0000   0.2481
   6.200   0.8102   0.01608   0.00864  -0.0031  0.3837  1.0000  -1.8467   0.0000   0.0000   0.0000   0.2477
   6.300   0.8201   0.01618   0.00867  -0.0029  0.3768  1.0000  -1.8853   0.0000   0.0000   0.0000   0.2472
   6.400   0.8297   0.01645   0.00883  -0.0026  0.3682  1.0000  -1.9229   0.0000   0.0000   0.0000   0.2467
   6.500   0.8397   0.01660   0.00902  -0.0025  0.3621  1.0000  -1.9611   0.0000   0.0000   0.0000   0.2464
   6.600   0.8499   0.01666   0.00915  -0.0024  0.3558  1.0000  -2.0001   0.0000   0.0000   0.0000   0.2462
   6.700   0.8600   0.01674   0.00927  -0.0023  0.3486  1.0000  -2.0393   0.0000   0.0000   0.0000   0.2459
   6.800   0.8700   0.01682   0.00935  -0.0021  0.3415  1.0000  -2.0987   0.0000   0.0000   0.0000   0.2455
   6.900   0.8797   0.01694   0.00943  -0.0019  0.3344  1.0000  -2.1745   0.0000   0.0000   0.0000   0.2451
   7.000   0.8892   0.01717   0.00956  -0.0016  0.3270  1.0000  -2.2496   0.0000   0.0000   0.0000   0.2447
   7.100   0.8986   0.01757   0.00989  -0.0014  0.3187  1.0000  -2.3234   0.0000   0.0000   0.0000   0.2444
   7.200   0.9087   0.01766   0.01009  -0.0014  0.3136  1.0000  -2.4013   0.0000   0.0000   0.0000   0.2442
   7.300   0.9186   0.01777   0.01026  -0.0013  0.3069  1.0000  -2.4800   0.0000   0.0000   0.0000   0.2439
   7.400   0.9282   0.01782   0.01032  -0.0011  0.2986  1.0000  -2.5611   0.0000   0.0000   0.0000   0.2436
   7.500   0.9374   0.01788   0.01028  -0.0009  0.2887  1.0000  -2.6433   0.0000   0.0000   0.0000   0.2432
   7.600   0.9457   0.01823   0.01042  -0.0006  0.2754  1.0000  -2.7212   0.0000   0.0000   0.0000   0.2427
   7.700   0.9554   0.01812   0.01043  -0.0006  0.2665  1.0000  -2.8079   0.0000   0.0000   0.0000   0.2426
   7.800   0.9646   0.01813   0.01042  -0.0005  0.2539  1.0000  -2.8946   0.0000   0.0000   0.0000   0.2423
   7.900   0.9726   0.01834   0.01045  -0.0003  0.2399  1.0000  -2.9767   0.0000   0.0000   0.0000   0.2420
   8.000   0.9815   0.01852   0.01060  -0.0003  0.2277  1.0000  -3.0620   0.0000   0.0000   0.0000   0.2418
   8.100   0.9906   0.01866   0.01073  -0.0002  0.2149  1.0000  -3.1500   0.0000   0.0000   0.0000   0.2416
   8.200   0.9985   0.01897   0.01091  -0.0001  0.2023  1.0000  -3.2330   0.0000   0.0000   0.0000   0.2414
   8.300   1.0067   0.01929   0.01116   0.0000  0.1924  1.0000  -3.3168   0.0000   0.0000   0.0000   0.2411
   8.400   1.0161   0.01947   0.01140   0.0001  0.1858  1.0000  -3.4071   0.0000   0.0000   0.0000   0.2409
   8.500   1.0252   0.01971   0.01165   0.0002  0.1793  1.0000  -3.4964   0.0000   0.0000   0.0000   0.2406
   8.600   1.0337   0.01999   0.01191   0.0004  0.1723  1.0000  -3.5848   0.0000   0.0000   0.0000   0.2404
   8.700   1.0416   0.02034   0.01220   0.0005  0.1652  1.0000  -3.6713   0.0000   0.0000   0.0000   0.2401
   8.800   1.0493   0.02072   0.01253   0.0007  0.1581  1.0000  -3.7570   0.0000   0.0000   0.0000   0.2398
   8.900   1.0586   0.02092   0.01280   0.0008  0.1531  1.0000  -3.8528   0.0000   0.0000   0.0000   0.2395
   9.000   1.0673   0.02118   0.01309   0.0009  0.1468  1.0000  -3.9472   0.0000   0.0000   0.0000   0.2393
   9.100   1.0754   0.02150   0.01339   0.0011  0.1400  1.0000  -4.0399   0.0000   0.0000   0.0000   0.2390
   9.200   1.0839   0.02186   0.01419   0.0014  0.1426  1.0000  -4.0390   0.0000   0.0000   0.0000   0.2386
   9.300   1.0916   0.02222   0.01456   0.0016  0.1378  1.0000  -4.1135   0.0000   0.0000   0.0000   0.2383
   9.400   1.0987   0.02262   0.01494   0.0018  0.1326  1.0000  -4.1946   0.0000   0.0000   0.0000   0.2379
   9.500   1.1051   0.02310   0.01539   0.0021  0.1271  1.0000  -4.2751   0.0000   0.0000   0.0000   0.2376
   9.600   1.1132   0.02340   0.01574   0.0023  0.1233  1.0000  -4.3680   0.0000   0.0000   0.0000   0.2373
   9.700   1.1216   0.02367   0.01609   0.0025  0.1193  1.0000  -4.4655   0.0000   0.0000   0.0000   0.2370
   9.800   1.1294   0.02398   0.01645   0.0026  0.1147  1.0000  -4.5621   0.0000   0.0000   0.0000   0.2367
   9.900   1.1365   0.02435   0.01684   0.0029  0.1099  1.0000  -4.6569   0.0000   0.0000   0.0000   0.2364
  10.000   1.1426   0.02480   0.01727   0.0031  0.1044  1.0000  -4.7481   0.0000   0.0000   0.0000   0.2360
  10.100   1.1466   0.02543   0.01782   0.0034  0.0967  1.0000  -4.8277   0.0000   0.0000   0.0000   0.2356
  10.200   1.1545   0.02570   0.01812   0.0035  0.0877  1.0000  -4.9375   0.0000   0.0000   0.0000   0.2354
  10.300   1.1590   0.02628   0.01861   0.0037  0.0774  1.0000  -5.0250   0.0000   0.0000   0.0000   0.2351
  10.400   1.1626   0.02695   0.01922   0.0040  0.0695  1.0000  -5.1026   0.0000   0.0000   0.0000   0.2347
  10.500   1.1675   0.02750   0.01978   0.0043  0.0597  1.0000  -5.1872   0.0000   0.0000   0.0000   0.2343
  10.600   1.1686   0.02839   0.02056   0.0046  0.0500  1.0000  -5.2446   0.0000   0.0000   0.0000   0.2338
  10.700   1.1700   0.02923   0.02138   0.0051  0.0394  1.0000  -5.2967   0.0000   0.0000   0.0000   0.2333
  10.800   1.1676   0.03037   0.02241   0.0056  0.0308  1.0000  -5.3232   0.0000   0.0000   0.0000   0.2327
  10.900   1.1656   0.03135   0.02340   0.0062  0.0258  1.0000  -5.3457   0.0000   0.0000   0.0000   0.2320
  11.000   1.1625   0.03244   0.02447   0.0068  0.0226  1.0000  -5.3635   0.0000   0.0000   0.0000   0.2313
  11.100   1.1589   0.03366   0.02569   0.0071  0.0203  1.0000  -5.3745   0.0000   0.0000   0.0000   0.2308
  11.200   1.1546   0.03499   0.02706   0.0074  0.0186  1.0000  -5.3753   0.0000   0.0000   0.0000   0.2304
  11.300   1.1497   0.03646   0.02860   0.0075  0.0174  1.0000  -5.3658   0.0000   0.0000   0.0000   0.2301
  11.400   1.1472   0.03771   0.02990   0.0075  0.0168  1.0000  -5.3836   0.0000   0.0000   0.0000   0.2299
  11.500   1.1457   0.03889   0.03117   0.0075  0.0164  1.0000  -5.4123   0.0000   0.0000   0.0000   0.2297
  11.600   1.1438   0.04014   0.03250   0.0074  0.0160  1.0000  -5.4378   0.0000   0.0000   0.0000   0.2296
  11.700   1.1416   0.04145   0.03389   0.0072  0.0157  1.0000  -5.4606   0.0000   0.0000   0.0000   0.2296
  11.800   1.1394   0.04279   0.03531   0.0070  0.0154  1.0000  -5.4829   0.0000   0.0000   0.0000   0.2296
  11.900   1.1368   0.04421   0.03680   0.0068  0.0151  1.0000  -5.5020   0.0000   0.0000   0.0000   0.2296
  12.000   1.1340   0.04567   0.03835   0.0064  0.0149  1.0000  -5.5190   0.0000   0.0000   0.0000   0.2297
  12.100   1.1312   0.04714   0.03989   0.0061  0.0147  1.0000  -5.5356   0.0000   0.0000   0.0000   0.2298
  12.200   1.1281   0.04864   0.04146   0.0058  0.0145  1.0000  -5.5504   0.0000   0.0000   0.0000   0.2299
  12.300   1.1248   0.05021   0.04311   0.0053  0.0143  1.0000  -5.5623   0.0000   0.0000   0.0000   0.2301
  12.400   1.1217   0.05180   0.04476   0.0049  0.0142  1.0000  -5.5746   0.0000   0.0000   0.0000   0.2303
  12.500   1.1187   0.05338   0.04642   0.0045  0.0140  1.0000  -5.5874   0.0000   0.0000   0.0000   0.2304
  12.600   1.1155   0.05500   0.04811   0.0040  0.0139  1.0000  -5.5987   0.0000   0.0000   0.0000   0.2307
  12.700   1.1121   0.05671   0.04988   0.0034  0.0138  1.0000  -5.6067   0.0000   0.0000   0.0000   0.2310
  12.800   1.1088   0.05841   0.05165   0.0029  0.0136  1.0000  -5.6153   0.0000   0.0000   0.0000   0.2313
  12.900   1.1056   0.06011   0.05341   0.0024  0.0135  1.0000  -5.6235   0.0000   0.0000   0.0000   0.2316
  13.000   1.1024   0.06181   0.05518   0.0018  0.0134  1.0000  -5.6313   0.0000   0.0000   0.0000   0.2319
  13.100   1.0989   0.06360   0.05703   0.0012  0.0134  1.0000  -5.6358   0.0000   0.0000   0.0000   0.2323
  13.200   1.0954   0.06539   0.05890   0.0005  0.0133  1.0000  -5.6395   0.0000   0.0000   0.0000   0.2327
  13.300   1.0922   0.06716   0.06073  -0.0001  0.0132  1.0000  -5.6442   0.0000   0.0000   0.0000   0.2331
  13.400   1.0890   0.06890   0.06253  -0.0006  0.0131  1.0000  -5.6492   0.0000   0.0000   0.0000   0.2334
  13.500   1.0858   0.07062   0.06432  -0.0012  0.0131  1.0000  -5.6529   0.0000   0.0000   0.0000   0.2338
  13.600   1.0823   0.07240   0.06616  -0.0018  0.0130  1.0000  -5.6543   0.0000   0.0000   0.0000   0.2342
  13.700   1.0787   0.07429   0.06812  -0.0025  0.0130  1.0000  -5.6527   0.0000   0.0000   0.0000   0.2347
  13.800   1.0751   0.07625   0.07014  -0.0033  0.0129  1.0000  -5.6494   0.0000   0.0000   0.0000   0.2352
  13.900   1.0717   0.07820   0.07216  -0.0040  0.0129  1.0000  -5.6468   0.0000   0.0000   0.0000   0.2358
  14.000   1.0685   0.08017   0.07420  -0.0048  0.0128  1.0000  -5.6438   0.0000   0.0000   0.0000   0.2363
  14.100   1.0651   0.08219   0.07628  -0.0056  0.0128  1.0000  -5.6391   0.0000   0.0000   0.0000   0.2370
  14.200   1.0615   0.08432   0.07849  -0.0065  0.0128  1.0000  -5.6301   0.0000   0.0000   0.0000   0.2377
  14.300   1.0576   0.08656   0.08079  -0.0076  0.0128  1.0000  -5.6169   0.0000   0.0000   0.0000   0.2385
  14.400   1.0537   0.08879   0.08310  -0.0086  0.0128  1.0000  -5.6030   0.0000   0.0000   0.0000   0.2394
  14.500   1.0500   0.09105   0.08543  -0.0096  0.0128  1.0000  -5.5880   0.0000   0.0000   0.0000   0.2402
  14.600   1.0460   0.09336   0.08780  -0.0107  0.0128  1.0000  -5.5704   0.0000   0.0000   0.0000   0.2412
  14.700   1.0418   0.09575   0.09026  -0.0119  0.0128  1.0000  -5.5483   0.0000   0.0000   0.0000   0.2422
  14.800   1.0368   0.09836   0.09294  -0.0133  0.0128  1.0000  -5.5175   0.0000   0.0000   0.0000   0.2434
  14.900   1.0319   0.10099   0.09565  -0.0147  0.0128  1.0000  -5.4850   0.0000   0.0000   0.0000   0.2447
  15.000   1.0270   0.10363   0.09835  -0.0161  0.0128  1.0000  -5.4509   0.0000   0.0000   0.0000   0.2460
  15.100   1.0219   0.10631   0.10111  -0.0175  0.0129  1.0000  -5.4130   0.0000   0.0000   0.0000   0.2474
  15.200   1.0163   0.10918   0.10404  -0.0191  0.0129  1.0000  -5.3678   0.0000   0.0000   0.0000   0.2490
  15.300   1.0103   0.11219   0.10712  -0.0209  0.0130  1.0000  -5.3153   0.0000   0.0000   0.0000   0.2507
  15.400   1.0044   0.11517   0.11016  -0.0226  0.0130  1.0000  -5.2617   0.0000   0.0000   0.0000   0.2525
  15.500   0.9984   0.11821   0.11326  -0.0244  0.0131  1.0000  -5.2041   0.0000   0.0000   0.0000   0.2543
  15.600   0.9918   0.12146   0.11657  -0.0263  0.0132  1.0000  -5.1366   0.0000   0.0000   0.0000   0.2563
  15.700   0.9849   0.12483   0.12001  -0.0283  0.0133  1.0000  -5.0614   0.0000   0.0000   0.0000   0.2585
  15.800   0.9782   0.12820   0.12343  -0.0303  0.0133  1.0000  -4.9838   0.0000   0.0000   0.0000   0.2607
  15.900   0.9712   0.13166   0.12694  -0.0324  0.0134  1.0000  -4.8985   0.0000   0.0000   0.0000   0.2630
  16.000   0.9633   0.13528   0.13062  -0.0346  0.0136  1.0000  -4.7978   0.0000   0.0000   0.0000   0.2656
  16.100   0.9557   0.13887   0.13425  -0.0368  0.0137  1.0000  -4.6939   0.0000   0.0000   0.0000   0.2681
  16.200   0.9479   0.14265   0.13807  -0.0390  0.0139  1.0000  -4.5786   0.0000   0.0000   0.0000   0.2708
  16.300   0.9389   0.14690   0.14236  -0.0415  0.0141  1.0000  -4.4389   0.0000   0.0000   0.0000   0.2739
  16.400   0.9304   0.15122   0.14672  -0.0438  0.0143  1.0000  -4.2940   0.0000   0.0000   0.0000   0.2770
  16.500   0.9214   0.15590   0.15142  -0.0463  0.0145  1.0000  -4.1283   0.0000   0.0000   0.0000   0.2802
  16.600   0.9126   0.16072   0.15626  -0.0487  0.0148  1.0000  -3.9533   0.0000   0.0000   0.0000   0.2835
  16.700   0.9046   0.16550   0.16104  -0.0510  0.0150  1.0000  -3.7800   0.0000   0.0000   0.0000   0.2866
  16.800   0.8977   0.17010   0.16564  -0.0530  0.0153  1.0000  -3.6157   0.0000   0.0000   0.0000   0.2895
  16.900   0.8923   0.17432   0.16985  -0.0548  0.0155  1.0000  -3.4737   0.0000   0.0000   0.0000   0.2919
  17.000   0.8878   0.17838   0.17389  -0.0565  0.0157  1.0000  -3.3424   0.0000   0.0000   0.0000   0.2942
  17.100   0.8843   0.18218   0.17768  -0.0580  0.0158  1.0000  -3.2273   0.0000   0.0000   0.0000   0.2962
  17.200   0.8816   0.18576   0.18125  -0.0594  0.0159  1.0000  -3.1261   0.0000   0.0000   0.0000   0.2980
  17.300   0.8794   0.18918   0.18465  -0.0607  0.0161  1.0000  -3.0357   0.0000   0.0000   0.0000   0.2997
  17.400   0.8777   0.19246   0.18792  -0.0619  0.0162  1.0000  -2.9544   0.0000   0.0000   0.0000   0.3012
  17.500   0.8765   0.19563   0.19108  -0.0631  0.0163  1.0000  -2.8808   0.0000   0.0000   0.0000   0.3026
  17.600   0.8755   0.19872   0.19416  -0.0642  0.0164  1.0000  -2.8133   0.0000   0.0000   0.0000   0.3039
  17.700   0.8747   0.20174   0.19717  -0.0653  0.0165  1.0000  -2.7507   0.0000   0.0000   0.0000   0.3052
  17.800   0.8741   0.20473   0.20015  -0.0663  0.0167  1.0000  -2.6916   0.0000   0.0000   0.0000   0.3064
  17.900   0.8736   0.20770   0.20311  -0.0672  0.0168  1.0000  -2.6343   0.0000   0.0000   0.0000   0.3075
  18.000   0.8729   0.21076   0.20616  -0.0681  0.0170  1.0000  -2.5744   0.0000   0.0000   0.0000   0.3085
  18.400   0.8812   0.21938   0.21483  -0.0710  0.0180  1.0000  -2.5211   0.0000   0.0000   0.0000   0.3106
  18.500   0.8734   0.22841   0.22381  -0.0741  0.0211  1.0000  -2.1166   0.0000   0.0000   0.0000   0.3154
  18.600   0.8715   0.23266   0.22804  -0.0755  0.0227  1.0000  -1.9948   0.0000   0.0000   0.0000   0.3173
  18.700   0.8714   0.23586   0.23123  -0.0764  0.0241  1.0000  -1.9318   0.0000   0.0000   0.0000   0.3184
  18.800   0.8720   0.23865   0.23402  -0.0772  0.0255  1.0000  -1.8928   0.0000   0.0000   0.0000   0.3192
  18.900   0.8733   0.24114   0.23651  -0.0778  0.0269  1.0000  -1.8734   0.0000   0.0000   0.0000   0.3196
  19.000   0.8758   0.24336   0.23874  -0.0777  0.0286  1.0000  -1.8884   0.0000   0.0000   0.0000   0.3191
  19.100   0.8724   0.24902   0.24442  -0.0802  0.0371  1.0000  -1.6683   0.0000   0.0000   0.0000   0.3225
  19.200   0.8730   0.25170   0.24710  -0.0811  0.0379  1.0000  -1.6380   0.0000   0.0000   0.0000   0.3234
  19.300   0.8739   0.25417   0.24957  -0.0819  0.0383  1.0000  -1.6185   0.0000   0.0000   0.0000   0.3242
  19.400   0.8750   0.25653   0.25193  -0.0826  0.0385  1.0000  -1.6042   0.0000   0.0000   0.0000   0.3248
  19.500   0.8761   0.25883   0.25424  -0.0834  0.0386  1.0000  -1.5929   0.0000   0.0000   0.0000   0.3254
  19.600   0.8773   0.26109   0.25650  -0.0841  0.0385  1.0000  -1.5837   0.0000   0.0000   0.0000   0.3260
  19.700   0.8785   0.26333   0.25874  -0.0848  0.0384  1.0000  -1.5760   0.0000   0.0000   0.0000   0.3266
  19.800   0.8796   0.26554   0.26095  -0.0855  0.0382  1.0000  -1.5694   0.0000   0.0000   0.0000   0.3271
  19.900   0.8808   0.26773   0.26315  -0.0862  0.0380  1.0000  -1.5637   0.0000   0.0000   0.0000   0.3276
  20.000   0.8820   0.26991   0.26533  -0.0868  0.0378  1.0000  -1.5588   0.0000   0.0000   0.0000   0.3281
  20.100   0.8832   0.27207   0.26750  -0.0875  0.0375  1.0000  -1.5546   0.0000   0.0000   0.0000   0.3286
  20.200   0.8843   0.27422   0.26966  -0.0881  0.0372  1.0000  -1.5511   0.0000   0.0000   0.0000   0.3290
  20.300   0.8854   0.27637   0.27180  -0.0887  0.0370  1.0000  -1.5481   0.0000   0.0000   0.0000   0.3295
  20.400   0.8865   0.27850   0.27394  -0.0893  0.0367  1.0000  -1.5457   0.0000   0.0000   0.0000   0.3299
  20.500   0.8875   0.28062   0.27607  -0.0899  0.0364  1.0000  -1.5439   0.0000   0.0000   0.0000   0.3303
  20.600   0.8885   0.28272   0.27818  -0.0905  0.0362  1.0000  -1.5426   0.0000   0.0000   0.0000   0.3307
  20.700   0.8895   0.28482   0.28028  -0.0910  0.0359  1.0000  -1.5418   0.0000   0.0000   0.0000   0.3311
  20.800   0.8904   0.28690   0.28237  -0.0915  0.0356  1.0000  -1.5417   0.0000   0.0000   0.0000   0.3315
  20.900   0.8912   0.28896   0.28444  -0.0921  0.0354  1.0000  -1.5421   0.0000   0.0000   0.0000   0.3318
  21.000   0.8921   0.29101   0.28650  -0.0925  0.0351  1.0000  -1.5432   0.0000   0.0000   0.0000   0.3321
  21.100   0.8929   0.29305   0.28854  -0.0930  0.0348  1.0000  -1.5450   0.0000   0.0000   0.0000   0.3324
  21.200   0.8936   0.29506   0.29056  -0.0935  0.0346  1.0000  -1.5476   0.0000   0.0000   0.0000   0.3327
  21.300   0.8942   0.29706   0.29257  -0.0939  0.0343  1.0000  -1.5510   0.0000   0.0000   0.0000   0.3330
  21.400   0.8949   0.29904   0.29456  -0.0942  0.0341  1.0000  -1.5554   0.0000   0.0000   0.0000   0.3332
  21.500   0.8954   0.30100   0.29653  -0.0946  0.0338  1.0000  -1.5608   0.0000   0.0000   0.0000   0.3334
  21.600   0.8960   0.30295   0.29849  -0.0949  0.0336  1.0000  -1.5674   0.0000   0.0000   0.0000   0.3335
  21.700   0.8965   0.30489   0.30044  -0.0951  0.0333  1.0000  -1.5754   0.0000   0.0000   0.0000   0.3336
  21.800   0.8969   0.30683   0.30240  -0.0953  0.0331  1.0000  -1.5848   0.0000   0.0000   0.0000   0.3336
  21.900   0.8974   0.30880   0.30438  -0.0955  0.0328  1.0000  -1.5964   0.0000   0.0000   0.0000   0.3335
  22.000   0.8981   0.31084   0.30643  -0.0955  0.0326  1.0000  -1.6103   0.0000   0.0000   0.0000   0.3334
  22.100   0.8989   0.31303   0.30864  -0.0954  0.0323  1.0000  -1.6274   0.0000   0.0000   0.0000   0.3330
  22.200   0.9004   0.31564   0.31127  -0.0952  0.0320  1.0000  -1.6495   0.0000   0.0000   0.0000   0.3325
  22.300   0.9015   0.31999   0.31564  -0.0947  0.0315  1.0000  -1.6610   0.0000   0.0000   0.0000   0.3318
  22.400   0.8951   0.32573   0.32134  -0.0949  0.0310  1.0000  -1.5885   0.0000   0.0000   0.0000   0.3328
  22.500   0.8926   0.32721   0.32284  -0.0952  0.0310  1.0000  -1.5731   0.0000   0.0000   0.0000   0.3334
  22.600   0.8895   0.32846   0.32411  -0.0954  0.0310  1.0000  -1.5561   0.0000   0.0000   0.0000   0.3339
  22.700   0.8632   0.32324   0.31897  -0.0929  0.0310  1.0000  -1.4862   0.0000   0.0000   0.0000   0.3347
  22.800   0.8513   0.32126   0.31704  -0.0921  0.0310  1.0000  -1.4496   0.0000   0.0000   0.0000   0.3354
  22.900   0.8441   0.32050   0.31630  -0.0918  0.0309  1.0000  -1.4237   0.0000   0.0000   0.0000   0.3360
  23.000   0.8384   0.32012   0.31596  -0.0917  0.0309  1.0000  -1.4017   0.0000   0.0000   0.0000   0.3367
  23.100   0.8338   0.31995   0.31581  -0.0917  0.0309  1.0000  -1.3819   0.0000   0.0000   0.0000   0.3373
  23.200   0.8296   0.31988   0.31576  -0.0918  0.0309  1.0000  -1.3633   0.0000   0.0000   0.0000   0.3379
  23.300   0.8259   0.31988   0.31578  -0.0919  0.0309  1.0000  -1.3457   0.0000   0.0000   0.0000   0.3385
  23.400   0.8225   0.31994   0.31586  -0.0921  0.0309  1.0000  -1.3291   0.0000   0.0000   0.0000   0.3392
  23.500   0.8194   0.32005   0.31598  -0.0923  0.0308  1.0000  -1.3132   0.0000   0.0000   0.0000   0.3398
  23.600   0.8166   0.32019   0.31614  -0.0925  0.0308  1.0000  -1.2979   0.0000   0.0000   0.0000   0.3404
  23.700   0.8139   0.32033   0.31630  -0.0927  0.0308  1.0000  -1.2829   0.0000   0.0000   0.0000   0.3410
  23.800   0.8113   0.32047   0.31645  -0.0930  0.0307  1.0000  -1.2680   0.0000   0.0000   0.0000   0.3417
  23.900   0.8089   0.32061   0.31661  -0.0933  0.0307  1.0000  -1.2536   0.0000   0.0000   0.0000   0.3424
  24.000   0.8063   0.32068   0.31669  -0.0936  0.0307  1.0000  -1.2377   0.0000   0.0000   0.0000   0.3431
  24.100   0.8034   0.32063   0.31667  -0.0940  0.0306  1.0000  -1.2196   0.0000   0.0000   0.0000   0.3439
  24.200   0.8008   0.32061   0.31666  -0.0944  0.0306  1.0000  -1.2020   0.0000   0.0000   0.0000   0.3447
  24.300   0.7983   0.32061   0.31667  -0.0948  0.0305  1.0000  -1.1846   0.0000   0.0000   0.0000   0.3456
  24.400   0.7960   0.32063   0.31670  -0.0953  0.0305  1.0000  -1.1674   0.0000   0.0000   0.0000   0.3464
  24.500   0.7938   0.32067   0.31675  -0.0957  0.0304  1.0000  -1.1504   0.0000   0.0000   0.0000   0.3472
  24.600   0.7917   0.32073   0.31683  -0.0962  0.0303  1.0000  -1.1334   0.0000   0.0000   0.0000   0.3481
  24.700   0.7899   0.32082   0.31694  -0.0968  0.0302  1.0000  -1.1164   0.0000   0.0000   0.0000   0.3490
  24.800   0.7882   0.32096   0.31708  -0.0973  0.0301  1.0000  -1.0993   0.0000   0.0000   0.0000   0.3499
  24.900   0.7867   0.32115   0.31729  -0.0979  0.0300  1.0000  -1.0820   0.0000   0.0000   0.0000   0.3508
  25.000   0.7854   0.32143   0.31758  -0.0986  0.0298  1.0000  -1.0645   0.0000   0.0000   0.0000   0.3517
  25.100   0.7845   0.32182   0.31798  -0.0992  0.0295  1.0000  -1.0470   0.0000   0.0000   0.0000   0.3526
  25.200   0.7837   0.32233   0.31850  -0.0999  0.0292  1.0000  -1.0302   0.0000   0.0000   0.0000   0.3535
  25.300   0.7832   0.32294   0.31912  -0.1005  0.0288  1.0000  -1.0150   0.0000   0.0000   0.0000   0.3543
  25.400   0.7828   0.32360   0.31980  -0.1011  0.0284  1.0000  -1.0020   0.0000   0.0000   0.0000   0.3549
  25.500   0.7823   0.32428   0.32049  -0.1016  0.0280  1.0000  -0.9909   0.0000   0.0000   0.0000   0.3556
  25.600   0.7819   0.32496   0.32118  -0.1020  0.0276  1.0000  -0.9815   0.0000   0.0000   0.0000   0.3561
  25.700   0.7815   0.32563   0.32186  -0.1025  0.0272  1.0000  -0.9732   0.0000   0.0000   0.0000   0.3567
  25.800   0.7810   0.32629   0.32253  -0.1029  0.0268  1.0000  -0.9659   0.0000   0.0000   0.0000   0.3572
  25.900   0.7806   0.32694   0.32319  -0.1033  0.0264  1.0000  -0.9594   0.0000   0.0000   0.0000   0.3577
  26.000   0.7802   0.32759   0.32386  -0.1037  0.0260  1.0000  -0.9534   0.0000   0.0000   0.0000   0.3581
  26.100   0.7798   0.32823   0.32451  -0.1041  0.0257  1.0000  -0.9480   0.0000   0.0000   0.0000   0.3586
  26.200   0.7795   0.32887   0.32516  -0.1045  0.0253  1.0000  -0.9431   0.0000   0.0000   0.0000   0.3590
  26.300   0.7791   0.32951   0.32581  -0.1049  0.0250  1.0000  -0.9385   0.0000   0.0000   0.0000   0.3595
  26.400   0.7788   0.33014   0.32646  -0.1053  0.0246  1.0000  -0.9343   0.0000   0.0000   0.0000   0.3599
  26.500   0.7785   0.33078   0.32711  -0.1057  0.0243  1.0000  -0.9305   0.0000   0.0000   0.0000   0.3604
  26.600   0.7782   0.33141   0.32782  -0.1061  0.0240  1.0000  -0.9271   0.0000   0.0000   0.0000   0.3608
  26.700   0.7780   0.33204   0.32846  -0.1065  0.0237  1.0000  -0.9240   0.0000   0.0000   0.0000   0.3612
  26.800   0.7777   0.33267   0.32910  -0.1069  0.0234  1.0000  -0.9211   0.0000   0.0000   0.0000   0.3616
  26.900   0.7775   0.33329   0.32974  -0.1073  0.0231  1.0000  -0.9186   0.0000   0.0000   0.0000   0.3620
  27.000   0.7773   0.33391   0.33037  -0.1077  0.0228  1.0000  -0.9164   0.0000   0.0000   0.0000   0.3624
  27.100   0.7772   0.33453   0.33101  -0.1081  0.0225  1.0000  -0.9145   0.0000   0.0000   0.0000   0.3628
  27.200   0.7770   0.33515   0.33164  -0.1085  0.0223  1.0000  -0.9129   0.0000   0.0000   0.0000   0.3632
  27.300   0.7768   0.33577   0.33226  -0.1089  0.0220  1.0000  -0.9116   0.0000   0.0000   0.0000   0.3636
  27.400   0.7767   0.33638   0.33289  -0.1093  0.0217  1.0000  -0.9108   0.0000   0.0000   0.0000   0.3640
  27.500   0.7766   0.33699   0.33351  -0.1097  0.0215  1.0000  -0.9103   0.0000   0.0000   0.0000   0.3644
  27.600   0.7765   0.33759   0.33412  -0.1101  0.0212  1.0000  -0.9102   0.0000   0.0000   0.0000   0.3647
  27.700   0.7764   0.33819   0.33474  -0.1105  0.0210  1.0000  -0.9105   0.0000   0.0000   0.0000   0.3651
  27.800   0.7764   0.33878   0.33534  -0.1109  0.0207  1.0000  -0.9112   0.0000   0.0000   0.0000   0.3655
  27.900   0.7763   0.33937   0.33594  -0.1113  0.0205  1.0000  -0.9124   0.0000   0.0000   0.0000   0.3658
  28.000   0.7762   0.33995   0.33654  -0.1117  0.0203  1.0000  -0.9141   0.0000   0.0000   0.0000   0.3661
  28.100   0.7762   0.34053   0.33713  -0.1121  0.0200  1.0000  -0.9164   0.0000   0.0000   0.0000   0.3665
  28.200   0.7762   0.34110   0.33771  -0.1124  0.0198  1.0000  -0.9193   0.0000   0.0000   0.0000   0.3668
  28.300   0.7762   0.34166   0.33828  -0.1128  0.0196  1.0000  -0.9228   0.0000   0.0000   0.0000   0.3671
  28.400   0.7762   0.34221   0.33885  -0.1132  0.0194  1.0000  -0.9270   0.0000   0.0000   0.0000   0.3673
  28.500   0.7762   0.34276   0.33941  -0.1135  0.0192  1.0000  -0.9319   0.0000   0.0000   0.0000   0.3676
  28.600   0.7762   0.34331   0.33997  -0.1138  0.0190  1.0000  -0.9378   0.0000   0.0000   0.0000   0.3678
  28.700   0.7762   0.34385   0.34053  -0.1142  0.0188  1.0000  -0.9445   0.0000   0.0000   0.0000   0.3680
  28.800   0.7763   0.34441   0.34110  -0.1144  0.0186  1.0000  -0.9524   0.0000   0.0000   0.0000   0.3682
  28.900   0.7763   0.34498   0.34169  -0.1147  0.0184  1.0000  -0.9614   0.0000   0.0000   0.0000   0.3683
  29.000   0.7765   0.34561   0.34233  -0.1149  0.0183  1.0000  -0.9717   0.0000   0.0000   0.0000   0.3684
  29.100   0.7767   0.34633   0.34306  -0.1151  0.0181  1.0000  -0.9839   0.0000   0.0000   0.0000   0.3684
  29.200   0.7770   0.34726   0.34400  -0.1152  0.0179  1.0000  -0.9979   0.0000   0.0000   0.0000   0.3683
  29.300   0.7778   0.34869   0.34546  -0.1152  0.0177  1.0000  -1.0143   0.0000   0.0000   0.0000   0.3679
  29.400   0.7807   0.35326   0.35004  -0.1148  0.0173  1.0000  -1.0346   0.0000   0.0000   0.0000   0.3667


