xflr5 v6.61

 Calculated polar for: S5010

 1 1 Reynolds number fixed          Mach number fixed         

 xtrf =   1.000 (top)        1.000 (bottom)
 Mach =   0.000     Re =     0.688 e 6     Ncrit =   9.000

  alpha     CL        CD       CDp       Cm    Top Xtr Bot Xtr   Cpmin    Chinge    XCp    
 ------- -------- --------- --------- -------- ------- ------- -------- --------- ---------
 -10.000  -0.5386   0.12401   0.12217   0.0347  1.0000  0.0142  -1.6990   0.0000   0.0000   0.0000   0.3094
  -9.900  -0.5367   0.12246   0.12063   0.0340  1.0000  0.0142  -1.7058   0.0000   0.0000   0.0000   0.3083
  -9.800  -0.5349   0.12092   0.11909   0.0332  1.0000  0.0143  -1.7131   0.0000   0.0000   0.0000   0.3072
  -9.700  -0.5330   0.11936   0.11754   0.0325  1.0000  0.0143  -1.7207   0.0000   0.0000   0.0000   0.3060
  -9.600  -0.5311   0.11776   0.11595   0.0317  1.0000  0.0143  -1.7287   0.0000   0.0000   0.0000   0.3048
  -9.500  -0.5291   0.11614   0.11433   0.0308  1.0000  0.0143  -1.7369   0.0000   0.0000   0.0000   0.3035
  -9.400  -0.5271   0.11451   0.11271   0.0300  1.0000  0.0143  -1.7456   0.0000   0.0000   0.0000   0.3022
  -9.300  -0.5252   0.11287   0.11108   0.0292  1.0000  0.0143  -1.7548   0.0000   0.0000   0.0000   0.3008
  -9.200  -0.5234   0.11123   0.10945   0.0283  1.0000  0.0143  -1.7644   0.0000   0.0000   0.0000   0.2994
  -9.100  -0.5215   0.10958   0.10780   0.0274  1.0000  0.0143  -1.7745   0.0000   0.0000   0.0000   0.2980
  -9.000  -0.5198   0.10792   0.10615   0.0266  1.0000  0.0144  -1.7850   0.0000   0.0000   0.0000   0.2965
  -8.900  -0.5181   0.10625   0.10449   0.0257  1.0000  0.0144  -1.7961   0.0000   0.0000   0.0000   0.2950
  -8.800  -0.5165   0.10458   0.10283   0.0247  1.0000  0.0144  -1.8077   0.0000   0.0000   0.0000   0.2934
  -8.700  -0.5147   0.10290   0.10115   0.0237  0.9577  0.0144  -1.8201   0.0000   0.0000   0.0000   0.2916
  -8.600  -0.5105   0.10091   0.09909   0.0219  0.9149  0.0144  -1.8333   0.0000   0.0000   0.0000   0.2884
  -6.500  -0.5023   0.06223   0.05973  -0.0023  0.7596  0.0144  -2.3251   0.0000   0.0000   0.0000   0.2422
  -6.400  -0.4991   0.06012   0.05758  -0.0031  0.7579  0.0144  -2.3502   0.0000   0.0000   0.0000   0.2404
  -6.300  -0.4956   0.05803   0.05543  -0.0039  0.7559  0.0144  -2.3742   0.0000   0.0000   0.0000   0.2389
  -6.200  -0.4919   0.05596   0.05331  -0.0045  0.7536  0.0144  -2.3971   0.0000   0.0000   0.0000   0.2376
  -6.100  -0.4878   0.05390   0.05118  -0.0050  0.7510  0.0144  -2.4194   0.0000   0.0000   0.0000   0.2364
  -6.000  -0.4836   0.05185   0.04906  -0.0055  0.7483  0.0143  -2.4408   0.0000   0.0000   0.0000   0.2354
  -5.900  -0.4791   0.04980   0.04692  -0.0058  0.7454  0.0143  -2.4627   0.0000   0.0000   0.0000   0.2345
  -5.800  -0.4744   0.04772   0.04475  -0.0061  0.7423  0.0143  -2.4862   0.0000   0.0000   0.0000   0.2338
  -5.700  -0.4698   0.04557   0.04250  -0.0063  0.7390  0.0143  -2.5143   0.0000   0.0000   0.0000   0.2332
  -5.600  -0.4659   0.04304   0.03985  -0.0065  0.7358  0.0142  -2.5645   0.0000   0.0000   0.0000   0.2327
  -5.500  -0.4792   0.03317   0.02943  -0.0067  0.7351  0.0115  -3.1340   0.0000   0.0000   0.0000   0.2324
  -5.400  -0.4756   0.02929   0.02523  -0.0061  0.7323  0.0103  -3.3453   0.0000   0.0000   0.0000   0.2336
  -5.300  -0.4710   0.02529   0.02081  -0.0050  0.7293  0.0091  -3.6066   0.0000   0.0000   0.0000   0.2356
  -5.200  -0.4658   0.02092   0.01593  -0.0035  0.7262  0.0081  -3.9457   0.0000   0.0000   0.0000   0.2384
  -5.100  -0.4585   0.01795   0.01256  -0.0024  0.7222  0.0075  -4.1508   0.0000   0.0000   0.0000   0.2407
  -5.000  -0.4496   0.01621   0.01055  -0.0017  0.7172  0.0073  -4.2168   0.0000   0.0000   0.0000   0.2422
  -4.900  -0.4399   0.01509   0.00925  -0.0012  0.7128  0.0072  -4.2067   0.0000   0.0000   0.0000   0.2433
  -4.800  -0.4299   0.01428   0.00833  -0.0008  0.7115  0.0072  -4.1528   0.0000   0.0000   0.0000   0.2441
  -4.700  -0.4196   0.01368   0.00765  -0.0005  0.7099  0.0074  -4.0715   0.0000   0.0000   0.0000   0.2449
  -4.600  -0.4091   0.01321   0.00713  -0.0002  0.7079  0.0076  -3.9717   0.0000   0.0000   0.0000   0.2455
  -4.500  -0.3985   0.01284   0.00672   0.0000  0.7058  0.0079  -3.8588   0.0000   0.0000   0.0000   0.2461
  -4.400  -0.3878   0.01255   0.00639   0.0002  0.7034  0.0083  -3.7373   0.0000   0.0000   0.0000   0.2466
  -4.300  -0.3770   0.01232   0.00613   0.0004  0.7007  0.0087  -3.6153   0.0000   0.0000   0.0000   0.2471
  -4.200  -0.3662   0.01210   0.00587   0.0005  0.6979  0.0091  -3.5176   0.0000   0.0000   0.0000   0.2475
  -4.100  -0.3559   0.01171   0.00534   0.0008  0.6949  0.0086  -3.5051   0.0000   0.0000   0.0000   0.2483
  -4.000  -0.3450   0.01157   0.00518   0.0009  0.6918  0.0092  -3.3843   0.0000   0.0000   0.0000   0.2487
  -3.900  -0.3340   0.01146   0.00506   0.0010  0.6885  0.0097  -3.2669   0.0000   0.0000   0.0000   0.2491
  -3.800  -0.3230   0.01138   0.00496   0.0011  0.6850  0.0103  -3.1529   0.0000   0.0000   0.0000   0.2495
  -3.700  -0.3120   0.01132   0.00488   0.0011  0.6811  0.0109  -3.0414   0.0000   0.0000   0.0000   0.2498
  -3.600  -0.3009   0.01128   0.00482   0.0012  0.6766  0.0115  -2.9314   0.0000   0.0000   0.0000   0.2501
  -3.500  -0.2898   0.01126   0.00478   0.0012  0.6713  0.0120  -2.8221   0.0000   0.0000   0.0000   0.2504
  -3.400  -0.2787   0.01127   0.00479   0.0012  0.6654  0.0125  -2.7110   0.0000   0.0000   0.0000   0.2506
  -3.300  -0.2673   0.01128   0.00481   0.0012  0.6630  0.0129  -2.5970   0.0000   0.0000   0.0000   0.2507
  -3.200  -0.2559   0.01132   0.00487   0.0011  0.6615  0.0133  -2.4806   0.0000   0.0000   0.0000   0.2507
  -3.100  -0.2444   0.01138   0.00497   0.0011  0.6597  0.0136  -2.3620   0.0000   0.0000   0.0000   0.2507
  -2.700  -0.1981   0.01192   0.00560   0.0007  0.6500  0.0148  -1.8901   0.0000   0.0000   0.0000   0.2498
  -2.600  -0.1882   0.01129   0.00490   0.0010  0.6473  0.0153  -1.8711   0.0000   0.0000   0.0000   0.2517
  -2.500  -0.1780   0.01086   0.00441   0.0013  0.6443  0.0157  -1.8382   0.0000   0.0000   0.0000   0.2535
  -2.400  -0.1675   0.01054   0.00404   0.0015  0.6412  0.0162  -1.7980   0.0000   0.0000   0.0000   0.2552
  -2.300  -0.1569   0.01028   0.00374   0.0017  0.6379  0.0166  -1.7536   0.0000   0.0000   0.0000   0.2570
  -2.200  -0.1462   0.01007   0.00348   0.0019  0.6343  0.0170  -1.7066   0.0000   0.0000   0.0000   0.2589
  -2.100  -0.1353   0.00990   0.00325   0.0020  0.6302  0.0174  -1.6581   0.0000   0.0000   0.0000   0.2610
  -2.000  -0.1244   0.00975   0.00305   0.0022  0.6254  0.0178  -1.6087   0.0000   0.0000   0.0000   0.2633
  -1.900  -0.1135   0.00963   0.00287   0.0023  0.6197  0.0182  -1.5587   0.0000   0.0000   0.0000   0.2659
  -1.800  -0.1025   0.00953   0.00272   0.0024  0.6138  0.0192  -1.5076   0.0000   0.0000   0.0000   0.2689
  -1.700  -0.0914   0.00940   0.00259   0.0025  0.6125  0.0210  -1.4483   0.0000   0.0000   0.0000   0.2723
  -1.600  -0.0802   0.00930   0.00252   0.0025  0.6111  0.0230  -1.3788   0.0000   0.0000   0.0000   0.2761
  -1.500  -0.0690   0.00921   0.00243   0.0025  0.6093  0.0243  -1.3143   0.0000   0.0000   0.0000   0.2814
  -1.400  -0.0578   0.00911   0.00230   0.0026  0.6074  0.0248  -1.2653   0.0000   0.0000   0.0000   0.2895
  -1.300  -0.0465   0.00901   0.00216   0.0027  0.6052  0.0246  -1.2201   0.0000   0.0000   0.0000   0.3020
  -1.200  -0.0350   0.00898   0.00201   0.0027  0.6027  0.0234  -1.1367   0.0000   0.0000   0.0000   0.3209
  -1.100  -0.0237   0.00891   0.00190   0.0028  0.5999  0.0234  -1.0933   0.0000   0.0000   0.0000   0.3594
  -1.000  -0.0124   0.00885   0.00180   0.0029  0.5968  0.0236  -1.0496   0.0000   0.0000   0.0000   0.4677
  -0.900  -0.0011   0.00880   0.00169   0.0030  0.5932  0.0241  -1.0071   0.0000   0.0000   0.0000   2.8465
  -0.800   0.0102   0.00875   0.00159   0.0031  0.5892  0.0254  -0.9694   0.0000   0.0000   0.0000  -0.0359
  -0.700   0.0192   0.00809   0.00142   0.0033  0.5852  0.1580  -0.9713   0.0000   0.0000   0.0000   0.0831
  -0.600   0.0287   0.00771   0.00136   0.0034  0.5805  0.2535  -0.9220   0.0000   0.0000   0.0000   0.1336
  -0.500   0.0389   0.00750   0.00132   0.0035  0.5751  0.3146  -0.8683   0.0000   0.0000   0.0000   0.1612
  -0.400   0.0492   0.00732   0.00130   0.0036  0.5693  0.3681  -0.8139   0.0000   0.0000   0.0000   0.1774
  -0.300   0.0595   0.00717   0.00129   0.0037  0.5639  0.4184  -0.7597   0.0000   0.0000   0.0000   0.1879
  -0.200   0.0699   0.00699   0.00127   0.0038  0.5622  0.4672  -0.7057   0.0000   0.0000   0.0000   0.1950
  -0.100   0.0801   0.00679   0.00126   0.0039  0.5610  0.5199  -0.6526   0.0000   0.0000   0.0000   0.1997
   0.000   0.0900   0.00658   0.00125   0.0042  0.5596  0.5787  -0.6008   0.0000   0.0000   0.0000   0.2024
   0.100   0.0995   0.00635   0.00124   0.0045  0.5579  0.6416  -0.5508   0.0000   0.0000   0.0000   0.2031
   0.200   0.1087   0.00615   0.00124   0.0050  0.5558  0.6993  -0.5507   0.0000   0.0000   0.0000   0.2028
   0.300   0.1178   0.00596   0.00124   0.0055  0.5531  0.7544  -0.5608   0.0000   0.0000   0.0000   0.2016
   0.400   0.1265   0.00577   0.00125   0.0062  0.5500  0.8134  -0.5707   0.0000   0.0000   0.0000   0.1993
   0.500   0.1353   0.00559   0.00127   0.0069  0.5464  0.8752  -0.5808   0.0000   0.0000   0.0000   0.1967
   0.600   0.1558   0.00554   0.00133   0.0053  0.5414  0.9395  -0.5981   0.0000   0.0000   0.0000   0.2140
   0.700   0.1773   0.00558   0.00135   0.0032  0.5361  0.9629  -0.6159   0.0000   0.0000   0.0000   0.2300
   0.800   0.1916   0.00563   0.00135   0.0026  0.5314  0.9734  -0.6306   0.0000   0.0000   0.0000   0.2343
   0.900   0.2087   0.00568   0.00135   0.0013  0.5257  0.9789  -0.6478   0.0000   0.0000   0.0000   0.2413
   1.000   0.2235   0.00573   0.00136   0.0006  0.5195  0.9839  -0.6636   0.0000   0.0000   0.0000   0.2451
   1.100   0.2406   0.00579   0.00138  -0.0007  0.5128  0.9888  -0.6809   0.0000   0.0000   0.0000   0.2504
   1.200   0.2629   0.00579   0.00138  -0.0031  0.5110  0.9939  -0.7020   0.0000   0.0000   0.0000   0.2592
   1.300   0.2867   0.00578   0.00136  -0.0058  0.5086  0.9989  -0.7245   0.0000   0.0000   0.0000   0.2677
   1.400   0.3011   0.00578   0.00135  -0.0065  0.5058  1.0000  -0.7403   0.0000   0.0000   0.0000   0.2689
   1.500   0.3117   0.00579   0.00135  -0.0063  0.5026  1.0000  -0.7535   0.0000   0.0000   0.0000   0.2678
   1.600   0.3224   0.00581   0.00134  -0.0062  0.4990  1.0000  -0.7667   0.0000   0.0000   0.0000   0.2667
   1.700   0.3330   0.00583   0.00134  -0.0061  0.4953  1.0000  -0.7800   0.0000   0.0000   0.0000   0.2656
   1.800   0.3436   0.00585   0.00134  -0.0060  0.4913  1.0000  -0.7948   0.0000   0.0000   0.0000   0.2647
   1.900   0.3543   0.00588   0.00135  -0.0059  0.4869  1.0000  -0.8104   0.0000   0.0000   0.0000   0.2638
   2.000   0.3649   0.00592   0.00135  -0.0058  0.4821  1.0000  -0.8261   0.0000   0.0000   0.0000   0.2630
   2.100   0.3756   0.00596   0.00139  -0.0057  0.4765  1.0000  -0.8418   0.0000   0.0000   0.0000   0.2622
   2.200   0.3862   0.00601   0.00140  -0.0056  0.4700  1.0000  -0.8575   0.0000   0.0000   0.0000   0.2615
   2.300   0.3969   0.00607   0.00142  -0.0055  0.4633  1.0000  -0.8732   0.0000   0.0000   0.0000   0.2608
   2.400   0.4076   0.00608   0.00143  -0.0054  0.4613  1.0000  -0.8892   0.0000   0.0000   0.0000   0.2601
   2.500   0.4183   0.00609   0.00144  -0.0053  0.4593  1.0000  -0.9053   0.0000   0.0000   0.0000   0.2595
   2.600   0.4290   0.00611   0.00146  -0.0052  0.4565  1.0000  -0.9233   0.0000   0.0000   0.0000   0.2588
   2.700   0.4397   0.00613   0.00147  -0.0051  0.4529  1.0000  -0.9423   0.0000   0.0000   0.0000   0.2582
   2.800   0.4504   0.00616   0.00148  -0.0050  0.4486  1.0000  -0.9613   0.0000   0.0000   0.0000   0.2577
   2.900   0.4611   0.00619   0.00149  -0.0049  0.4441  1.0000  -0.9803   0.0000   0.0000   0.0000   0.2572
   3.000   0.4718   0.00624   0.00151  -0.0048  0.4393  1.0000  -0.9995   0.0000   0.0000   0.0000   0.2566
   3.100   0.4824   0.00629   0.00153  -0.0047  0.4338  1.0000  -1.0187   0.0000   0.0000   0.0000   0.2562
   3.200   0.4930   0.00635   0.00155  -0.0047  0.4270  1.0000  -1.0379   0.0000   0.0000   0.0000   0.2557
   3.300   0.5037   0.00642   0.00158  -0.0046  0.4185  1.0000  -1.0571   0.0000   0.0000   0.0000   0.2553
   3.400   0.5143   0.00647   0.00161  -0.0045  0.4128  1.0000  -1.0765   0.0000   0.0000   0.0000   0.2549
   3.500   0.5251   0.00649   0.00164  -0.0044  0.4106  1.0000  -1.0962   0.0000   0.0000   0.0000   0.2545
   3.600   0.5358   0.00652   0.00166  -0.0043  0.4073  1.0000  -1.1159   0.0000   0.0000   0.0000   0.2540
   3.700   0.5465   0.00655   0.00169  -0.0042  0.4033  1.0000  -1.1357   0.0000   0.0000   0.0000   0.2537
   3.800   0.5572   0.00660   0.00172  -0.0042  0.3986  1.0000  -1.1581   0.0000   0.0000   0.0000   0.2533
   3.900   0.5679   0.00665   0.00175  -0.0041  0.3933  1.0000  -1.1821   0.0000   0.0000   0.0000   0.2529
   4.000   0.5785   0.00672   0.00178  -0.0040  0.3874  1.0000  -1.2061   0.0000   0.0000   0.0000   0.2526
   4.100   0.5891   0.00680   0.00182  -0.0039  0.3805  1.0000  -1.2301   0.0000   0.0000   0.0000   0.2522
   4.200   0.5997   0.00688   0.00187  -0.0039  0.3722  1.0000  -1.2542   0.0000   0.0000   0.0000   0.2519
   4.300   0.6103   0.00695   0.00192  -0.0038  0.3655  1.0000  -1.2784   0.0000   0.0000   0.0000   0.2516
   4.400   0.6210   0.00698   0.00196  -0.0037  0.3633  1.0000  -1.3030   0.0000   0.0000   0.0000   0.2513
   4.500   0.6317   0.00702   0.00200  -0.0036  0.3598  1.0000  -1.3277   0.0000   0.0000   0.0000   0.2510
   4.600   0.6424   0.00707   0.00204  -0.0036  0.3545  1.0000  -1.3525   0.0000   0.0000   0.0000   0.2507
   4.700   0.6530   0.00715   0.00208  -0.0035  0.3477  1.0000  -1.3772   0.0000   0.0000   0.0000   0.2504
   4.800   0.6635   0.00724   0.00213  -0.0034  0.3398  1.0000  -1.4047   0.0000   0.0000   0.0000   0.2501
   4.900   0.6739   0.00735   0.00219  -0.0034  0.3309  1.0000  -1.4346   0.0000   0.0000   0.0000   0.2499
   5.000   0.6844   0.00746   0.00226  -0.0033  0.3217  1.0000  -1.4647   0.0000   0.0000   0.0000   0.2496
   5.100   0.6951   0.00751   0.00232  -0.0032  0.3181  1.0000  -1.4954   0.0000   0.0000   0.0000   0.2494
   5.200   0.7058   0.00756   0.00237  -0.0032  0.3151  1.0000  -1.5263   0.0000   0.0000   0.0000   0.2491
   5.300   0.7164   0.00762   0.00242  -0.0031  0.3108  1.0000  -1.5574   0.0000   0.0000   0.0000   0.2488
   5.400   0.7270   0.00769   0.00248  -0.0030  0.3048  1.0000  -1.5885   0.0000   0.0000   0.0000   0.2486
   5.500   0.7374   0.00780   0.00255  -0.0030  0.2972  1.0000  -1.6196   0.0000   0.0000   0.0000   0.2483
   5.600   0.7477   0.00794   0.00263  -0.0029  0.2874  1.0000  -1.6520   0.0000   0.0000   0.0000   0.2481
   5.700   0.7579   0.00810   0.00283  -0.0029  0.2693  1.0000  -1.6937   0.0000   0.0000   0.0000   0.2479
   5.800   0.7658   0.00877   0.00306  -0.0029  0.2047  1.0000  -1.7277   0.0000   0.0000   0.0000   0.2478
   5.900   0.7754   0.00904   0.00320  -0.0029  0.1814  1.0000  -1.7652   0.0000   0.0000   0.0000   0.2476
   6.000   0.7850   0.00932   0.00334  -0.0028  0.1628  1.0000  -1.8028   0.0000   0.0000   0.0000   0.2474
   6.100   0.7952   0.00946   0.00345  -0.0028  0.1533  1.0000  -1.8420   0.0000   0.0000   0.0000   0.2472
   6.200   0.8051   0.00966   0.00357  -0.0027  0.1423  1.0000  -1.8809   0.0000   0.0000   0.0000   0.2469
   6.300   0.8147   0.00990   0.00371  -0.0026  0.1283  1.0000  -1.9195   0.0000   0.0000   0.0000   0.2467
   6.400   0.8249   0.01004   0.00382  -0.0026  0.1212  1.0000  -1.9594   0.0000   0.0000   0.0000   0.2465
   6.500   0.8349   0.01022   0.00395  -0.0025  0.1129  1.0000  -1.9992   0.0000   0.0000   0.0000   0.2462
   6.600   0.8445   0.01047   0.00411  -0.0024  0.1021  1.0000  -2.0382   0.0000   0.0000   0.0000   0.2460
   6.700   0.8545   0.01062   0.00422  -0.0023  0.0943  1.0000  -2.0786   0.0000   0.0000   0.0000   0.2458
   6.800   0.8646   0.01077   0.00434  -0.0023  0.0884  1.0000  -2.1192   0.0000   0.0000   0.0000   0.2456
   6.900   0.8741   0.01102   0.00452  -0.0022  0.0794  1.0000  -2.1589   0.0000   0.0000   0.0000   0.2453
   7.000   0.8838   0.01125   0.00468  -0.0021  0.0697  1.0000  -2.2102   0.0000   0.0000   0.0000   0.2451
   7.100   0.8936   0.01144   0.00482  -0.0020  0.0630  1.0000  -2.2871   0.0000   0.0000   0.0000   0.2449
   7.200   0.9026   0.01180   0.00507  -0.0019  0.0501  1.0000  -2.3608   0.0000   0.0000   0.0000   0.2446
   7.300   0.9120   0.01205   0.00527  -0.0019  0.0410  1.0000  -2.4382   0.0000   0.0000   0.0000   0.2444
   7.400   0.9192   0.01273   0.00576  -0.0017  0.0176  1.0000  -2.5045   0.0000   0.0000   0.0000   0.2441
   7.500   0.9277   0.01316   0.00611  -0.0015  0.0072  1.0000  -2.5790   0.0000   0.0000   0.0000   0.2438
   7.600   0.9377   0.01330   0.00624  -0.0014  0.0068  1.0000  -2.6635   0.0000   0.0000   0.0000   0.2436
   7.700   0.9477   0.01344   0.00637  -0.0013  0.0064  1.0000  -2.7500   0.0000   0.0000   0.0000   0.2433
   7.800   0.9577   0.01357   0.00650  -0.0013  0.0061  1.0000  -2.8389   0.0000   0.0000   0.0000   0.2431
   7.900   0.9677   0.01370   0.00662  -0.0012  0.0057  1.0000  -2.9303   0.0000   0.0000   0.0000   0.2429
   8.000   0.9777   0.01383   0.00674  -0.0011  0.0053  1.0000  -3.0242   0.0000   0.0000   0.0000   0.2427
   8.100   0.9876   0.01398   0.00689  -0.0010  0.0049  1.0000  -3.1207   0.0000   0.0000   0.0000   0.2424
   8.200   0.9975   0.01413   0.00704  -0.0009  0.0045  1.0000  -3.2209   0.0000   0.0000   0.0000   0.2422
   8.300   1.0073   0.01429   0.00720  -0.0008  0.0042  1.0000  -3.3248   0.0000   0.0000   0.0000   0.2420
   8.400   1.0171   0.01446   0.00738  -0.0007  0.0039  1.0000  -3.4327   0.0000   0.0000   0.0000   0.2417
   8.500   1.0268   0.01462   0.00756  -0.0006  0.0036  1.0000  -3.5439   0.0000   0.0000   0.0000   0.2415
   8.600   1.0365   0.01479   0.00775  -0.0005  0.0034  1.0000  -3.6576   0.0000   0.0000   0.0000   0.2412
   8.700   1.0462   0.01497   0.00794  -0.0004  0.0033  1.0000  -3.7730   0.0000   0.0000   0.0000   0.2410
   8.800   1.0559   0.01515   0.00814  -0.0003  0.0032  1.0000  -3.8896   0.0000   0.0000   0.0000   0.2407
   8.900   1.0655   0.01532   0.00835  -0.0002  0.0031  1.0000  -4.0071   0.0000   0.0000   0.0000   0.2405
   9.000   1.0751   0.01551   0.00856  -0.0001  0.0030  1.0000  -4.1253   0.0000   0.0000   0.0000   0.2402
   9.100   1.0848   0.01562   0.00876  -0.0000  0.0034  1.0000  -4.1318   0.0000   0.0000   0.0000   0.2401
   9.200   1.0943   0.01580   0.00897   0.0001  0.0034  1.0000  -4.2387   0.0000   0.0000   0.0000   0.2398
   9.300   1.1038   0.01599   0.00920   0.0002  0.0033  1.0000  -4.3602   0.0000   0.0000   0.0000   0.2396
   9.400   1.1131   0.01620   0.00945   0.0003  0.0032  1.0000  -4.4862   0.0000   0.0000   0.0000   0.2393
   9.500   1.1224   0.01641   0.00970   0.0005  0.0031  1.0000  -4.6137   0.0000   0.0000   0.0000   0.2390
   9.600   1.1316   0.01663   0.00997   0.0006  0.0031  1.0000  -4.7415   0.0000   0.0000   0.0000   0.2388
   9.700   1.1406   0.01686   0.01025   0.0008  0.0030  1.0000  -4.8691   0.0000   0.0000   0.0000   0.2385
   9.800   1.1495   0.01711   0.01054   0.0010  0.0030  1.0000  -4.9961   0.0000   0.0000   0.0000   0.2382
   9.900   1.1582   0.01737   0.01086   0.0011  0.0030  1.0000  -5.1218   0.0000   0.0000   0.0000   0.2379
  10.000   1.1668   0.01766   0.01120   0.0013  0.0030  1.0000  -5.2465   0.0000   0.0000   0.0000   0.2376
  10.100   1.1751   0.01796   0.01155   0.0015  0.0030  1.0000  -5.3700   0.0000   0.0000   0.0000   0.2373
  10.200   1.1832   0.01828   0.01193   0.0018  0.0030  1.0000  -5.4922   0.0000   0.0000   0.0000   0.2369
  10.300   1.1911   0.01862   0.01231   0.0020  0.0030  1.0000  -5.6133   0.0000   0.0000   0.0000   0.2366
  10.400   1.1988   0.01897   0.01272   0.0022  0.0030  1.0000  -5.7327   0.0000   0.0000   0.0000   0.2362
  10.500   1.2062   0.01934   0.01315   0.0025  0.0031  1.0000  -5.8504   0.0000   0.0000   0.0000   0.2359
  10.600   1.2132   0.01974   0.01359   0.0028  0.0031  1.0000  -5.9660   0.0000   0.0000   0.0000   0.2355
  10.700   1.2200   0.02015   0.01406   0.0031  0.0032  1.0000  -6.0790   0.0000   0.0000   0.0000   0.2351
  10.800   1.2263   0.02059   0.01456   0.0034  0.0032  1.0000  -6.1889   0.0000   0.0000   0.0000   0.2347
  10.900   1.2322   0.02106   0.01509   0.0038  0.0033  1.0000  -6.2945   0.0000   0.0000   0.0000   0.2342
  11.000   1.2375   0.02156   0.01566   0.0042  0.0033  1.0000  -6.3956   0.0000   0.0000   0.0000   0.2338
  11.100   1.2422   0.02209   0.01625   0.0046  0.0034  1.0000  -6.4910   0.0000   0.0000   0.0000   0.2333
  11.200   1.2462   0.02266   0.01689   0.0050  0.0034  1.0000  -6.5795   0.0000   0.0000   0.0000   0.2328
  11.300   1.2494   0.02327   0.01757   0.0055  0.0035  1.0000  -6.6597   0.0000   0.0000   0.0000   0.2322
  11.400   1.2506   0.02392   0.01830   0.0061  0.0036  1.0000  -6.7242   0.0000   0.0000   0.0000   0.2316
  11.500   1.2496   0.02464   0.01909   0.0069  0.0036  1.0000  -6.7713   0.0000   0.0000   0.0000   0.2308
  11.600   1.2485   0.02545   0.01997   0.0075  0.0037  1.0000  -6.8144   0.0000   0.0000   0.0000   0.2302
  11.700   1.2473   0.02636   0.02094   0.0079  0.0038  1.0000  -6.8528   0.0000   0.0000   0.0000   0.2296
  11.800   1.2458   0.02736   0.02202   0.0082  0.0038  1.0000  -6.8839   0.0000   0.0000   0.0000   0.2292
  11.900   1.2439   0.02845   0.02318   0.0084  0.0039  1.0000  -6.9085   0.0000   0.0000   0.0000   0.2288
  12.000   1.2416   0.02964   0.02446   0.0086  0.0040  1.0000  -6.9260   0.0000   0.0000   0.0000   0.2285
  12.100   1.2389   0.03090   0.02580   0.0087  0.0041  1.0000  -6.9375   0.0000   0.0000   0.0000   0.2282
  12.200   1.2359   0.03220   0.02717   0.0088  0.0042  1.0000  -6.9444   0.0000   0.0000   0.0000   0.2279
  12.300   1.2322   0.03362   0.02868   0.0088  0.0043  1.0000  -6.9452   0.0000   0.0000   0.0000   0.2277
  12.400   1.2287   0.03506   0.03020   0.0088  0.0044  1.0000  -6.9437   0.0000   0.0000   0.0000   0.2275
  12.500   1.2250   0.03654   0.03176   0.0088  0.0045  1.0000  -6.9389   0.0000   0.0000   0.0000   0.2273
  12.600   1.2205   0.03815   0.03345   0.0086  0.0046  1.0000  -6.9296   0.0000   0.0000   0.0000   0.2272
  12.700   1.2162   0.03975   0.03513   0.0085  0.0047  1.0000  -6.9186   0.0000   0.0000   0.0000   0.2271
  12.800   1.2119   0.04135   0.03681   0.0085  0.0048  1.0000  -6.9054   0.0000   0.0000   0.0000   0.2269
  12.900   1.2070   0.04297   0.03851   0.0084  0.0050  1.0000  -6.8895   0.0000   0.0000   0.0000   0.2267
  13.000   1.2016   0.04474   0.04035   0.0081  0.0051  1.0000  -6.8707   0.0000   0.0000   0.0000   0.2268
  13.100   1.1965   0.04650   0.04220   0.0079  0.0052  1.0000  -6.8485   0.0000   0.0000   0.0000   0.2267
  13.200   1.1914   0.04830   0.04408   0.0077  0.0053  1.0000  -6.8239   0.0000   0.0000   0.0000   0.2267
  13.300   1.1861   0.05015   0.04602   0.0074  0.0055  1.0000  -6.7968   0.0000   0.0000   0.0000   0.2267
  13.400   1.1801   0.05219   0.04813   0.0069  0.0056  1.0000  -6.7682   0.0000   0.0000   0.0000   0.2269
  13.500   1.1741   0.05423   0.05025   0.0063  0.0057  1.0000  -6.7375   0.0000   0.0000   0.0000   0.2272
  13.600   1.1682   0.05627   0.05238   0.0059  0.0058  1.0000  -6.7040   0.0000   0.0000   0.0000   0.2274
  13.700   1.1621   0.05836   0.05454   0.0053  0.0059  1.0000  -6.6683   0.0000   0.0000   0.0000   0.2276
  13.800   1.1556   0.06055   0.05681   0.0046  0.0060  1.0000  -6.6320   0.0000   0.0000   0.0000   0.2280
  13.900   1.1487   0.06286   0.05920   0.0036  0.0061  1.0000  -6.5965   0.0000   0.0000   0.0000   0.2287
  14.000   1.1420   0.06517   0.06159   0.0028  0.0062  1.0000  -6.5570   0.0000   0.0000   0.0000   0.2292
  14.100   1.1352   0.06745   0.06393   0.0019  0.0063  1.0000  -6.5161   0.0000   0.0000   0.0000   0.2298
  14.200   1.1282   0.06977   0.06632   0.0010  0.0063  1.0000  -6.4747   0.0000   0.0000   0.0000   0.2304
  14.300   1.1210   0.07234   0.06896  -0.0003  0.0064  1.0000  -6.4375   0.0000   0.0000   0.0000   0.2314
  14.400   1.1140   0.07492   0.07161  -0.0015  0.0064  1.0000  -6.3953   0.0000   0.0000   0.0000   0.2323
  14.500   1.1071   0.07756   0.07432  -0.0028  0.0065  1.0000  -6.3494   0.0000   0.0000   0.0000   0.2333
  14.600   1.1001   0.08028   0.07711  -0.0041  0.0066  1.0000  -6.3028   0.0000   0.0000   0.0000   0.2343
  14.700   1.0932   0.08317   0.08006  -0.0057  0.0066  1.0000  -6.2638   0.0000   0.0000   0.0000   0.2357
  14.800   1.0864   0.08605   0.08300  -0.0073  0.0066  1.0000  -6.2194   0.0000   0.0000   0.0000   0.2370
  14.900   1.0796   0.08893   0.08594  -0.0088  0.0066  1.0000  -6.1718   0.0000   0.0000   0.0000   0.2383
  15.000   1.0728   0.09187   0.08894  -0.0104  0.0067  1.0000  -6.1238   0.0000   0.0000   0.0000   0.2397
  15.100   1.0664   0.09491   0.09204  -0.0122  0.0067  1.0000  -6.0857   0.0000   0.0000   0.0000   0.2413
  15.200   1.0599   0.09791   0.09509  -0.0139  0.0067  1.0000  -6.0409   0.0000   0.0000   0.0000   0.2429
  15.300   1.0535   0.10092   0.09815  -0.0156  0.0067  1.0000  -5.9924   0.0000   0.0000   0.0000   0.2444
  15.400   1.0472   0.10394   0.10123  -0.0174  0.0067  1.0000  -5.9454   0.0000   0.0000   0.0000   0.2461
  15.500   1.0412   0.10703   0.10436  -0.0193  0.0067  1.0000  -5.9076   0.0000   0.0000   0.0000   0.2479
  15.600   1.0353   0.11010   0.10748  -0.0211  0.0067  1.0000  -5.8611   0.0000   0.0000   0.0000   0.2496
  15.700   1.0293   0.11314   0.11057  -0.0229  0.0067  1.0000  -5.8119   0.0000   0.0000   0.0000   0.2514
  15.800   1.0235   0.11619   0.11367  -0.0247  0.0067  1.0000  -5.7652   0.0000   0.0000   0.0000   0.2532
  15.900   1.0180   0.11933   0.11684  -0.0266  0.0067  1.0000  -5.7241   0.0000   0.0000   0.0000   0.2551
  16.000   1.0124   0.12241   0.11997  -0.0285  0.0067  1.0000  -5.6744   0.0000   0.0000   0.0000   0.2570
  16.100   1.0069   0.12546   0.12306  -0.0303  0.0066  1.0000  -5.6222   0.0000   0.0000   0.0000   0.2589
  16.200   1.0016   0.12855   0.12619  -0.0322  0.0066  1.0000  -5.5723   0.0000   0.0000   0.0000   0.2608
  16.300   0.9964   0.13174   0.12942  -0.0341  0.0066  1.0000  -5.5242   0.0000   0.0000   0.0000   0.2629
  16.400   0.9911   0.13485   0.13256  -0.0360  0.0066  1.0000  -5.4682   0.0000   0.0000   0.0000   0.2649
  16.500   0.9859   0.13783   0.13558  -0.0378  0.0065  1.0000  -5.4098   0.0000   0.0000   0.0000   0.2668
  16.600   0.9808   0.14076   0.13854  -0.0397  0.0065  1.0000  -5.3526   0.0000   0.0000   0.0000   0.2689
  16.700   0.9758   0.14374   0.14155  -0.0416  0.0065  1.0000  -5.2934   0.0000   0.0000   0.0000   0.2710
  16.800   0.9707   0.14672   0.14455  -0.0434  0.0064  1.0000  -5.2265   0.0000   0.0000   0.0000   0.2731
  16.900   0.9657   0.14981   0.14768  -0.0452  0.0064  1.0000  -5.1543   0.0000   0.0000   0.0000   0.2752
  17.000   0.9605   0.15316   0.15105  -0.0472  0.0063  1.0000  -5.0794   0.0000   0.0000   0.0000   0.2775
  17.100   0.9553   0.15659   0.15450  -0.0491  0.0063  1.0000  -4.9965   0.0000   0.0000   0.0000   0.2798
  17.200   0.9501   0.16007   0.15801  -0.0510  0.0062  1.0000  -4.9046   0.0000   0.0000   0.0000   0.2821
  17.300   0.9447   0.16380   0.16176  -0.0530  0.0062  1.0000  -4.8024   0.0000   0.0000   0.0000   0.2846
  17.400   0.9388   0.16781   0.16578  -0.0550  0.0061  1.0000  -4.6865   0.0000   0.0000   0.0000   0.2872
  17.500   0.9330   0.17186   0.16986  -0.0570  0.0061  1.0000  -4.5571   0.0000   0.0000   0.0000   0.2897
  17.600   0.9266   0.17634   0.17435  -0.0591  0.0061  1.0000  -4.4013   0.0000   0.0000   0.0000   0.2925
  17.700   0.9196   0.18120   0.17922  -0.0612  0.0061  1.0000  -4.2158   0.0000   0.0000   0.0000   0.2954
  17.800   0.9122   0.18639   0.18441  -0.0633  0.0061  1.0000  -3.9975   0.0000   0.0000   0.0000   0.2985
  17.900   0.9039   0.19231   0.19033  -0.0655  0.0062  1.0000  -3.7214   0.0000   0.0000   0.0000   0.3018
  18.000   0.8957   0.19848   0.19648  -0.0676  0.0065  1.0000  -3.4215   0.0000   0.0000   0.0000   0.3051
  18.500   0.8675   0.22949   0.22745  -0.0753  0.0168  1.0000  -2.0054   0.0000   0.0000   0.0000   0.3176
  18.600   0.8692   0.23177   0.22973  -0.0762  0.0168  1.0000  -1.9946   0.0000   0.0000   0.0000   0.3183
  18.700   0.8710   0.23398   0.23194  -0.0770  0.0167  1.0000  -1.9863   0.0000   0.0000   0.0000   0.3189
  18.800   0.8729   0.23611   0.23407  -0.0779  0.0166  1.0000  -1.9817   0.0000   0.0000   0.0000   0.3196
  18.900   0.8752   0.23808   0.23605  -0.0787  0.0165  1.0000  -1.9832   0.0000   0.0000   0.0000   0.3202
  19.000   0.8780   0.23985   0.23782  -0.0795  0.0162  1.0000  -1.9929   0.0000   0.0000   0.0000   0.3207
  19.100   0.8809   0.24164   0.23960  -0.0803  0.0158  1.0000  -2.0012   0.0000   0.0000   0.0000   0.3211
  19.200   0.8833   0.24367   0.24163  -0.0811  0.0154  1.0000  -1.9991   0.0000   0.0000   0.0000   0.3217
  19.300   0.8850   0.24603   0.24400  -0.0821  0.0150  1.0000  -1.9809   0.0000   0.0000   0.0000   0.3226
  19.400   0.8864   0.24847   0.24644  -0.0831  0.0146  1.0000  -1.9612   0.0000   0.0000   0.0000   0.3234
  19.500   0.8878   0.25091   0.24888  -0.0840  0.0142  1.0000  -1.9429   0.0000   0.0000   0.0000   0.3242
  19.600   0.8891   0.25335   0.25131  -0.0849  0.0139  1.0000  -1.9268   0.0000   0.0000   0.0000   0.3250
  19.700   0.8905   0.25575   0.25372  -0.0857  0.0136  1.0000  -1.9128   0.0000   0.0000   0.0000   0.3257
  19.800   0.8918   0.25814   0.25611  -0.0866  0.0132  1.0000  -1.9008   0.0000   0.0000   0.0000   0.3264
  19.900   0.8931   0.26051   0.25848  -0.0874  0.0129  1.0000  -1.8904   0.0000   0.0000   0.0000   0.3271
  20.000   0.8944   0.26286   0.26083  -0.0882  0.0127  1.0000  -1.8816   0.0000   0.0000   0.0000   0.3277
  20.100   0.8958   0.26519   0.26316  -0.0890  0.0124  1.0000  -1.8741   0.0000   0.0000   0.0000   0.3284
  20.200   0.8970   0.26750   0.26547  -0.0898  0.0121  1.0000  -1.8678   0.0000   0.0000   0.0000   0.3290
  20.300   0.8983   0.26980   0.26777  -0.0906  0.0119  1.0000  -1.8628   0.0000   0.0000   0.0000   0.3296
  20.400   0.8996   0.27208   0.27006  -0.0914  0.0117  1.0000  -1.8588   0.0000   0.0000   0.0000   0.3302
  20.500   0.9009   0.27435   0.27233  -0.0921  0.0115  1.0000  -1.8557   0.0000   0.0000   0.0000   0.3308
  20.600   0.9021   0.27656   0.27454  -0.0929  0.0112  1.0000  -1.8562   0.0000   0.0000   0.0000   0.3313
  20.700   0.9036   0.27856   0.27655  -0.0936  0.0108  1.0000  -1.8700   0.0000   0.0000   0.0000   0.3318
  20.800   0.9051   0.28050   0.27849  -0.0943  0.0105  1.0000  -1.8876   0.0000   0.0000   0.0000   0.3322
  20.900   0.9066   0.28237   0.28037  -0.0949  0.0101  1.0000  -1.9091   0.0000   0.0000   0.0000   0.3326
  21.000   0.9082   0.28418   0.28217  -0.0956  0.0099  1.0000  -1.9348   0.0000   0.0000   0.0000   0.3329
  21.100   0.9098   0.28591   0.28391  -0.0962  0.0096  1.0000  -1.9650   0.0000   0.0000   0.0000   0.3332
  21.200   0.9115   0.28756   0.28556  -0.0968  0.0093  1.0000  -2.0001   0.0000   0.0000   0.0000   0.3335
  21.300   0.9132   0.28913   0.28714  -0.0973  0.0091  1.0000  -2.0405   0.0000   0.0000   0.0000   0.3337
  21.400   0.9150   0.29061   0.28862  -0.0978  0.0089  1.0000  -2.0866   0.0000   0.0000   0.0000   0.3338
  21.500   0.9169   0.29200   0.29002  -0.0983  0.0087  1.0000  -2.1390   0.0000   0.0000   0.0000   0.3339
  21.600   0.9186   0.29344   0.29146  -0.0988  0.0085  1.0000  -2.1900   0.0000   0.0000   0.0000   0.3340
  21.700   0.9195   0.29524   0.29326  -0.0993  0.0083  1.0000  -2.2222   0.0000   0.0000   0.0000   0.3343
  21.800   0.9190   0.29755   0.29558  -0.0999  0.0080  1.0000  -2.2300   0.0000   0.0000   0.0000   0.3348
  21.900   0.9047   0.30694   0.30495  -0.1010  0.0074  1.0000  -1.8505   0.0000   0.0000   0.0000   0.3382
  22.000   0.9046   0.30922   0.30724  -0.1017  0.0074  1.0000  -1.8371   0.0000   0.0000   0.0000   0.3388
  22.100   0.9044   0.31146   0.30948  -0.1023  0.0073  1.0000  -1.8237   0.0000   0.0000   0.0000   0.3395
  22.200   0.9040   0.31365   0.31168  -0.1029  0.0073  1.0000  -1.8101   0.0000   0.0000   0.0000   0.3401
  22.300   0.9034   0.31579   0.31382  -0.1035  0.0073  1.0000  -1.7965   0.0000   0.0000   0.0000   0.3407
  22.400   0.9025   0.31786   0.31590  -0.1040  0.0073  1.0000  -1.7828   0.0000   0.0000   0.0000   0.3413
  22.500   0.9014   0.31985   0.31789  -0.1045  0.0073  1.0000  -1.7689   0.0000   0.0000   0.0000   0.3420
  22.600   0.9000   0.32173   0.31979  -0.1050  0.0073  1.0000  -1.7546   0.0000   0.0000   0.0000   0.3426
  22.700   0.8981   0.32348   0.32154  -0.1055  0.0073  1.0000  -1.7398   0.0000   0.0000   0.0000   0.3433
  22.800   0.8957   0.32506   0.32313  -0.1059  0.0073  1.0000  -1.7242   0.0000   0.0000   0.0000   0.3439
  22.900   0.8498   0.31491   0.31306  -0.1018  0.0073  1.0000  -1.5882   0.0000   0.0000   0.0000   0.3464
  23.000   0.8436   0.31452   0.31269  -0.1017  0.0073  1.0000  -1.5629   0.0000   0.0000   0.0000   0.3472
  23.100   0.8389   0.31446   0.31263  -0.1018  0.0072  1.0000  -1.5421   0.0000   0.0000   0.0000   0.3480
  23.200   0.8350   0.31456   0.31275  -0.1020  0.0072  1.0000  -1.5244   0.0000   0.0000   0.0000   0.3488
  23.300   0.8319   0.31478   0.31298  -0.1022  0.0072  1.0000  -1.5094   0.0000   0.0000   0.0000   0.3495
  23.400   0.8292   0.31506   0.31327  -0.1025  0.0071  1.0000  -1.4975   0.0000   0.0000   0.0000   0.3501
  23.500   0.8272   0.31542   0.31364  -0.1028  0.0071  1.0000  -1.4893   0.0000   0.0000   0.0000   0.3508
  23.600   0.8258   0.31584   0.31407  -0.1032  0.0070  1.0000  -1.4862   0.0000   0.0000   0.0000   0.3514
  23.700   0.8252   0.31637   0.31461  -0.1036  0.0068  1.0000  -1.4864   0.0000   0.0000   0.0000   0.3519
  23.800   0.8247   0.31710   0.31534  -0.1042  0.0065  1.0000  -1.4766   0.0000   0.0000   0.0000   0.3526
  23.900   0.8238   0.31788   0.31613  -0.1047  0.0061  1.0000  -1.4552   0.0000   0.0000   0.0000   0.3533
  24.000   0.8223   0.31856   0.31682  -0.1050  0.0058  1.0000  -1.4333   0.0000   0.0000   0.0000   0.3539
  24.100   0.8207   0.31917   0.31743  -0.1054  0.0055  1.0000  -1.4151   0.0000   0.0000   0.0000   0.3545
  24.200   0.8190   0.31974   0.31801  -0.1057  0.0052  1.0000  -1.4005   0.0000   0.0000   0.0000   0.3551
  24.300   0.8175   0.32028   0.31856  -0.1060  0.0050  1.0000  -1.3888   0.0000   0.0000   0.0000   0.3557
  24.400   0.8160   0.32082   0.31911  -0.1064  0.0048  1.0000  -1.3792   0.0000   0.0000   0.0000   0.3563
  24.500   0.8147   0.32136   0.31966  -0.1067  0.0046  1.0000  -1.3716   0.0000   0.0000   0.0000   0.3568
  24.600   0.8134   0.32190   0.32020  -0.1071  0.0044  1.0000  -1.3654   0.0000   0.0000   0.0000   0.3574
  24.700   0.8122   0.32244   0.32075  -0.1074  0.0042  1.0000  -1.3607   0.0000   0.0000   0.0000   0.3579
  24.800   0.8111   0.32298   0.32129  -0.1078  0.0041  1.0000  -1.3573   0.0000   0.0000   0.0000   0.3585
  24.900   0.8101   0.32352   0.32184  -0.1082  0.0039  1.0000  -1.3551   0.0000   0.0000   0.0000   0.3590
  25.000   0.8092   0.32406   0.32239  -0.1086  0.0038  1.0000  -1.3540   0.0000   0.0000   0.0000   0.3595
  25.100   0.8083   0.32460   0.32294  -0.1089  0.0036  1.0000  -1.3539   0.0000   0.0000   0.0000   0.3600
  25.200   0.8075   0.32515   0.32349  -0.1093  0.0035  1.0000  -1.3550   0.0000   0.0000   0.0000   0.3605
  25.300   0.8067   0.32569   0.32404  -0.1097  0.0034  1.0000  -1.3571   0.0000   0.0000   0.0000   0.3610
  25.400   0.8061   0.32623   0.32458  -0.1101  0.0033  1.0000  -1.3603   0.0000   0.0000   0.0000   0.3615
  25.500   0.8054   0.32677   0.32513  -0.1105  0.0032  1.0000  -1.3646   0.0000   0.0000   0.0000   0.3619
  25.600   0.8048   0.32730   0.32567  -0.1109  0.0031  1.0000  -1.3700   0.0000   0.0000   0.0000   0.3624
  25.700   0.8043   0.32784   0.32621  -0.1113  0.0030  1.0000  -1.3764   0.0000   0.0000   0.0000   0.3629
  25.800   0.8038   0.32836   0.32674  -0.1117  0.0029  1.0000  -1.3840   0.0000   0.0000   0.0000   0.3633
  25.900   0.8036   0.32879   0.32721  -0.1121  0.0028  1.0000  -1.4098   0.0000   0.0000   0.0000   0.3637
  26.000   0.8033   0.32927   0.32769  -0.1126  0.0027  1.0000  -1.4252   0.0000   0.0000   0.0000   0.3641
  26.100   0.8030   0.32976   0.32819  -0.1130  0.0026  1.0000  -1.4399   0.0000   0.0000   0.0000   0.3645
  26.200   0.8027   0.33024   0.32867  -0.1134  0.0025  1.0000  -1.4551   0.0000   0.0000   0.0000   0.3649
  26.300   0.8024   0.33072   0.32916  -0.1138  0.0025  1.0000  -1.4712   0.0000   0.0000   0.0000   0.3653
  26.400   0.8022   0.33119   0.32963  -0.1142  0.0024  1.0000  -1.4883   0.0000   0.0000   0.0000   0.3657
  26.500   0.8019   0.33165   0.33010  -0.1146  0.0024  1.0000  -1.5063   0.0000   0.0000   0.0000   0.3661
  26.600   0.8017   0.33210   0.33056  -0.1150  0.0023  1.0000  -1.5253   0.0000   0.0000   0.0000   0.3664
  26.700   0.8016   0.33254   0.33101  -0.1154  0.0023  1.0000  -1.5452   0.0000   0.0000   0.0000   0.3668
  26.800   0.8014   0.33298   0.33144  -0.1159  0.0022  1.0000  -1.5659   0.0000   0.0000   0.0000   0.3671
  26.900   0.8012   0.33340   0.33187  -0.1163  0.0022  1.0000  -1.5872   0.0000   0.0000   0.0000   0.3675
  27.000   0.8009   0.33388   0.33236  -0.1167  0.0021  1.0000  -1.6020   0.0000   0.0000   0.0000   0.3678
  27.100   0.8005   0.33437   0.33286  -0.1171  0.0021  1.0000  -1.6145   0.0000   0.0000   0.0000   0.3682
  27.200   0.8000   0.33487   0.33336  -0.1175  0.0020  1.0000  -1.6235   0.0000   0.0000   0.0000   0.3686
  27.300   0.7992   0.33539   0.33389  -0.1178  0.0019  1.0000  -1.6223   0.0000   0.0000   0.0000   0.3691
  27.400   0.7896   0.33775   0.33624  -0.1175  0.0017  1.0000  -1.2522   0.0000   0.0000   0.0000   0.3711
  27.500   0.7893   0.33845   0.33694  -0.1179  0.0017  1.0000  -1.2434   0.0000   0.0000   0.0000   0.3715
  27.600   0.7891   0.33915   0.33764  -0.1184  0.0017  1.0000  -1.2348   0.0000   0.0000   0.0000   0.3719
  27.700   0.7889   0.33984   0.33834  -0.1188  0.0017  1.0000  -1.2264   0.0000   0.0000   0.0000   0.3724
  27.800   0.7887   0.34054   0.33905  -0.1192  0.0016  1.0000  -1.2181   0.0000   0.0000   0.0000   0.3728
  27.900   0.7885   0.34124   0.33975  -0.1196  0.0016  1.0000  -1.2101   0.0000   0.0000   0.0000   0.3732
  28.000   0.7883   0.34194   0.34046  -0.1201  0.0016  1.0000  -1.2022   0.0000   0.0000   0.0000   0.3737
  28.100   0.7881   0.34265   0.34117  -0.1205  0.0016  1.0000  -1.1944   0.0000   0.0000   0.0000   0.3741
  28.200   0.7879   0.34335   0.34188  -0.1209  0.0016  1.0000  -1.1868   0.0000   0.0000   0.0000   0.3745
  28.300   0.7878   0.34405   0.34258  -0.1214  0.0016  1.0000  -1.1793   0.0000   0.0000   0.0000   0.3749
  28.400   0.7877   0.34475   0.34329  -0.1218  0.0016  1.0000  -1.1720   0.0000   0.0000   0.0000   0.3753
  28.500   0.7875   0.34546   0.34400  -0.1222  0.0016  1.0000  -1.1649   0.0000   0.0000   0.0000   0.3757
  28.600   0.7874   0.34616   0.34471  -0.1227  0.0016  1.0000  -1.1578   0.0000   0.0000   0.0000   0.3762
  28.700   0.7873   0.34687   0.34542  -0.1231  0.0016  1.0000  -1.1509   0.0000   0.0000   0.0000   0.3766
  28.800   0.7872   0.34757   0.34613  -0.1235  0.0016  1.0000  -1.1442   0.0000   0.0000   0.0000   0.3770
  28.900   0.7871   0.34828   0.34684  -0.1240  0.0016  1.0000  -1.1375   0.0000   0.0000   0.0000   0.3774
  29.000   0.7870   0.34898   0.34756  -0.1244  0.0016  1.0000  -1.1310   0.0000   0.0000   0.0000   0.3778
  29.100   0.7869   0.34969   0.34827  -0.1249  0.0016  1.0000  -1.1246   0.0000   0.0000   0.0000   0.3782
  29.200   0.7868   0.35040   0.34898  -0.1253  0.0016  1.0000  -1.1183   0.0000   0.0000   0.0000   0.3786
  29.300   0.7868   0.35110   0.34969  -0.1257  0.0016  1.0000  -1.1121   0.0000   0.0000   0.0000   0.3790
  29.400   0.7867   0.35181   0.35040  -0.1262  0.0016  1.0000  -1.1061   0.0000   0.0000   0.0000   0.3794
  29.500   0.7866   0.35252   0.35111  -0.1266  0.0016  1.0000  -1.1001   0.0000   0.0000   0.0000   0.3797
  29.600   0.7866   0.35322   0.35183  -0.1271  0.0016  1.0000  -1.0942   0.0000   0.0000   0.0000   0.3801
  29.700   0.7865   0.35393   0.35254  -0.1275  0.0016  1.0000  -1.0885   0.0000   0.0000   0.0000   0.3805
  29.800   0.7865   0.35464   0.35325  -0.1280  0.0016  1.0000  -1.0828   0.0000   0.0000   0.0000   0.3809
  29.900   0.7865   0.35535   0.35396  -0.1284  0.0016  1.0000  -1.0772   0.0000   0.0000   0.0000   0.3813
  30.000   0.7864   0.35605   0.35468  -0.1289  0.0016  1.0000  -1.0718   0.0000   0.0000   0.0000   0.3817


