xflr5 v6.61

 Calculated polar for: S5010

 1 1 Reynolds number fixed          Mach number fixed         

 xtrf =   1.000 (top)        1.000 (bottom)
 Mach =   0.000     Re =     0.160 e 6     Ncrit =   9.000

  alpha     CL        CD       CDp       Cm    Top Xtr Bot Xtr   Cpmin    Chinge    XCp    
 ------- -------- --------- --------- -------- ------- ------- -------- --------- ---------
 -10.000  -0.5533   0.12331   0.11962   0.0261  1.0000  0.0317  -1.8271   0.0000   0.0000   0.0000   0.2921
  -9.900  -0.5512   0.12135   0.11767   0.0258  1.0000  0.0321  -1.8160   0.0000   0.0000   0.0000   0.2919
  -9.800  -0.5482   0.11961   0.11594   0.0257  1.0000  0.0324  -1.7937   0.0000   0.0000   0.0000   0.2920
  -9.700  -0.5453   0.11798   0.11432   0.0255  1.0000  0.0328  -1.7730   0.0000   0.0000   0.0000   0.2919
  -9.600  -0.5424   0.11642   0.11277   0.0252  1.0000  0.0331  -1.7536   0.0000   0.0000   0.0000   0.2917
  -9.500  -0.5394   0.11491   0.11126   0.0249  1.0000  0.0335  -1.7334   0.0000   0.0000   0.0000   0.2915
  -9.400  -0.5365   0.11341   0.10978   0.0246  1.0000  0.0338  -1.7164   0.0000   0.0000   0.0000   0.2912
  -9.300  -0.5339   0.11192   0.10831   0.0242  1.0000  0.0341  -1.7023   0.0000   0.0000   0.0000   0.2907
  -9.200  -0.5313   0.11044   0.10684   0.0237  1.0000  0.0345  -1.6898   0.0000   0.0000   0.0000   0.2900
  -9.100  -0.5289   0.10896   0.10537   0.0232  1.0000  0.0348  -1.6796   0.0000   0.0000   0.0000   0.2893
  -9.000  -0.5266   0.10748   0.10390   0.0226  1.0000  0.0352  -1.6716   0.0000   0.0000   0.0000   0.2884
  -8.900  -0.5245   0.10599   0.10242   0.0219  1.0000  0.0355  -1.6655   0.0000   0.0000   0.0000   0.2874
  -8.800  -0.5225   0.10449   0.10094   0.0212  1.0000  0.0359  -1.6611   0.0000   0.0000   0.0000   0.2864
  -8.700  -0.5207   0.10299   0.09946   0.0205  1.0000  0.0363  -1.6582   0.0000   0.0000   0.0000   0.2852
  -8.600  -0.5189   0.10148   0.09796   0.0198  1.0000  0.0367  -1.6569   0.0000   0.0000   0.0000   0.2839
  -8.500  -0.5173   0.09996   0.09647   0.0190  1.0000  0.0370  -1.6570   0.0000   0.0000   0.0000   0.2825
  -8.400  -0.5159   0.09844   0.09496   0.0181  1.0000  0.0374  -1.6584   0.0000   0.0000   0.0000   0.2811
  -8.300  -0.5145   0.09691   0.09344   0.0172  1.0000  0.0378  -1.6611   0.0000   0.0000   0.0000   0.2795
  -8.200  -0.5132   0.09535   0.09191   0.0163  1.0000  0.0382  -1.6649   0.0000   0.0000   0.0000   0.2778
  -8.100  -0.5119   0.09376   0.09034   0.0153  1.0000  0.0386  -1.6699   0.0000   0.0000   0.0000   0.2760
  -8.000  -0.5107   0.09217   0.08877   0.0142  1.0000  0.0390  -1.6762   0.0000   0.0000   0.0000   0.2740
  -7.900  -0.5096   0.09055   0.08717   0.0131  1.0000  0.0394  -1.6839   0.0000   0.0000   0.0000   0.2719
  -7.800  -0.5087   0.08892   0.08556   0.0118  1.0000  0.0398  -1.6931   0.0000   0.0000   0.0000   0.2696
  -7.700  -0.5080   0.08726   0.08393   0.0105  1.0000  0.0402  -1.7038   0.0000   0.0000   0.0000   0.2671
  -7.600  -0.5074   0.08556   0.08225   0.0091  1.0000  0.0406  -1.7163   0.0000   0.0000   0.0000   0.2643
  -7.500  -0.5069   0.08382   0.08054   0.0075  1.0000  0.0410  -1.7307   0.0000   0.0000   0.0000   0.2612
  -7.400  -0.5068   0.08203   0.07878   0.0056  1.0000  0.0414  -1.7477   0.0000   0.0000   0.0000   0.2577
  -7.300  -0.5068   0.08017   0.07694   0.0035  1.0000  0.0417  -1.7675   0.0000   0.0000   0.0000   0.2536
  -7.200  -0.5060   0.07821   0.07500   0.0012  1.0000  0.0421  -1.7884   0.0000   0.0000   0.0000   0.2491
  -7.100  -0.5038   0.07611   0.07291  -0.0013  1.0000  0.0426  -1.8089   0.0000   0.0000   0.0000   0.2443
  -7.000  -0.5011   0.07399   0.07078  -0.0037  1.0000  0.0431  -1.8294   0.0000   0.0000   0.0000   0.2394
  -6.900  -0.4977   0.07184   0.06863  -0.0061  1.0000  0.0437  -1.8504   0.0000   0.0000   0.0000   0.2345
  -6.800  -0.4938   0.06968   0.06645  -0.0085  1.0000  0.0444  -1.8719   0.0000   0.0000   0.0000   0.2296
  -6.700  -0.4891   0.06752   0.06426  -0.0109  1.0000  0.0451  -1.8941   0.0000   0.0000   0.0000   0.2246
  -6.600  -0.4836   0.06541   0.06210  -0.0133  1.0000  0.0461  -1.9177   0.0000   0.0000   0.0000   0.2195
  -6.500  -0.4767   0.06343   0.06004  -0.0157  1.0000  0.0473  -1.9442   0.0000   0.0000   0.0000   0.2140
  -6.400  -0.4599   0.06457   0.06098  -0.0180  1.0000  0.0506  -1.9357   0.0000   0.0000   0.0000   0.2077
  -6.300  -0.4524   0.06316   0.05948  -0.0194  1.0000  0.0508  -1.9370   0.0000   0.0000   0.0000   0.2039
  -6.100  -0.4339   0.05954   0.05566  -0.0228  0.9641  0.0510  -1.9357   0.0000   0.0000   0.0000   0.1942
  -6.000  -0.4241   0.05765   0.05364  -0.0242  0.9508  0.0511  -1.9330   0.0000   0.0000   0.0000   0.1896
  -5.900  -0.4169   0.05600   0.05188  -0.0249  0.9391  0.0511  -1.9307   0.0000   0.0000   0.0000   0.1871
  -5.800  -0.4111   0.05448   0.05013  -0.0250  0.9287  0.0511  -1.9316   0.0000   0.0000   0.0000   0.1860
  -5.700  -0.4063   0.05311   0.04864  -0.0247  0.9198  0.0512  -1.9288   0.0000   0.0000   0.0000   0.1858
  -5.500  -0.4065   0.04021   0.03544  -0.0251  0.9081  0.0282  -2.3749   0.0000   0.0000   0.0000   0.1846
  -5.400  -0.4030   0.03815   0.03321  -0.0246  0.9007  0.0273  -2.4039   0.0000   0.0000   0.0000   0.1852
  -5.300  -0.3986   0.03648   0.03137  -0.0239  0.8938  0.0266  -2.4224   0.0000   0.0000   0.0000   0.1863
  -5.100  -0.3866   0.03343   0.02796  -0.0227  0.8821  0.0254  -2.4490   0.0000   0.0000   0.0000   0.1875
  -5.000  -0.3793   0.03188   0.02609  -0.0223  0.8765  0.0243  -2.4775   0.0000   0.0000   0.0000   0.1874
  -4.900  -0.3716   0.03054   0.02456  -0.0217  0.8710  0.0240  -2.4816   0.0000   0.0000   0.0000   0.1877
  -4.800  -0.3638   0.02931   0.02315  -0.0210  0.8657  0.0239  -2.4794   0.0000   0.0000   0.0000   0.1882
  -4.700  -0.3559   0.02820   0.02186  -0.0203  0.8608  0.0240  -2.4704   0.0000   0.0000   0.0000   0.1890
  -4.600  -0.3480   0.02722   0.02069  -0.0195  0.8561  0.0242  -2.4550   0.0000   0.0000   0.0000   0.1899
  -4.500  -0.3399   0.02635   0.01964  -0.0188  0.8515  0.0245  -2.4332   0.0000   0.0000   0.0000   0.1908
  -4.400  -0.3308   0.02555   0.01867  -0.0182  0.8472  0.0250  -2.4035   0.0000   0.0000   0.0000   0.1910
  -4.300  -0.3204   0.02474   0.01773  -0.0179  0.8433  0.0257  -2.3656   0.0000   0.0000   0.0000   0.1900
  -4.200  -0.3100   0.02407   0.01695  -0.0176  0.8389  0.0265  -2.3216   0.0000   0.0000   0.0000   0.1891
  -4.100  -0.2998   0.02355   0.01632  -0.0173  0.8344  0.0274  -2.2717   0.0000   0.0000   0.0000   0.1882
  -4.000  -0.2896   0.02318   0.01586  -0.0169  0.8299  0.0284  -2.2162   0.0000   0.0000   0.0000   0.1875
  -3.900  -0.2795   0.02298   0.01558  -0.0165  0.8253  0.0292  -2.1543   0.0000   0.0000   0.0000   0.1869
  -3.800  -0.2695   0.02304   0.01558  -0.0160  0.8208  0.0300  -2.0818   0.0000   0.0000   0.0000   0.1864
  -3.700  -0.2605   0.02230   0.01473  -0.0154  0.8166  0.0307  -2.0532   0.0000   0.0000   0.0000   0.1865
  -3.600  -0.2519   0.02103   0.01328  -0.0148  0.8125  0.0316  -2.0548   0.0000   0.0000   0.0000   0.1871
  -3.500  -0.2431   0.02016   0.01230  -0.0142  0.8081  0.0325  -2.0379   0.0000   0.0000   0.0000   0.1874
  -3.400  -0.2334   0.01945   0.01155  -0.0140  0.8041  0.0345  -1.9978   0.0000   0.0000   0.0000   0.1859
  -3.300  -0.2233   0.01935   0.01154  -0.0141  0.8000  0.0385  -1.8968   0.0000   0.0000   0.0000   0.1826
  -3.200  -0.2130   0.01954   0.01180  -0.0142  0.7955  0.0434  -1.7942   0.0000   0.0000   0.0000   0.1792
  -3.100  -0.2025   0.01972   0.01199  -0.0141  0.7908  0.0477  -1.7123   0.0000   0.0000   0.0000   0.1761
  -3.000  -0.1917   0.01995   0.01220  -0.0139  0.7863  0.0502  -1.6435   0.0000   0.0000   0.0000   0.1733
  -2.900  -0.1810   0.01991   0.01211  -0.0135  0.7822  0.0510  -1.5948   0.0000   0.0000   0.0000   0.1707
  -2.800  -0.1707   0.01923   0.01135  -0.0131  0.7785  0.0510  -1.5776   0.0000   0.0000   0.0000   0.1685
  -2.700  -0.1605   0.01857   0.01062  -0.0126  0.7750  0.0509  -1.5622   0.0000   0.0000   0.0000   0.1665
  -2.600  -0.1505   0.01801   0.01000  -0.0121  0.7714  0.0508  -1.5443   0.0000   0.0000   0.0000   0.1645
  -2.500  -0.1407   0.01753   0.00947  -0.0116  0.7678  0.0509  -1.5249   0.0000   0.0000   0.0000   0.1625
  -2.400  -0.1309   0.01716   0.00903  -0.0111  0.7639  0.0511  -1.5043   0.0000   0.0000   0.0000   0.1601
  -2.300  -0.1209   0.01674   0.00859  -0.0107  0.7601  0.0515  -1.4885   0.0000   0.0000   0.0000   0.1561
  -2.200  -0.1108   0.01607   0.00788  -0.0103  0.7573  0.0527  -1.4848   0.0000   0.0000   0.0000   0.1510
  -2.100  -0.1010   0.01550   0.00726  -0.0099  0.7540  0.0552  -1.4849   0.0000   0.0000   0.0000   0.1456
  -2.000  -0.0909   0.01504   0.00676  -0.0095  0.7502  0.0604  -1.4887   0.0000   0.0000   0.0000   0.1389
  -1.900  -0.0936   0.01225   0.00597  -0.0074  0.7471  0.4819  -1.6911   0.0000   0.0000   0.0000   0.1647
  -1.800  -0.0894   0.01162   0.00597  -0.0057  0.7432  0.6334  -1.6603   0.0000   0.0000   0.0000   0.1800
  -1.700  -0.0825   0.01123   0.00599  -0.0042  0.7392  0.7391  -1.6113   0.0000   0.0000   0.0000   0.1933
  -1.600  -0.0454   0.01100   0.00613  -0.0072  0.7350  0.9230  -1.4625   0.0000   0.0000   0.0000   0.0815
  -1.500  -0.0195   0.01104   0.00605  -0.0095  0.7308  0.9551  -1.3419   0.0000   0.0000   0.0000  -0.2604
  -1.300  -0.0081   0.01098   0.00561  -0.0077  0.7233  0.9316  -1.1987   0.0000   0.0000   0.0000  -0.7445
  -1.200   0.0158   0.01107   0.00560  -0.0098  0.7194  0.9597  -1.1055   0.0000   0.0000   0.0000   0.8890
  -1.100   0.0689   0.01119   0.00555  -0.0178  0.7142  1.0000  -0.9344   0.0000   0.0000   0.0000   0.5119
  -1.000   0.0790   0.01120   0.00551  -0.0177  0.7111  1.0000  -0.8809   0.0000   0.0000   0.0000   0.4772
  -0.900   0.0890   0.01118   0.00545  -0.0176  0.7080  1.0000  -0.8275   0.0000   0.0000   0.0000   0.4501
  -0.800   0.0991   0.01117   0.00539  -0.0175  0.7044  1.0000  -0.7747   0.0000   0.0000   0.0000   0.4283
  -0.700   0.1090   0.01116   0.00534  -0.0173  0.7004  1.0000  -0.7226   0.0000   0.0000   0.0000   0.4102
  -0.600   0.1188   0.01116   0.00528  -0.0171  0.6961  1.0000  -0.6714   0.0000   0.0000   0.0000   0.3948
  -0.500   0.1284   0.01115   0.00522  -0.0168  0.6917  1.0000  -0.6210   0.0000   0.0000   0.0000   0.3814
  -0.400   0.1380   0.01114   0.00515  -0.0165  0.6874  1.0000  -0.5714   0.0000   0.0000   0.0000   0.3696
  -0.300   0.1474   0.01114   0.00509  -0.0161  0.6833  1.0000  -0.5428   0.0000   0.0000   0.0000   0.3592
  -0.200   0.1569   0.01114   0.00502  -0.0157  0.6793  1.0000  -0.5530   0.0000   0.0000   0.0000   0.3499
  -0.100   0.1663   0.01116   0.00497  -0.0153  0.6755  1.0000  -0.5631   0.0000   0.0000   0.0000   0.3416
   0.000   0.1757   0.01121   0.00495  -0.0149  0.6717  1.0000  -0.5732   0.0000   0.0000   0.0000   0.3343
   0.100   0.1853   0.01132   0.00499  -0.0146  0.6674  1.0000  -0.5833   0.0000   0.0000   0.0000   0.3281
   0.200   0.1954   0.01147   0.00510  -0.0145  0.6631  1.0000  -0.5935   0.0000   0.0000   0.0000   0.3232
   0.300   0.2059   0.01146   0.00507  -0.0144  0.6604  1.0000  -0.6041   0.0000   0.0000   0.0000   0.3188
   0.400   0.2163   0.01146   0.00505  -0.0143  0.6570  1.0000  -0.6148   0.0000   0.0000   0.0000   0.3148
   0.500   0.2266   0.01147   0.00503  -0.0141  0.6531  1.0000  -0.6259   0.0000   0.0000   0.0000   0.3110
   0.600   0.2367   0.01147   0.00501  -0.0139  0.6488  1.0000  -0.6382   0.0000   0.0000   0.0000   0.3074
   0.700   0.2468   0.01147   0.00498  -0.0137  0.6444  1.0000  -0.6506   0.0000   0.0000   0.0000   0.3039
   0.800   0.2568   0.01148   0.00495  -0.0134  0.6400  1.0000  -0.6630   0.0000   0.0000   0.0000   0.3005
   0.900   0.2667   0.01148   0.00491  -0.0131  0.6358  1.0000  -0.6754   0.0000   0.0000   0.0000   0.2973
   1.000   0.2765   0.01148   0.00487  -0.0127  0.6318  1.0000  -0.6879   0.0000   0.0000   0.0000   0.2942
   1.100   0.2864   0.01150   0.00483  -0.0124  0.6280  1.0000  -0.7003   0.0000   0.0000   0.0000   0.2914
   1.200   0.2962   0.01154   0.00482  -0.0120  0.6242  1.0000  -0.7128   0.0000   0.0000   0.0000   0.2887
   1.300   0.3060   0.01162   0.00485  -0.0117  0.6202  1.0000  -0.7252   0.0000   0.0000   0.0000   0.2863
   1.400   0.3159   0.01180   0.00497  -0.0115  0.6151  1.0000  -0.7374   0.0000   0.0000   0.0000   0.2842
   1.500   0.3263   0.01187   0.00503  -0.0114  0.6116  1.0000  -0.7501   0.0000   0.0000   0.0000   0.2827
   1.600   0.3369   0.01187   0.00503  -0.0113  0.6084  1.0000  -0.7631   0.0000   0.0000   0.0000   0.2812
   1.700   0.3474   0.01187   0.00504  -0.0111  0.6045  1.0000  -0.7773   0.0000   0.0000   0.0000   0.2797
   1.800   0.3577   0.01188   0.00504  -0.0110  0.6001  1.0000  -0.7925   0.0000   0.0000   0.0000   0.2783
   1.900   0.3680   0.01188   0.00503  -0.0108  0.5955  1.0000  -0.8077   0.0000   0.0000   0.0000   0.2767
   2.000   0.3782   0.01189   0.00502  -0.0105  0.5910  1.0000  -0.8230   0.0000   0.0000   0.0000   0.2752
   2.100   0.3884   0.01189   0.00506  -0.0102  0.5865  1.0000  -0.8383   0.0000   0.0000   0.0000   0.2737
   2.200   0.3985   0.01190   0.00503  -0.0099  0.5823  1.0000  -0.8536   0.0000   0.0000   0.0000   0.2722
   2.300   0.4085   0.01192   0.00501  -0.0096  0.5783  1.0000  -0.8690   0.0000   0.0000   0.0000   0.2708
   2.400   0.4185   0.01197   0.00500  -0.0093  0.5742  1.0000  -0.8843   0.0000   0.0000   0.0000   0.2694
   2.500   0.4285   0.01206   0.00503  -0.0090  0.5697  1.0000  -0.8996   0.0000   0.0000   0.0000   0.2681
   2.600   0.4384   0.01228   0.00519  -0.0088  0.5636  1.0000  -0.9162   0.0000   0.0000   0.0000   0.2671
   2.700   0.4490   0.01230   0.00523  -0.0087  0.5603  1.0000  -0.9347   0.0000   0.0000   0.0000   0.2663
   2.800   0.4596   0.01230   0.00524  -0.0086  0.5566  1.0000  -0.9533   0.0000   0.0000   0.0000   0.2655
   2.900   0.4700   0.01230   0.00526  -0.0085  0.5521  1.0000  -0.9720   0.0000   0.0000   0.0000   0.2647
   3.000   0.4805   0.01231   0.00526  -0.0083  0.5472  1.0000  -0.9907   0.0000   0.0000   0.0000   0.2639
   3.100   0.4908   0.01232   0.00526  -0.0081  0.5422  1.0000  -1.0096   0.0000   0.0000   0.0000   0.2630
   3.200   0.5011   0.01232   0.00525  -0.0078  0.5373  1.0000  -1.0285   0.0000   0.0000   0.0000   0.2621
   3.300   0.5113   0.01233   0.00523  -0.0076  0.5326  1.0000  -1.0474   0.0000   0.0000   0.0000   0.2612
   3.400   0.5215   0.01236   0.00522  -0.0073  0.5281  1.0000  -1.0664   0.0000   0.0000   0.0000   0.2603
   3.500   0.5316   0.01242   0.00523  -0.0070  0.5234  1.0000  -1.0854   0.0000   0.0000   0.0000   0.2594
   3.600   0.5416   0.01254   0.00529  -0.0067  0.5181  1.0000  -1.1042   0.0000   0.0000   0.0000   0.2586
   3.700   0.5517   0.01275   0.00546  -0.0066  0.5119  1.0000  -1.1227   0.0000   0.0000   0.0000   0.2580
   3.800   0.5624   0.01275   0.00550  -0.0065  0.5085  1.0000  -1.1446   0.0000   0.0000   0.0000   0.2576
   3.900   0.5729   0.01276   0.00554  -0.0064  0.5040  1.0000  -1.1682   0.0000   0.0000   0.0000   0.2571
   4.000   0.5834   0.01278   0.00557  -0.0062  0.4987  1.0000  -1.1918   0.0000   0.0000   0.0000   0.2566
   4.100   0.5938   0.01279   0.00558  -0.0060  0.4931  1.0000  -1.2156   0.0000   0.0000   0.0000   0.2560
   4.200   0.6042   0.01279   0.00558  -0.0058  0.4874  1.0000  -1.2395   0.0000   0.0000   0.0000   0.2554
   4.300   0.6144   0.01281   0.00556  -0.0056  0.4818  1.0000  -1.2634   0.0000   0.0000   0.0000   0.2547
   4.400   0.6246   0.01285   0.00556  -0.0053  0.4762  1.0000  -1.2873   0.0000   0.0000   0.0000   0.2540
   4.500   0.6347   0.01295   0.00559  -0.0051  0.4704  1.0000  -1.3111   0.0000   0.0000   0.0000   0.2534
   4.600   0.6446   0.01320   0.00577  -0.0049  0.4627  1.0000  -1.3342   0.0000   0.0000   0.0000   0.2529
   4.700   0.6552   0.01322   0.00583  -0.0048  0.4590  1.0000  -1.3585   0.0000   0.0000   0.0000   0.2525
   4.800   0.6658   0.01324   0.00590  -0.0047  0.4540  1.0000  -1.3838   0.0000   0.0000   0.0000   0.2522
   4.900   0.6763   0.01326   0.00595  -0.0046  0.4481  1.0000  -1.4135   0.0000   0.0000   0.0000   0.2518
   5.000   0.6867   0.01328   0.00598  -0.0044  0.4417  1.0000  -1.4435   0.0000   0.0000   0.0000   0.2514
   5.100   0.6970   0.01331   0.00599  -0.0042  0.4352  1.0000  -1.4736   0.0000   0.0000   0.0000   0.2509
   5.200   0.7071   0.01336   0.00599  -0.0040  0.4286  1.0000  -1.5038   0.0000   0.0000   0.0000   0.2504
   5.300   0.7171   0.01347   0.00602  -0.0037  0.4215  1.0000  -1.5338   0.0000   0.0000   0.0000   0.2498
   5.400   0.7270   0.01373   0.00620  -0.0035  0.4131  1.0000  -1.5631   0.0000   0.0000   0.0000   0.2494
   5.500   0.7376   0.01376   0.00630  -0.0035  0.4090  1.0000  -1.5938   0.0000   0.0000   0.0000   0.2492
   5.600   0.7481   0.01382   0.00640  -0.0034  0.4036  1.0000  -1.6253   0.0000   0.0000   0.0000   0.2489
   5.700   0.7585   0.01388   0.00649  -0.0033  0.3974  1.0000  -1.6643   0.0000   0.0000   0.0000   0.2486
   5.800   0.7690   0.01392   0.00685  -0.0031  0.3926  1.0000  -1.7056   0.0000   0.0000   0.0000   0.2482
   5.900   0.7793   0.01399   0.00690  -0.0030  0.3863  1.0000  -1.7433   0.0000   0.0000   0.0000   0.2479
   6.000   0.7893   0.01408   0.00694  -0.0028  0.3797  1.0000  -1.7813   0.0000   0.0000   0.0000   0.2475
   6.100   0.7991   0.01425   0.00703  -0.0026  0.3719  1.0000  -1.8189   0.0000   0.0000   0.0000   0.2471
   6.200   0.8091   0.01446   0.00721  -0.0024  0.3643  1.0000  -1.8565   0.0000   0.0000   0.0000   0.2467
   6.300   0.8195   0.01450   0.00732  -0.0024  0.3591  1.0000  -1.8958   0.0000   0.0000   0.0000   0.2465
   6.400   0.8299   0.01457   0.00743  -0.0023  0.3527  1.0000  -1.9352   0.0000   0.0000   0.0000   0.2463
   6.500   0.8401   0.01465   0.00752  -0.0022  0.3457  1.0000  -1.9747   0.0000   0.0000   0.0000   0.2460
   6.600   0.8501   0.01476   0.00760  -0.0020  0.3386  1.0000  -2.0141   0.0000   0.0000   0.0000   0.2456
   6.700   0.8598   0.01491   0.00770  -0.0018  0.3315  1.0000  -2.0532   0.0000   0.0000   0.0000   0.2453
   6.800   0.8693   0.01520   0.00789  -0.0016  0.3229  1.0000  -2.1031   0.0000   0.0000   0.0000   0.2449
   6.900   0.8793   0.01536   0.00807  -0.0015  0.3165  1.0000  -2.1790   0.0000   0.0000   0.0000   0.2447
   7.000   0.8895   0.01536   0.00814  -0.0015  0.3090  1.0000  -2.2582   0.0000   0.0000   0.0000   0.2445
   7.100   0.8994   0.01539   0.00815  -0.0014  0.2983  1.0000  -2.3383   0.0000   0.0000   0.0000   0.2442
   7.200   0.9084   0.01552   0.00815  -0.0012  0.2854  1.0000  -2.4169   0.0000   0.0000   0.0000   0.2439
   7.300   0.9175   0.01571   0.00824  -0.0011  0.2722  1.0000  -2.4956   0.0000   0.0000   0.0000   0.2436
   7.400   0.9274   0.01575   0.00829  -0.0011  0.2592  1.0000  -2.5795   0.0000   0.0000   0.0000   0.2434
   7.500   0.9361   0.01598   0.00837  -0.0010  0.2435  1.0000  -2.6593   0.0000   0.0000   0.0000   0.2432
   7.600   0.9449   0.01622   0.00853  -0.0009  0.2294  1.0000  -2.7399   0.0000   0.0000   0.0000   0.2430
   7.700   0.9544   0.01639   0.00867  -0.0009  0.2162  1.0000  -2.8241   0.0000   0.0000   0.0000   0.2428
   7.800   0.9629   0.01669   0.00885  -0.0008  0.2033  1.0000  -2.9052   0.0000   0.0000   0.0000   0.2426
   7.900   0.9717   0.01699   0.00908  -0.0007  0.1939  1.0000  -2.9867   0.0000   0.0000   0.0000   0.2423
   8.000   0.9815   0.01715   0.00928  -0.0006  0.1890  1.0000  -3.0745   0.0000   0.0000   0.0000   0.2421
   8.100   0.9911   0.01734   0.00948  -0.0005  0.1829  1.0000  -3.1623   0.0000   0.0000   0.0000   0.2419
   8.200   1.0003   0.01757   0.00970  -0.0004  0.1760  1.0000  -3.2498   0.0000   0.0000   0.0000   0.2416
   8.300   1.0090   0.01786   0.00994  -0.0003  0.1685  1.0000  -3.3365   0.0000   0.0000   0.0000   0.2414
   8.400   1.0173   0.01819   0.01021  -0.0002  0.1605  1.0000  -3.4221   0.0000   0.0000   0.0000   0.2411
   8.500   1.0266   0.01841   0.01045  -0.0001  0.1550  1.0000  -3.5139   0.0000   0.0000   0.0000   0.2409
   8.600   1.0359   0.01863   0.01068   0.0000  0.1485  1.0000  -3.6072   0.0000   0.0000   0.0000   0.2407
   8.700   1.0446   0.01890   0.01094   0.0001  0.1411  1.0000  -3.6997   0.0000   0.0000   0.0000   0.2404
   8.800   1.0527   0.01925   0.01122   0.0003  0.1333  1.0000  -3.7905   0.0000   0.0000   0.0000   0.2402
   8.900   1.0604   0.01964   0.01155   0.0004  0.1257  1.0000  -3.8802   0.0000   0.0000   0.0000   0.2399
   9.000   1.0695   0.01986   0.01181   0.0005  0.1208  1.0000  -3.9789   0.0000   0.0000   0.0000   0.2396
   9.100   1.0781   0.02014   0.01210   0.0007  0.1148  1.0000  -4.0767   0.0000   0.0000   0.0000   0.2394
   9.200   1.0871   0.02039   0.01279   0.0010  0.1234  1.0000  -4.0667   0.0000   0.0000   0.0000   0.2390
   9.300   1.0960   0.02063   0.01309   0.0011  0.1201  1.0000  -4.1534   0.0000   0.0000   0.0000   0.2387
   9.400   1.1045   0.02090   0.01340   0.0013  0.1156  1.0000  -4.2463   0.0000   0.0000   0.0000   0.2384
   9.500   1.1126   0.02122   0.01372   0.0014  0.1105  1.0000  -4.3410   0.0000   0.0000   0.0000   0.2381
   9.600   1.1200   0.02159   0.01407   0.0016  0.1052  1.0000  -4.4355   0.0000   0.0000   0.0000   0.2378
   9.700   1.1269   0.02202   0.01447   0.0018  0.0996  1.0000  -4.5284   0.0000   0.0000   0.0000   0.2375
   9.800   1.1344   0.02238   0.01484   0.0020  0.0937  1.0000  -4.6286   0.0000   0.0000   0.0000   0.2372
   9.900   1.1416   0.02276   0.01519   0.0022  0.0837  1.0000  -4.7315   0.0000   0.0000   0.0000   0.2370
  10.000   1.1458   0.02345   0.01572   0.0024  0.0717  1.0000  -4.8170   0.0000   0.0000   0.0000   0.2366
  10.100   1.1525   0.02387   0.01615   0.0026  0.0643  1.0000  -4.9166   0.0000   0.0000   0.0000   0.2363
  10.200   1.1571   0.02450   0.01671   0.0029  0.0540  1.0000  -5.0033   0.0000   0.0000   0.0000   0.2359
  10.300   1.1607   0.02523   0.01736   0.0033  0.0432  1.0000  -5.0812   0.0000   0.0000   0.0000   0.2354
  10.400   1.1623   0.02614   0.01816   0.0037  0.0317  1.0000  -5.1435   0.0000   0.0000   0.0000   0.2349
  10.500   1.1638   0.02702   0.01900   0.0042  0.0233  1.0000  -5.1997   0.0000   0.0000   0.0000   0.2343
  10.600   1.1638   0.02802   0.01994   0.0047  0.0178  1.0000  -5.2420   0.0000   0.0000   0.0000   0.2337
  10.700   1.1656   0.02881   0.02078   0.0053  0.0157  1.0000  -5.2936   0.0000   0.0000   0.0000   0.2331
  10.800   1.1665   0.02957   0.02161   0.0058  0.0146  1.0000  -5.3445   0.0000   0.0000   0.0000   0.2325
  10.900   1.1665   0.03036   0.02247   0.0064  0.0138  1.0000  -5.3910   0.0000   0.0000   0.0000   0.2318
  11.000   1.1663   0.03120   0.02337   0.0068  0.0132  1.0000  -5.4364   0.0000   0.0000   0.0000   0.2313
  11.100   1.1660   0.03210   0.02433   0.0072  0.0127  1.0000  -5.4811   0.0000   0.0000   0.0000   0.2308
  11.200   1.1655   0.03304   0.02535   0.0074  0.0123  1.0000  -5.5245   0.0000   0.0000   0.0000   0.2304
  11.300   1.1649   0.03404   0.02641   0.0076  0.0119  1.0000  -5.5663   0.0000   0.0000   0.0000   0.2301
  11.400   1.1642   0.03508   0.02752   0.0077  0.0116  1.0000  -5.6068   0.0000   0.0000   0.0000   0.2299
  11.500   1.1631   0.03618   0.02869   0.0077  0.0114  1.0000  -5.6443   0.0000   0.0000   0.0000   0.2296
  11.600   1.1619   0.03732   0.02990   0.0077  0.0111  1.0000  -5.6799   0.0000   0.0000   0.0000   0.2295
  11.700   1.1603   0.03852   0.03118   0.0076  0.0109  1.0000  -5.7125   0.0000   0.0000   0.0000   0.2294
  11.800   1.1585   0.03979   0.03252   0.0074  0.0108  1.0000  -5.7423   0.0000   0.0000   0.0000   0.2293
  11.900   1.1566   0.04108   0.03389   0.0073  0.0106  1.0000  -5.7712   0.0000   0.0000   0.0000   0.2293
  12.000   1.1545   0.04244   0.03531   0.0070  0.0105  1.0000  -5.7975   0.0000   0.0000   0.0000   0.2293
  12.100   1.1519   0.04386   0.03681   0.0067  0.0104  1.0000  -5.8201   0.0000   0.0000   0.0000   0.2294
  12.200   1.1494   0.04530   0.03831   0.0063  0.0103  1.0000  -5.8420   0.0000   0.0000   0.0000   0.2295
  12.300   1.1466   0.04674   0.03983   0.0060  0.0102  1.0000  -5.8624   0.0000   0.0000   0.0000   0.2295
  12.400   1.1434   0.04829   0.04144   0.0056  0.0101  1.0000  -5.8781   0.0000   0.0000   0.0000   0.2297
  12.500   1.1402   0.04985   0.04307   0.0052  0.0100  1.0000  -5.8938   0.0000   0.0000   0.0000   0.2299
  12.600   1.1373   0.05142   0.04471   0.0047  0.0100  1.0000  -5.9101   0.0000   0.0000   0.0000   0.2301
  12.700   1.1342   0.05303   0.04638   0.0042  0.0099  1.0000  -5.9245   0.0000   0.0000   0.0000   0.2303
  12.800   1.1305   0.05476   0.04818   0.0036  0.0099  1.0000  -5.9340   0.0000   0.0000   0.0000   0.2307
  12.900   1.1271   0.05648   0.04997   0.0030  0.0098  1.0000  -5.9440   0.0000   0.0000   0.0000   0.2310
  13.000   1.1238   0.05818   0.05173   0.0025  0.0098  1.0000  -5.9549   0.0000   0.0000   0.0000   0.2313
  13.100   1.1206   0.05988   0.05349   0.0019  0.0097  1.0000  -5.9657   0.0000   0.0000   0.0000   0.2316
  13.200   1.1170   0.06168   0.05536   0.0012  0.0097  1.0000  -5.9719   0.0000   0.0000   0.0000   0.2320
  13.300   1.1133   0.06350   0.05724   0.0005  0.0097  1.0000  -5.9770   0.0000   0.0000   0.0000   0.2325
  13.400   1.1099   0.06528   0.05908  -0.0001  0.0097  1.0000  -5.9839   0.0000   0.0000   0.0000   0.2329
  13.500   1.1066   0.06703   0.06090  -0.0007  0.0096  1.0000  -5.9914   0.0000   0.0000   0.0000   0.2333
  13.600   1.1034   0.06877   0.06270  -0.0013  0.0096  1.0000  -5.9985   0.0000   0.0000   0.0000   0.2337
  13.700   1.0997   0.07059   0.06458  -0.0020  0.0096  1.0000  -6.0011   0.0000   0.0000   0.0000   0.2341
  13.800   1.0959   0.07251   0.06656  -0.0028  0.0096  1.0000  -6.0006   0.0000   0.0000   0.0000   0.2347
  13.900   1.0924   0.07440   0.06851  -0.0035  0.0096  1.0000  -6.0023   0.0000   0.0000   0.0000   0.2352
  14.000   1.0891   0.07630   0.07047  -0.0043  0.0096  1.0000  -6.0045   0.0000   0.0000   0.0000   0.2357
  14.100   1.0860   0.07821   0.07245  -0.0051  0.0096  1.0000  -6.0065   0.0000   0.0000   0.0000   0.2362
  14.200   1.0829   0.08017   0.07447  -0.0059  0.0096  1.0000  -6.0075   0.0000   0.0000   0.0000   0.2368
  14.300   1.0793   0.08228   0.07664  -0.0068  0.0096  1.0000  -6.0025   0.0000   0.0000   0.0000   0.2375
  14.400   1.0757   0.08442   0.07884  -0.0078  0.0096  1.0000  -5.9962   0.0000   0.0000   0.0000   0.2383
  14.500   1.0724   0.08653   0.08102  -0.0087  0.0096  1.0000  -5.9913   0.0000   0.0000   0.0000   0.2390
  14.600   1.0692   0.08864   0.08318  -0.0096  0.0096  1.0000  -5.9859   0.0000   0.0000   0.0000   0.2398
  14.700   1.0660   0.09076   0.08537  -0.0106  0.0096  1.0000  -5.9790   0.0000   0.0000   0.0000   0.2405
  14.800   1.0626   0.09293   0.08761  -0.0116  0.0096  1.0000  -5.9692   0.0000   0.0000   0.0000   0.2413
  14.900   1.0586   0.09530   0.09004  -0.0128  0.0097  1.0000  -5.9519   0.0000   0.0000   0.0000   0.2423
  15.000   1.0546   0.09770   0.09251  -0.0140  0.0097  1.0000  -5.9321   0.0000   0.0000   0.0000   0.2434
  15.100   1.0507   0.10007   0.09494  -0.0151  0.0097  1.0000  -5.9121   0.0000   0.0000   0.0000   0.2444
  15.200   1.0468   0.10245   0.09739  -0.0163  0.0097  1.0000  -5.8903   0.0000   0.0000   0.0000   0.2455
  15.300   1.0427   0.10491   0.09992  -0.0176  0.0098  1.0000  -5.8645   0.0000   0.0000   0.0000   0.2466
  15.400   1.0380   0.10753   0.10260  -0.0190  0.0098  1.0000  -5.8308   0.0000   0.0000   0.0000   0.2479
  15.500   1.0327   0.11032   0.10546  -0.0206  0.0098  1.0000  -5.7886   0.0000   0.0000   0.0000   0.2494
  15.600   1.0277   0.11306   0.10827  -0.0221  0.0099  1.0000  -5.7462   0.0000   0.0000   0.0000   0.2509
  15.700   1.0227   0.11583   0.11111  -0.0237  0.0099  1.0000  -5.7014   0.0000   0.0000   0.0000   0.2524
  15.800   1.0174   0.11869   0.11403  -0.0253  0.0100  1.0000  -5.6505   0.0000   0.0000   0.0000   0.2540
  15.900   1.0112   0.12184   0.11725  -0.0272  0.0100  1.0000  -5.5854   0.0000   0.0000   0.0000   0.2559
  16.000   1.0050   0.12502   0.12049  -0.0291  0.0101  1.0000  -5.5168   0.0000   0.0000   0.0000   0.2579
  16.100   0.9988   0.12821   0.12375  -0.0309  0.0102  1.0000  -5.4447   0.0000   0.0000   0.0000   0.2599
  16.200   0.9921   0.13151   0.12711  -0.0329  0.0102  1.0000  -5.3631   0.0000   0.0000   0.0000   0.2620
  16.300   0.9844   0.13507   0.13073  -0.0351  0.0103  1.0000  -5.2618   0.0000   0.0000   0.0000   0.2645
  16.400   0.9769   0.13859   0.13431  -0.0372  0.0104  1.0000  -5.1568   0.0000   0.0000   0.0000   0.2670
  16.500   0.9689   0.14231   0.13809  -0.0395  0.0105  1.0000  -5.0389   0.0000   0.0000   0.0000   0.2696
  16.600   0.9593   0.14670   0.14253  -0.0421  0.0106  1.0000  -4.8868   0.0000   0.0000   0.0000   0.2728
  16.700   0.9495   0.15133   0.14721  -0.0447  0.0108  1.0000  -4.7182   0.0000   0.0000   0.0000   0.2761
  16.800   0.9375   0.15686   0.15280  -0.0476  0.0110  1.0000  -4.4964   0.0000   0.0000   0.0000   0.2800
  16.900   0.9245   0.16309   0.15905  -0.0507  0.0113  1.0000  -4.2298   0.0000   0.0000   0.0000   0.2843
  17.000   0.9102   0.17019   0.16618  -0.0539  0.0117  1.0000  -3.9052   0.0000   0.0000   0.0000   0.2891
  17.100   0.8996   0.17639   0.17237  -0.0565  0.0121  1.0000  -3.6320   0.0000   0.0000   0.0000   0.2929
  17.200   0.8922   0.18176   0.17772  -0.0585  0.0124  1.0000  -3.4096   0.0000   0.0000   0.0000   0.2960
  17.300   0.8868   0.18652   0.18246  -0.0603  0.0127  1.0000  -3.2280   0.0000   0.0000   0.0000   0.2985
  17.400   0.8833   0.19066   0.18658  -0.0619  0.0130  1.0000  -3.0891   0.0000   0.0000   0.0000   0.3006
  17.500   0.8808   0.19440   0.19031  -0.0632  0.0132  1.0000  -2.9764   0.0000   0.0000   0.0000   0.3024
  17.600   0.8790   0.19788   0.19377  -0.0645  0.0134  1.0000  -2.8814   0.0000   0.0000   0.0000   0.3040
  17.700   0.8779   0.20116   0.19704  -0.0657  0.0136  1.0000  -2.7995   0.0000   0.0000   0.0000   0.3055
  17.800   0.8771   0.20429   0.20017  -0.0668  0.0138  1.0000  -2.7277   0.0000   0.0000   0.0000   0.3068
  17.900   0.8766   0.20731   0.20317  -0.0679  0.0141  1.0000  -2.6641   0.0000   0.0000   0.0000   0.3080
  18.000   0.8764   0.21023   0.20608  -0.0689  0.0143  1.0000  -2.6072   0.0000   0.0000   0.0000   0.3092
  18.100   0.8764   0.21306   0.20891  -0.0699  0.0145  1.0000  -2.5561   0.0000   0.0000   0.0000   0.3102
  18.200   0.8766   0.21583   0.21167  -0.0708  0.0147  1.0000  -2.5098   0.0000   0.0000   0.0000   0.3112
  18.300   0.8769   0.21854   0.21438  -0.0718  0.0150  1.0000  -2.4677   0.0000   0.0000   0.0000   0.3122
  18.400   0.8773   0.22121   0.21705  -0.0726  0.0152  1.0000  -2.4292   0.0000   0.0000   0.0000   0.3131
  18.500   0.8777   0.22386   0.21969  -0.0735  0.0155  1.0000  -2.3933   0.0000   0.0000   0.0000   0.3139
  18.600   0.8781   0.22650   0.22233  -0.0743  0.0158  1.0000  -2.3591   0.0000   0.0000   0.0000   0.3147
  18.700   0.8784   0.22919   0.22501  -0.0751  0.0161  1.0000  -2.3245   0.0000   0.0000   0.0000   0.3155
  18.800   0.8778   0.23225   0.22807  -0.0757  0.0167  1.0000  -2.2773   0.0000   0.0000   0.0000   0.3162
  18.900   0.8840   0.23268   0.22856  -0.0755  0.0177  1.0000  -2.3495   0.0000   0.0000   0.0000   0.3151
  19.300   0.8807   0.25416   0.25001  -0.0777  0.0310  1.0000  -1.8577   0.0000   0.0000   0.0000   0.3183
  19.400   0.8820   0.25666   0.25251  -0.0784  0.0310  1.0000  -1.8470   0.0000   0.0000   0.0000   0.3188
  19.500   0.8834   0.25914   0.25500  -0.0791  0.0310  1.0000  -1.8365   0.0000   0.0000   0.0000   0.3194
  19.600   0.8846   0.26161   0.25747  -0.0798  0.0310  1.0000  -1.8262   0.0000   0.0000   0.0000   0.3199
  19.700   0.8859   0.26408   0.25994  -0.0805  0.0310  1.0000  -1.8160   0.0000   0.0000   0.0000   0.3205
  19.800   0.8871   0.26653   0.26240  -0.0812  0.0310  1.0000  -1.8060   0.0000   0.0000   0.0000   0.3210
  19.900   0.8883   0.26898   0.26485  -0.0819  0.0310  1.0000  -1.7960   0.0000   0.0000   0.0000   0.3216
  20.000   0.8895   0.27141   0.26728  -0.0826  0.0310  1.0000  -1.7862   0.0000   0.0000   0.0000   0.3221
  20.100   0.8906   0.27384   0.26971  -0.0833  0.0310  1.0000  -1.7764   0.0000   0.0000   0.0000   0.3227
  20.200   0.8916   0.27625   0.27213  -0.0840  0.0310  1.0000  -1.7667   0.0000   0.0000   0.0000   0.3232
  20.300   0.8926   0.27865   0.27453  -0.0846  0.0309  1.0000  -1.7569   0.0000   0.0000   0.0000   0.3238
  20.400   0.8936   0.28103   0.27692  -0.0853  0.0309  1.0000  -1.7472   0.0000   0.0000   0.0000   0.3243
  20.500   0.8945   0.28340   0.27929  -0.0860  0.0309  1.0000  -1.7375   0.0000   0.0000   0.0000   0.3249
  20.600   0.8953   0.28575   0.28165  -0.0867  0.0309  1.0000  -1.7278   0.0000   0.0000   0.0000   0.3254
  20.700   0.8961   0.28809   0.28399  -0.0873  0.0309  1.0000  -1.7180   0.0000   0.0000   0.0000   0.3260
  20.800   0.8967   0.29040   0.28630  -0.0880  0.0309  1.0000  -1.7082   0.0000   0.0000   0.0000   0.3265
  20.900   0.8973   0.29269   0.28860  -0.0886  0.0309  1.0000  -1.6983   0.0000   0.0000   0.0000   0.3271
  21.000   0.8979   0.29495   0.29087  -0.0893  0.0309  1.0000  -1.6883   0.0000   0.0000   0.0000   0.3276
  21.100   0.8983   0.29719   0.29311  -0.0899  0.0308  1.0000  -1.6782   0.0000   0.0000   0.0000   0.3282
  21.200   0.8986   0.29939   0.29532  -0.0906  0.0308  1.0000  -1.6678   0.0000   0.0000   0.0000   0.3288
  21.300   0.8988   0.30155   0.29749  -0.0912  0.0308  1.0000  -1.6573   0.0000   0.0000   0.0000   0.3293
  21.400   0.8989   0.30368   0.29962  -0.0918  0.0308  1.0000  -1.6466   0.0000   0.0000   0.0000   0.3299
  21.500   0.8988   0.30577   0.30172  -0.0924  0.0307  1.0000  -1.6357   0.0000   0.0000   0.0000   0.3305
  21.600   0.8986   0.30781   0.30377  -0.0930  0.0307  1.0000  -1.6246   0.0000   0.0000   0.0000   0.3311
  21.700   0.8983   0.30979   0.30576  -0.0936  0.0307  1.0000  -1.6130   0.0000   0.0000   0.0000   0.3317
  21.800   0.8977   0.31171   0.30768  -0.0942  0.0306  1.0000  -1.6009   0.0000   0.0000   0.0000   0.3323
  21.900   0.8970   0.31355   0.30954  -0.0948  0.0306  1.0000  -1.5884   0.0000   0.0000   0.0000   0.3329
  22.000   0.8960   0.31532   0.31131  -0.0953  0.0305  1.0000  -1.5754   0.0000   0.0000   0.0000   0.3335
  22.100   0.8947   0.31698   0.31298  -0.0959  0.0305  1.0000  -1.5613   0.0000   0.0000   0.0000   0.3342
  22.200   0.8926   0.31847   0.31448  -0.0964  0.0304  1.0000  -1.5428   0.0000   0.0000   0.0000   0.3350
  22.300   0.8896   0.31978   0.31580  -0.0970  0.0303  1.0000  -1.5201   0.0000   0.0000   0.0000   0.3359
  22.400   0.8861   0.32089   0.31693  -0.0975  0.0302  1.0000  -1.4956   0.0000   0.0000   0.0000   0.3369
  22.500   0.8810   0.32158   0.31763  -0.0978  0.0301  1.0000  -1.4673   0.0000   0.0000   0.0000   0.3378
  22.600   0.8504   0.31533   0.31147  -0.0948  0.0301  1.0000  -1.3885   0.0000   0.0000   0.0000   0.3388
  22.700   0.8407   0.31392   0.31010  -0.0945  0.0300  1.0000  -1.3511   0.0000   0.0000   0.0000   0.3398
  22.800   0.8340   0.31323   0.30943  -0.0946  0.0298  1.0000  -1.3188   0.0000   0.0000   0.0000   0.3409
  22.900   0.8288   0.31291   0.30913  -0.0949  0.0295  1.0000  -1.2885   0.0000   0.0000   0.0000   0.3420
  23.000   0.8248   0.31288   0.30912  -0.0953  0.0292  1.0000  -1.2598   0.0000   0.0000   0.0000   0.3430
  23.100   0.8215   0.31309   0.30934  -0.0957  0.0288  1.0000  -1.2337   0.0000   0.0000   0.0000   0.3440
  23.200   0.8186   0.31342   0.30969  -0.0961  0.0283  1.0000  -1.2113   0.0000   0.0000   0.0000   0.3448
  23.300   0.8159   0.31380   0.31009  -0.0964  0.0278  1.0000  -1.1923   0.0000   0.0000   0.0000   0.3456
  23.400   0.8134   0.31420   0.31050  -0.0967  0.0274  1.0000  -1.1760   0.0000   0.0000   0.0000   0.3462
  23.500   0.8111   0.31461   0.31093  -0.0969  0.0270  1.0000  -1.1617   0.0000   0.0000   0.0000   0.3469
  23.600   0.8090   0.31504   0.31137  -0.0972  0.0266  1.0000  -1.1489   0.0000   0.0000   0.0000   0.3475
  23.700   0.8070   0.31548   0.31183  -0.0975  0.0262  1.0000  -1.1374   0.0000   0.0000   0.0000   0.3480
  23.800   0.8051   0.31593   0.31229  -0.0977  0.0258  1.0000  -1.1269   0.0000   0.0000   0.0000   0.3486
  23.900   0.8034   0.31639   0.31277  -0.0980  0.0254  1.0000  -1.1173   0.0000   0.0000   0.0000   0.3491
  24.000   0.8017   0.31686   0.31326  -0.0983  0.0251  1.0000  -1.1084   0.0000   0.0000   0.0000   0.3496
  24.100   0.8002   0.31735   0.31375  -0.0986  0.0248  1.0000  -1.1003   0.0000   0.0000   0.0000   0.3501
  24.200   0.7988   0.31784   0.31426  -0.0988  0.0244  1.0000  -1.0927   0.0000   0.0000   0.0000   0.3506
  24.300   0.7975   0.31833   0.31477  -0.0991  0.0241  1.0000  -1.0858   0.0000   0.0000   0.0000   0.3511
  24.400   0.7963   0.31884   0.31529  -0.0994  0.0238  1.0000  -1.0794   0.0000   0.0000   0.0000   0.3516
  24.500   0.7951   0.31935   0.31581  -0.0997  0.0235  1.0000  -1.0735   0.0000   0.0000   0.0000   0.3521
  24.600   0.7941   0.31986   0.31634  -0.1001  0.0232  1.0000  -1.0682   0.0000   0.0000   0.0000   0.3525
  24.700   0.7931   0.32038   0.31687  -0.1004  0.0229  1.0000  -1.0633   0.0000   0.0000   0.0000   0.3530
  24.800   0.7921   0.32090   0.31740  -0.1007  0.0226  1.0000  -1.0589   0.0000   0.0000   0.0000   0.3534
  24.900   0.7913   0.32143   0.31794  -0.1010  0.0223  1.0000  -1.0551   0.0000   0.0000   0.0000   0.3539
  25.000   0.7905   0.32195   0.31848  -0.1013  0.0221  1.0000  -1.0517   0.0000   0.0000   0.0000   0.3543
  25.100   0.7897   0.32248   0.31902  -0.1017  0.0218  1.0000  -1.0489   0.0000   0.0000   0.0000   0.3547
  25.200   0.7890   0.32301   0.31956  -0.1020  0.0215  1.0000  -1.0465   0.0000   0.0000   0.0000   0.3551
  25.300   0.7883   0.32353   0.32010  -0.1023  0.0213  1.0000  -1.0447   0.0000   0.0000   0.0000   0.3555
  25.400   0.7877   0.32406   0.32064  -0.1026  0.0211  1.0000  -1.0435   0.0000   0.0000   0.0000   0.3559
  25.500   0.7872   0.32458   0.32117  -0.1030  0.0208  1.0000  -1.0428   0.0000   0.0000   0.0000   0.3563
  25.600   0.7867   0.32510   0.32171  -0.1033  0.0206  1.0000  -1.0428   0.0000   0.0000   0.0000   0.3567
  25.700   0.7862   0.32562   0.32223  -0.1036  0.0203  1.0000  -1.0435   0.0000   0.0000   0.0000   0.3571
  25.800   0.7857   0.32613   0.32276  -0.1040  0.0201  1.0000  -1.0448   0.0000   0.0000   0.0000   0.3574
  25.900   0.7853   0.32663   0.32328  -0.1043  0.0199  1.0000  -1.0469   0.0000   0.0000   0.0000   0.3578
  26.000   0.7850   0.32714   0.32379  -0.1046  0.0197  1.0000  -1.0498   0.0000   0.0000   0.0000   0.3581
  26.100   0.7846   0.32763   0.32430  -0.1049  0.0195  1.0000  -1.0536   0.0000   0.0000   0.0000   0.3584
  26.200   0.7843   0.32812   0.32480  -0.1052  0.0193  1.0000  -1.0583   0.0000   0.0000   0.0000   0.3587
  26.300   0.7841   0.32861   0.32530  -0.1055  0.0191  1.0000  -1.0641   0.0000   0.0000   0.0000   0.3589
  26.400   0.7838   0.32911   0.32588  -0.1057  0.0189  1.0000  -1.0697   0.0000   0.0000   0.0000   0.3592
  26.500   0.7836   0.32961   0.32639  -0.1060  0.0187  1.0000  -1.0774   0.0000   0.0000   0.0000   0.3593
  26.600   0.7835   0.33012   0.32691  -0.1062  0.0185  1.0000  -1.0867   0.0000   0.0000   0.0000   0.3595
  26.700   0.7834   0.33066   0.32746  -0.1064  0.0184  1.0000  -1.0975   0.0000   0.0000   0.0000   0.3596
  26.800   0.7835   0.33127   0.32809  -0.1065  0.0182  1.0000  -1.1099   0.0000   0.0000   0.0000   0.3596
  26.900   0.7836   0.33204   0.32887  -0.1066  0.0180  1.0000  -1.1244   0.0000   0.0000   0.0000   0.3594
  27.000   0.7841   0.33316   0.33001  -0.1065  0.0178  1.0000  -1.1409   0.0000   0.0000   0.0000   0.3591
  27.100   0.7855   0.33631   0.33317  -0.1061  0.0174  1.0000  -1.1530   0.0000   0.0000   0.0000   0.3583
  27.300   0.7833   0.33999   0.33683  -0.1068  0.0172  1.0000  -1.0975   0.0000   0.0000   0.0000   0.3594
  27.400   0.7828   0.34054   0.33739  -0.1072  0.0171  1.0000  -1.0896   0.0000   0.0000   0.0000   0.3599
  27.500   0.7823   0.34109   0.33795  -0.1077  0.0171  1.0000  -1.0818   0.0000   0.0000   0.0000   0.3604
  27.600   0.7819   0.34164   0.33851  -0.1081  0.0171  1.0000  -1.0741   0.0000   0.0000   0.0000   0.3609
  27.700   0.7815   0.34219   0.33907  -0.1086  0.0171  1.0000  -1.0665   0.0000   0.0000   0.0000   0.3615
  27.800   0.7811   0.34273   0.33963  -0.1091  0.0171  1.0000  -1.0590   0.0000   0.0000   0.0000   0.3620
  27.900   0.7807   0.34328   0.34019  -0.1095  0.0171  1.0000  -1.0517   0.0000   0.0000   0.0000   0.3625
  28.000   0.7804   0.34382   0.34074  -0.1100  0.0171  1.0000  -1.0444   0.0000   0.0000   0.0000   0.3630
  28.100   0.7800   0.34434   0.34127  -0.1105  0.0171  1.0000  -1.0369   0.0000   0.0000   0.0000   0.3635
  28.200   0.7796   0.34485   0.34179  -0.1109  0.0170  1.0000  -1.0292   0.0000   0.0000   0.0000   0.3641
  28.300   0.7792   0.34536   0.34231  -0.1114  0.0170  1.0000  -1.0217   0.0000   0.0000   0.0000   0.3646
  28.400   0.7788   0.34587   0.34284  -0.1119  0.0170  1.0000  -1.0143   0.0000   0.0000   0.0000   0.3652
  28.500   0.7785   0.34638   0.34336  -0.1124  0.0170  1.0000  -1.0070   0.0000   0.0000   0.0000   0.3657
  28.600   0.7781   0.34687   0.34385  -0.1129  0.0170  1.0000  -0.9991   0.0000   0.0000   0.0000   0.3662
  28.700   0.7776   0.34732   0.34431  -0.1134  0.0170  1.0000  -0.9901   0.0000   0.0000   0.0000   0.3668
  28.800   0.7772   0.34777   0.34477  -0.1139  0.0169  1.0000  -0.9813   0.0000   0.0000   0.0000   0.3674
  28.900   0.7768   0.34823   0.34524  -0.1145  0.0169  1.0000  -0.9726   0.0000   0.0000   0.0000   0.3680
  29.000   0.7764   0.34869   0.34572  -0.1150  0.0169  1.0000  -0.9640   0.0000   0.0000   0.0000   0.3686
  29.100   0.7760   0.34917   0.34620  -0.1155  0.0169  1.0000  -0.9555   0.0000   0.0000   0.0000   0.3692
  29.200   0.7757   0.34964   0.34669  -0.1161  0.0168  1.0000  -0.9471   0.0000   0.0000   0.0000   0.3698
  29.300   0.7754   0.35013   0.34719  -0.1166  0.0168  1.0000  -0.9388   0.0000   0.0000   0.0000   0.3704
  29.400   0.7751   0.35063   0.34769  -0.1172  0.0168  1.0000  -0.9305   0.0000   0.0000   0.0000   0.3710
  29.500   0.7749   0.35114   0.34821  -0.1177  0.0167  1.0000  -0.9222   0.0000   0.0000   0.0000   0.3715
  29.600   0.7747   0.35166   0.34874  -0.1183  0.0167  1.0000  -0.9140   0.0000   0.0000   0.0000   0.3721
  29.700   0.7746   0.35220   0.34929  -0.1189  0.0167  1.0000  -0.9057   0.0000   0.0000   0.0000   0.3727
  29.800   0.7745   0.35275   0.34986  -0.1194  0.0166  1.0000  -0.8974   0.0000   0.0000   0.0000   0.3733
  29.900   0.7744   0.35333   0.35044  -0.1200  0.0165  1.0000  -0.8891   0.0000   0.0000   0.0000   0.3739
  30.000   0.7745   0.35393   0.35106  -0.1206  0.0165  1.0000  -0.8807   0.0000   0.0000   0.0000   0.3744


