xflr5 v6.61

 Calculated polar for: S5010

 1 1 Reynolds number fixed          Mach number fixed         

 xtrf =   1.000 (top)        1.000 (bottom)
 Mach =   0.000     Re =     0.450 e 6     Ncrit =   9.000

  alpha     CL        CD       CDp       Cm    Top Xtr Bot Xtr   Cpmin    Chinge    XCp    
 ------- -------- --------- --------- -------- ------- ------- -------- --------- ---------
 -10.000  -0.5373   0.12468   0.12241   0.0328  1.0000  0.0145  -1.7447   0.0000   0.0000   0.0000   0.3059
  -9.900  -0.5355   0.12304   0.12078   0.0320  1.0000  0.0145  -1.7542   0.0000   0.0000   0.0000   0.3047
  -9.800  -0.5337   0.12141   0.11915   0.0313  1.0000  0.0145  -1.7640   0.0000   0.0000   0.0000   0.3036
  -9.700  -0.5319   0.11975   0.11750   0.0305  1.0000  0.0145  -1.7739   0.0000   0.0000   0.0000   0.3024
  -9.600  -0.5300   0.11807   0.11582   0.0297  1.0000  0.0145  -1.7840   0.0000   0.0000   0.0000   0.3011
  -9.500  -0.5281   0.11637   0.11414   0.0289  1.0000  0.0145  -1.7945   0.0000   0.0000   0.0000   0.2998
  -9.400  -0.5263   0.11467   0.11245   0.0280  1.0000  0.0145  -1.8053   0.0000   0.0000   0.0000   0.2985
  -9.300  -0.5245   0.11297   0.11075   0.0272  1.0000  0.0145  -1.8164   0.0000   0.0000   0.0000   0.2971
  -9.200  -0.5227   0.11126   0.10905   0.0263  1.0000  0.0145  -1.8279   0.0000   0.0000   0.0000   0.2957
  -9.100  -0.5210   0.10954   0.10734   0.0255  1.0000  0.0145  -1.8398   0.0000   0.0000   0.0000   0.2942
  -9.000  -0.5193   0.10782   0.10563   0.0246  1.0000  0.0145  -1.8521   0.0000   0.0000   0.0000   0.2927
  -8.900  -0.5177   0.10610   0.10392   0.0237  1.0000  0.0145  -1.8649   0.0000   0.0000   0.0000   0.2912
  -8.800  -0.5162   0.10437   0.10220   0.0228  1.0000  0.0145  -1.8782   0.0000   0.0000   0.0000   0.2896
  -8.700  -0.5147   0.10264   0.10048   0.0218  1.0000  0.0145  -1.8920   0.0000   0.0000   0.0000   0.2880
  -8.600  -0.5134   0.10091   0.09876   0.0209  1.0000  0.0145  -1.9064   0.0000   0.0000   0.0000   0.2863
  -8.500  -0.5121   0.09917   0.09704   0.0199  1.0000  0.0145  -1.9214   0.0000   0.0000   0.0000   0.2845
  -8.400  -0.5110   0.09743   0.09531   0.0189  1.0000  0.0145  -1.9371   0.0000   0.0000   0.0000   0.2827
  -8.300  -0.5098   0.09567   0.09356   0.0179  1.0000  0.0145  -1.9534   0.0000   0.0000   0.0000   0.2808
  -8.200  -0.5086   0.09387   0.09177   0.0167  1.0000  0.0145  -1.9704   0.0000   0.0000   0.0000   0.2787
  -8.100  -0.5074   0.09205   0.08997   0.0155  1.0000  0.0145  -1.9884   0.0000   0.0000   0.0000   0.2764
  -8.000  -0.5063   0.09022   0.08815   0.0142  1.0000  0.0145  -2.0073   0.0000   0.0000   0.0000   0.2740
  -7.900  -0.5031   0.08809   0.08601   0.0120  0.9378  0.0145  -2.0286   0.0000   0.0000   0.0000   0.2699
  -7.800  -0.5026   0.08635   0.08420   0.0108  0.9070  0.0145  -2.0502   0.0000   0.0000   0.0000   0.2675
  -7.300  -0.5109   0.07768   0.07534   0.0045  0.8453  0.0145  -2.1904   0.0000   0.0000   0.0000   0.2552
  -7.200  -0.5100   0.07550   0.07313   0.0027  0.8396  0.0145  -2.2233   0.0000   0.0000   0.0000   0.2517
  -7.100  -0.5089   0.07336   0.07095   0.0011  0.8336  0.0145  -2.2552   0.0000   0.0000   0.0000   0.2487
  -7.000  -0.5076   0.07126   0.06880  -0.0002  0.8277  0.0145  -2.2861   0.0000   0.0000   0.0000   0.2461
  -6.900  -0.5062   0.06920   0.06668  -0.0013  0.8220  0.0145  -2.3156   0.0000   0.0000   0.0000   0.2439
  -6.800  -0.5046   0.06716   0.06458  -0.0023  0.8165  0.0145  -2.3438   0.0000   0.0000   0.0000   0.2419
  -6.700  -0.5027   0.06515   0.06250  -0.0032  0.8109  0.0145  -2.3708   0.0000   0.0000   0.0000   0.2402
  -6.600  -0.5003   0.06314   0.06042  -0.0040  0.8056  0.0145  -2.3963   0.0000   0.0000   0.0000   0.2385
  -6.500  -0.4975   0.06107   0.05830  -0.0048  0.8029  0.0145  -2.4208   0.0000   0.0000   0.0000   0.2369
  -6.400  -0.4943   0.05903   0.05620  -0.0055  0.7999  0.0145  -2.4441   0.0000   0.0000   0.0000   0.2354
  -6.300  -0.4909   0.05700   0.05410  -0.0061  0.7965  0.0145  -2.4663   0.0000   0.0000   0.0000   0.2342
  -6.200  -0.4874   0.05498   0.05201  -0.0066  0.7929  0.0144  -2.4876   0.0000   0.0000   0.0000   0.2331
  -6.100  -0.4836   0.05295   0.04990  -0.0070  0.7892  0.0144  -2.5092   0.0000   0.0000   0.0000   0.2321
  -6.000  -0.4797   0.05088   0.04774  -0.0073  0.7855  0.0144  -2.5325   0.0000   0.0000   0.0000   0.2313
  -5.900  -0.4760   0.04867   0.04544  -0.0076  0.7818  0.0143  -2.5629   0.0000   0.0000   0.0000   0.2306
  -5.800  -0.4843   0.04230   0.03882  -0.0085  0.7793  0.0133  -2.8487   0.0000   0.0000   0.0000   0.2291
  -5.700  -0.4835   0.03848   0.03475  -0.0086  0.7761  0.0126  -3.0048   0.0000   0.0000   0.0000   0.2288
  -5.600  -0.4796   0.03557   0.03162  -0.0084  0.7725  0.0120  -3.1077   0.0000   0.0000   0.0000   0.2290
  -5.500  -0.4744   0.03299   0.02880  -0.0080  0.7685  0.0115  -3.1960   0.0000   0.0000   0.0000   0.2295
  -5.400  -0.4683   0.03056   0.02613  -0.0075  0.7641  0.0110  -3.2802   0.0000   0.0000   0.0000   0.2302
  -5.300  -0.4614   0.02830   0.02363  -0.0070  0.7603  0.0106  -3.3564   0.0000   0.0000   0.0000   0.2310
  -5.200  -0.4538   0.02616   0.02126  -0.0065  0.7587  0.0103  -3.4255   0.0000   0.0000   0.0000   0.2319
  -5.100  -0.4455   0.02420   0.01907  -0.0059  0.7568  0.0100  -3.4826   0.0000   0.0000   0.0000   0.2329
  -5.000  -0.4368   0.02248   0.01713  -0.0053  0.7545  0.0098  -3.5197   0.0000   0.0000   0.0000   0.2339
  -4.900  -0.4276   0.02099   0.01544  -0.0048  0.7519  0.0097  -3.5364   0.0000   0.0000   0.0000   0.2348
  -4.800  -0.4180   0.01971   0.01398  -0.0043  0.7491  0.0097  -3.5326   0.0000   0.0000   0.0000   0.2357
  -4.700  -0.4081   0.01862   0.01273  -0.0039  0.7459  0.0097  -3.5094   0.0000   0.0000   0.0000   0.2365
  -4.600  -0.3980   0.01770   0.01167  -0.0035  0.7424  0.0099  -3.4687   0.0000   0.0000   0.0000   0.2373
  -4.500  -0.3879   0.01692   0.01076  -0.0031  0.7388  0.0102  -3.4131   0.0000   0.0000   0.0000   0.2381
  -4.400  -0.3776   0.01627   0.01001  -0.0027  0.7350  0.0105  -3.3464   0.0000   0.0000   0.0000   0.2388
  -4.300  -0.3674   0.01573   0.00927  -0.0025  0.7311  0.0101  -3.3354   0.0000   0.0000   0.0000   0.2394
  -4.200  -0.3570   0.01523   0.00868  -0.0021  0.7270  0.0105  -3.2561   0.0000   0.0000   0.0000   0.2401
  -4.100  -0.3465   0.01485   0.00823  -0.0019  0.7225  0.0110  -3.1655   0.0000   0.0000   0.0000   0.2407
  -4.000  -0.3359   0.01459   0.00791  -0.0017  0.7176  0.0116  -3.0648   0.0000   0.0000   0.0000   0.2411
  -3.900  -0.3250   0.01446   0.00774  -0.0016  0.7129  0.0122  -2.9554   0.0000   0.0000   0.0000   0.2413
  -3.800  -0.3138   0.01437   0.00766  -0.0015  0.7114  0.0128  -2.8383   0.0000   0.0000   0.0000   0.2413
  -3.700  -0.3026   0.01437   0.00767  -0.0015  0.7096  0.0132  -2.7150   0.0000   0.0000   0.0000   0.2411
  -3.600  -0.2912   0.01447   0.00779  -0.0016  0.7074  0.0137  -2.5858   0.0000   0.0000   0.0000   0.2408
  -3.500  -0.2798   0.01467   0.00802  -0.0016  0.7049  0.0140  -2.4503   0.0000   0.0000   0.0000   0.2403
  -3.400  -0.2682   0.01503   0.00841  -0.0018  0.7021  0.0144  -2.3051   0.0000   0.0000   0.0000   0.2397
  -3.300  -0.2575   0.01469   0.00804  -0.0016  0.6993  0.0150  -2.2251   0.0000   0.0000   0.0000   0.2398
  -3.200  -0.2481   0.01358   0.00682  -0.0012  0.6965  0.0160  -2.2296   0.0000   0.0000   0.0000   0.2413
  -3.100  -0.2380   0.01301   0.00620  -0.0009  0.6932  0.0169  -2.1939   0.0000   0.0000   0.0000   0.2423
  -3.000  -0.2277   0.01264   0.00579  -0.0007  0.6897  0.0177  -2.1439   0.0000   0.0000   0.0000   0.2431
  -2.900  -0.2172   0.01237   0.00548  -0.0005  0.6860  0.0184  -2.0875   0.0000   0.0000   0.0000   0.2439
  -2.800  -0.2066   0.01214   0.00522  -0.0003  0.6821  0.0190  -2.0285   0.0000   0.0000   0.0000   0.2447
  -2.700  -0.1960   0.01195   0.00498  -0.0001  0.6779  0.0196  -1.9690   0.0000   0.0000   0.0000   0.2455
  -2.600  -0.1854   0.01179   0.00478   0.0001  0.6732  0.0201  -1.9103   0.0000   0.0000   0.0000   0.2463
  -2.500  -0.1747   0.01164   0.00459   0.0002  0.6679  0.0206  -1.8530   0.0000   0.0000   0.0000   0.2471
  -2.400  -0.1638   0.01150   0.00441   0.0003  0.6635  0.0211  -1.7972   0.0000   0.0000   0.0000   0.2479
  -2.300  -0.1529   0.01131   0.00422   0.0004  0.6622  0.0216  -1.7428   0.0000   0.0000   0.0000   0.2487
  -2.200  -0.1418   0.01118   0.00408   0.0005  0.6605  0.0226  -1.6782   0.0000   0.0000   0.0000   0.2494
  -2.100  -0.1307   0.01110   0.00402   0.0005  0.6586  0.0244  -1.6007   0.0000   0.0000   0.0000   0.2496
  -2.000  -0.1196   0.01104   0.00398   0.0005  0.6563  0.0263  -1.5242   0.0000   0.0000   0.0000   0.2499
  -1.900  -0.1084   0.01097   0.00393   0.0005  0.6538  0.0279  -1.4536   0.0000   0.0000   0.0000   0.2503
  -1.800  -0.0973   0.01087   0.00382   0.0006  0.6511  0.0289  -1.3936   0.0000   0.0000   0.0000   0.2514
  -1.700  -0.0864   0.01070   0.00361   0.0008  0.6482  0.0292  -1.3495   0.0000   0.0000   0.0000   0.2537
  -1.600  -0.0754   0.01050   0.00335   0.0010  0.6449  0.0293  -1.3162   0.0000   0.0000   0.0000   0.2573
  -1.500  -0.0645   0.01033   0.00311   0.0011  0.6414  0.0294  -1.2815   0.0000   0.0000   0.0000   0.2620
  -1.400  -0.0534   0.01018   0.00288   0.0013  0.6377  0.0296  -1.2448   0.0000   0.0000   0.0000   0.2685
  -1.300  -0.0423   0.01007   0.00269   0.0015  0.6338  0.0297  -1.2024   0.0000   0.0000   0.0000   0.2781
  -1.200  -0.0312   0.01003   0.00248   0.0016  0.6296  0.0284  -1.1210   0.0000   0.0000   0.0000   0.2929
  -1.100  -0.0201   0.00996   0.00234   0.0018  0.6248  0.0291  -1.0853   0.0000   0.0000   0.0000   0.3252
  -1.000  -0.0089   0.00988   0.00218   0.0020  0.6196  0.0365  -1.0783   0.0000   0.0000   0.0000   0.4465
  -0.900  -0.0019   0.00884   0.00201   0.0022  0.6146  0.2637  -1.0781   0.0000   0.0000   0.0000   1.3121
  -0.800   0.0061   0.00822   0.00197   0.0025  0.6127  0.4151  -1.0343   0.0000   0.0000   0.0000  -0.1331
  -0.700   0.0156   0.00791   0.00194   0.0028  0.6113  0.4891  -0.9823   0.0000   0.0000   0.0000   0.0812
  -0.600   0.0249   0.00764   0.00192   0.0031  0.6095  0.5576  -0.9296   0.0000   0.0000   0.0000   0.1300
  -0.500   0.0342   0.00739   0.00190   0.0035  0.6074  0.6220  -0.8769   0.0000   0.0000   0.0000   0.1493
  -0.300   0.0514   0.00691   0.00189   0.0048  0.6020  0.7484  -0.7751   0.0000   0.0000   0.0000   0.1565
  -0.200   0.0597   0.00669   0.00189   0.0057  0.5989  0.8151  -0.7252   0.0000   0.0000   0.0000   0.1548
  -0.100   0.0705   0.00653   0.00192   0.0061  0.5952  0.8783  -0.6693   0.0000   0.0000   0.0000   0.1622
   0.000   0.0929   0.00650   0.00195   0.0041  0.5907  0.9298  -0.5860   0.0000   0.0000   0.0000   0.2047
   0.100   0.1148   0.00653   0.00195   0.0020  0.5862  0.9544  -0.5498   0.0000   0.0000   0.0000   0.2313
   0.200   0.1326   0.00658   0.00196   0.0008  0.5821  0.9709  -0.5650   0.0000   0.0000   0.0000   0.2429
   0.300   0.1549   0.00663   0.00195  -0.0015  0.5772  0.9830  -0.5832   0.0000   0.0000   0.0000   0.2583
   0.400   0.1837   0.00669   0.00194  -0.0052  0.5707  0.9944  -0.6053   0.0000   0.0000   0.0000   0.2767
   0.500   0.2075   0.00675   0.00194  -0.0079  0.5630  1.0000  -0.6244   0.0000   0.0000   0.0000   0.2864
   0.600   0.2180   0.00674   0.00191  -0.0078  0.5615  1.0000  -0.6362   0.0000   0.0000   0.0000   0.2839
   0.700   0.2285   0.00672   0.00189  -0.0076  0.5595  1.0000  -0.6489   0.0000   0.0000   0.0000   0.2815
   0.800   0.2390   0.00672   0.00187  -0.0075  0.5570  1.0000  -0.6618   0.0000   0.0000   0.0000   0.2794
   0.900   0.2495   0.00672   0.00186  -0.0074  0.5540  1.0000  -0.6747   0.0000   0.0000   0.0000   0.2774
   1.000   0.2601   0.00672   0.00185  -0.0072  0.5508  1.0000  -0.6876   0.0000   0.0000   0.0000   0.2756
   1.100   0.2706   0.00673   0.00183  -0.0071  0.5474  1.0000  -0.7005   0.0000   0.0000   0.0000   0.2740
   1.200   0.2812   0.00674   0.00182  -0.0070  0.5438  1.0000  -0.7135   0.0000   0.0000   0.0000   0.2724
   1.300   0.2917   0.00676   0.00181  -0.0068  0.5401  1.0000  -0.7266   0.0000   0.0000   0.0000   0.2710
   1.400   0.3022   0.00678   0.00180  -0.0067  0.5361  1.0000  -0.7397   0.0000   0.0000   0.0000   0.2697
   1.500   0.3128   0.00681   0.00179  -0.0065  0.5316  1.0000  -0.7528   0.0000   0.0000   0.0000   0.2684
   1.600   0.3233   0.00685   0.00179  -0.0064  0.5263  1.0000  -0.7659   0.0000   0.0000   0.0000   0.2672
   1.700   0.3338   0.00690   0.00179  -0.0063  0.5200  1.0000  -0.7791   0.0000   0.0000   0.0000   0.2662
   1.800   0.3443   0.00698   0.00182  -0.0062  0.5128  1.0000  -0.7938   0.0000   0.0000   0.0000   0.2652
   1.900   0.3550   0.00698   0.00183  -0.0061  0.5109  1.0000  -0.8094   0.0000   0.0000   0.0000   0.2643
   2.000   0.3657   0.00698   0.00183  -0.0060  0.5087  1.0000  -0.8252   0.0000   0.0000   0.0000   0.2634
   2.100   0.3764   0.00699   0.00188  -0.0058  0.5061  1.0000  -0.8409   0.0000   0.0000   0.0000   0.2626
   2.200   0.3870   0.00701   0.00189  -0.0057  0.5031  1.0000  -0.8567   0.0000   0.0000   0.0000   0.2618
   2.300   0.3977   0.00703   0.00190  -0.0056  0.4997  1.0000  -0.8726   0.0000   0.0000   0.0000   0.2611
   2.400   0.4084   0.00705   0.00191  -0.0055  0.4959  1.0000  -0.8885   0.0000   0.0000   0.0000   0.2604
   2.500   0.4190   0.00708   0.00191  -0.0054  0.4918  1.0000  -0.9044   0.0000   0.0000   0.0000   0.2597
   2.600   0.4296   0.00711   0.00192  -0.0053  0.4874  1.0000  -0.9221   0.0000   0.0000   0.0000   0.2591
   2.700   0.4402   0.00716   0.00192  -0.0052  0.4825  1.0000  -0.9409   0.0000   0.0000   0.0000   0.2584
   2.800   0.4507   0.00721   0.00194  -0.0051  0.4767  1.0000  -0.9597   0.0000   0.0000   0.0000   0.2578
   2.900   0.4613   0.00728   0.00196  -0.0050  0.4695  1.0000  -0.9785   0.0000   0.0000   0.0000   0.2573
   3.000   0.4718   0.00737   0.00200  -0.0049  0.4623  1.0000  -0.9973   0.0000   0.0000   0.0000   0.2568
   3.100   0.4826   0.00737   0.00202  -0.0048  0.4602  1.0000  -1.0167   0.0000   0.0000   0.0000   0.2563
   3.200   0.4933   0.00738   0.00204  -0.0047  0.4575  1.0000  -1.0360   0.0000   0.0000   0.0000   0.2558
   3.300   0.5040   0.00741   0.00207  -0.0046  0.4542  1.0000  -1.0555   0.0000   0.0000   0.0000   0.2553
   3.400   0.5147   0.00744   0.00209  -0.0045  0.4504  1.0000  -1.0749   0.0000   0.0000   0.0000   0.2549
   3.500   0.5254   0.00748   0.00212  -0.0044  0.4459  1.0000  -1.0945   0.0000   0.0000   0.0000   0.2544
   3.600   0.5360   0.00752   0.00214  -0.0043  0.4408  1.0000  -1.1140   0.0000   0.0000   0.0000   0.2540
   3.700   0.5466   0.00758   0.00216  -0.0042  0.4348  1.0000  -1.1337   0.0000   0.0000   0.0000   0.2536
   3.800   0.5571   0.00765   0.00219  -0.0041  0.4278  1.0000  -1.1557   0.0000   0.0000   0.0000   0.2532
   3.900   0.5676   0.00774   0.00223  -0.0040  0.4193  1.0000  -1.1793   0.0000   0.0000   0.0000   0.2528
   4.000   0.5782   0.00782   0.00228  -0.0039  0.4127  1.0000  -1.2031   0.0000   0.0000   0.0000   0.2525
   4.100   0.5889   0.00784   0.00232  -0.0039  0.4101  1.0000  -1.2274   0.0000   0.0000   0.0000   0.2521
   4.200   0.5996   0.00787   0.00236  -0.0038  0.4068  1.0000  -1.2518   0.0000   0.0000   0.0000   0.2518
   4.300   0.6103   0.00791   0.00240  -0.0037  0.4026  1.0000  -1.2761   0.0000   0.0000   0.0000   0.2515
   4.400   0.6210   0.00797   0.00244  -0.0036  0.3976  1.0000  -1.3006   0.0000   0.0000   0.0000   0.2511
   4.500   0.6316   0.00803   0.00248  -0.0035  0.3920  1.0000  -1.3251   0.0000   0.0000   0.0000   0.2508
   4.600   0.6421   0.00811   0.00253  -0.0034  0.3857  1.0000  -1.3495   0.0000   0.0000   0.0000   0.2505
   4.700   0.6525   0.00820   0.00258  -0.0034  0.3785  1.0000  -1.3740   0.0000   0.0000   0.0000   0.2502
   4.800   0.6629   0.00832   0.00265  -0.0033  0.3695  1.0000  -1.4005   0.0000   0.0000   0.0000   0.2499
   4.900   0.6735   0.00838   0.00272  -0.0032  0.3643  1.0000  -1.4305   0.0000   0.0000   0.0000   0.2496
   5.000   0.6842   0.00842   0.00277  -0.0031  0.3605  1.0000  -1.4611   0.0000   0.0000   0.0000   0.2494
   5.100   0.6948   0.00848   0.00282  -0.0031  0.3551  1.0000  -1.4917   0.0000   0.0000   0.0000   0.2491
   5.200   0.7054   0.00855   0.00288  -0.0030  0.3485  1.0000  -1.5223   0.0000   0.0000   0.0000   0.2488
   5.300   0.7158   0.00865   0.00294  -0.0029  0.3414  1.0000  -1.5530   0.0000   0.0000   0.0000   0.2486
   5.400   0.7261   0.00877   0.00301  -0.0028  0.3338  1.0000  -1.5837   0.0000   0.0000   0.0000   0.2483
   5.500   0.7365   0.00890   0.00310  -0.0028  0.3247  1.0000  -1.6144   0.0000   0.0000   0.0000   0.2481
   5.600   0.7469   0.00899   0.00319  -0.0027  0.3186  1.0000  -1.6471   0.0000   0.0000   0.0000   0.2478
   5.700   0.7577   0.00903   0.00341  -0.0026  0.3163  1.0000  -1.6899   0.0000   0.0000   0.0000   0.2476
   5.800   0.7682   0.00910   0.00346  -0.0025  0.3081  1.0000  -1.7288   0.0000   0.0000   0.0000   0.2473
   5.900   0.7773   0.00943   0.00354  -0.0025  0.2735  1.0000  -1.7660   0.0000   0.0000   0.0000   0.2471
   6.000   0.7863   0.00980   0.00366  -0.0025  0.2382  1.0000  -1.8031   0.0000   0.0000   0.0000   0.2470
   6.100   0.7959   0.01007   0.00380  -0.0025  0.2146  1.0000  -1.8413   0.0000   0.0000   0.0000   0.2468
   6.200   0.8054   0.01035   0.00394  -0.0024  0.1969  1.0000  -1.8793   0.0000   0.0000   0.0000   0.2466
   6.300   0.8157   0.01047   0.00404  -0.0024  0.1890  1.0000  -1.9191   0.0000   0.0000   0.0000   0.2464
   6.400   0.8257   0.01064   0.00416  -0.0023  0.1795  1.0000  -1.9588   0.0000   0.0000   0.0000   0.2462
   6.500   0.8355   0.01086   0.00430  -0.0023  0.1688  1.0000  -1.9980   0.0000   0.0000   0.0000   0.2460
   6.600   0.8454   0.01105   0.00443  -0.0022  0.1585  1.0000  -2.0376   0.0000   0.0000   0.0000   0.2458
   6.700   0.8556   0.01117   0.00454  -0.0022  0.1535  1.0000  -2.0783   0.0000   0.0000   0.0000   0.2456
   6.800   0.8657   0.01132   0.00465  -0.0021  0.1465  1.0000  -2.1189   0.0000   0.0000   0.0000   0.2454
   6.900   0.8755   0.01153   0.00480  -0.0021  0.1378  1.0000  -2.1590   0.0000   0.0000   0.0000   0.2452
   7.000   0.8852   0.01176   0.00497  -0.0020  0.1280  1.0000  -2.2329   0.0000   0.0000   0.0000   0.2450
   7.100   0.8953   0.01191   0.00509  -0.0019  0.1224  1.0000  -2.3114   0.0000   0.0000   0.0000   0.2447
   7.200   0.9052   0.01207   0.00522  -0.0019  0.1163  1.0000  -2.3907   0.0000   0.0000   0.0000   0.2445
   7.300   0.9149   0.01230   0.00539  -0.0018  0.1076  1.0000  -2.4696   0.0000   0.0000   0.0000   0.2443
   7.400   0.9242   0.01258   0.00559  -0.0018  0.0964  1.0000  -2.5481   0.0000   0.0000   0.0000   0.2441
   7.500   0.9339   0.01278   0.00575  -0.0017  0.0893  1.0000  -2.6301   0.0000   0.0000   0.0000   0.2439
   7.600   0.9429   0.01311   0.00598  -0.0016  0.0776  1.0000  -2.7100   0.0000   0.0000   0.0000   0.2437
   7.700   0.9521   0.01340   0.00619  -0.0015  0.0673  1.0000  -2.7923   0.0000   0.0000   0.0000   0.2435
   7.800   0.9612   0.01369   0.00641  -0.0014  0.0584  1.0000  -2.8759   0.0000   0.0000   0.0000   0.2433
   7.900   0.9699   0.01405   0.00668  -0.0014  0.0483  1.0000  -2.9586   0.0000   0.0000   0.0000   0.2430
   8.000   0.9792   0.01430   0.00690  -0.0013  0.0417  1.0000  -3.0465   0.0000   0.0000   0.0000   0.2428
   8.100   0.9875   0.01471   0.00721  -0.0011  0.0318  1.0000  -3.1307   0.0000   0.0000   0.0000   0.2425
   8.200   0.9969   0.01493   0.00741  -0.0010  0.0276  1.0000  -3.2237   0.0000   0.0000   0.0000   0.2423
   8.300   1.0023   0.01581   0.00812  -0.0008  0.0072  1.0000  -3.2939   0.0000   0.0000   0.0000   0.2419
   8.400   1.0118   0.01601   0.00831  -0.0007  0.0069  1.0000  -3.3933   0.0000   0.0000   0.0000   0.2416
   8.500   1.0212   0.01620   0.00851  -0.0005  0.0065  1.0000  -3.4959   0.0000   0.0000   0.0000   0.2414
   8.600   1.0306   0.01641   0.00872  -0.0004  0.0062  1.0000  -3.6015   0.0000   0.0000   0.0000   0.2411
   8.700   1.0399   0.01663   0.00895  -0.0003  0.0058  1.0000  -3.7104   0.0000   0.0000   0.0000   0.2409
   8.800   1.0491   0.01685   0.00918  -0.0002  0.0055  1.0000  -3.8221   0.0000   0.0000   0.0000   0.2406
   8.900   1.0583   0.01707   0.00941  -0.0000  0.0053  1.0000  -3.9360   0.0000   0.0000   0.0000   0.2404
   9.000   1.0675   0.01729   0.00965   0.0001  0.0050  1.0000  -4.0516   0.0000   0.0000   0.0000   0.2401
   9.100   1.0767   0.01751   0.00990   0.0002  0.0048  1.0000  -4.1683   0.0000   0.0000   0.0000   0.2398
   9.200   1.0875   0.01744   0.01004   0.0002  0.0062  1.0000  -4.1350   0.0000   0.0000   0.0000   0.2397
   9.300   1.0965   0.01767   0.01030   0.0003  0.0060  1.0000  -4.2448   0.0000   0.0000   0.0000   0.2395
   9.400   1.1053   0.01793   0.01058   0.0005  0.0057  1.0000  -4.3643   0.0000   0.0000   0.0000   0.2392
   9.500   1.1139   0.01820   0.01088   0.0007  0.0054  1.0000  -4.4887   0.0000   0.0000   0.0000   0.2389
   9.600   1.1225   0.01847   0.01118   0.0009  0.0051  1.0000  -4.6155   0.0000   0.0000   0.0000   0.2386
   9.700   1.1311   0.01874   0.01150   0.0010  0.0049  1.0000  -4.7431   0.0000   0.0000   0.0000   0.2383
   9.800   1.1396   0.01901   0.01182   0.0012  0.0047  1.0000  -4.8701   0.0000   0.0000   0.0000   0.2379
   9.900   1.1479   0.01930   0.01216   0.0014  0.0046  1.0000  -4.9960   0.0000   0.0000   0.0000   0.2376
  10.000   1.1561   0.01959   0.01251   0.0016  0.0045  1.0000  -5.1201   0.0000   0.0000   0.0000   0.2373
  10.100   1.1641   0.01990   0.01288   0.0019  0.0044  1.0000  -5.2424   0.0000   0.0000   0.0000   0.2370
  10.200   1.1719   0.02023   0.01327   0.0021  0.0043  1.0000  -5.3626   0.0000   0.0000   0.0000   0.2366
  10.300   1.1794   0.02058   0.01368   0.0024  0.0043  1.0000  -5.4801   0.0000   0.0000   0.0000   0.2362
  10.400   1.1866   0.02096   0.01413   0.0026  0.0043  1.0000  -5.5944   0.0000   0.0000   0.0000   0.2359
  10.500   1.1934   0.02136   0.01460   0.0029  0.0042  1.0000  -5.7053   0.0000   0.0000   0.0000   0.2355
  10.600   1.1998   0.02179   0.01510   0.0033  0.0042  1.0000  -5.8124   0.0000   0.0000   0.0000   0.2351
  10.700   1.2058   0.02224   0.01562   0.0036  0.0042  1.0000  -5.9152   0.0000   0.0000   0.0000   0.2346
  10.800   1.2112   0.02273   0.01618   0.0040  0.0042  1.0000  -6.0130   0.0000   0.0000   0.0000   0.2342
  10.900   1.2161   0.02325   0.01677   0.0044  0.0042  1.0000  -6.1050   0.0000   0.0000   0.0000   0.2337
  11.000   1.2202   0.02381   0.01741   0.0048  0.0043  1.0000  -6.1904   0.0000   0.0000   0.0000   0.2332
  11.100   1.2234   0.02443   0.01810   0.0053  0.0043  1.0000  -6.2673   0.0000   0.0000   0.0000   0.2327
  11.200   1.2244   0.02509   0.01883   0.0059  0.0043  1.0000  -6.3289   0.0000   0.0000   0.0000   0.2320
  11.300   1.2240   0.02582   0.01963   0.0065  0.0043  1.0000  -6.3794   0.0000   0.0000   0.0000   0.2313
  11.400   1.2235   0.02662   0.02050   0.0070  0.0043  1.0000  -6.4272   0.0000   0.0000   0.0000   0.2308
  11.500   1.2230   0.02750   0.02144   0.0073  0.0044  1.0000  -6.4734   0.0000   0.0000   0.0000   0.2303
  11.600   1.2222   0.02845   0.02246   0.0076  0.0044  1.0000  -6.5159   0.0000   0.0000   0.0000   0.2299
  11.700   1.2214   0.02945   0.02353   0.0078  0.0044  1.0000  -6.5566   0.0000   0.0000   0.0000   0.2296
  11.800   1.2203   0.03053   0.02468   0.0079  0.0044  1.0000  -6.5936   0.0000   0.0000   0.0000   0.2293
  11.900   1.2189   0.03167   0.02588   0.0079  0.0045  1.0000  -6.6276   0.0000   0.0000   0.0000   0.2291
  12.000   1.2174   0.03282   0.02710   0.0080  0.0045  1.0000  -6.6597   0.0000   0.0000   0.0000   0.2288
  12.100   1.2153   0.03407   0.02843   0.0079  0.0046  1.0000  -6.6861   0.0000   0.0000   0.0000   0.2287
  12.200   1.2132   0.03535   0.02977   0.0079  0.0046  1.0000  -6.7117   0.0000   0.0000   0.0000   0.2285
  12.300   1.2112   0.03664   0.03113   0.0078  0.0046  1.0000  -6.7365   0.0000   0.0000   0.0000   0.2284
  12.400   1.2085   0.03804   0.03261   0.0076  0.0047  1.0000  -6.7557   0.0000   0.0000   0.0000   0.2283
  12.500   1.2057   0.03948   0.03411   0.0074  0.0047  1.0000  -6.7729   0.0000   0.0000   0.0000   0.2283
  12.600   1.2031   0.04090   0.03560   0.0072  0.0047  1.0000  -6.7900   0.0000   0.0000   0.0000   0.2282
  12.700   1.2003   0.04233   0.03710   0.0071  0.0048  1.0000  -6.8052   0.0000   0.0000   0.0000   0.2281
  12.800   1.1966   0.04389   0.03873   0.0068  0.0048  1.0000  -6.8131   0.0000   0.0000   0.0000   0.2282
  12.900   1.1930   0.04544   0.04035   0.0065  0.0049  1.0000  -6.8211   0.0000   0.0000   0.0000   0.2282
  13.000   1.1896   0.04699   0.04196   0.0063  0.0049  1.0000  -6.8296   0.0000   0.0000   0.0000   0.2282
  13.100   1.1863   0.04855   0.04360   0.0060  0.0050  1.0000  -6.8371   0.0000   0.0000   0.0000   0.2282
  13.200   1.1826   0.05024   0.04535   0.0056  0.0050  1.0000  -6.8401   0.0000   0.0000   0.0000   0.2284
  13.300   1.1784   0.05202   0.04720   0.0051  0.0050  1.0000  -6.8393   0.0000   0.0000   0.0000   0.2286
  13.400   1.1746   0.05375   0.04900   0.0047  0.0051  1.0000  -6.8397   0.0000   0.0000   0.0000   0.2288
  13.500   1.1708   0.05547   0.05079   0.0043  0.0051  1.0000  -6.8394   0.0000   0.0000   0.0000   0.2289
  13.600   1.1669   0.05723   0.05261   0.0038  0.0052  1.0000  -6.8371   0.0000   0.0000   0.0000   0.2291
  13.700   1.1625   0.05912   0.05458   0.0032  0.0052  1.0000  -6.8292   0.0000   0.0000   0.0000   0.2294
  13.800   1.1575   0.06112   0.05665   0.0025  0.0053  1.0000  -6.8173   0.0000   0.0000   0.0000   0.2299
  13.900   1.1529   0.06306   0.05866   0.0018  0.0053  1.0000  -6.8064   0.0000   0.0000   0.0000   0.2302
  14.000   1.1484   0.06501   0.06068   0.0012  0.0054  1.0000  -6.7949   0.0000   0.0000   0.0000   0.2306
  14.100   1.1439   0.06699   0.06273   0.0005  0.0054  1.0000  -6.7814   0.0000   0.0000   0.0000   0.2310
  14.200   1.1385   0.06907   0.06488  -0.0004  0.0055  1.0000  -6.7630   0.0000   0.0000   0.0000   0.2316
  14.300   1.1328   0.07133   0.06721  -0.0014  0.0055  1.0000  -6.7405   0.0000   0.0000   0.0000   0.2323
  14.400   1.1275   0.07354   0.06949  -0.0023  0.0055  1.0000  -6.7194   0.0000   0.0000   0.0000   0.2330
  14.500   1.1225   0.07579   0.07181  -0.0033  0.0056  1.0000  -6.6977   0.0000   0.0000   0.0000   0.2337
  14.600   1.1174   0.07810   0.07419  -0.0043  0.0056  1.0000  -6.6741   0.0000   0.0000   0.0000   0.2344
  14.700   1.1117   0.08063   0.07678  -0.0056  0.0057  1.0000  -6.6453   0.0000   0.0000   0.0000   0.2354
  14.800   1.1058   0.08328   0.07950  -0.0069  0.0057  1.0000  -6.6139   0.0000   0.0000   0.0000   0.2365
  14.900   1.1003   0.08584   0.08212  -0.0082  0.0057  1.0000  -6.5835   0.0000   0.0000   0.0000   0.2375
  15.000   1.0949   0.08841   0.08476  -0.0095  0.0058  1.0000  -6.5519   0.0000   0.0000   0.0000   0.2386
  15.100   1.0893   0.09107   0.08749  -0.0108  0.0058  1.0000  -6.5179   0.0000   0.0000   0.0000   0.2397
  15.200   1.0830   0.09401   0.09049  -0.0125  0.0058  1.0000  -6.4775   0.0000   0.0000   0.0000   0.2412
  15.300   1.0770   0.09683   0.09337  -0.0141  0.0058  1.0000  -6.4382   0.0000   0.0000   0.0000   0.2425
  15.400   1.0714   0.09962   0.09622  -0.0156  0.0059  1.0000  -6.3987   0.0000   0.0000   0.0000   0.2439
  15.500   1.0657   0.10244   0.09910  -0.0171  0.0059  1.0000  -6.3573   0.0000   0.0000   0.0000   0.2452
  15.600   1.0594   0.10549   0.10220  -0.0189  0.0059  1.0000  -6.3100   0.0000   0.0000   0.0000   0.2469
  15.700   1.0532   0.10853   0.10530  -0.0207  0.0059  1.0000  -6.2618   0.0000   0.0000   0.0000   0.2486
  15.800   1.0474   0.11147   0.10829  -0.0223  0.0059  1.0000  -6.2141   0.0000   0.0000   0.0000   0.2501
  15.900   1.0417   0.11441   0.11129  -0.0240  0.0059  1.0000  -6.1645   0.0000   0.0000   0.0000   0.2518
  16.000   1.0354   0.11756   0.11449  -0.0259  0.0059  1.0000  -6.1092   0.0000   0.0000   0.0000   0.2536
  16.100   1.0292   0.12075   0.11773  -0.0278  0.0059  1.0000  -6.0515   0.0000   0.0000   0.0000   0.2555
  16.200   1.0234   0.12381   0.12083  -0.0296  0.0060  1.0000  -5.9946   0.0000   0.0000   0.0000   0.2574
  16.300   1.0176   0.12686   0.12393  -0.0314  0.0060  1.0000  -5.9355   0.0000   0.0000   0.0000   0.2592
  16.400   1.0114   0.13014   0.12726  -0.0334  0.0060  1.0000  -5.8691   0.0000   0.0000   0.0000   0.2613
  16.500   1.0052   0.13345   0.13061  -0.0354  0.0060  1.0000  -5.7998   0.0000   0.0000   0.0000   0.2634
  16.600   0.9994   0.13651   0.13372  -0.0372  0.0060  1.0000  -5.7314   0.0000   0.0000   0.0000   0.2654
  16.700   0.9937   0.13946   0.13671  -0.0391  0.0060  1.0000  -5.6601   0.0000   0.0000   0.0000   0.2674
  16.800   0.9873   0.14270   0.13999  -0.0411  0.0059  1.0000  -5.5779   0.0000   0.0000   0.0000   0.2698
  16.900   0.9812   0.14595   0.14328  -0.0431  0.0059  1.0000  -5.4935   0.0000   0.0000   0.0000   0.2720
  17.000   0.9754   0.14921   0.14657  -0.0451  0.0059  1.0000  -5.4069   0.0000   0.0000   0.0000   0.2743
  17.100   0.9694   0.15267   0.15006  -0.0471  0.0059  1.0000  -5.3119   0.0000   0.0000   0.0000   0.2766
  17.200   0.9626   0.15657   0.15400  -0.0493  0.0059  1.0000  -5.1984   0.0000   0.0000   0.0000   0.2793
  17.300   0.9563   0.16036   0.15781  -0.0513  0.0059  1.0000  -5.0850   0.0000   0.0000   0.0000   0.2818
  17.400   0.9500   0.16434   0.16182  -0.0534  0.0059  1.0000  -4.9601   0.0000   0.0000   0.0000   0.2844
  17.500   0.9423   0.16894   0.16644  -0.0557  0.0059  1.0000  -4.8023   0.0000   0.0000   0.0000   0.2875
  17.600   0.9352   0.17346   0.17098  -0.0579  0.0059  1.0000  -4.6409   0.0000   0.0000   0.0000   0.2903
  17.700   0.9273   0.17851   0.17605  -0.0602  0.0059  1.0000  -4.4437   0.0000   0.0000   0.0000   0.2935
  17.800   0.9191   0.18387   0.18142  -0.0624  0.0060  1.0000  -4.2207   0.0000   0.0000   0.0000   0.2967
  17.900   0.9116   0.18922   0.18677  -0.0646  0.0060  1.0000  -3.9894   0.0000   0.0000   0.0000   0.2998
  18.000   0.9045   0.19471   0.19225  -0.0666  0.0062  1.0000  -3.7440   0.0000   0.0000   0.0000   0.3028
  18.100   0.8989   0.19977   0.19731  -0.0684  0.0063  1.0000  -3.5237   0.0000   0.0000   0.0000   0.3054
  18.200   0.8943   0.20455   0.20208  -0.0700  0.0065  1.0000  -3.3251   0.0000   0.0000   0.0000   0.3078
  18.300   0.8902   0.20922   0.20673  -0.0716  0.0067  1.0000  -3.1364   0.0000   0.0000   0.0000   0.3100
  18.600   0.8955   0.21664   0.21418  -0.0736  0.0090  1.0000  -2.9603   0.0000   0.0000   0.0000   0.3115
  19.800   0.8848   0.26108   0.25857  -0.0849  0.0170  1.0000  -1.8650   0.0000   0.0000   0.0000   0.3252
  19.900   0.8861   0.26348   0.26097  -0.0857  0.0170  1.0000  -1.8537   0.0000   0.0000   0.0000   0.3258
  20.000   0.8873   0.26587   0.26337  -0.0864  0.0170  1.0000  -1.8426   0.0000   0.0000   0.0000   0.3264
  20.100   0.8885   0.26825   0.26575  -0.0872  0.0170  1.0000  -1.8318   0.0000   0.0000   0.0000   0.3271
  20.200   0.8897   0.27063   0.26813  -0.0879  0.0170  1.0000  -1.8212   0.0000   0.0000   0.0000   0.3277
  20.300   0.8909   0.27299   0.27050  -0.0887  0.0170  1.0000  -1.8110   0.0000   0.0000   0.0000   0.3282
  20.400   0.8920   0.27534   0.27285  -0.0894  0.0169  1.0000  -1.8011   0.0000   0.0000   0.0000   0.3288
  20.500   0.8931   0.27768   0.27519  -0.0902  0.0169  1.0000  -1.7915   0.0000   0.0000   0.0000   0.3294
  20.600   0.8942   0.28000   0.27751  -0.0909  0.0169  1.0000  -1.7822   0.0000   0.0000   0.0000   0.3300
  20.700   0.8953   0.28230   0.27981  -0.0916  0.0169  1.0000  -1.7733   0.0000   0.0000   0.0000   0.3306
  20.800   0.8963   0.28457   0.28209  -0.0924  0.0168  1.0000  -1.7646   0.0000   0.0000   0.0000   0.3312
  20.900   0.8973   0.28681   0.28433  -0.0931  0.0168  1.0000  -1.7564   0.0000   0.0000   0.0000   0.3318
  21.000   0.8983   0.28902   0.28654  -0.0938  0.0167  1.0000  -1.7487   0.0000   0.0000   0.0000   0.3324
  21.100   0.8993   0.29117   0.28870  -0.0946  0.0167  1.0000  -1.7419   0.0000   0.0000   0.0000   0.3329
  21.200   0.9003   0.29327   0.29080  -0.0953  0.0166  1.0000  -1.7358   0.0000   0.0000   0.0000   0.3335
  21.300   0.9014   0.29529   0.29283  -0.0961  0.0164  1.0000  -1.7302   0.0000   0.0000   0.0000   0.3341
  21.400   0.9025   0.29725   0.29479  -0.0969  0.0163  1.0000  -1.7240   0.0000   0.0000   0.0000   0.3348
  21.500   0.9032   0.29932   0.29686  -0.0979  0.0160  1.0000  -1.7061   0.0000   0.0000   0.0000   0.3357
  21.600   0.9040   0.30147   0.29902  -0.0988  0.0156  1.0000  -1.6861   0.0000   0.0000   0.0000   0.3365
  21.700   0.9046   0.30373   0.30128  -0.0996  0.0152  1.0000  -1.6663   0.0000   0.0000   0.0000   0.3373
  21.800   0.9050   0.30601   0.30356  -0.1004  0.0148  1.0000  -1.6487   0.0000   0.0000   0.0000   0.3380
  21.900   0.9052   0.30827   0.30583  -0.1011  0.0144  1.0000  -1.6335   0.0000   0.0000   0.0000   0.3386
  22.000   0.9052   0.31049   0.30806  -0.1017  0.0141  1.0000  -1.6201   0.0000   0.0000   0.0000   0.3392
  22.100   0.9050   0.31267   0.31024  -0.1023  0.0138  1.0000  -1.6080   0.0000   0.0000   0.0000   0.3398
  22.200   0.9046   0.31480   0.31237  -0.1029  0.0135  1.0000  -1.5967   0.0000   0.0000   0.0000   0.3404
  22.300   0.9040   0.31686   0.31445  -0.1034  0.0132  1.0000  -1.5859   0.0000   0.0000   0.0000   0.3410
  22.400   0.9031   0.31886   0.31645  -0.1039  0.0130  1.0000  -1.5754   0.0000   0.0000   0.0000   0.3415
  22.500   0.9020   0.32077   0.31837  -0.1044  0.0127  1.0000  -1.5649   0.0000   0.0000   0.0000   0.3421
  22.600   0.9004   0.32258   0.32019  -0.1048  0.0125  1.0000  -1.5543   0.0000   0.0000   0.0000   0.3427
  22.700   0.8986   0.32421   0.32183  -0.1052  0.0121  1.0000  -1.5471   0.0000   0.0000   0.0000   0.3433
  22.800   0.8962   0.32566   0.32329  -0.1055  0.0118  1.0000  -1.5399   0.0000   0.0000   0.0000   0.3439
  22.900   0.8561   0.31728   0.31499  -0.1018  0.0119  1.0000  -1.4269   0.0000   0.0000   0.0000   0.3458
  23.000   0.8489   0.31658   0.31432  -0.1016  0.0116  1.0000  -1.4068   0.0000   0.0000   0.0000   0.3466
  23.100   0.8436   0.31632   0.31407  -0.1015  0.0113  1.0000  -1.3933   0.0000   0.0000   0.0000   0.3473
  23.200   0.8394   0.31626   0.31403  -0.1016  0.0110  1.0000  -1.3837   0.0000   0.0000   0.0000   0.3479
  23.300   0.8358   0.31632   0.31409  -0.1017  0.0108  1.0000  -1.3773   0.0000   0.0000   0.0000   0.3485
  23.400   0.8327   0.31644   0.31423  -0.1018  0.0105  1.0000  -1.3735   0.0000   0.0000   0.0000   0.3491
  23.500   0.8300   0.31659   0.31439  -0.1020  0.0103  1.0000  -1.3721   0.0000   0.0000   0.0000   0.3496
  23.600   0.8276   0.31678   0.31459  -0.1022  0.0100  1.0000  -1.3732   0.0000   0.0000   0.0000   0.3501
  23.700   0.8254   0.31699   0.31482  -0.1024  0.0098  1.0000  -1.3767   0.0000   0.0000   0.0000   0.3506
  23.800   0.8235   0.31722   0.31505  -0.1027  0.0096  1.0000  -1.3826   0.0000   0.0000   0.0000   0.3511
  23.900   0.8218   0.31744   0.31529  -0.1029  0.0094  1.0000  -1.3909   0.0000   0.0000   0.0000   0.3515
  24.000   0.8203   0.31767   0.31552  -0.1031  0.0092  1.0000  -1.4018   0.0000   0.0000   0.0000   0.3519
  24.100   0.8190   0.31789   0.31575  -0.1034  0.0090  1.0000  -1.4152   0.0000   0.0000   0.0000   0.3523
  24.200   0.8178   0.31809   0.31597  -0.1036  0.0088  1.0000  -1.4314   0.0000   0.0000   0.0000   0.3526
  24.300   0.8167   0.31828   0.31617  -0.1038  0.0086  1.0000  -1.4503   0.0000   0.0000   0.0000   0.3529
  24.400   0.8157   0.31845   0.31634  -0.1040  0.0085  1.0000  -1.4721   0.0000   0.0000   0.0000   0.3531
  24.500   0.8149   0.31859   0.31650  -0.1042  0.0083  1.0000  -1.4967   0.0000   0.0000   0.0000   0.3533
  24.600   0.8140   0.31872   0.31663  -0.1043  0.0082  1.0000  -1.5240   0.0000   0.0000   0.0000   0.3534
  24.700   0.8128   0.31889   0.31682  -0.1043  0.0080  1.0000  -1.5458   0.0000   0.0000   0.0000   0.3535
  24.800   0.7992   0.32070   0.31861  -0.1038  0.0074  1.0000  -1.3288   0.0000   0.0000   0.0000   0.3555
  24.900   0.7982   0.32130   0.31922  -0.1042  0.0074  1.0000  -1.3169   0.0000   0.0000   0.0000   0.3561
  25.000   0.7972   0.32191   0.31984  -0.1046  0.0074  1.0000  -1.3054   0.0000   0.0000   0.0000   0.3566
  25.100   0.7962   0.32252   0.32046  -0.1050  0.0074  1.0000  -1.2942   0.0000   0.0000   0.0000   0.3572
  25.200   0.7954   0.32314   0.32109  -0.1054  0.0073  1.0000  -1.2834   0.0000   0.0000   0.0000   0.3577
  25.300   0.7946   0.32376   0.32171  -0.1058  0.0073  1.0000  -1.2727   0.0000   0.0000   0.0000   0.3583
  25.400   0.7938   0.32439   0.32235  -0.1062  0.0073  1.0000  -1.2622   0.0000   0.0000   0.0000   0.3588
  25.500   0.7930   0.32501   0.32298  -0.1066  0.0073  1.0000  -1.2521   0.0000   0.0000   0.0000   0.3594
  25.600   0.7924   0.32565   0.32363  -0.1070  0.0073  1.0000  -1.2422   0.0000   0.0000   0.0000   0.3599
  25.700   0.7917   0.32629   0.32427  -0.1075  0.0073  1.0000  -1.2326   0.0000   0.0000   0.0000   0.3605
  25.800   0.7911   0.32693   0.32492  -0.1079  0.0073  1.0000  -1.2234   0.0000   0.0000   0.0000   0.3610
  25.900   0.7906   0.32757   0.32557  -0.1083  0.0073  1.0000  -1.2144   0.0000   0.0000   0.0000   0.3615
  26.000   0.7901   0.32822   0.32623  -0.1088  0.0073  1.0000  -1.2057   0.0000   0.0000   0.0000   0.3620
  26.100   0.7897   0.32887   0.32692  -0.1092  0.0073  1.0000  -1.1980   0.0000   0.0000   0.0000   0.3626
  26.200   0.7893   0.32952   0.32758  -0.1097  0.0072  1.0000  -1.1903   0.0000   0.0000   0.0000   0.3631
  26.300   0.7889   0.33017   0.32824  -0.1101  0.0072  1.0000  -1.1827   0.0000   0.0000   0.0000   0.3636
  26.400   0.7886   0.33083   0.32890  -0.1106  0.0072  1.0000  -1.1754   0.0000   0.0000   0.0000   0.3641
  26.500   0.7883   0.33150   0.32957  -0.1110  0.0072  1.0000  -1.1679   0.0000   0.0000   0.0000   0.3646
  26.600   0.7880   0.33216   0.33024  -0.1115  0.0072  1.0000  -1.1606   0.0000   0.0000   0.0000   0.3651
  26.700   0.7878   0.33283   0.33092  -0.1120  0.0071  1.0000  -1.1536   0.0000   0.0000   0.0000   0.3656
  26.800   0.7876   0.33351   0.33160  -0.1125  0.0071  1.0000  -1.1470   0.0000   0.0000   0.0000   0.3661
  26.900   0.7875   0.33419   0.33229  -0.1129  0.0071  1.0000  -1.1407   0.0000   0.0000   0.0000   0.3666
  27.000   0.7874   0.33488   0.33299  -0.1134  0.0070  1.0000  -1.1348   0.0000   0.0000   0.0000   0.3671
  27.100   0.7874   0.33558   0.33370  -0.1140  0.0070  1.0000  -1.1282   0.0000   0.0000   0.0000   0.3677
  27.200   0.7874   0.33633   0.33446  -0.1145  0.0069  1.0000  -1.1195   0.0000   0.0000   0.0000   0.3682
  27.300   0.7876   0.33712   0.33524  -0.1151  0.0068  1.0000  -1.1105   0.0000   0.0000   0.0000   0.3688
  27.400   0.7879   0.33794   0.33608  -0.1157  0.0067  1.0000  -1.1009   0.0000   0.0000   0.0000   0.3693
  27.500   0.7883   0.33882   0.33696  -0.1162  0.0066  1.0000  -1.0900   0.0000   0.0000   0.0000   0.3698
  27.600   0.7888   0.33971   0.33786  -0.1168  0.0064  1.0000  -1.0778   0.0000   0.0000   0.0000   0.3703
  27.700   0.7891   0.34058   0.33874  -0.1173  0.0062  1.0000  -1.0659   0.0000   0.0000   0.0000   0.3707
  27.800   0.7892   0.34141   0.33957  -0.1178  0.0060  1.0000  -1.0553   0.0000   0.0000   0.0000   0.3712
  27.900   0.7893   0.34219   0.34036  -0.1182  0.0058  1.0000  -1.0463   0.0000   0.0000   0.0000   0.3716
  28.000   0.7893   0.34294   0.34112  -0.1187  0.0056  1.0000  -1.0387   0.0000   0.0000   0.0000   0.3720
  28.100   0.7893   0.34368   0.34186  -0.1191  0.0054  1.0000  -1.0321   0.0000   0.0000   0.0000   0.3724
  28.200   0.7892   0.34440   0.34259  -0.1196  0.0053  1.0000  -1.0265   0.0000   0.0000   0.0000   0.3729
  28.300   0.7892   0.34511   0.34331  -0.1200  0.0051  1.0000  -1.0215   0.0000   0.0000   0.0000   0.3733
  28.400   0.7891   0.34582   0.34402  -0.1204  0.0050  1.0000  -1.0170   0.0000   0.0000   0.0000   0.3737
  28.500   0.7890   0.34652   0.34473  -0.1209  0.0049  1.0000  -1.0131   0.0000   0.0000   0.0000   0.3741
  28.600   0.7890   0.34721   0.34543  -0.1213  0.0047  1.0000  -1.0095   0.0000   0.0000   0.0000   0.3745
  28.700   0.7889   0.34791   0.34613  -0.1218  0.0046  1.0000  -1.0062   0.0000   0.0000   0.0000   0.3749
  28.800   0.7889   0.34860   0.34683  -0.1222  0.0045  1.0000  -1.0033   0.0000   0.0000   0.0000   0.3753
  28.900   0.7888   0.34929   0.34752  -0.1227  0.0044  1.0000  -1.0007   0.0000   0.0000   0.0000   0.3757
  29.000   0.7888   0.34997   0.34821  -0.1231  0.0043  1.0000  -0.9983   0.0000   0.0000   0.0000   0.3761
  29.100   0.7887   0.35066   0.34891  -0.1236  0.0042  1.0000  -0.9962   0.0000   0.0000   0.0000   0.3765
  29.200   0.7887   0.35134   0.34960  -0.1240  0.0041  1.0000  -0.9942   0.0000   0.0000   0.0000   0.3769
  29.300   0.7887   0.35202   0.35029  -0.1245  0.0040  1.0000  -0.9925   0.0000   0.0000   0.0000   0.3773
  29.400   0.7886   0.35270   0.35097  -0.1249  0.0039  1.0000  -0.9910   0.0000   0.0000   0.0000   0.3776
  29.500   0.7886   0.35338   0.35166  -0.1254  0.0039  1.0000  -0.9896   0.0000   0.0000   0.0000   0.3780
  29.600   0.7886   0.35406   0.35235  -0.1258  0.0038  1.0000  -0.9885   0.0000   0.0000   0.0000   0.3784
  29.700   0.7886   0.35474   0.35303  -0.1263  0.0037  1.0000  -0.9875   0.0000   0.0000   0.0000   0.3788
  29.800   0.7886   0.35542   0.35371  -0.1267  0.0036  1.0000  -0.9867   0.0000   0.0000   0.0000   0.3792
  29.900   0.7886   0.35609   0.35440  -0.1272  0.0036  1.0000  -0.9861   0.0000   0.0000   0.0000   0.3796
  30.000   0.7885   0.35677   0.35508  -0.1276  0.0035  1.0000  -0.9856   0.0000   0.0000   0.0000   0.3799


