xflr5 v6.61

 Calculated polar for: S5010

 1 1 Reynolds number fixed          Mach number fixed         

 xtrf =   1.000 (top)        1.000 (bottom)
 Mach =   0.000     Re =     0.625 e 6     Ncrit =   9.000

  alpha     CL        CD       CDp       Cm    Top Xtr Bot Xtr   Cpmin    Chinge    XCp    
 ------- -------- --------- --------- -------- ------- ------- -------- --------- ---------
 -10.000  -0.5378   0.12433   0.12240   0.0344  1.0000  0.0143  -1.6998   0.0000   0.0000   0.0000   0.3088
  -9.900  -0.5359   0.12275   0.12083   0.0336  1.0000  0.0143  -1.7079   0.0000   0.0000   0.0000   0.3077
  -9.800  -0.5341   0.12118   0.11927   0.0328  1.0000  0.0143  -1.7163   0.0000   0.0000   0.0000   0.3065
  -9.700  -0.5323   0.11960   0.11769   0.0321  1.0000  0.0143  -1.7250   0.0000   0.0000   0.0000   0.3053
  -9.600  -0.5304   0.11798   0.11608   0.0313  1.0000  0.0144  -1.7339   0.0000   0.0000   0.0000   0.3041
  -9.500  -0.5285   0.11634   0.11445   0.0304  1.0000  0.0144  -1.7432   0.0000   0.0000   0.0000   0.3028
  -9.400  -0.5266   0.11469   0.11281   0.0296  1.0000  0.0144  -1.7528   0.0000   0.0000   0.0000   0.3014
  -9.300  -0.5247   0.11304   0.11116   0.0287  1.0000  0.0144  -1.7628   0.0000   0.0000   0.0000   0.3000
  -9.200  -0.5229   0.11138   0.10951   0.0279  1.0000  0.0144  -1.7732   0.0000   0.0000   0.0000   0.2986
  -9.100  -0.5211   0.10970   0.10784   0.0270  1.0000  0.0144  -1.7842   0.0000   0.0000   0.0000   0.2972
  -9.000  -0.5194   0.10800   0.10614   0.0261  1.0000  0.0144  -1.7959   0.0000   0.0000   0.0000   0.2957
  -8.900  -0.5178   0.10629   0.10444   0.0252  1.0000  0.0144  -1.8081   0.0000   0.0000   0.0000   0.2942
  -8.800  -0.5163   0.10458   0.10274   0.0243  1.0000  0.0144  -1.8207   0.0000   0.0000   0.0000   0.2927
  -8.700  -0.5148   0.10287   0.10104   0.0234  1.0000  0.0144  -1.8338   0.0000   0.0000   0.0000   0.2911
  -8.600  -0.5135   0.10115   0.09933   0.0225  1.0000  0.0144  -1.8474   0.0000   0.0000   0.0000   0.2895
  -8.500  -0.5109   0.09929   0.09747   0.0210  0.9480  0.0144  -1.8621   0.0000   0.0000   0.0000   0.2869
  -8.400  -0.5083   0.09747   0.09557   0.0196  0.9110  0.0144  -1.8769   0.0000   0.0000   0.0000   0.2843
  -8.300  -0.5089   0.09606   0.09409   0.0193  0.8883  0.0144  -1.8922   0.0000   0.0000   0.0000   0.2837
  -8.200  -0.5087   0.09447   0.09246   0.0186  0.8756  0.0144  -1.9082   0.0000   0.0000   0.0000   0.2824
  -8.100  -0.5087   0.09287   0.09083   0.0179  0.8639  0.0144  -1.9248   0.0000   0.0000   0.0000   0.2811
  -7.900  -0.5089   0.08962   0.08752   0.0164  0.8446  0.0144  -1.9607   0.0000   0.0000   0.0000   0.2782
  -5.600  -0.4822   0.03629   0.03271  -0.0073  0.7459  0.0123  -3.0200   0.0000   0.0000   0.0000   0.2314
  -5.500  -0.4793   0.03255   0.02869  -0.0069  0.7434  0.0112  -3.1952   0.0000   0.0000   0.0000   0.2319
  -5.400  -0.4745   0.02918   0.02503  -0.0063  0.7408  0.0102  -3.3655   0.0000   0.0000   0.0000   0.2330
  -5.300  -0.4689   0.02587   0.02138  -0.0054  0.7380  0.0094  -3.5541   0.0000   0.0000   0.0000   0.2346
  -5.200  -0.4626   0.02257   0.01770  -0.0044  0.7351  0.0086  -3.7641   0.0000   0.0000   0.0000   0.2366
  -5.100  -0.4551   0.01988   0.01464  -0.0034  0.7319  0.0081  -3.9248   0.0000   0.0000   0.0000   0.2386
  -5.000  -0.4464   0.01796   0.01244  -0.0026  0.7281  0.0078  -4.0036   0.0000   0.0000   0.0000   0.2401
  -4.900  -0.4370   0.01661   0.01089  -0.0020  0.7236  0.0077  -4.0169   0.0000   0.0000   0.0000   0.2413
  -4.800  -0.4272   0.01562   0.00974  -0.0016  0.7184  0.0077  -3.9890   0.0000   0.0000   0.0000   0.2423
  -4.700  -0.4171   0.01488   0.00887  -0.0012  0.7130  0.0078  -3.9307   0.0000   0.0000   0.0000   0.2431
  -4.600  -0.4067   0.01427   0.00818  -0.0009  0.7117  0.0080  -3.8510   0.0000   0.0000   0.0000   0.2438
  -4.500  -0.3962   0.01377   0.00762  -0.0006  0.7100  0.0083  -3.7560   0.0000   0.0000   0.0000   0.2445
  -4.400  -0.3856   0.01336   0.00717  -0.0004  0.7081  0.0087  -3.6502   0.0000   0.0000   0.0000   0.2450
  -4.300  -0.3749   0.01305   0.00681  -0.0002  0.7060  0.0091  -3.5412   0.0000   0.0000   0.0000   0.2455
  -4.200  -0.3646   0.01261   0.00622   0.0000  0.7037  0.0086  -3.5426   0.0000   0.0000   0.0000   0.2462
  -4.100  -0.3538   0.01236   0.00595   0.0002  0.7012  0.0091  -3.4295   0.0000   0.0000   0.0000   0.2467
  -4.000  -0.3429   0.01217   0.00574   0.0003  0.6983  0.0097  -3.3149   0.0000   0.0000   0.0000   0.2471
  -3.900  -0.3320   0.01203   0.00558   0.0004  0.6953  0.0103  -3.2011   0.0000   0.0000   0.0000   0.2475
  -3.800  -0.3210   0.01193   0.00546   0.0005  0.6921  0.0109  -3.0889   0.0000   0.0000   0.0000   0.2478
  -3.700  -0.3100   0.01186   0.00538   0.0006  0.6888  0.0114  -2.9774   0.0000   0.0000   0.0000   0.2481
  -3.600  -0.2989   0.01182   0.00533   0.0006  0.6853  0.0120  -2.8653   0.0000   0.0000   0.0000   0.2484
  -3.500  -0.2878   0.01181   0.00532   0.0007  0.6814  0.0125  -2.7517   0.0000   0.0000   0.0000   0.2486
  -3.400  -0.2766   0.01185   0.00534   0.0007  0.6768  0.0129  -2.6357   0.0000   0.0000   0.0000   0.2487
  -3.300  -0.2653   0.01193   0.00542   0.0006  0.6713  0.0133  -2.5169   0.0000   0.0000   0.0000   0.2487
  -3.200  -0.2540   0.01206   0.00555   0.0006  0.6652  0.0137  -2.3954   0.0000   0.0000   0.0000   0.2486
  -3.100  -0.2424   0.01221   0.00572   0.0005  0.6628  0.0140  -2.2705   0.0000   0.0000   0.0000   0.2483
  -2.900  -0.2186   0.01289   0.00649   0.0001  0.6594  0.0145  -1.9890   0.0000   0.0000   0.0000   0.2469
  -2.800  -0.2086   0.01217   0.00572   0.0004  0.6575  0.0151  -1.9659   0.0000   0.0000   0.0000   0.2484
  -2.700  -0.1986   0.01158   0.00507   0.0007  0.6554  0.0156  -1.9422   0.0000   0.0000   0.0000   0.2500
  -2.600  -0.1882   0.01116   0.00461   0.0010  0.6531  0.0161  -1.9058   0.0000   0.0000   0.0000   0.2514
  -2.500  -0.1777   0.01085   0.00426   0.0012  0.6505  0.0166  -1.8627   0.0000   0.0000   0.0000   0.2528
  -2.400  -0.1670   0.01060   0.00396   0.0014  0.6476  0.0171  -1.8159   0.0000   0.0000   0.0000   0.2543
  -2.300  -0.1562   0.01038   0.00371   0.0015  0.6446  0.0175  -1.7670   0.0000   0.0000   0.0000   0.2558
  -2.200  -0.1454   0.01020   0.00349   0.0017  0.6415  0.0180  -1.7169   0.0000   0.0000   0.0000   0.2575
  -2.100  -0.1345   0.01004   0.00329   0.0018  0.6382  0.0184  -1.6661   0.0000   0.0000   0.0000   0.2594
  -2.000  -0.1235   0.00990   0.00310   0.0020  0.6345  0.0189  -1.6151   0.0000   0.0000   0.0000   0.2616
  -1.900  -0.1126   0.00977   0.00293   0.0021  0.6304  0.0197  -1.5621   0.0000   0.0000   0.0000   0.2641
  -1.800  -0.1016   0.00968   0.00282   0.0021  0.6254  0.0214  -1.4984   0.0000   0.0000   0.0000   0.2666
  -1.700  -0.0906   0.00964   0.00276   0.0022  0.6196  0.0233  -1.4244   0.0000   0.0000   0.0000   0.2693
  -1.600  -0.0796   0.00960   0.00270   0.0022  0.6135  0.0249  -1.3575   0.0000   0.0000   0.0000   0.2728
  -1.500  -0.0684   0.00948   0.00257   0.0023  0.6124  0.0257  -1.3040   0.0000   0.0000   0.0000   0.2781
  -1.400  -0.0571   0.00935   0.00240   0.0024  0.6109  0.0258  -1.2624   0.0000   0.0000   0.0000   0.2863
  -1.300  -0.0458   0.00924   0.00225   0.0025  0.6092  0.0257  -1.2175   0.0000   0.0000   0.0000   0.2982
  -1.200  -0.0344   0.00921   0.00211   0.0025  0.6073  0.0244  -1.1342   0.0000   0.0000   0.0000   0.3163
  -1.100  -0.0230   0.00913   0.00200   0.0026  0.6051  0.0245  -1.0925   0.0000   0.0000   0.0000   0.3538
  -1.000  -0.0117   0.00906   0.00189   0.0027  0.6025  0.0249  -1.0509   0.0000   0.0000   0.0000   0.4638
  -0.900  -0.0003   0.00900   0.00178   0.0028  0.5995  0.0258  -1.0111   0.0000   0.0000   0.0000   8.1532
  -0.800   0.0110   0.00892   0.00167   0.0029  0.5961  0.0290  -0.9841   0.0000   0.0000   0.0000   0.0005
  -0.700   0.0186   0.00798   0.00151   0.0031  0.5928  0.2370  -0.9745   0.0000   0.0000   0.0000   0.0870
  -0.600   0.0285   0.00768   0.00145   0.0033  0.5889  0.3145  -0.9227   0.0000   0.0000   0.0000   0.1382
  -0.500   0.0386   0.00746   0.00142   0.0034  0.5847  0.3746  -0.8686   0.0000   0.0000   0.0000   0.1638
  -0.400   0.0487   0.00727   0.00138   0.0035  0.5800  0.4289  -0.8143   0.0000   0.0000   0.0000   0.1784
  -0.300   0.0588   0.00710   0.00136   0.0037  0.5748  0.4812  -0.7605   0.0000   0.0000   0.0000   0.1876
  -0.200   0.0688   0.00693   0.00135   0.0038  0.5694  0.5350  -0.7075   0.0000   0.0000   0.0000   0.1933
  -0.100   0.0782   0.00674   0.00135   0.0042  0.5641  0.5967  -0.6563   0.0000   0.0000   0.0000   0.1959
   0.000   0.0874   0.00651   0.00135   0.0046  0.5622  0.6635  -0.6063   0.0000   0.0000   0.0000   0.1963
   0.100   0.0964   0.00629   0.00135   0.0051  0.5611  0.7253  -0.5569   0.0000   0.0000   0.0000   0.1957
   0.200   0.1054   0.00610   0.00136   0.0057  0.5596  0.7806  -0.5486   0.0000   0.0000   0.0000   0.1943
   0.300   0.1139   0.00590   0.00137   0.0065  0.5578  0.8379  -0.5585   0.0000   0.0000   0.0000   0.1915
   0.400   0.1249   0.00576   0.00141   0.0068  0.5554  0.8979  -0.5698   0.0000   0.0000   0.0000   0.1934
   0.500   0.1498   0.00575   0.00147   0.0042  0.5515  0.9493  -0.5897   0.0000   0.0000   0.0000   0.2201
   0.600   0.1694   0.00578   0.00148   0.0025  0.5472  0.9671  -0.6063   0.0000   0.0000   0.0000   0.2334
   0.700   0.1856   0.00581   0.00148   0.0015  0.5427  0.9760  -0.6209   0.0000   0.0000   0.0000   0.2399
   0.800   0.2022   0.00584   0.00147   0.0004  0.5382  0.9821  -0.6377   0.0000   0.0000   0.0000   0.2461
   0.900   0.2187   0.00589   0.00147  -0.0007  0.5336  0.9881  -0.6546   0.0000   0.0000   0.0000   0.2511
   1.000   0.2420   0.00592   0.00146  -0.0033  0.5278  0.9936  -0.6762   0.0000   0.0000   0.0000   0.2615
   1.100   0.2669   0.00596   0.00144  -0.0063  0.5205  0.9992  -0.6991   0.0000   0.0000   0.0000   0.2713
   1.200   0.2800   0.00601   0.00144  -0.0067  0.5137  1.0000  -0.7137   0.0000   0.0000   0.0000   0.2717
   1.300   0.2906   0.00602   0.00144  -0.0066  0.5115  1.0000  -0.7268   0.0000   0.0000   0.0000   0.2703
   1.400   0.3012   0.00601   0.00144  -0.0065  0.5097  1.0000  -0.7400   0.0000   0.0000   0.0000   0.2690
   1.500   0.3118   0.00602   0.00143  -0.0064  0.5074  1.0000  -0.7533   0.0000   0.0000   0.0000   0.2678
   1.600   0.3225   0.00602   0.00143  -0.0062  0.5045  1.0000  -0.7665   0.0000   0.0000   0.0000   0.2667
   1.700   0.3331   0.00604   0.00143  -0.0061  0.5012  1.0000  -0.7798   0.0000   0.0000   0.0000   0.2657
   1.800   0.3438   0.00605   0.00143  -0.0060  0.4976  1.0000  -0.7947   0.0000   0.0000   0.0000   0.2647
   1.900   0.3544   0.00608   0.00144  -0.0059  0.4938  1.0000  -0.8103   0.0000   0.0000   0.0000   0.2638
   2.000   0.3650   0.00611   0.00144  -0.0058  0.4897  1.0000  -0.8259   0.0000   0.0000   0.0000   0.2630
   2.100   0.3757   0.00614   0.00148  -0.0057  0.4852  1.0000  -0.8417   0.0000   0.0000   0.0000   0.2622
   2.200   0.3863   0.00618   0.00148  -0.0056  0.4801  1.0000  -0.8574   0.0000   0.0000   0.0000   0.2614
   2.300   0.3970   0.00623   0.00149  -0.0055  0.4742  1.0000  -0.8732   0.0000   0.0000   0.0000   0.2607
   2.400   0.4076   0.00629   0.00151  -0.0054  0.4672  1.0000  -0.8890   0.0000   0.0000   0.0000   0.2601
   2.500   0.4183   0.00634   0.00153  -0.0053  0.4621  1.0000  -0.9049   0.0000   0.0000   0.0000   0.2595
   2.600   0.4290   0.00634   0.00155  -0.0052  0.4603  1.0000  -0.9229   0.0000   0.0000   0.0000   0.2588
   2.700   0.4397   0.00636   0.00156  -0.0051  0.4578  1.0000  -0.9419   0.0000   0.0000   0.0000   0.2582
   2.800   0.4504   0.00637   0.00157  -0.0050  0.4545  1.0000  -0.9609   0.0000   0.0000   0.0000   0.2577
   2.900   0.4611   0.00640   0.00159  -0.0049  0.4505  1.0000  -0.9800   0.0000   0.0000   0.0000   0.2571
   3.000   0.4718   0.00643   0.00160  -0.0048  0.4462  1.0000  -0.9991   0.0000   0.0000   0.0000   0.2566
   3.100   0.4825   0.00647   0.00162  -0.0047  0.4416  1.0000  -1.0183   0.0000   0.0000   0.0000   0.2561
   3.200   0.4931   0.00652   0.00164  -0.0046  0.4364  1.0000  -1.0376   0.0000   0.0000   0.0000   0.2557
   3.300   0.5037   0.00659   0.00166  -0.0046  0.4301  1.0000  -1.0569   0.0000   0.0000   0.0000   0.2552
   3.400   0.5143   0.00666   0.00169  -0.0045  0.4220  1.0000  -1.0762   0.0000   0.0000   0.0000   0.2548
   3.500   0.5249   0.00674   0.00173  -0.0044  0.4134  1.0000  -1.0956   0.0000   0.0000   0.0000   0.2544
   3.600   0.5357   0.00676   0.00176  -0.0043  0.4115  1.0000  -1.1154   0.0000   0.0000   0.0000   0.2540
   3.700   0.5464   0.00678   0.00178  -0.0042  0.4084  1.0000  -1.1352   0.0000   0.0000   0.0000   0.2536
   3.800   0.5571   0.00681   0.00181  -0.0041  0.4046  1.0000  -1.1576   0.0000   0.0000   0.0000   0.2532
   3.900   0.5678   0.00686   0.00184  -0.0041  0.4003  1.0000  -1.1816   0.0000   0.0000   0.0000   0.2529
   4.000   0.5785   0.00691   0.00187  -0.0040  0.3952  1.0000  -1.2056   0.0000   0.0000   0.0000   0.2525
   4.100   0.5891   0.00697   0.00191  -0.0039  0.3894  1.0000  -1.2297   0.0000   0.0000   0.0000   0.2522
   4.200   0.5997   0.00705   0.00195  -0.0038  0.3829  1.0000  -1.2539   0.0000   0.0000   0.0000   0.2519
   4.300   0.6102   0.00714   0.00200  -0.0038  0.3751  1.0000  -1.2781   0.0000   0.0000   0.0000   0.2516
   4.400   0.6208   0.00723   0.00205  -0.0037  0.3666  1.0000  -1.3022   0.0000   0.0000   0.0000   0.2513
   4.500   0.6315   0.00726   0.00210  -0.0036  0.3639  1.0000  -1.3269   0.0000   0.0000   0.0000   0.2509
   4.600   0.6422   0.00730   0.00214  -0.0035  0.3606  1.0000  -1.3517   0.0000   0.0000   0.0000   0.2506
   4.700   0.6529   0.00735   0.00218  -0.0035  0.3555  1.0000  -1.3766   0.0000   0.0000   0.0000   0.2504
   4.800   0.6635   0.00742   0.00223  -0.0034  0.3489  1.0000  -1.4041   0.0000   0.0000   0.0000   0.2501
   4.900   0.6740   0.00751   0.00228  -0.0033  0.3413  1.0000  -1.4341   0.0000   0.0000   0.0000   0.2498
   5.000   0.6844   0.00762   0.00234  -0.0033  0.3330  1.0000  -1.4643   0.0000   0.0000   0.0000   0.2495
   5.100   0.6949   0.00773   0.00241  -0.0032  0.3238  1.0000  -1.4945   0.0000   0.0000   0.0000   0.2493
   5.200   0.7055   0.00780   0.00248  -0.0031  0.3186  1.0000  -1.5252   0.0000   0.0000   0.0000   0.2490
   5.300   0.7162   0.00785   0.00253  -0.0031  0.3157  1.0000  -1.5563   0.0000   0.0000   0.0000   0.2488
   5.400   0.7268   0.00791   0.00259  -0.0030  0.3115  1.0000  -1.5875   0.0000   0.0000   0.0000   0.2485
   5.500   0.7373   0.00799   0.00265  -0.0029  0.3056  1.0000  -1.6187   0.0000   0.0000   0.0000   0.2483
   5.600   0.7477   0.00809   0.00272  -0.0028  0.2981  1.0000  -1.6516   0.0000   0.0000   0.0000   0.2480
   5.700   0.7579   0.00826   0.00294  -0.0028  0.2843  1.0000  -1.6931   0.0000   0.0000   0.0000   0.2478
   5.800   0.7665   0.00876   0.00309  -0.0028  0.2297  1.0000  -1.7287   0.0000   0.0000   0.0000   0.2477
   5.900   0.7754   0.00920   0.00328  -0.0028  0.1919  1.0000  -1.7648   0.0000   0.0000   0.0000   0.2475
   6.000   0.7853   0.00939   0.00339  -0.0027  0.1788  1.0000  -1.8033   0.0000   0.0000   0.0000   0.2473
   6.100   0.7950   0.00965   0.00353  -0.0027  0.1626  1.0000  -1.8413   0.0000   0.0000   0.0000   0.2471
   6.200   0.8052   0.00978   0.00363  -0.0026  0.1542  1.0000  -1.8808   0.0000   0.0000   0.0000   0.2469
   6.300   0.8152   0.00995   0.00375  -0.0026  0.1451  1.0000  -1.9202   0.0000   0.0000   0.0000   0.2466
   6.400   0.8249   0.01019   0.00389  -0.0025  0.1332  1.0000  -1.9590   0.0000   0.0000   0.0000   0.2464
   6.500   0.8349   0.01035   0.00400  -0.0024  0.1238  1.0000  -1.9989   0.0000   0.0000   0.0000   0.2462
   6.600   0.8450   0.01050   0.00412  -0.0024  0.1175  1.0000  -2.0392   0.0000   0.0000   0.0000   0.2460
   6.700   0.8548   0.01071   0.00427  -0.0023  0.1086  1.0000  -2.0790   0.0000   0.0000   0.0000   0.2457
   6.800   0.8645   0.01095   0.00443  -0.0022  0.0982  1.0000  -2.1184   0.0000   0.0000   0.0000   0.2455
   6.900   0.8746   0.01108   0.00454  -0.0022  0.0928  1.0000  -2.1594   0.0000   0.0000   0.0000   0.2453
   7.000   0.8845   0.01125   0.00467  -0.0021  0.0861  1.0000  -2.2176   0.0000   0.0000   0.0000   0.2451
   7.100   0.8939   0.01154   0.00488  -0.0020  0.0759  1.0000  -2.2923   0.0000   0.0000   0.0000   0.2449
   7.200   0.9036   0.01176   0.00504  -0.0019  0.0669  1.0000  -2.3697   0.0000   0.0000   0.0000   0.2446
   7.300   0.9127   0.01206   0.00525  -0.0019  0.0560  1.0000  -2.4461   0.0000   0.0000   0.0000   0.2444
   7.400   0.9219   0.01238   0.00548  -0.0018  0.0445  1.0000  -2.5232   0.0000   0.0000   0.0000   0.2442
   7.500   0.9304   0.01280   0.00579  -0.0017  0.0315  1.0000  -2.5986   0.0000   0.0000   0.0000   0.2439
   7.600   0.9376   0.01346   0.00630  -0.0015  0.0106  1.0000  -2.6673   0.0000   0.0000   0.0000   0.2436
   7.700   0.9468   0.01373   0.00654  -0.0013  0.0071  1.0000  -2.7494   0.0000   0.0000   0.0000   0.2433
   7.800   0.9567   0.01389   0.00668  -0.0013  0.0067  1.0000  -2.8373   0.0000   0.0000   0.0000   0.2431
   7.900   0.9666   0.01403   0.00682  -0.0012  0.0063  1.0000  -2.9275   0.0000   0.0000   0.0000   0.2429
   8.000   0.9766   0.01417   0.00695  -0.0011  0.0060  1.0000  -3.0206   0.0000   0.0000   0.0000   0.2426
   8.100   0.9865   0.01431   0.00709  -0.0010  0.0056  1.0000  -3.1166   0.0000   0.0000   0.0000   0.2424
   8.200   0.9964   0.01447   0.00724  -0.0009  0.0052  1.0000  -3.2152   0.0000   0.0000   0.0000   0.2422
   8.300   1.0061   0.01463   0.00740  -0.0008  0.0048  1.0000  -3.3175   0.0000   0.0000   0.0000   0.2419
   8.400   1.0159   0.01480   0.00757  -0.0007  0.0045  1.0000  -3.4236   0.0000   0.0000   0.0000   0.2417
   8.500   1.0256   0.01497   0.00775  -0.0006  0.0041  1.0000  -3.5333   0.0000   0.0000   0.0000   0.2415
   8.600   1.0352   0.01515   0.00794  -0.0005  0.0039  1.0000  -3.6457   0.0000   0.0000   0.0000   0.2412
   8.700   1.0449   0.01533   0.00814  -0.0004  0.0037  1.0000  -3.7605   0.0000   0.0000   0.0000   0.2410
   8.800   1.0544   0.01551   0.00835  -0.0003  0.0035  1.0000  -3.8766   0.0000   0.0000   0.0000   0.2407
   8.900   1.0640   0.01570   0.00857  -0.0001  0.0034  1.0000  -3.9937   0.0000   0.0000   0.0000   0.2405
   9.000   1.0735   0.01589   0.00879  -0.0000  0.0033  1.0000  -4.1116   0.0000   0.0000   0.0000   0.2402
   9.100   1.0832   0.01600   0.00900  -0.0000  0.0039  1.0000  -4.1129   0.0000   0.0000   0.0000   0.2401
   9.200   1.0927   0.01618   0.00921   0.0001  0.0039  1.0000  -4.2152   0.0000   0.0000   0.0000   0.2398
   9.300   1.1020   0.01638   0.00944   0.0002  0.0037  1.0000  -4.3359   0.0000   0.0000   0.0000   0.2396
   9.400   1.1113   0.01659   0.00969   0.0004  0.0036  1.0000  -4.4618   0.0000   0.0000   0.0000   0.2393
   9.500   1.1204   0.01681   0.00996   0.0005  0.0035  1.0000  -4.5896   0.0000   0.0000   0.0000   0.2390
   9.600   1.1295   0.01704   0.01023   0.0007  0.0034  1.0000  -4.7177   0.0000   0.0000   0.0000   0.2387
   9.700   1.1385   0.01727   0.01051   0.0008  0.0033  1.0000  -4.8455   0.0000   0.0000   0.0000   0.2384
   9.800   1.1474   0.01752   0.01081   0.0010  0.0033  1.0000  -4.9728   0.0000   0.0000   0.0000   0.2381
   9.900   1.1561   0.01778   0.01112   0.0012  0.0033  1.0000  -5.0991   0.0000   0.0000   0.0000   0.2378
  10.000   1.1646   0.01806   0.01145   0.0014  0.0032  1.0000  -5.2245   0.0000   0.0000   0.0000   0.2375
  10.100   1.1729   0.01836   0.01180   0.0016  0.0032  1.0000  -5.3485   0.0000   0.0000   0.0000   0.2372
  10.200   1.1810   0.01868   0.01218   0.0018  0.0032  1.0000  -5.4707   0.0000   0.0000   0.0000   0.2369
  10.300   1.1888   0.01902   0.01258   0.0021  0.0032  1.0000  -5.5911   0.0000   0.0000   0.0000   0.2365
  10.400   1.1963   0.01938   0.01299   0.0023  0.0032  1.0000  -5.7098   0.0000   0.0000   0.0000   0.2362
  10.500   1.2036   0.01976   0.01343   0.0026  0.0033  1.0000  -5.8263   0.0000   0.0000   0.0000   0.2358
  10.600   1.2105   0.02016   0.01389   0.0029  0.0033  1.0000  -5.9405   0.0000   0.0000   0.0000   0.2354
  10.700   1.2171   0.02058   0.01437   0.0032  0.0033  1.0000  -6.0519   0.0000   0.0000   0.0000   0.2350
  10.800   1.2233   0.02103   0.01488   0.0035  0.0034  1.0000  -6.1598   0.0000   0.0000   0.0000   0.2346
  10.900   1.2290   0.02150   0.01542   0.0039  0.0034  1.0000  -6.2636   0.0000   0.0000   0.0000   0.2342
  11.000   1.2342   0.02201   0.01598   0.0043  0.0035  1.0000  -6.3626   0.0000   0.0000   0.0000   0.2337
  11.100   1.2387   0.02254   0.01659   0.0047  0.0035  1.0000  -6.4557   0.0000   0.0000   0.0000   0.2332
  11.200   1.2425   0.02312   0.01724   0.0051  0.0036  1.0000  -6.5414   0.0000   0.0000   0.0000   0.2327
  11.300   1.2452   0.02375   0.01794   0.0056  0.0036  1.0000  -6.6178   0.0000   0.0000   0.0000   0.2321
  11.400   1.2454   0.02442   0.01868   0.0063  0.0037  1.0000  -6.6748   0.0000   0.0000   0.0000   0.2314
  11.500   1.2444   0.02516   0.01949   0.0070  0.0037  1.0000  -6.7222   0.0000   0.0000   0.0000   0.2307
  11.600   1.2435   0.02600   0.02040   0.0075  0.0038  1.0000  -6.7662   0.0000   0.0000   0.0000   0.2301
  11.700   1.2426   0.02692   0.02139   0.0079  0.0038  1.0000  -6.8064   0.0000   0.0000   0.0000   0.2296
  11.800   1.2411   0.02794   0.02248   0.0081  0.0039  1.0000  -6.8397   0.0000   0.0000   0.0000   0.2292
  11.900   1.2396   0.02901   0.02362   0.0083  0.0040  1.0000  -6.8695   0.0000   0.0000   0.0000   0.2289
  12.000   1.2376   0.03020   0.02488   0.0084  0.0040  1.0000  -6.8922   0.0000   0.0000   0.0000   0.2286
  12.100   1.2353   0.03141   0.02617   0.0085  0.0041  1.0000  -6.9114   0.0000   0.0000   0.0000   0.2283
  12.200   1.2326   0.03269   0.02753   0.0086  0.0042  1.0000  -6.9254   0.0000   0.0000   0.0000   0.2281
  12.300   1.2295   0.03407   0.02899   0.0085  0.0043  1.0000  -6.9344   0.0000   0.0000   0.0000   0.2279
  12.400   1.2264   0.03546   0.03045   0.0085  0.0043  1.0000  -6.9419   0.0000   0.0000   0.0000   0.2277
  12.500   1.2231   0.03691   0.03198   0.0084  0.0044  1.0000  -6.9457   0.0000   0.0000   0.0000   0.2275
  12.600   1.2192   0.03847   0.03362   0.0082  0.0045  1.0000  -6.9447   0.0000   0.0000   0.0000   0.2275
  12.700   1.2154   0.04001   0.03524   0.0081  0.0046  1.0000  -6.9427   0.0000   0.0000   0.0000   0.2274
  12.800   1.2116   0.04155   0.03685   0.0080  0.0047  1.0000  -6.9388   0.0000   0.0000   0.0000   0.2272
  12.900   1.2070   0.04317   0.03855   0.0078  0.0048  1.0000  -6.9306   0.0000   0.0000   0.0000   0.2272
  13.000   1.2022   0.04487   0.04032   0.0076  0.0049  1.0000  -6.9198   0.0000   0.0000   0.0000   0.2272
  13.100   1.1977   0.04655   0.04207   0.0074  0.0050  1.0000  -6.9085   0.0000   0.0000   0.0000   0.2272
  13.200   1.1932   0.04825   0.04386   0.0071  0.0051  1.0000  -6.8953   0.0000   0.0000   0.0000   0.2271
  13.300   1.1884   0.05005   0.04573   0.0068  0.0052  1.0000  -6.8780   0.0000   0.0000   0.0000   0.2272
  13.400   1.1829   0.05201   0.04777   0.0063  0.0052  1.0000  -6.8575   0.0000   0.0000   0.0000   0.2274
  13.500   1.1777   0.05395   0.04979   0.0058  0.0053  1.0000  -6.8357   0.0000   0.0000   0.0000   0.2276
  13.600   1.1725   0.05588   0.05180   0.0054  0.0054  1.0000  -6.8122   0.0000   0.0000   0.0000   0.2278
  13.700   1.1671   0.05785   0.05384   0.0049  0.0055  1.0000  -6.7867   0.0000   0.0000   0.0000   0.2280
  13.800   1.1613   0.05994   0.05601   0.0042  0.0056  1.0000  -6.7591   0.0000   0.0000   0.0000   0.2284
  13.900   1.1550   0.06216   0.05830   0.0033  0.0057  1.0000  -6.7300   0.0000   0.0000   0.0000   0.2290
  14.000   1.1491   0.06434   0.06056   0.0025  0.0058  1.0000  -6.6992   0.0000   0.0000   0.0000   0.2294
  14.100   1.1431   0.06653   0.06282   0.0017  0.0059  1.0000  -6.6667   0.0000   0.0000   0.0000   0.2299
  14.200   1.1368   0.06871   0.06507   0.0009  0.0059  1.0000  -6.6333   0.0000   0.0000   0.0000   0.2305
  14.300   1.1300   0.07115   0.06758  -0.0003  0.0060  1.0000  -6.5996   0.0000   0.0000   0.0000   0.2313
  14.400   1.1234   0.07361   0.07011  -0.0014  0.0060  1.0000  -6.5641   0.0000   0.0000   0.0000   0.2322
  14.500   1.1171   0.07611   0.07268  -0.0025  0.0061  1.0000  -6.5261   0.0000   0.0000   0.0000   0.2330
  14.600   1.1108   0.07867   0.07531  -0.0037  0.0062  1.0000  -6.4868   0.0000   0.0000   0.0000   0.2340
  14.700   1.1041   0.08141   0.07811  -0.0052  0.0062  1.0000  -6.4480   0.0000   0.0000   0.0000   0.2351
  14.800   1.0975   0.08424   0.08100  -0.0067  0.0062  1.0000  -6.4086   0.0000   0.0000   0.0000   0.2364
  14.900   1.0911   0.08701   0.08383  -0.0081  0.0063  1.0000  -6.3665   0.0000   0.0000   0.0000   0.2376
  15.000   1.0848   0.08981   0.08670  -0.0096  0.0063  1.0000  -6.3230   0.0000   0.0000   0.0000   0.2388
  15.100   1.0783   0.09275   0.08970  -0.0112  0.0063  1.0000  -6.2805   0.0000   0.0000   0.0000   0.2402
  15.200   1.0718   0.09576   0.09277  -0.0130  0.0063  1.0000  -6.2387   0.0000   0.0000   0.0000   0.2418
  15.300   1.0655   0.09870   0.09576  -0.0146  0.0064  1.0000  -6.1934   0.0000   0.0000   0.0000   0.2433
  15.400   1.0593   0.10165   0.09877  -0.0163  0.0064  1.0000  -6.1466   0.0000   0.0000   0.0000   0.2448
  15.500   1.0530   0.10470   0.10187  -0.0180  0.0064  1.0000  -6.1015   0.0000   0.0000   0.0000   0.2464
  15.600   1.0468   0.10781   0.10503  -0.0199  0.0064  1.0000  -6.0568   0.0000   0.0000   0.0000   0.2482
  15.700   1.0408   0.11085   0.10812  -0.0217  0.0064  1.0000  -6.0079   0.0000   0.0000   0.0000   0.2499
  15.800   1.0348   0.11387   0.11119  -0.0234  0.0064  1.0000  -5.9578   0.0000   0.0000   0.0000   0.2516
  15.900   1.0288   0.11698   0.11435  -0.0253  0.0064  1.0000  -5.9093   0.0000   0.0000   0.0000   0.2535
  16.000   1.0229   0.12018   0.11758  -0.0273  0.0064  1.0000  -5.8593   0.0000   0.0000   0.0000   0.2554
  16.100   1.0172   0.12325   0.12070  -0.0291  0.0064  1.0000  -5.8057   0.0000   0.0000   0.0000   0.2573
  16.200   1.0116   0.12632   0.12381  -0.0309  0.0064  1.0000  -5.7505   0.0000   0.0000   0.0000   0.2591
  16.300   1.0058   0.12953   0.12707  -0.0329  0.0063  1.0000  -5.6955   0.0000   0.0000   0.0000   0.2612
  16.400   1.0002   0.13276   0.13033  -0.0348  0.0063  1.0000  -5.6377   0.0000   0.0000   0.0000   0.2633
  16.500   0.9947   0.13588   0.13349  -0.0367  0.0063  1.0000  -5.5763   0.0000   0.0000   0.0000   0.2653
  16.600   0.9893   0.13882   0.13646  -0.0385  0.0063  1.0000  -5.5131   0.0000   0.0000   0.0000   0.2673
  16.700   0.9837   0.14189   0.13956  -0.0405  0.0062  1.0000  -5.4481   0.0000   0.0000   0.0000   0.2694
  16.800   0.9782   0.14494   0.14265  -0.0424  0.0062  1.0000  -5.3785   0.0000   0.0000   0.0000   0.2716
  16.900   0.9729   0.14801   0.14575  -0.0443  0.0062  1.0000  -5.3044   0.0000   0.0000   0.0000   0.2737
  17.000   0.9676   0.15125   0.14902  -0.0462  0.0062  1.0000  -5.2243   0.0000   0.0000   0.0000   0.2759
  17.100   0.9618   0.15483   0.15262  -0.0482  0.0061  1.0000  -5.1365   0.0000   0.0000   0.0000   0.2784
  17.200   0.9562   0.15835   0.15617  -0.0502  0.0061  1.0000  -5.0428   0.0000   0.0000   0.0000   0.2808
  17.300   0.9507   0.16200   0.15985  -0.0521  0.0060  1.0000  -4.9399   0.0000   0.0000   0.0000   0.2831
  17.400   0.9444   0.16606   0.16393  -0.0542  0.0060  1.0000  -4.8201   0.0000   0.0000   0.0000   0.2858
  17.500   0.9383   0.17019   0.16807  -0.0563  0.0059  1.0000  -4.6892   0.0000   0.0000   0.0000   0.2884
  17.600   0.9320   0.17447   0.17238  -0.0583  0.0059  1.0000  -4.5423   0.0000   0.0000   0.0000   0.2911
  17.700   0.9246   0.17942   0.17734  -0.0605  0.0059  1.0000  -4.3555   0.0000   0.0000   0.0000   0.2942
  17.800   0.9175   0.18440   0.18232  -0.0626  0.0059  1.0000  -4.1536   0.0000   0.0000   0.0000   0.2971
  17.900   0.9093   0.19010   0.18802  -0.0648  0.0060  1.0000  -3.8968   0.0000   0.0000   0.0000   0.3004
  18.000   0.9016   0.19591   0.19382  -0.0669  0.0062  1.0000  -3.6233   0.0000   0.0000   0.0000   0.3035
  18.100   0.8947   0.20164   0.19954  -0.0689  0.0065  1.0000  -3.3555   0.0000   0.0000   0.0000   0.3065
  18.200   0.8862   0.20826   0.20614  -0.0710  0.0069  1.0000  -3.0261   0.0000   0.0000   0.0000   0.3100
  18.500   0.8670   0.22976   0.22762  -0.0752  0.0169  1.0000  -2.0036   0.0000   0.0000   0.0000   0.3175
  18.600   0.8684   0.23214   0.23000  -0.0761  0.0169  1.0000  -1.9887   0.0000   0.0000   0.0000   0.3182
  18.700   0.8699   0.23451   0.23237  -0.0769  0.0169  1.0000  -1.9747   0.0000   0.0000   0.0000   0.3189
  18.800   0.8714   0.23686   0.23472  -0.0777  0.0169  1.0000  -1.9618   0.0000   0.0000   0.0000   0.3196
  18.900   0.8729   0.23918   0.23705  -0.0786  0.0168  1.0000  -1.9500   0.0000   0.0000   0.0000   0.3203
  19.000   0.8745   0.24149   0.23935  -0.0794  0.0168  1.0000  -1.9393   0.0000   0.0000   0.0000   0.3210
  19.100   0.8762   0.24375   0.24162  -0.0802  0.0168  1.0000  -1.9301   0.0000   0.0000   0.0000   0.3216
  19.200   0.8779   0.24597   0.24384  -0.0810  0.0167  1.0000  -1.9228   0.0000   0.0000   0.0000   0.3223
  19.300   0.8798   0.24812   0.24598  -0.0819  0.0166  1.0000  -1.9183   0.0000   0.0000   0.0000   0.3229
  19.400   0.8819   0.25015   0.24801  -0.0827  0.0165  1.0000  -1.9178   0.0000   0.0000   0.0000   0.3235
  19.500   0.8844   0.25202   0.24989  -0.0835  0.0163  1.0000  -1.9225   0.0000   0.0000   0.0000   0.3240
  19.600   0.8871   0.25383   0.25170  -0.0843  0.0159  1.0000  -1.9283   0.0000   0.0000   0.0000   0.3245
  19.700   0.8892   0.25592   0.25379  -0.0852  0.0155  1.0000  -1.9204   0.0000   0.0000   0.0000   0.3252
  19.800   0.8908   0.25830   0.25617  -0.0862  0.0150  1.0000  -1.9012   0.0000   0.0000   0.0000   0.3261
  19.900   0.8922   0.26072   0.25860  -0.0872  0.0146  1.0000  -1.8827   0.0000   0.0000   0.0000   0.3269
  20.000   0.8935   0.26316   0.26103  -0.0880  0.0142  1.0000  -1.8661   0.0000   0.0000   0.0000   0.3276
  20.100   0.8948   0.26558   0.26345  -0.0889  0.0139  1.0000  -1.8518   0.0000   0.0000   0.0000   0.3283
  20.200   0.8961   0.26798   0.26585  -0.0897  0.0136  1.0000  -1.8395   0.0000   0.0000   0.0000   0.3290
  20.300   0.8973   0.27036   0.26823  -0.0905  0.0132  1.0000  -1.8289   0.0000   0.0000   0.0000   0.3296
  20.400   0.8985   0.27272   0.27059  -0.0913  0.0129  1.0000  -1.8198   0.0000   0.0000   0.0000   0.3303
  20.500   0.8997   0.27506   0.27294  -0.0921  0.0127  1.0000  -1.8120   0.0000   0.0000   0.0000   0.3309
  20.600   0.9008   0.27738   0.27527  -0.0928  0.0124  1.0000  -1.8053   0.0000   0.0000   0.0000   0.3315
  20.700   0.9019   0.27969   0.27758  -0.0936  0.0122  1.0000  -1.7996   0.0000   0.0000   0.0000   0.3321
  20.800   0.9030   0.28199   0.27988  -0.0943  0.0119  1.0000  -1.7947   0.0000   0.0000   0.0000   0.3326
  20.900   0.9041   0.28427   0.28216  -0.0951  0.0117  1.0000  -1.7908   0.0000   0.0000   0.0000   0.3332
  21.000   0.9051   0.28651   0.28440  -0.0958  0.0114  1.0000  -1.7893   0.0000   0.0000   0.0000   0.3337
  21.100   0.9063   0.28857   0.28646  -0.0965  0.0111  1.0000  -1.7989   0.0000   0.0000   0.0000   0.3342
  21.200   0.9075   0.29057   0.28847  -0.0972  0.0107  1.0000  -1.8115   0.0000   0.0000   0.0000   0.3347
  21.300   0.9086   0.29252   0.29043  -0.0978  0.0104  1.0000  -1.8273   0.0000   0.0000   0.0000   0.3351
  21.400   0.9098   0.29441   0.29232  -0.0984  0.0101  1.0000  -1.8465   0.0000   0.0000   0.0000   0.3355
  21.500   0.9110   0.29623   0.29414  -0.0990  0.0098  1.0000  -1.8692   0.0000   0.0000   0.0000   0.3358
  21.600   0.9122   0.29799   0.29590  -0.0996  0.0095  1.0000  -1.8958   0.0000   0.0000   0.0000   0.3362
  21.700   0.9134   0.29967   0.29759  -0.1002  0.0093  1.0000  -1.9264   0.0000   0.0000   0.0000   0.3364
  21.800   0.9147   0.30127   0.29920  -0.1007  0.0091  1.0000  -1.9614   0.0000   0.0000   0.0000   0.3367
  21.900   0.9159   0.30280   0.30074  -0.1012  0.0089  1.0000  -2.0011   0.0000   0.0000   0.0000   0.3368
  22.000   0.9173   0.30425   0.30219  -0.1016  0.0087  1.0000  -2.0459   0.0000   0.0000   0.0000   0.3369
  22.100   0.9186   0.30563   0.30357  -0.1020  0.0085  1.0000  -2.0961   0.0000   0.0000   0.0000   0.3370
  22.200   0.9192   0.30727   0.30523  -0.1024  0.0083  1.0000  -2.1310   0.0000   0.0000   0.0000   0.3372
  22.300   0.9186   0.30927   0.30723  -0.1029  0.0081  1.0000  -2.1475   0.0000   0.0000   0.0000   0.3376
  22.400   0.9017   0.31774   0.31568  -0.1035  0.0074  1.0000  -1.7919   0.0000   0.0000   0.0000   0.3408
  22.500   0.9004   0.31974   0.31769  -0.1040  0.0074  1.0000  -1.7758   0.0000   0.0000   0.0000   0.3415
  22.600   0.8987   0.32162   0.31958  -0.1044  0.0074  1.0000  -1.7589   0.0000   0.0000   0.0000   0.3421
  22.700   0.8964   0.32336   0.32133  -0.1048  0.0073  1.0000  -1.7411   0.0000   0.0000   0.0000   0.3428
  22.800   0.8934   0.32487   0.32285  -0.1052  0.0073  1.0000  -1.7214   0.0000   0.0000   0.0000   0.3435
  22.900   0.8475   0.31438   0.31244  -0.1010  0.0073  1.0000  -1.5884   0.0000   0.0000   0.0000   0.3459
  23.000   0.8414   0.31406   0.31213  -0.1010  0.0073  1.0000  -1.5615   0.0000   0.0000   0.0000   0.3467
  23.100   0.8366   0.31401   0.31210  -0.1010  0.0073  1.0000  -1.5383   0.0000   0.0000   0.0000   0.3475
  23.200   0.8326   0.31413   0.31223  -0.1012  0.0073  1.0000  -1.5176   0.0000   0.0000   0.0000   0.3482
  23.300   0.8291   0.31435   0.31246  -0.1013  0.0073  1.0000  -1.4987   0.0000   0.0000   0.0000   0.3489
  23.400   0.8261   0.31463   0.31276  -0.1016  0.0073  1.0000  -1.4813   0.0000   0.0000   0.0000   0.3496
  23.500   0.8233   0.31497   0.31310  -0.1018  0.0073  1.0000  -1.4651   0.0000   0.0000   0.0000   0.3503
  23.600   0.8209   0.31535   0.31349  -0.1021  0.0073  1.0000  -1.4500   0.0000   0.0000   0.0000   0.3509
  23.700   0.8187   0.31576   0.31392  -0.1024  0.0072  1.0000  -1.4358   0.0000   0.0000   0.0000   0.3516
  23.800   0.8167   0.31621   0.31437  -0.1027  0.0072  1.0000  -1.4228   0.0000   0.0000   0.0000   0.3522
  23.900   0.8150   0.31668   0.31485  -0.1031  0.0072  1.0000  -1.4111   0.0000   0.0000   0.0000   0.3528
  24.000   0.8135   0.31718   0.31536  -0.1035  0.0072  1.0000  -1.4007   0.0000   0.0000   0.0000   0.3535
  24.100   0.8122   0.31770   0.31589  -0.1038  0.0071  1.0000  -1.3919   0.0000   0.0000   0.0000   0.3540
  24.200   0.8111   0.31823   0.31642  -0.1043  0.0071  1.0000  -1.3852   0.0000   0.0000   0.0000   0.3546
  24.300   0.8104   0.31881   0.31700  -0.1047  0.0070  1.0000  -1.3803   0.0000   0.0000   0.0000   0.3552
  24.400   0.8101   0.31943   0.31764  -0.1052  0.0069  1.0000  -1.3779   0.0000   0.0000   0.0000   0.3558
  24.500   0.8102   0.32021   0.31842  -0.1058  0.0066  1.0000  -1.3703   0.0000   0.0000   0.0000   0.3564
  24.600   0.8102   0.32111   0.31932  -0.1064  0.0063  1.0000  -1.3535   0.0000   0.0000   0.0000   0.3570
  24.700   0.8097   0.32195   0.32017  -0.1068  0.0060  1.0000  -1.3339   0.0000   0.0000   0.0000   0.3576
  24.800   0.8089   0.32269   0.32092  -0.1073  0.0057  1.0000  -1.3170   0.0000   0.0000   0.0000   0.3582
  24.900   0.8080   0.32337   0.32161  -0.1076  0.0054  1.0000  -1.3036   0.0000   0.0000   0.0000   0.3587
  25.000   0.8071   0.32401   0.32226  -0.1080  0.0052  1.0000  -1.2928   0.0000   0.0000   0.0000   0.3593
  25.100   0.8062   0.32464   0.32289  -0.1084  0.0050  1.0000  -1.2842   0.0000   0.0000   0.0000   0.3598
  25.200   0.8054   0.32525   0.32351  -0.1088  0.0048  1.0000  -1.2771   0.0000   0.0000   0.0000   0.3603
  25.300   0.8046   0.32586   0.32413  -0.1092  0.0046  1.0000  -1.2714   0.0000   0.0000   0.0000   0.3608
  25.400   0.8038   0.32647   0.32474  -0.1096  0.0044  1.0000  -1.2669   0.0000   0.0000   0.0000   0.3613
  25.500   0.8031   0.32707   0.32535  -0.1100  0.0042  1.0000  -1.2633   0.0000   0.0000   0.0000   0.3618
  25.600   0.8025   0.32767   0.32595  -0.1104  0.0041  1.0000  -1.2607   0.0000   0.0000   0.0000   0.3623
  25.700   0.8019   0.32826   0.32656  -0.1108  0.0039  1.0000  -1.2589   0.0000   0.0000   0.0000   0.3628
  25.800   0.8013   0.32886   0.32716  -0.1112  0.0038  1.0000  -1.2580   0.0000   0.0000   0.0000   0.3633
  25.900   0.8008   0.32946   0.32776  -0.1116  0.0037  1.0000  -1.2579   0.0000   0.0000   0.0000   0.3637
  26.000   0.8003   0.33005   0.32836  -0.1120  0.0036  1.0000  -1.2586   0.0000   0.0000   0.0000   0.3642
  26.100   0.8000   0.33058   0.32893  -0.1124  0.0034  1.0000  -1.2705   0.0000   0.0000   0.0000   0.3646
  26.200   0.7996   0.33116   0.32951  -0.1128  0.0033  1.0000  -1.2755   0.0000   0.0000   0.0000   0.3651
  26.300   0.7992   0.33173   0.33009  -0.1132  0.0032  1.0000  -1.2806   0.0000   0.0000   0.0000   0.3655
  26.400   0.7989   0.33230   0.33066  -0.1137  0.0031  1.0000  -1.2864   0.0000   0.0000   0.0000   0.3660
  26.500   0.7986   0.33286   0.33124  -0.1141  0.0030  1.0000  -1.2928   0.0000   0.0000   0.0000   0.3664
  26.600   0.7983   0.33343   0.33180  -0.1145  0.0029  1.0000  -1.3000   0.0000   0.0000   0.0000   0.3668
  26.700   0.7981   0.33398   0.33237  -0.1149  0.0028  1.0000  -1.3079   0.0000   0.0000   0.0000   0.3672
  26.800   0.7979   0.33454   0.33293  -0.1154  0.0027  1.0000  -1.3167   0.0000   0.0000   0.0000   0.3676
  26.900   0.7977   0.33509   0.33348  -0.1158  0.0027  1.0000  -1.3264   0.0000   0.0000   0.0000   0.3680
  27.000   0.7975   0.33563   0.33403  -0.1162  0.0026  1.0000  -1.3369   0.0000   0.0000   0.0000   0.3684
  27.100   0.7973   0.33616   0.33457  -0.1166  0.0026  1.0000  -1.3483   0.0000   0.0000   0.0000   0.3688
  27.200   0.7972   0.33669   0.33511  -0.1171  0.0025  1.0000  -1.3606   0.0000   0.0000   0.0000   0.3692
  27.300   0.7971   0.33721   0.33563  -0.1175  0.0024  1.0000  -1.3737   0.0000   0.0000   0.0000   0.3696
  27.400   0.7969   0.33772   0.33615  -0.1179  0.0024  1.0000  -1.3878   0.0000   0.0000   0.0000   0.3700
  27.500   0.7969   0.33823   0.33666  -0.1184  0.0023  1.0000  -1.4028   0.0000   0.0000   0.0000   0.3703
  27.600   0.7968   0.33872   0.33716  -0.1188  0.0023  1.0000  -1.4186   0.0000   0.0000   0.0000   0.3707
  27.700   0.7967   0.33921   0.33765  -0.1192  0.0022  1.0000  -1.4352   0.0000   0.0000   0.0000   0.3710
  27.800   0.7966   0.33968   0.33813  -0.1196  0.0022  1.0000  -1.4526   0.0000   0.0000   0.0000   0.3714
  27.900   0.7965   0.34015   0.33861  -0.1200  0.0022  1.0000  -1.4704   0.0000   0.0000   0.0000   0.3717
  28.000   0.7965   0.34060   0.33907  -0.1204  0.0021  1.0000  -1.4886   0.0000   0.0000   0.0000   0.3720
  28.100   0.7963   0.34110   0.33957  -0.1209  0.0021  1.0000  -1.5020   0.0000   0.0000   0.0000   0.3723
  28.200   0.7960   0.34163   0.34010  -0.1213  0.0020  1.0000  -1.5114   0.0000   0.0000   0.0000   0.3727
  28.300   0.7956   0.34216   0.34064  -0.1217  0.0020  1.0000  -1.5166   0.0000   0.0000   0.0000   0.3731
  28.400   0.7948   0.34274   0.34123  -0.1220  0.0019  1.0000  -1.5099   0.0000   0.0000   0.0000   0.3735
  28.500   0.7870   0.34503   0.34350  -0.1217  0.0017  1.0000  -1.1891   0.0000   0.0000   0.0000   0.3752
  28.600   0.7869   0.34573   0.34421  -0.1222  0.0017  1.0000  -1.1817   0.0000   0.0000   0.0000   0.3756
  28.700   0.7868   0.34644   0.34493  -0.1226  0.0017  1.0000  -1.1745   0.0000   0.0000   0.0000   0.3760
  28.800   0.7867   0.34715   0.34564  -0.1231  0.0017  1.0000  -1.1674   0.0000   0.0000   0.0000   0.3764
  28.900   0.7866   0.34786   0.34635  -0.1235  0.0017  1.0000  -1.1605   0.0000   0.0000   0.0000   0.3768
  29.000   0.7865   0.34857   0.34707  -0.1239  0.0017  1.0000  -1.1537   0.0000   0.0000   0.0000   0.3772
  29.100   0.7864   0.34927   0.34778  -0.1244  0.0016  1.0000  -1.1470   0.0000   0.0000   0.0000   0.3776
  29.200   0.7863   0.34998   0.34849  -0.1248  0.0016  1.0000  -1.1404   0.0000   0.0000   0.0000   0.3780
  29.300   0.7862   0.35069   0.34921  -0.1253  0.0016  1.0000  -1.1340   0.0000   0.0000   0.0000   0.3784
  29.400   0.7862   0.35140   0.34992  -0.1257  0.0016  1.0000  -1.1277   0.0000   0.0000   0.0000   0.3788
  29.500   0.7861   0.35211   0.35063  -0.1261  0.0016  1.0000  -1.1215   0.0000   0.0000   0.0000   0.3792
  29.600   0.7860   0.35282   0.35135  -0.1266  0.0016  1.0000  -1.1154   0.0000   0.0000   0.0000   0.3796
  29.700   0.7860   0.35353   0.35206  -0.1270  0.0016  1.0000  -1.1094   0.0000   0.0000   0.0000   0.3800
  29.800   0.7859   0.35423   0.35278  -0.1275  0.0016  1.0000  -1.1035   0.0000   0.0000   0.0000   0.3804
  29.900   0.7859   0.35494   0.35349  -0.1279  0.0016  1.0000  -1.0977   0.0000   0.0000   0.0000   0.3808
  30.000   0.7858   0.35565   0.35421  -0.1284  0.0016  1.0000  -1.0920   0.0000   0.0000   0.0000   0.3812


