xflr5 v6.61

 Calculated polar for: S5010

 1 1 Reynolds number fixed          Mach number fixed         

 xtrf =   1.000 (top)        1.000 (bottom)
 Mach =   0.000     Re =     0.100 e 6     Ncrit =   9.000

  alpha     CL        CD       CDp       Cm    Top Xtr Bot Xtr   Cpmin    Chinge    XCp    
 ------- -------- --------- --------- -------- ------- ------- -------- --------- ---------
 -10.000  -0.5366   0.12616   0.12152   0.0294  1.0000  0.0575  -1.4341   0.0000   0.0000   0.0000   0.3000
  -9.900  -0.5335   0.12468   0.12005   0.0291  1.0000  0.0583  -1.4218   0.0000   0.0000   0.0000   0.2997
  -9.800  -0.5308   0.12322   0.11860   0.0286  1.0000  0.0591  -1.4126   0.0000   0.0000   0.0000   0.2993
  -9.700  -0.5282   0.12178   0.11717   0.0282  1.0000  0.0598  -1.4059   0.0000   0.0000   0.0000   0.2986
  -9.600  -0.5259   0.12033   0.11574   0.0276  1.0000  0.0606  -1.4013   0.0000   0.0000   0.0000   0.2979
  -9.500  -0.5236   0.11888   0.11430   0.0270  1.0000  0.0614  -1.3984   0.0000   0.0000   0.0000   0.2970
  -9.400  -0.5215   0.11741   0.11285   0.0263  1.0000  0.0623  -1.3970   0.0000   0.0000   0.0000   0.2960
  -9.300  -0.5195   0.11595   0.11140   0.0256  1.0000  0.0631  -1.3972   0.0000   0.0000   0.0000   0.2948
  -9.200  -0.5176   0.11448   0.10995   0.0248  1.0000  0.0639  -1.3987   0.0000   0.0000   0.0000   0.2936
  -9.100  -0.5159   0.11301   0.10849   0.0240  1.0000  0.0648  -1.4017   0.0000   0.0000   0.0000   0.2922
  -9.000  -0.5142   0.11153   0.10703   0.0232  1.0000  0.0657  -1.4058   0.0000   0.0000   0.0000   0.2908
  -8.900  -0.5127   0.11005   0.10557   0.0222  1.0000  0.0665  -1.4115   0.0000   0.0000   0.0000   0.2892
  -8.800  -0.5113   0.10858   0.10412   0.0213  1.0000  0.0674  -1.4186   0.0000   0.0000   0.0000   0.2874
  -8.700  -0.5102   0.10711   0.10267   0.0202  1.0000  0.0684  -1.4276   0.0000   0.0000   0.0000   0.2855
  -8.600  -0.5093   0.10566   0.10124   0.0191  1.0000  0.0693  -1.4387   0.0000   0.0000   0.0000   0.2834
  -8.500  -0.5085   0.10423   0.09984   0.0178  1.0000  0.0703  -1.4519   0.0000   0.0000   0.0000   0.2811
  -8.400  -0.5081   0.10285   0.09848   0.0164  1.0000  0.0713  -1.4686   0.0000   0.0000   0.0000   0.2784
  -8.300  -0.5082   0.10154   0.09720   0.0147  1.0000  0.0723  -1.4902   0.0000   0.0000   0.0000   0.2751
  -8.200  -0.5084   0.10035   0.09604   0.0126  1.0000  0.0734  -1.5168   0.0000   0.0000   0.0000   0.2711
  -8.100  -0.5096   0.09936   0.09508   0.0100  1.0000  0.0745  -1.5505   0.0000   0.0000   0.0000   0.2660
  -8.000  -0.5116   0.09835   0.09411   0.0070  1.0000  0.0752  -1.5881   0.0000   0.0000   0.0000   0.2601
  -7.900  -0.5121   0.09732   0.09311   0.0041  1.0000  0.0758  -1.6162   0.0000   0.0000   0.0000   0.2546
  -7.800  -0.5126   0.09607   0.09187   0.0014  1.0000  0.0762  -1.6431   0.0000   0.0000   0.0000   0.2494
  -7.700  -0.5116   0.09470   0.09049  -0.0010  1.0000  0.0764  -1.6670   0.0000   0.0000   0.0000   0.2448
  -7.600  -0.5102   0.09325   0.08903  -0.0030  1.0000  0.0766  -1.6875   0.0000   0.0000   0.0000   0.2409
  -7.500  -0.5085   0.09175   0.08751  -0.0047  1.0000  0.0768  -1.7054   0.0000   0.0000   0.0000   0.2375
  -7.400  -0.5065   0.09020   0.08593  -0.0063  1.0000  0.0769  -1.7211   0.0000   0.0000   0.0000   0.2344
  -7.300  -0.5042   0.08862   0.08432  -0.0077  1.0000  0.0770  -1.7349   0.0000   0.0000   0.0000   0.2315
  -7.200  -0.5014   0.08700   0.08267  -0.0091  1.0000  0.0771  -1.7470   0.0000   0.0000   0.0000   0.2288
  -7.100  -0.5084   0.08139   0.07712  -0.0114  1.0000  0.0782  -1.8231   0.0000   0.0000   0.0000   0.2245
  -7.000  -0.5106   0.07695   0.07273  -0.0123  1.0000  0.0797  -1.8407   0.0000   0.0000   0.0000   0.2228
  -6.900  -0.5044   0.07466   0.07052  -0.0117  1.0000  0.0810  -1.7947   0.0000   0.0000   0.0000   0.2239
  -6.800  -0.4983   0.07298   0.06889  -0.0112  1.0000  0.0822  -1.7517   0.0000   0.0000   0.0000   0.2246
  -6.700  -0.4926   0.07146   0.06741  -0.0111  1.0000  0.0834  -1.7174   0.0000   0.0000   0.0000   0.2245
  -6.600  -0.4871   0.06997   0.06594  -0.0114  1.0000  0.0847  -1.6906   0.0000   0.0000   0.0000   0.2237
  -6.500  -0.4814   0.06849   0.06447  -0.0119  1.0000  0.0861  -1.6674   0.0000   0.0000   0.0000   0.2224
  -6.400  -0.4758   0.06697   0.06295  -0.0127  1.0000  0.0876  -1.6502   0.0000   0.0000   0.0000   0.2205
  -6.300  -0.4701   0.06537   0.06135  -0.0137  1.0000  0.0891  -1.6391   0.0000   0.0000   0.0000   0.2180
  -6.100  -0.4585   0.06186   0.05763  -0.0166  1.0000  0.0911  -1.6412   0.0000   0.0000   0.0000   0.2111
  -6.000  -0.4521   0.06018   0.05592  -0.0180  1.0000  0.0928  -1.6372   0.0000   0.0000   0.0000   0.2075
  -5.900  -0.4455   0.05847   0.05417  -0.0194  1.0000  0.0944  -1.6362   0.0000   0.0000   0.0000   0.2036
  -5.800  -0.4386   0.05677   0.05240  -0.0209  1.0000  0.0960  -1.6375   0.0000   0.0000   0.0000   0.1996
  -5.700  -0.4318   0.05511   0.05067  -0.0222  1.0000  0.0974  -1.6405   0.0000   0.0000   0.0000   0.1957
  -5.500  -0.4190   0.04892   0.04400  -0.0252  1.0000  0.0702  -1.8428   0.0000   0.0000   0.0000   0.1868
  -5.400  -0.4163   0.04491   0.03967  -0.0246  1.0000  0.0480  -2.0896   0.0000   0.0000   0.0000   0.1876
  -5.300  -0.4153   0.04321   0.03790  -0.0244  0.9971  0.0466  -2.1045   0.0000   0.0000   0.0000   0.1880
  -5.200  -0.4022   0.04039   0.03475  -0.0263  0.9897  0.0435  -2.1335   0.0000   0.0000   0.0000   0.1813
  -5.100  -0.3877   0.03796   0.03207  -0.0279  0.9829  0.0418  -2.1554   0.0000   0.0000   0.0000   0.1747
  -5.000  -0.3727   0.03572   0.02956  -0.0292  0.9765  0.0405  -2.1755   0.0000   0.0000   0.0000   0.1680
  -4.900  -0.3561   0.03362   0.02719  -0.0307  0.9714  0.0398  -2.1857   0.0000   0.0000   0.0000   0.1601
  -4.800  -0.3422   0.03203   0.02535  -0.0315  0.9644  0.0397  -2.1811   0.0000   0.0000   0.0000   0.1543
  -4.700  -0.3275   0.03062   0.02372  -0.0323  0.9580  0.0401  -2.1636   0.0000   0.0000   0.0000   0.1476
  -4.600  -0.3119   0.02939   0.02228  -0.0331  0.9524  0.0409  -2.1349   0.0000   0.0000   0.0000   0.1397
  -4.500  -0.2971   0.02837   0.02107  -0.0338  0.9468  0.0420  -2.1013   0.0000   0.0000   0.0000   0.1321
  -4.400  -0.2857   0.02760   0.02015  -0.0338  0.9396  0.0432  -2.0703   0.0000   0.0000   0.0000   0.1274
  -4.300  -0.2735   0.02688   0.01929  -0.0339  0.9330  0.0444  -2.0369   0.0000   0.0000   0.0000   0.1217
  -4.200  -0.2612   0.02639   0.01867  -0.0340  0.9272  0.0463  -1.9945   0.0000   0.0000   0.0000   0.1155
  -4.000  -0.2416   0.02524   0.01736  -0.0340  0.9158  0.0568  -1.8791   0.0000   0.0000   0.0000   0.1045
  -3.900  -0.2334   0.02563   0.01797  -0.0342  0.9090  0.0656  -1.7594   0.0000   0.0000   0.0000   0.0990
  -3.800  -0.2233   0.02569   0.01800  -0.0339  0.9027  0.0710  -1.7017   0.0000   0.0000   0.0000   0.0936
  -3.700  -0.2131   0.02527   0.01747  -0.0335  0.8971  0.0725  -1.6754   0.0000   0.0000   0.0000   0.0883
  -3.600  -0.2032   0.02453   0.01660  -0.0329  0.8922  0.0720  -1.6646   0.0000   0.0000   0.0000   0.0833
  -3.500  -0.1936   0.02387   0.01582  -0.0322  0.8875  0.0715  -1.6546   0.0000   0.0000   0.0000   0.0786
  -3.400  -0.1833   0.02318   0.01504  -0.0319  0.8824  0.0711  -1.6430   0.0000   0.0000   0.0000   0.0710
  -3.300  -0.1729   0.02254   0.01431  -0.0315  0.8769  0.0709  -1.6303   0.0000   0.0000   0.0000   0.0626
  -3.200  -0.1628   0.02196   0.01365  -0.0310  0.8712  0.0709  -1.6170   0.0000   0.0000   0.0000   0.0542
  -3.100  -0.1529   0.02142   0.01305  -0.0304  0.8656  0.0710  -1.6032   0.0000   0.0000   0.0000   0.0458
  -3.000  -0.1435   0.02094   0.01251  -0.0296  0.8603  0.0714  -1.5893   0.0000   0.0000   0.0000   0.0378
  -2.900  -0.1345   0.02052   0.01202  -0.0287  0.8553  0.0720  -1.5757   0.0000   0.0000   0.0000   0.0304
  -2.800  -0.1261   0.02018   0.01162  -0.0277  0.8507  0.0728  -1.5628   0.0000   0.0000   0.0000   0.0240
  -2.700  -0.1167   0.01983   0.01123  -0.0271  0.8461  0.0740  -1.5500   0.0000   0.0000   0.0000   0.0113
  -2.600  -0.1063   0.01943   0.01080  -0.0268  0.8411  0.0756  -1.5379   0.0000   0.0000   0.0000  -0.0089
  -2.500  -0.0965   0.01903   0.01039  -0.0263  0.8361  0.0778  -1.5326   0.0000   0.0000   0.0000  -0.0298
  -2.400  -0.0888   0.01824   0.00959  -0.0254  0.8314  0.0856  -1.5576   0.0000   0.0000   0.0000  -0.0442
  -2.300  -0.0872   0.01591   0.00854  -0.0237  0.8274  0.3143  -1.7518   0.0000   0.0000   0.0000  -0.0290
  -2.200  -0.0880   0.01446   0.00865  -0.0207  0.8235  0.6591  -1.7655   0.0000   0.0000   0.0000   0.0077
  -2.100  -0.0189   0.01423   0.00896  -0.0267  0.8228  0.9593  -1.5375   0.0000   0.0000   0.0000  -1.1919
  -2.000   0.0399   0.01409   0.00849  -0.0351  0.8197  1.0000  -1.3137   0.0000   0.0000   0.0000   1.1421
  -1.900   0.0460   0.01407   0.00818  -0.0343  0.8147  1.0000  -1.2137   0.0000   0.0000   0.0000   1.0070
  -1.800   0.0522   0.01414   0.00814  -0.0334  0.8099  1.0000  -1.1699   0.0000   0.0000   0.0000   0.8996
  -1.700   0.0594   0.01427   0.00817  -0.0329  0.8050  1.0000  -1.1235   0.0000   0.0000   0.0000   0.8103
  -1.600   0.0694   0.01425   0.00808  -0.0330  0.8001  1.0000  -1.0704   0.0000   0.0000   0.0000   0.7314
  -1.500   0.0787   0.01426   0.00801  -0.0329  0.7947  1.0000  -1.0188   0.0000   0.0000   0.0000   0.6730
  -1.400   0.0874   0.01428   0.00796  -0.0326  0.7891  1.0000  -0.9686   0.0000   0.0000   0.0000   0.6271
  -1.300   0.0957   0.01431   0.00791  -0.0322  0.7837  1.0000  -0.9198   0.0000   0.0000   0.0000   0.5895
  -1.200   0.1036   0.01434   0.00786  -0.0316  0.7786  1.0000  -0.8719   0.0000   0.0000   0.0000   0.5575
  -1.100   0.1113   0.01438   0.00782  -0.0309  0.7740  1.0000  -0.8249   0.0000   0.0000   0.0000   0.5298
  -1.000   0.1189   0.01444   0.00779  -0.0302  0.7698  1.0000  -0.7785   0.0000   0.0000   0.0000   0.5055
  -0.900   0.1265   0.01455   0.00781  -0.0294  0.7658  1.0000  -0.7325   0.0000   0.0000   0.0000   0.4840
  -0.800   0.1341   0.01475   0.00793  -0.0287  0.7616  1.0000  -0.6869   0.0000   0.0000   0.0000   0.4654
  -0.700   0.1444   0.01483   0.00796  -0.0288  0.7577  1.0000  -0.6359   0.0000   0.0000   0.0000   0.4503
  -0.600   0.1549   0.01487   0.00796  -0.0289  0.7535  1.0000  -0.5850   0.0000   0.0000   0.0000   0.4373
  -0.500   0.1651   0.01492   0.00797  -0.0289  0.7486  1.0000  -0.5356   0.0000   0.0000   0.0000   0.4255
  -0.400   0.1747   0.01498   0.00798  -0.0287  0.7436  1.0000  -0.5436   0.0000   0.0000   0.0000   0.4146
  -0.300   0.1838   0.01503   0.00798  -0.0284  0.7386  1.0000  -0.5531   0.0000   0.0000   0.0000   0.4043
  -0.200   0.1925   0.01507   0.00796  -0.0278  0.7338  1.0000  -0.5625   0.0000   0.0000   0.0000   0.3944
  -0.100   0.2009   0.01511   0.00794  -0.0272  0.7292  1.0000  -0.5719   0.0000   0.0000   0.0000   0.3849
   0.100   0.2169   0.01522   0.00790  -0.0256  0.7209  1.0000  -0.5905   0.0000   0.0000   0.0000   0.3673
   0.200   0.2247   0.01535   0.00797  -0.0247  0.7167  1.0000  -0.5997   0.0000   0.0000   0.0000   0.3594
   0.300   0.2334   0.01560   0.00815  -0.0243  0.7122  1.0000  -0.6090   0.0000   0.0000   0.0000   0.3533
   0.400   0.2442   0.01563   0.00818  -0.0244  0.7082  1.0000  -0.6203   0.0000   0.0000   0.0000   0.3491
   0.500   0.2548   0.01570   0.00823  -0.0245  0.7038  1.0000  -0.6323   0.0000   0.0000   0.0000   0.3452
   0.600   0.2651   0.01578   0.00829  -0.0245  0.6991  1.0000  -0.6442   0.0000   0.0000   0.0000   0.3412
   0.700   0.2750   0.01585   0.00834  -0.0243  0.6942  1.0000  -0.6560   0.0000   0.0000   0.0000   0.3371
   0.800   0.2844   0.01590   0.00836  -0.0239  0.6893  1.0000  -0.6677   0.0000   0.0000   0.0000   0.3328
   0.900   0.2935   0.01594   0.00836  -0.0234  0.6847  1.0000  -0.6794   0.0000   0.0000   0.0000   0.3284
   1.000   0.3024   0.01597   0.00834  -0.0228  0.6803  1.0000  -0.6911   0.0000   0.0000   0.0000   0.3239
   1.100   0.3110   0.01599   0.00831  -0.0221  0.6761  1.0000  -0.7028   0.0000   0.0000   0.0000   0.3194
   1.200   0.3194   0.01603   0.00829  -0.0213  0.6722  1.0000  -0.7145   0.0000   0.0000   0.0000   0.3150
   1.300   0.3278   0.01615   0.00834  -0.0205  0.6681  1.0000  -0.7260   0.0000   0.0000   0.0000   0.3108
   1.400   0.3364   0.01644   0.00858  -0.0200  0.6633  1.0000  -0.7372   0.0000   0.0000   0.0000   0.3076
   1.500   0.3472   0.01647   0.00862  -0.0201  0.6593  1.0000  -0.7498   0.0000   0.0000   0.0000   0.3060
   1.600   0.3578   0.01653   0.00870  -0.0202  0.6546  1.0000  -0.7635   0.0000   0.0000   0.0000   0.3043
   1.700   0.3681   0.01662   0.00880  -0.0201  0.6497  1.0000  -0.7780   0.0000   0.0000   0.0000   0.3026
   1.800   0.3782   0.01670   0.00887  -0.0200  0.6448  1.0000  -0.7924   0.0000   0.0000   0.0000   0.3006
   1.900   0.3879   0.01676   0.00891  -0.0196  0.6399  1.0000  -0.8068   0.0000   0.0000   0.0000   0.2984
   2.000   0.3973   0.01678   0.00892  -0.0192  0.6353  1.0000  -0.8213   0.0000   0.0000   0.0000   0.2959
   2.100   0.4066   0.01679   0.00896  -0.0186  0.6308  1.0000  -0.8359   0.0000   0.0000   0.0000   0.2933
   2.200   0.4156   0.01679   0.00891  -0.0179  0.6266  1.0000  -0.8505   0.0000   0.0000   0.0000   0.2906
   2.300   0.4245   0.01680   0.00887  -0.0172  0.6226  1.0000  -0.8652   0.0000   0.0000   0.0000   0.2879
   2.400   0.4333   0.01688   0.00889  -0.0165  0.6183  1.0000  -0.8797   0.0000   0.0000   0.0000   0.2853
   2.500   0.4421   0.01720   0.00915  -0.0160  0.6131  1.0000  -0.8936   0.0000   0.0000   0.0000   0.2834
   2.600   0.4528   0.01721   0.00920  -0.0160  0.6089  1.0000  -0.9115   0.0000   0.0000   0.0000   0.2825
   2.700   0.4633   0.01728   0.00929  -0.0160  0.6037  1.0000  -0.9293   0.0000   0.0000   0.0000   0.2817
   2.800   0.4735   0.01735   0.00938  -0.0159  0.5984  1.0000  -0.9470   0.0000   0.0000   0.0000   0.2807
   2.900   0.4835   0.01742   0.00945  -0.0157  0.5932  1.0000  -0.9648   0.0000   0.0000   0.0000   0.2795
   3.000   0.4934   0.01746   0.00948  -0.0154  0.5882  1.0000  -0.9828   0.0000   0.0000   0.0000   0.2781
   3.100   0.5031   0.01747   0.00946  -0.0149  0.5834  1.0000  -1.0009   0.0000   0.0000   0.0000   0.2765
   3.200   0.5126   0.01745   0.00940  -0.0144  0.5789  1.0000  -1.0193   0.0000   0.0000   0.0000   0.2747
   3.300   0.5221   0.01742   0.00933  -0.0137  0.5745  1.0000  -1.0378   0.0000   0.0000   0.0000   0.2729
   3.400   0.5314   0.01743   0.00929  -0.0131  0.5701  1.0000  -1.0562   0.0000   0.0000   0.0000   0.2711
   3.500   0.5404   0.01763   0.00941  -0.0124  0.5650  1.0000  -1.0742   0.0000   0.0000   0.0000   0.2695
   3.600   0.5504   0.01779   0.00959  -0.0123  0.5599  1.0000  -1.0922   0.0000   0.0000   0.0000   0.2688
   3.700   0.5609   0.01783   0.00968  -0.0123  0.5544  1.0000  -1.1106   0.0000   0.0000   0.0000   0.2683
   3.800   0.5711   0.01789   0.00977  -0.0122  0.5484  1.0000  -1.1323   0.0000   0.0000   0.0000   0.2676
   3.900   0.5812   0.01793   0.00982  -0.0120  0.5426  1.0000  -1.1549   0.0000   0.0000   0.0000   0.2667
   4.000   0.5912   0.01796   0.00985  -0.0116  0.5373  1.0000  -1.1778   0.0000   0.0000   0.0000   0.2657
   4.100   0.6012   0.01796   0.00984  -0.0112  0.5322  1.0000  -1.2009   0.0000   0.0000   0.0000   0.2647
   4.200   0.6110   0.01794   0.00978  -0.0107  0.5274  1.0000  -1.2243   0.0000   0.0000   0.0000   0.2635
   4.300   0.6208   0.01792   0.00972  -0.0102  0.5227  1.0000  -1.2478   0.0000   0.0000   0.0000   0.2622
   4.400   0.6303   0.01800   0.00972  -0.0096  0.5175  1.0000  -1.2711   0.0000   0.0000   0.0000   0.2610
   4.500   0.6398   0.01830   0.00998  -0.0093  0.5113  1.0000  -1.2934   0.0000   0.0000   0.0000   0.2601
   4.600   0.6502   0.01832   0.01008  -0.0092  0.5059  1.0000  -1.3165   0.0000   0.0000   0.0000   0.2598
   4.700   0.6604   0.01837   0.01018  -0.0091  0.4993  1.0000  -1.3397   0.0000   0.0000   0.0000   0.2593
   4.800   0.6705   0.01838   0.01021  -0.0089  0.4927  1.0000  -1.3638   0.0000   0.0000   0.0000   0.2586
   4.900   0.6806   0.01837   0.01019  -0.0085  0.4863  1.0000  -1.3930   0.0000   0.0000   0.0000   0.2578
   5.000   0.6906   0.01834   0.01014  -0.0081  0.4805  1.0000  -1.4226   0.0000   0.0000   0.0000   0.2569
   5.100   0.7006   0.01832   0.01009  -0.0076  0.4752  1.0000  -1.4524   0.0000   0.0000   0.0000   0.2560
   5.200   0.7105   0.01838   0.01007  -0.0071  0.4696  1.0000  -1.4822   0.0000   0.0000   0.0000   0.2550
   5.300   0.7199   0.01874   0.01034  -0.0067  0.4624  1.0000  -1.5106   0.0000   0.0000   0.0000   0.2542
   5.400   0.7302   0.01878   0.01048  -0.0067  0.4571  1.0000  -1.5397   0.0000   0.0000   0.0000   0.2540
   5.500   0.7403   0.01884   0.01060  -0.0066  0.4502  1.0000  -1.5690   0.0000   0.0000   0.0000   0.2536
   5.600   0.7504   0.01886   0.01065  -0.0063  0.4429  1.0000  -1.5990   0.0000   0.0000   0.0000   0.2530
   5.700   0.7604   0.01884   0.01062  -0.0060  0.4358  1.0000  -1.6363   0.0000   0.0000   0.0000   0.2524
   5.800   0.7707   0.01881   0.01093  -0.0056  0.4304  1.0000  -1.6783   0.0000   0.0000   0.0000   0.2516
   5.900   0.7807   0.01880   0.01088  -0.0052  0.4247  1.0000  -1.7154   0.0000   0.0000   0.0000   0.2509
   6.000   0.7905   0.01893   0.01093  -0.0048  0.4183  1.0000  -1.7526   0.0000   0.0000   0.0000   0.2502
   6.100   0.8002   0.01926   0.01124  -0.0046  0.4115  1.0000  -1.7881   0.0000   0.0000   0.0000   0.2498
   6.200   0.8102   0.01936   0.01145  -0.0045  0.4058  1.0000  -1.8245   0.0000   0.0000   0.0000   0.2495
   6.300   0.8202   0.01948   0.01163  -0.0044  0.3992  1.0000  -1.8614   0.0000   0.0000   0.0000   0.2492
   6.400   0.8302   0.01955   0.01173  -0.0042  0.3922  1.0000  -1.8993   0.0000   0.0000   0.0000   0.2488
   6.500   0.8402   0.01959   0.01175  -0.0039  0.3853  1.0000  -1.9381   0.0000   0.0000   0.0000   0.2482
   6.600   0.8501   0.01961   0.01173  -0.0035  0.3787  1.0000  -1.9775   0.0000   0.0000   0.0000   0.2476
   6.700   0.8598   0.01977   0.01178  -0.0031  0.3714  1.0000  -2.0166   0.0000   0.0000   0.0000   0.2470
   6.800   0.8692   0.02016   0.01213  -0.0029  0.3637  1.0000  -2.0776   0.0000   0.0000   0.0000   0.2466
   6.900   0.8790   0.02024   0.01232  -0.0028  0.3572  1.0000  -2.1509   0.0000   0.0000   0.0000   0.2463
   7.000   0.8887   0.02033   0.01247  -0.0026  0.3496  1.0000  -2.2258   0.0000   0.0000   0.0000   0.2460
   7.100   0.8984   0.02040   0.01255  -0.0024  0.3421  1.0000  -2.3026   0.0000   0.0000   0.0000   0.2456
   7.200   0.9081   0.02047   0.01260  -0.0021  0.3351  1.0000  -2.3807   0.0000   0.0000   0.0000   0.2451
   7.300   0.9177   0.02066   0.01269  -0.0018  0.3281  1.0000  -2.4591   0.0000   0.0000   0.0000   0.2446
   7.400   0.9268   0.02126   0.01317  -0.0015  0.3193  1.0000  -2.5328   0.0000   0.0000   0.0000   0.2441
   7.500   0.9362   0.02140   0.01345  -0.0014  0.3141  1.0000  -2.6090   0.0000   0.0000   0.0000   0.2439
   7.600   0.9456   0.02158   0.01371  -0.0012  0.3073  1.0000  -2.6864   0.0000   0.0000   0.0000   0.2436
   7.700   0.9551   0.02172   0.01388  -0.0010  0.2999  1.0000  -2.7661   0.0000   0.0000   0.0000   0.2432
   7.800   0.9644   0.02183   0.01398  -0.0008  0.2926  1.0000  -2.8482   0.0000   0.0000   0.0000   0.2428
   7.900   0.9736   0.02200   0.01407  -0.0004  0.2852  1.0000  -2.9313   0.0000   0.0000   0.0000   0.2423
   8.000   0.9821   0.02267   0.01456  -0.0001  0.2752  1.0000  -3.0090   0.0000   0.0000   0.0000   0.2419
   8.100   0.9910   0.02263   0.01466   0.0000  0.2687  1.0000  -3.0920   0.0000   0.0000   0.0000   0.2416
   8.200   0.9998   0.02257   0.01465   0.0002  0.2593  1.0000  -3.1787   0.0000   0.0000   0.0000   0.2412
   8.300   1.0082   0.02246   0.01449   0.0005  0.2491  1.0000  -3.2689   0.0000   0.0000   0.0000   0.2408
   8.400   1.0158   0.02266   0.01447   0.0008  0.2375  1.0000  -3.3556   0.0000   0.0000   0.0000   0.2404
   8.500   1.0238   0.02278   0.01462   0.0009  0.2278  1.0000  -3.4418   0.0000   0.0000   0.0000   0.2401
   8.600   1.0319   0.02276   0.01466   0.0010  0.2170  1.0000  -3.5319   0.0000   0.0000   0.0000   0.2398
   8.700   1.0392   0.02288   0.01468   0.0012  0.2056  1.0000  -3.6208   0.0000   0.0000   0.0000   0.2395
   8.800   1.0455   0.02331   0.01490   0.0014  0.1942  1.0000  -3.7022   0.0000   0.0000   0.0000   0.2391
   8.900   1.0541   0.02341   0.01514   0.0015  0.1857  1.0000  -3.7944   0.0000   0.0000   0.0000   0.2390
   9.000   1.0619   0.02364   0.01539   0.0016  0.1765  1.0000  -3.8843   0.0000   0.0000   0.0000   0.2387
   9.100   1.0691   0.02399   0.01569   0.0018  0.1691  1.0000  -3.9704   0.0000   0.0000   0.0000   0.2384
   9.200   1.0756   0.02443   0.01606   0.0020  0.1628  1.0000  -4.0526   0.0000   0.0000   0.0000   0.2381
   9.300   1.0861   0.02521   0.01747   0.0026  0.1708  1.0000  -4.0408   0.0000   0.0000   0.0000   0.2374
   9.400   1.0922   0.02567   0.01783   0.0029  0.1638  1.0000  -4.1113   0.0000   0.0000   0.0000   0.2370
   9.500   1.0986   0.02611   0.01824   0.0032  0.1562  1.0000  -4.1890   0.0000   0.0000   0.0000   0.2367
   9.600   1.1060   0.02628   0.01852   0.0033  0.1491  1.0000  -4.2777   0.0000   0.0000   0.0000   0.2364
   9.700   1.1127   0.02654   0.01883   0.0034  0.1419  1.0000  -4.3659   0.0000   0.0000   0.0000   0.2362
   9.800   1.1188   0.02694   0.01921   0.0036  0.1361  1.0000  -4.4499   0.0000   0.0000   0.0000   0.2358
   9.900   1.1241   0.02744   0.01967   0.0039  0.1314  1.0000  -4.5293   0.0000   0.0000   0.0000   0.2354
  10.000   1.1288   0.02809   0.02027   0.0043  0.1263  1.0000  -4.6037   0.0000   0.0000   0.0000   0.2349
  10.100   1.1358   0.02845   0.02072   0.0046  0.1230  1.0000  -4.6933   0.0000   0.0000   0.0000   0.2346
  10.200   1.1426   0.02882   0.02121   0.0048  0.1192  1.0000  -4.7825   0.0000   0.0000   0.0000   0.2343
  10.300   1.1488   0.02923   0.02172   0.0051  0.1151  1.0000  -4.8695   0.0000   0.0000   0.0000   0.2339
  10.400   1.1540   0.02966   0.02220   0.0054  0.1100  1.0000  -4.9544   0.0000   0.0000   0.0000   0.2335
  10.500   1.1568   0.03018   0.02267   0.0056  0.1035  1.0000  -5.0302   0.0000   0.0000   0.0000   0.2332
  10.600   1.1566   0.03101   0.02339   0.0059  0.0964  1.0000  -5.0845   0.0000   0.0000   0.0000   0.2327
  10.700   1.1628   0.03129   0.02377   0.0059  0.0869  1.0000  -5.1836   0.0000   0.0000   0.0000   0.2326
  10.800   1.1645   0.03197   0.02442   0.0061  0.0789  1.0000  -5.2489   0.0000   0.0000   0.0000   0.2323
  10.900   1.1626   0.03285   0.02526   0.0065  0.0736  1.0000  -5.2872   0.0000   0.0000   0.0000   0.2317
  11.000   1.1623   0.03369   0.02611   0.0069  0.0678  1.0000  -5.3301   0.0000   0.0000   0.0000   0.2312
  11.100   1.1624   0.03456   0.02703   0.0071  0.0595  1.0000  -5.3712   0.0000   0.0000   0.0000   0.2309
  11.200   1.1585   0.03580   0.02821   0.0072  0.0530  1.0000  -5.3860   0.0000   0.0000   0.0000   0.2306
  11.300   1.1537   0.03721   0.02958   0.0073  0.0473  1.0000  -5.3880   0.0000   0.0000   0.0000   0.2303
  11.400   1.1503   0.03859   0.03099   0.0073  0.0404  1.0000  -5.3888   0.0000   0.0000   0.0000   0.2301
  11.500   1.1448   0.04018   0.03254   0.0072  0.0362  1.0000  -5.3816   0.0000   0.0000   0.0000   0.2300
  11.600   1.1384   0.04192   0.03425   0.0069  0.0334  1.0000  -5.3680   0.0000   0.0000   0.0000   0.2301
  11.700   1.1312   0.04381   0.03615   0.0065  0.0313  1.0000  -5.3429   0.0000   0.0000   0.0000   0.2302
  11.800   1.1271   0.04541   0.03778   0.0063  0.0295  1.0000  -5.3366   0.0000   0.0000   0.0000   0.2302
  11.900   1.1232   0.04702   0.03947   0.0059  0.0280  1.0000  -5.3334   0.0000   0.0000   0.0000   0.2303
  12.000   1.1193   0.04864   0.04116   0.0056  0.0267  1.0000  -5.3320   0.0000   0.0000   0.0000   0.2304
  12.100   1.1153   0.05028   0.04286   0.0052  0.0256  1.0000  -5.3320   0.0000   0.0000   0.0000   0.2305
  12.200   1.1112   0.05199   0.04463   0.0047  0.0248  1.0000  -5.3319   0.0000   0.0000   0.0000   0.2308
  12.300   1.1071   0.05372   0.04641   0.0042  0.0241  1.0000  -5.3330   0.0000   0.0000   0.0000   0.2311
  12.400   1.1031   0.05546   0.04821   0.0036  0.0234  1.0000  -5.3350   0.0000   0.0000   0.0000   0.2314
  12.500   1.0989   0.05728   0.05009   0.0030  0.0228  1.0000  -5.3348   0.0000   0.0000   0.0000   0.2318
  12.600   1.0946   0.05914   0.05201   0.0023  0.0224  1.0000  -5.3339   0.0000   0.0000   0.0000   0.2322
  12.700   1.0904   0.06101   0.05393   0.0016  0.0219  1.0000  -5.3331   0.0000   0.0000   0.0000   0.2327
  12.800   1.0861   0.06289   0.05586   0.0009  0.0215  1.0000  -5.3311   0.0000   0.0000   0.0000   0.2331
  12.900   1.0816   0.06486   0.05788   0.0001  0.0211  1.0000  -5.3257   0.0000   0.0000   0.0000   0.2337
  13.000   1.0771   0.06684   0.05991  -0.0007  0.0208  1.0000  -5.3198   0.0000   0.0000   0.0000   0.2342
  13.100   1.0726   0.06881   0.06193  -0.0014  0.0205  1.0000  -5.3136   0.0000   0.0000   0.0000   0.2348
  13.200   1.0682   0.07078   0.06395  -0.0022  0.0202  1.0000  -5.3062   0.0000   0.0000   0.0000   0.2354
  13.300   1.0634   0.07279   0.06601  -0.0030  0.0200  1.0000  -5.2959   0.0000   0.0000   0.0000   0.2360
  13.400   1.0587   0.07481   0.06809  -0.0038  0.0198  1.0000  -5.2845   0.0000   0.0000   0.0000   0.2366
  13.500   1.0543   0.07681   0.07014  -0.0046  0.0195  1.0000  -5.2741   0.0000   0.0000   0.0000   0.2372
  13.600   1.0502   0.07880   0.07218  -0.0053  0.0193  1.0000  -5.2648   0.0000   0.0000   0.0000   0.2377
  13.700   1.0465   0.08077   0.07421  -0.0060  0.0190  1.0000  -5.2558   0.0000   0.0000   0.0000   0.2382
  13.800   1.0429   0.08274   0.07623  -0.0067  0.0187  1.0000  -5.2465   0.0000   0.0000   0.0000   0.2387
  13.900   1.0393   0.08477   0.07832  -0.0074  0.0185  1.0000  -5.2347   0.0000   0.0000   0.0000   0.2393
  14.000   1.0357   0.08684   0.08044  -0.0082  0.0183  1.0000  -5.2215   0.0000   0.0000   0.0000   0.2399
  14.100   1.0321   0.08892   0.08259  -0.0089  0.0181  1.0000  -5.2065   0.0000   0.0000   0.0000   0.2405
  14.200   1.0285   0.09103   0.08477  -0.0097  0.0180  1.0000  -5.1896   0.0000   0.0000   0.0000   0.2411
  14.300   1.0249   0.09320   0.08700  -0.0105  0.0178  1.0000  -5.1707   0.0000   0.0000   0.0000   0.2418
  14.400   1.0210   0.09546   0.08934  -0.0115  0.0177  1.0000  -5.1487   0.0000   0.0000   0.0000   0.2426
  14.500   1.0168   0.09782   0.09177  -0.0125  0.0177  1.0000  -5.1236   0.0000   0.0000   0.0000   0.2436
  14.600   1.0123   0.10031   0.09433  -0.0138  0.0176  1.0000  -5.0948   0.0000   0.0000   0.0000   0.2448
  14.700   1.0078   0.10284   0.09693  -0.0151  0.0176  1.0000  -5.0645   0.0000   0.0000   0.0000   0.2460
  14.800   1.0033   0.10539   0.09956  -0.0164  0.0176  1.0000  -5.0328   0.0000   0.0000   0.0000   0.2472
  14.900   0.9987   0.10798   0.10220  -0.0177  0.0176  1.0000  -4.9993   0.0000   0.0000   0.0000   0.2486
  15.000   0.9941   0.11062   0.10491  -0.0192  0.0176  1.0000  -4.9634   0.0000   0.0000   0.0000   0.2500
  15.100   0.9892   0.11340   0.10776  -0.0208  0.0176  1.0000  -4.9237   0.0000   0.0000   0.0000   0.2516
  15.200   0.9844   0.11619   0.11060  -0.0224  0.0177  1.0000  -4.8824   0.0000   0.0000   0.0000   0.2532
  15.300   0.9796   0.11897   0.11345  -0.0240  0.0177  1.0000  -4.8393   0.0000   0.0000   0.0000   0.2549
  15.400   0.9748   0.12181   0.11634  -0.0256  0.0178  1.0000  -4.7934   0.0000   0.0000   0.0000   0.2566
  15.500   0.9697   0.12481   0.11939  -0.0274  0.0179  1.0000  -4.7418   0.0000   0.0000   0.0000   0.2585
  15.600   0.9646   0.12782   0.12246  -0.0292  0.0180  1.0000  -4.6873   0.0000   0.0000   0.0000   0.2605
  15.700   0.9596   0.13082   0.12551  -0.0310  0.0181  1.0000  -4.6294   0.0000   0.0000   0.0000   0.2624
  15.800   0.9545   0.13385   0.12858  -0.0328  0.0182  1.0000  -4.5656   0.0000   0.0000   0.0000   0.2644
  15.900   0.9488   0.13706   0.13184  -0.0347  0.0184  1.0000  -4.4906   0.0000   0.0000   0.0000   0.2667
  16.000   0.9429   0.14039   0.13523  -0.0367  0.0186  1.0000  -4.4058   0.0000   0.0000   0.0000   0.2690
  16.100   0.9365   0.14403   0.13892  -0.0388  0.0189  1.0000  -4.3032   0.0000   0.0000   0.0000   0.2715
  16.200   0.9251   0.14944   0.14440  -0.0418  0.0195  1.0000  -4.1014   0.0000   0.0000   0.0000   0.2754
  16.300   0.8839   0.16597   0.16095  -0.0492  0.0232  1.0000  -3.2523   0.0000   0.0000   0.0000   0.2872
  16.400   0.8778   0.17057   0.16552  -0.0512  0.0237  1.0000  -3.0951   0.0000   0.0000   0.0000   0.2899
  16.500   0.8735   0.17462   0.16954  -0.0529  0.0239  1.0000  -2.9708   0.0000   0.0000   0.0000   0.2923
  16.600   0.8704   0.17828   0.17318  -0.0544  0.0241  1.0000  -2.8696   0.0000   0.0000   0.0000   0.2943
  16.700   0.8681   0.18170   0.17658  -0.0558  0.0242  1.0000  -2.7824   0.0000   0.0000   0.0000   0.2961
  16.800   0.8664   0.18496   0.17982  -0.0571  0.0243  1.0000  -2.7050   0.0000   0.0000   0.0000   0.2977
  16.900   0.8651   0.18810   0.18295  -0.0584  0.0244  1.0000  -2.6351   0.0000   0.0000   0.0000   0.2993
  17.000   0.8641   0.19114   0.18597  -0.0596  0.0244  1.0000  -2.5714   0.0000   0.0000   0.0000   0.3007
  17.100   0.8635   0.19410   0.18892  -0.0607  0.0245  1.0000  -2.5129   0.0000   0.0000   0.0000   0.3020
  17.200   0.8631   0.19699   0.19180  -0.0618  0.0246  1.0000  -2.4587   0.0000   0.0000   0.0000   0.3033
  17.300   0.8629   0.19982   0.19462  -0.0629  0.0248  1.0000  -2.4084   0.0000   0.0000   0.0000   0.3045
  17.400   0.8629   0.20260   0.19739  -0.0639  0.0249  1.0000  -2.3616   0.0000   0.0000   0.0000   0.3057
  17.500   0.8630   0.20533   0.20012  -0.0649  0.0251  1.0000  -2.3181   0.0000   0.0000   0.0000   0.3067
  17.600   0.8634   0.20803   0.20280  -0.0659  0.0253  1.0000  -2.2775   0.0000   0.0000   0.0000   0.3078
  17.700   0.8638   0.21068   0.20545  -0.0668  0.0255  1.0000  -2.2398   0.0000   0.0000   0.0000   0.3088
  17.800   0.8643   0.21331   0.20808  -0.0677  0.0258  1.0000  -2.2035   0.0000   0.0000   0.0000   0.3097
  17.900   0.8649   0.21591   0.21067  -0.0686  0.0261  1.0000  -2.1696   0.0000   0.0000   0.0000   0.3106
  18.000   0.8656   0.21847   0.21323  -0.0695  0.0264  1.0000  -2.1388   0.0000   0.0000   0.0000   0.3115
  18.100   0.8665   0.22099   0.21574  -0.0703  0.0267  1.0000  -2.1112   0.0000   0.0000   0.0000   0.3123
  18.200   0.8674   0.22346   0.21821  -0.0711  0.0271  1.0000  -2.0870   0.0000   0.0000   0.0000   0.3130
  18.300   0.8686   0.22589   0.22064  -0.0718  0.0275  1.0000  -2.0666   0.0000   0.0000   0.0000   0.3136
  18.400   0.8698   0.22828   0.22302  -0.0724  0.0280  1.0000  -2.0505   0.0000   0.0000   0.0000   0.3141
  18.500   0.8713   0.23062   0.22537  -0.0730  0.0285  1.0000  -2.0398   0.0000   0.0000   0.0000   0.3145
  18.600   0.8728   0.23301   0.22776  -0.0735  0.0291  1.0000  -2.0324   0.0000   0.0000   0.0000   0.3148
  18.700   0.8742   0.23563   0.23039  -0.0737  0.0300  1.0000  -2.0313   0.0000   0.0000   0.0000   0.3147
  18.800   0.8780   0.24896   0.24376  -0.0724  0.0488  1.0000  -1.8087   0.0000   0.0000   0.0000   0.3134
  18.900   0.8796   0.25156   0.24637  -0.0731  0.0488  1.0000  -1.7991   0.0000   0.0000   0.0000   0.3139
  19.000   0.8812   0.25413   0.24894  -0.0738  0.0488  1.0000  -1.7895   0.0000   0.0000   0.0000   0.3144
  19.100   0.8827   0.25668   0.25149  -0.0745  0.0488  1.0000  -1.7801   0.0000   0.0000   0.0000   0.3150
  19.200   0.8842   0.25921   0.25403  -0.0752  0.0488  1.0000  -1.7708   0.0000   0.0000   0.0000   0.3155
  19.300   0.8856   0.26173   0.25654  -0.0758  0.0488  1.0000  -1.7616   0.0000   0.0000   0.0000   0.3160
  19.400   0.8870   0.26422   0.25904  -0.0765  0.0488  1.0000  -1.7525   0.0000   0.0000   0.0000   0.3166
  19.500   0.8884   0.26670   0.26152  -0.0772  0.0488  1.0000  -1.7434   0.0000   0.0000   0.0000   0.3171
  19.600   0.8897   0.26915   0.26398  -0.0779  0.0488  1.0000  -1.7344   0.0000   0.0000   0.0000   0.3177
  19.700   0.8910   0.27158   0.26641  -0.0786  0.0488  1.0000  -1.7254   0.0000   0.0000   0.0000   0.3182
  19.800   0.8922   0.27399   0.26882  -0.0793  0.0488  1.0000  -1.7163   0.0000   0.0000   0.0000   0.3188
  19.900   0.8933   0.27637   0.27121  -0.0800  0.0488  1.0000  -1.7072   0.0000   0.0000   0.0000   0.3193
  20.000   0.8944   0.27872   0.27357  -0.0807  0.0488  1.0000  -1.6981   0.0000   0.0000   0.0000   0.3199
  20.100   0.8954   0.28105   0.27589  -0.0814  0.0487  1.0000  -1.6889   0.0000   0.0000   0.0000   0.3205
  20.200   0.8964   0.28334   0.27819  -0.0821  0.0487  1.0000  -1.6796   0.0000   0.0000   0.0000   0.3211
  20.300   0.8972   0.28559   0.28045  -0.0828  0.0487  1.0000  -1.6701   0.0000   0.0000   0.0000   0.3216
  20.400   0.8980   0.28781   0.28267  -0.0835  0.0487  1.0000  -1.6605   0.0000   0.0000   0.0000   0.3222
  20.500   0.8987   0.28998   0.28485  -0.0842  0.0486  1.0000  -1.6507   0.0000   0.0000   0.0000   0.3228
  20.600   0.8993   0.29212   0.28699  -0.0849  0.0486  1.0000  -1.6407   0.0000   0.0000   0.0000   0.3235
  20.700   0.8998   0.29422   0.28909  -0.0856  0.0485  1.0000  -1.6306   0.0000   0.0000   0.0000   0.3241
  20.800   0.9001   0.29626   0.29114  -0.0864  0.0485  1.0000  -1.6201   0.0000   0.0000   0.0000   0.3247
  20.900   0.9004   0.29824   0.29313  -0.0871  0.0484  1.0000  -1.6093   0.0000   0.0000   0.0000   0.3253
  21.000   0.9003   0.30015   0.29504  -0.0878  0.0484  1.0000  -1.5968   0.0000   0.0000   0.0000   0.3261
  21.100   0.8996   0.30191   0.29681  -0.0886  0.0483  1.0000  -1.5809   0.0000   0.0000   0.0000   0.3269
  21.200   0.8986   0.30359   0.29849  -0.0894  0.0482  1.0000  -1.5640   0.0000   0.0000   0.0000   0.3278
  21.300   0.8971   0.30512   0.30003  -0.0902  0.0481  1.0000  -1.5443   0.0000   0.0000   0.0000   0.3288
  21.400   0.8954   0.30658   0.30149  -0.0910  0.0480  1.0000  -1.5237   0.0000   0.0000   0.0000   0.3298
  21.500   0.8934   0.30794   0.30286  -0.0919  0.0479  1.0000  -1.5018   0.0000   0.0000   0.0000   0.3309
  21.600   0.8912   0.30922   0.30414  -0.0927  0.0477  1.0000  -1.4786   0.0000   0.0000   0.0000   0.3320
  21.700   0.8888   0.31042   0.30535  -0.0936  0.0474  1.0000  -1.4536   0.0000   0.0000   0.0000   0.3331
  21.800   0.8864   0.31156   0.30650  -0.0945  0.0471  1.0000  -1.4271   0.0000   0.0000   0.0000   0.3344
  21.900   0.8839   0.31274   0.30769  -0.0954  0.0466  1.0000  -1.4001   0.0000   0.0000   0.0000   0.3356
  22.000   0.8817   0.31403   0.30898  -0.0961  0.0460  1.0000  -1.3752   0.0000   0.0000   0.0000   0.3367
  22.100   0.8794   0.31540   0.31037  -0.0968  0.0454  1.0000  -1.3537   0.0000   0.0000   0.0000   0.3376
  22.200   0.8770   0.31676   0.31174  -0.0972  0.0448  1.0000  -1.3350   0.0000   0.0000   0.0000   0.3384
  22.300   0.8739   0.31797   0.31297  -0.0975  0.0442  1.0000  -1.3174   0.0000   0.0000   0.0000   0.3390
  22.400   0.8544   0.31498   0.31006  -0.0957  0.0441  1.0000  -1.2679   0.0000   0.0000   0.0000   0.3397
  22.500   0.8416   0.31306   0.30820  -0.0947  0.0438  1.0000  -1.2325   0.0000   0.0000   0.0000   0.3404
  22.600   0.8342   0.31240   0.30756  -0.0943  0.0433  1.0000  -1.2087   0.0000   0.0000   0.0000   0.3410
  22.700   0.8285   0.31212   0.30732  -0.0941  0.0429  1.0000  -1.1893   0.0000   0.0000   0.0000   0.3416
  22.800   0.8239   0.31206   0.30728  -0.0941  0.0424  1.0000  -1.1727   0.0000   0.0000   0.0000   0.3422
  22.900   0.8199   0.31212   0.30737  -0.0941  0.0419  1.0000  -1.1580   0.0000   0.0000   0.0000   0.3427
  23.000   0.8164   0.31227   0.30754  -0.0941  0.0415  1.0000  -1.1449   0.0000   0.0000   0.0000   0.3432
  23.100   0.8133   0.31248   0.30777  -0.0942  0.0410  1.0000  -1.1331   0.0000   0.0000   0.0000   0.3437
  23.200   0.8105   0.31273   0.30804  -0.0943  0.0405  1.0000  -1.1223   0.0000   0.0000   0.0000   0.3442
  23.300   0.8079   0.31301   0.30835  -0.0945  0.0401  1.0000  -1.1125   0.0000   0.0000   0.0000   0.3447
  23.400   0.8055   0.31333   0.30868  -0.0946  0.0396  1.0000  -1.1037   0.0000   0.0000   0.0000   0.3452
  23.500   0.8034   0.31367   0.30904  -0.0948  0.0392  1.0000  -1.0956   0.0000   0.0000   0.0000   0.3456
  23.600   0.8014   0.31403   0.30942  -0.0949  0.0387  1.0000  -1.0883   0.0000   0.0000   0.0000   0.3461
  23.700   0.7996   0.31441   0.30982  -0.0951  0.0383  1.0000  -1.0818   0.0000   0.0000   0.0000   0.3465
  23.800   0.7980   0.31480   0.31023  -0.0953  0.0379  1.0000  -1.0761   0.0000   0.0000   0.0000   0.3469
  23.900   0.7964   0.31521   0.31065  -0.0955  0.0375  1.0000  -1.0711   0.0000   0.0000   0.0000   0.3473
  24.000   0.7950   0.31562   0.31108  -0.0957  0.0370  1.0000  -1.0668   0.0000   0.0000   0.0000   0.3477
  24.100   0.7937   0.31604   0.31152  -0.0960  0.0366  1.0000  -1.0633   0.0000   0.0000   0.0000   0.3481
  24.200   0.7925   0.31646   0.31196  -0.0962  0.0362  1.0000  -1.0606   0.0000   0.0000   0.0000   0.3484
  24.300   0.7914   0.31690   0.31241  -0.0964  0.0359  1.0000  -1.0587   0.0000   0.0000   0.0000   0.3488
  24.400   0.7904   0.31733   0.31286  -0.0966  0.0355  1.0000  -1.0577   0.0000   0.0000   0.0000   0.3491
  24.500   0.7895   0.31777   0.31332  -0.0968  0.0351  1.0000  -1.0576   0.0000   0.0000   0.0000   0.3494
  24.600   0.7887   0.31822   0.31378  -0.0970  0.0347  1.0000  -1.0585   0.0000   0.0000   0.0000   0.3497
  24.700   0.7879   0.31867   0.31425  -0.0972  0.0344  1.0000  -1.0604   0.0000   0.0000   0.0000   0.3499
  24.800   0.7873   0.31913   0.31473  -0.0974  0.0340  1.0000  -1.0636   0.0000   0.0000   0.0000   0.3501
  24.900   0.7868   0.31961   0.31523  -0.0975  0.0337  1.0000  -1.0681   0.0000   0.0000   0.0000   0.3503
  25.000   0.7863   0.32013   0.31576  -0.0976  0.0334  1.0000  -1.0742   0.0000   0.0000   0.0000   0.3504
  25.100   0.7861   0.32070   0.31635  -0.0977  0.0330  1.0000  -1.0821   0.0000   0.0000   0.0000   0.3504
  25.200   0.7860   0.32137   0.31704  -0.0978  0.0327  1.0000  -1.0923   0.0000   0.0000   0.0000   0.3503
  25.300   0.7862   0.32224   0.31793  -0.0977  0.0324  1.0000  -1.1054   0.0000   0.0000   0.0000   0.3501
  25.400   0.7870   0.32354   0.31924  -0.0976  0.0321  1.0000  -1.1229   0.0000   0.0000   0.0000   0.3497
  25.500   0.7895   0.32607   0.32180  -0.0973  0.0317  1.0000  -1.1491   0.0000   0.0000   0.0000   0.3488
  25.600   0.7970   0.33584   0.33154  -0.0969  0.0310  1.0000  -1.1686   0.0000   0.0000   0.0000   0.3470
  25.700   0.7958   0.33616   0.33186  -0.0973  0.0310  1.0000  -1.1583   0.0000   0.0000   0.0000   0.3476
  25.800   0.7945   0.33644   0.33216  -0.0977  0.0310  1.0000  -1.1479   0.0000   0.0000   0.0000   0.3482
  25.900   0.7933   0.33669   0.33243  -0.0981  0.0309  1.0000  -1.1374   0.0000   0.0000   0.0000   0.3488
  26.000   0.7921   0.33694   0.33269  -0.0985  0.0309  1.0000  -1.1271   0.0000   0.0000   0.0000   0.3494
  26.100   0.7909   0.33719   0.33303  -0.0989  0.0309  1.0000  -1.1172   0.0000   0.0000   0.0000   0.3500
  26.200   0.7894   0.33729   0.33314  -0.0994  0.0309  1.0000  -1.1054   0.0000   0.0000   0.0000   0.3507
  26.300   0.7877   0.33727   0.33314  -0.0998  0.0309  1.0000  -1.0922   0.0000   0.0000   0.0000   0.3514
  26.400   0.7861   0.33727   0.33315  -0.1003  0.0308  1.0000  -1.0793   0.0000   0.0000   0.0000   0.3521
  26.500   0.7846   0.33728   0.33317  -0.1007  0.0308  1.0000  -1.0665   0.0000   0.0000   0.0000   0.3529
  26.600   0.7831   0.33729   0.33320  -0.1012  0.0308  1.0000  -1.0539   0.0000   0.0000   0.0000   0.3536
  26.700   0.7817   0.33731   0.33323  -0.1017  0.0307  1.0000  -1.0414   0.0000   0.0000   0.0000   0.3544
  26.800   0.7804   0.33734   0.33327  -0.1022  0.0307  1.0000  -1.0291   0.0000   0.0000   0.0000   0.3551
  26.900   0.7791   0.33738   0.33332  -0.1027  0.0307  1.0000  -1.0168   0.0000   0.0000   0.0000   0.3558
  27.000   0.7779   0.33743   0.33339  -0.1032  0.0306  1.0000  -1.0047   0.0000   0.0000   0.0000   0.3566
  27.100   0.7767   0.33749   0.33346  -0.1037  0.0306  1.0000  -0.9926   0.0000   0.0000   0.0000   0.3573
  27.200   0.7757   0.33757   0.33355  -0.1043  0.0305  1.0000  -0.9806   0.0000   0.0000   0.0000   0.3581
  27.300   0.7747   0.33767   0.33366  -0.1048  0.0304  1.0000  -0.9686   0.0000   0.0000   0.0000   0.3588
  27.400   0.7737   0.33779   0.33380  -0.1054  0.0304  1.0000  -0.9567   0.0000   0.0000   0.0000   0.3596
  27.500   0.7729   0.33794   0.33397  -0.1060  0.0303  1.0000  -0.9446   0.0000   0.0000   0.0000   0.3604
  27.600   0.7722   0.33814   0.33417  -0.1066  0.0302  1.0000  -0.9326   0.0000   0.0000   0.0000   0.3611
  27.700   0.7716   0.33839   0.33443  -0.1072  0.0301  1.0000  -0.9205   0.0000   0.0000   0.0000   0.3619
  27.800   0.7711   0.33870   0.33476  -0.1078  0.0299  1.0000  -0.9084   0.0000   0.0000   0.0000   0.3627
  27.900   0.7707   0.33910   0.33517  -0.1085  0.0298  1.0000  -0.8964   0.0000   0.0000   0.0000   0.3634
  28.000   0.7706   0.33958   0.33567  -0.1091  0.0296  1.0000  -0.8848   0.0000   0.0000   0.0000   0.3642
  28.100   0.7705   0.34016   0.33625  -0.1098  0.0293  1.0000  -0.8739   0.0000   0.0000   0.0000   0.3648
  28.200   0.7706   0.34081   0.33691  -0.1104  0.0290  1.0000  -0.8639   0.0000   0.0000   0.0000   0.3655
  28.300   0.7707   0.34150   0.33762  -0.1110  0.0287  1.0000  -0.8550   0.0000   0.0000   0.0000   0.3661
  28.400   0.7708   0.34222   0.33835  -0.1115  0.0284  1.0000  -0.8473   0.0000   0.0000   0.0000   0.3666
  28.500   0.7709   0.34295   0.33909  -0.1121  0.0280  1.0000  -0.8405   0.0000   0.0000   0.0000   0.3671
  28.600   0.7710   0.34367   0.33983  -0.1126  0.0277  1.0000  -0.8346   0.0000   0.0000   0.0000   0.3676
  28.700   0.7711   0.34439   0.34057  -0.1131  0.0273  1.0000  -0.8294   0.0000   0.0000   0.0000   0.3680
  28.800   0.7711   0.34511   0.34129  -0.1135  0.0269  1.0000  -0.8248   0.0000   0.0000   0.0000   0.3685
  28.900   0.7712   0.34582   0.34202  -0.1140  0.0266  1.0000  -0.8206   0.0000   0.0000   0.0000   0.3689
  29.000   0.7712   0.34652   0.34273  -0.1145  0.0263  1.0000  -0.8169   0.0000   0.0000   0.0000   0.3693
  29.100   0.7713   0.34722   0.34344  -0.1149  0.0259  1.0000  -0.8134   0.0000   0.0000   0.0000   0.3697
  29.200   0.7713   0.34791   0.34415  -0.1154  0.0256  1.0000  -0.8102   0.0000   0.0000   0.0000   0.3701
  29.300   0.7714   0.34860   0.34486  -0.1158  0.0253  1.0000  -0.8073   0.0000   0.0000   0.0000   0.3705
  29.400   0.7714   0.34929   0.34556  -0.1163  0.0250  1.0000  -0.8047   0.0000   0.0000   0.0000   0.3709
  29.500   0.7714   0.34997   0.34625  -0.1167  0.0247  1.0000  -0.8023   0.0000   0.0000   0.0000   0.3713
  29.600   0.7715   0.35065   0.34695  -0.1172  0.0244  1.0000  -0.8000   0.0000   0.0000   0.0000   0.3717
  29.700   0.7715   0.35133   0.34764  -0.1176  0.0241  1.0000  -0.7980   0.0000   0.0000   0.0000   0.3721
  29.800   0.7716   0.35200   0.34832  -0.1181  0.0238  1.0000  -0.7962   0.0000   0.0000   0.0000   0.3725
  29.900   0.7716   0.35267   0.34901  -0.1185  0.0235  1.0000  -0.7945   0.0000   0.0000   0.0000   0.3728
  30.000   0.7716   0.35334   0.34969  -0.1190  0.0232  1.0000  -0.7931   0.0000   0.0000   0.0000   0.3732


