xflr5 v6.61

 Calculated polar for: S5010

 1 1 Reynolds number fixed          Mach number fixed         

 xtrf =   1.000 (top)        1.000 (bottom)
 Mach =   0.000     Re =     1.000 e 6     Ncrit =   9.000

  alpha     CL        CD       CDp       Cm    Top Xtr Bot Xtr   Cpmin    Chinge    XCp    
 ------- -------- --------- --------- -------- ------- ------- -------- --------- ---------
 -10.000  -0.5598   0.11863   0.11710   0.0354  1.0000  0.0081  -1.9937   0.0000   0.0000   0.0000   0.3082
  -9.900  -0.5580   0.11722   0.11569   0.0347  1.0000  0.0083  -1.9844   0.0000   0.0000   0.0000   0.3072
  -9.800  -0.5562   0.11577   0.11425   0.0340  1.0000  0.0086  -1.9763   0.0000   0.0000   0.0000   0.3061
  -9.700  -0.5542   0.11427   0.11276   0.0332  1.0000  0.0090  -1.9696   0.0000   0.0000   0.0000   0.3049
  -9.600  -0.5523   0.11277   0.11126   0.0324  1.0000  0.0093  -1.9646   0.0000   0.0000   0.0000   0.3037
  -9.500  -0.5504   0.11124   0.10974   0.0315  1.0000  0.0097  -1.9615   0.0000   0.0000   0.0000   0.3025
  -9.200  -0.5424   0.10662   0.10495   0.0283  0.8917  0.0112  -1.9607   0.0000   0.0000   0.0000   0.2976
  -9.100  -0.5408   0.10531   0.10359   0.0277  0.8759  0.0117  -1.9638   0.0000   0.0000   0.0000   0.2967
  -9.000  -0.5384   0.10412   0.10236   0.0271  0.8624  0.0124  -1.9631   0.0000   0.0000   0.0000   0.2958
  -8.900  -0.5342   0.10333   0.10152   0.0266  0.8482  0.0131  -1.9421   0.0000   0.0000   0.0000   0.2953
  -8.800  -0.5282   0.10273   0.10091   0.0261  0.8409  0.0136  -1.8956   0.0000   0.0000   0.0000   0.2951
  -8.700  -0.5249   0.10165   0.09981   0.0255  0.8336  0.0138  -1.8777   0.0000   0.0000   0.0000   0.2943
  -8.600  -0.5226   0.10037   0.09851   0.0249  0.8263  0.0139  -1.8723   0.0000   0.0000   0.0000   0.2933
  -8.300  -0.5185   0.09611   0.09418   0.0227  0.8048  0.0141  -1.8835   0.0000   0.0000   0.0000   0.2897
  -8.200  -0.5172   0.09455   0.09262   0.0218  0.8014  0.0141  -1.8917   0.0000   0.0000   0.0000   0.2881
  -8.100  -0.5161   0.09297   0.09103   0.0209  0.7973  0.0141  -1.9016   0.0000   0.0000   0.0000   0.2865
  -8.000  -0.5152   0.09137   0.08942   0.0200  0.7929  0.0142  -1.9130   0.0000   0.0000   0.0000   0.2849
  -7.900  -0.5146   0.08976   0.08780   0.0191  0.7881  0.0142  -1.9259   0.0000   0.0000   0.0000   0.2832
  -7.800  -0.5142   0.08815   0.08618   0.0181  0.7831  0.0142  -1.9403   0.0000   0.0000   0.0000   0.2814
  -7.700  -0.5142   0.08652   0.08454   0.0171  0.7777  0.0142  -1.9563   0.0000   0.0000   0.0000   0.2796
  -7.600  -0.5144   0.08487   0.08287   0.0161  0.7716  0.0142  -1.9739   0.0000   0.0000   0.0000   0.2775
  -7.500  -0.5151   0.08320   0.08117   0.0149  0.7648  0.0142  -1.9936   0.0000   0.0000   0.0000   0.2753
  -7.400  -0.5164   0.08148   0.07945   0.0135  0.7601  0.0142  -2.0164   0.0000   0.0000   0.0000   0.2727
  -7.300  -0.5186   0.07971   0.07769   0.0119  0.7580  0.0142  -2.0435   0.0000   0.0000   0.0000   0.2695
  -7.200  -0.5203   0.07782   0.07580   0.0100  0.7556  0.0142  -2.0735   0.0000   0.0000   0.0000   0.2659
  -7.100  -0.5192   0.07565   0.07362   0.0078  0.7530  0.0143  -2.1023   0.0000   0.0000   0.0000   0.2618
  -7.000  -0.5177   0.07348   0.07143   0.0059  0.7501  0.0143  -2.1305   0.0000   0.0000   0.0000   0.2581
  -6.900  -0.5157   0.07131   0.06923   0.0042  0.7470  0.0143  -2.1580   0.0000   0.0000   0.0000   0.2549
  -6.800  -0.5134   0.06917   0.06705   0.0026  0.7438  0.0143  -2.1845   0.0000   0.0000   0.0000   0.2519
  -6.700  -0.5108   0.06705   0.06489   0.0013  0.7404  0.0143  -2.2099   0.0000   0.0000   0.0000   0.2493
  -6.600  -0.5079   0.06496   0.06275   0.0001  0.7368  0.0143  -2.2339   0.0000   0.0000   0.0000   0.2470
  -6.500  -0.5047   0.06290   0.06064  -0.0010  0.7328  0.0143  -2.2566   0.0000   0.0000   0.0000   0.2449
  -6.400  -0.5014   0.06081   0.05848  -0.0019  0.7285  0.0143  -2.2806   0.0000   0.0000   0.0000   0.2430
  -6.300  -0.4979   0.05874   0.05635  -0.0027  0.7237  0.0143  -2.3040   0.0000   0.0000   0.0000   0.2414
  -6.200  -0.4940   0.05667   0.05421  -0.0034  0.7185  0.0143  -2.3265   0.0000   0.0000   0.0000   0.2400
  -6.100  -0.4899   0.05465   0.05211  -0.0040  0.7135  0.0143  -2.3475   0.0000   0.0000   0.0000   0.2387
  -6.000  -0.4854   0.05260   0.05000  -0.0045  0.7122  0.0143  -2.3678   0.0000   0.0000   0.0000   0.2376
  -5.900  -0.4806   0.05057   0.04791  -0.0049  0.7111  0.0143  -2.3869   0.0000   0.0000   0.0000   0.2366
  -5.800  -0.4756   0.04857   0.04584  -0.0052  0.7097  0.0143  -2.4052   0.0000   0.0000   0.0000   0.2358
  -5.700  -0.4702   0.04656   0.04376  -0.0055  0.7081  0.0143  -2.4233   0.0000   0.0000   0.0000   0.2351
  -5.600  -0.4647   0.04458   0.04169  -0.0057  0.7062  0.0143  -2.4411   0.0000   0.0000   0.0000   0.2346
  -5.400  -0.4982   0.01506   0.00975  -0.0008  0.7081  0.0061  -4.9789   0.0000   0.0000   0.0000   0.2442
  -5.300  -0.4889   0.01389   0.00842  -0.0002  0.7060  0.0058  -4.9815   0.0000   0.0000   0.0000   0.2454
  -5.200  -0.4788   0.01325   0.00768   0.0002  0.7034  0.0056  -4.9087   0.0000   0.0000   0.0000   0.2461
  -5.100  -0.4686   0.01273   0.00707   0.0005  0.7006  0.0056  -4.8202   0.0000   0.0000   0.0000   0.2468
  -5.000  -0.4584   0.01225   0.00651   0.0008  0.6976  0.0055  -4.7253   0.0000   0.0000   0.0000   0.2475
  -4.900  -0.4482   0.01180   0.00599   0.0011  0.6945  0.0055  -4.6271   0.0000   0.0000   0.0000   0.2483
  -4.800  -0.4380   0.01138   0.00548   0.0014  0.6913  0.0056  -4.5258   0.0000   0.0000   0.0000   0.2490
  -4.700  -0.4277   0.01098   0.00500   0.0017  0.6879  0.0057  -4.4200   0.0000   0.0000   0.0000   0.2498
  -4.600  -0.4174   0.01061   0.00455   0.0020  0.6842  0.0060  -4.3056   0.0000   0.0000   0.0000   0.2506
  -4.500  -0.4069   0.01032   0.00419   0.0022  0.6801  0.0064  -4.1745   0.0000   0.0000   0.0000   0.2514
  -4.400  -0.3960   0.01017   0.00402   0.0023  0.6753  0.0070  -4.0263   0.0000   0.0000   0.0000   0.2519
  -4.300  -0.3848   0.01012   0.00397   0.0024  0.6702  0.0075  -3.8786   0.0000   0.0000   0.0000   0.2522
  -4.200  -0.3736   0.01008   0.00393   0.0024  0.6652  0.0079  -3.7458   0.0000   0.0000   0.0000   0.2525
  -4.100  -0.3628   0.00990   0.00370   0.0025  0.6632  0.0078  -3.6859   0.0000   0.0000   0.0000   0.2531
  -4.000  -0.3518   0.00973   0.00343   0.0026  0.6623  0.0076  -3.6272   0.0000   0.0000   0.0000   0.2537
  -3.900  -0.3406   0.00966   0.00339   0.0027  0.6610  0.0081  -3.5004   0.0000   0.0000   0.0000   0.2541
  -3.800  -0.3293   0.00961   0.00336   0.0027  0.6593  0.0086  -3.3787   0.0000   0.0000   0.0000   0.2544
  -3.700  -0.3181   0.00956   0.00332   0.0027  0.6572  0.0091  -3.2620   0.0000   0.0000   0.0000   0.2548
  -3.600  -0.3069   0.00951   0.00328   0.0028  0.6547  0.0096  -3.1510   0.0000   0.0000   0.0000   0.2552
  -3.500  -0.2957   0.00946   0.00324   0.0028  0.6518  0.0100  -3.0440   0.0000   0.0000   0.0000   0.2557
  -3.400  -0.2845   0.00942   0.00319   0.0028  0.6487  0.0105  -2.9402   0.0000   0.0000   0.0000   0.2562
  -3.300  -0.2733   0.00937   0.00314   0.0028  0.6456  0.0110  -2.8387   0.0000   0.0000   0.0000   0.2567
  -3.200  -0.2621   0.00933   0.00310   0.0029  0.6423  0.0114  -2.7386   0.0000   0.0000   0.0000   0.2572
  -3.100  -0.2509   0.00930   0.00306   0.0029  0.6388  0.0118  -2.6392   0.0000   0.0000   0.0000   0.2578
  -3.000  -0.2396   0.00928   0.00303   0.0029  0.6350  0.0122  -2.5397   0.0000   0.0000   0.0000   0.2584
  -2.900  -0.2284   0.00927   0.00301   0.0029  0.6307  0.0126  -2.4396   0.0000   0.0000   0.0000   0.2590
  -2.800  -0.2171   0.00927   0.00301   0.0029  0.6258  0.0129  -2.3383   0.0000   0.0000   0.0000   0.2596
  -2.700  -0.2058   0.00929   0.00303   0.0028  0.6206  0.0132  -2.2349   0.0000   0.0000   0.0000   0.2601
  -2.600  -0.1944   0.00933   0.00308   0.0028  0.6155  0.0135  -2.1298   0.0000   0.0000   0.0000   0.2607
  -2.100  -0.1362   0.00984   0.00378   0.0023  0.6067  0.0147  -1.5738   0.0000   0.0000   0.0000   0.2627
  -2.000  -0.1258   0.00947   0.00336   0.0025  0.6043  0.0150  -1.5416   0.0000   0.0000   0.0000   0.2659
  -1.900  -0.1152   0.00919   0.00303   0.0027  0.6015  0.0153  -1.5036   0.0000   0.0000   0.0000   0.2693
  -1.800  -0.1044   0.00897   0.00276   0.0029  0.5987  0.0157  -1.4618   0.0000   0.0000   0.0000   0.2731
  -1.700  -0.0935   0.00879   0.00253   0.0030  0.5956  0.0160  -1.4174   0.0000   0.0000   0.0000   0.2776
  -1.600  -0.0825   0.00864   0.00233   0.0031  0.5924  0.0164  -1.3709   0.0000   0.0000   0.0000   0.2831
  -1.500  -0.0714   0.00850   0.00213   0.0032  0.5887  0.0172  -1.3249   0.0000   0.0000   0.0000   0.2902
  -1.400  -0.0604   0.00839   0.00196   0.0033  0.5845  0.0192  -1.2753   0.0000   0.0000   0.0000   0.2997
  -1.300  -0.0492   0.00832   0.00185   0.0034  0.5794  0.0209  -1.2176   0.0000   0.0000   0.0000   0.3129
  -1.200  -0.0379   0.00831   0.00174   0.0034  0.5732  0.0203  -1.1334   0.0000   0.0000   0.0000   0.3329
  -1.100  -0.0266   0.00826   0.00164   0.0034  0.5668  0.0200  -1.0853   0.0000   0.0000   0.0000   0.3712
  -1.000  -0.0153   0.00821   0.00155   0.0035  0.5627  0.0198  -1.0372   0.0000   0.0000   0.0000   0.4662
  -0.900  -0.0039   0.00815   0.00147   0.0035  0.5617  0.0196  -0.9893   0.0000   0.0000   0.0000   1.1161
  -0.800   0.0075   0.00809   0.00139   0.0036  0.5605  0.0195  -0.9422   0.0000   0.0000   0.0000  -0.2114
  -0.600   0.0303   0.00791   0.00117   0.0038  0.5573  0.0297  -0.9106   0.0000   0.0000   0.0000   0.1268
  -0.500   0.0403   0.00753   0.00110   0.0039  0.5554  0.1144  -0.8651   0.0000   0.0000   0.0000   0.1540
  -0.400   0.0509   0.00732   0.00107   0.0039  0.5530  0.1616  -0.8110   0.0000   0.0000   0.0000   0.1725
  -0.300   0.0615   0.00714   0.00103   0.0040  0.5502  0.2074  -0.7564   0.0000   0.0000   0.0000   0.1847
  -0.200   0.0722   0.00697   0.00100   0.0040  0.5469  0.2533  -0.7021   0.0000   0.0000   0.0000   0.1933
  -0.100   0.0828   0.00682   0.00097   0.0041  0.5430  0.2956  -0.6481   0.0000   0.0000   0.0000   0.1997
   0.000   0.0936   0.00671   0.00096   0.0041  0.5385  0.3323  -0.5944   0.0000   0.0000   0.0000   0.2048
   0.100   0.1043   0.00660   0.00093   0.0041  0.5333  0.3704  -0.5441   0.0000   0.0000   0.0000   0.2086
   0.200   0.1147   0.00646   0.00091   0.0042  0.5273  0.4175  -0.5549   0.0000   0.0000   0.0000   0.2115
   0.300   0.1253   0.00633   0.00090   0.0043  0.5207  0.4613  -0.5657   0.0000   0.0000   0.0000   0.2139
   0.400   0.1359   0.00624   0.00090   0.0043  0.5149  0.4962  -0.5767   0.0000   0.0000   0.0000   0.2160
   0.500   0.1467   0.00615   0.00090   0.0044  0.5121  0.5293  -0.5877   0.0000   0.0000   0.0000   0.2179
   0.600   0.1571   0.00599   0.00090   0.0046  0.5112  0.5774  -0.5986   0.0000   0.0000   0.0000   0.2188
   0.700   0.1671   0.00580   0.00090   0.0048  0.5101  0.6348  -0.6093   0.0000   0.0000   0.0000   0.2191
   0.800   0.1762   0.00557   0.00090   0.0052  0.5086  0.7042  -0.6199   0.0000   0.0000   0.0000   0.2181
   0.900   0.1849   0.00534   0.00091   0.0058  0.5066  0.7757  -0.6316   0.0000   0.0000   0.0000   0.2163
   1.000   0.1929   0.00512   0.00093   0.0066  0.5041  0.8450  -0.6427   0.0000   0.0000   0.0000   0.2131
   1.100   0.2022   0.00497   0.00097   0.0073  0.5007  0.9067  -0.6550   0.0000   0.0000   0.0000   0.2115
   1.200   0.2205   0.00496   0.00102   0.0059  0.4958  0.9500  -0.6733   0.0000   0.0000   0.0000   0.2205
   1.300   0.2382   0.00500   0.00103   0.0046  0.4902  0.9640  -0.6912   0.0000   0.0000   0.0000   0.2282
   1.400   0.2507   0.00505   0.00104   0.0043  0.4849  0.9710  -0.7056   0.0000   0.0000   0.0000   0.2301
   1.500   0.2653   0.00509   0.00105   0.0036  0.4792  0.9750  -0.7214   0.0000   0.0000   0.0000   0.2337
   1.600   0.2797   0.00514   0.00106   0.0029  0.4725  0.9788  -0.7372   0.0000   0.0000   0.0000   0.2369
   1.700   0.2934   0.00519   0.00108   0.0023  0.4659  0.9825  -0.7525   0.0000   0.0000   0.0000   0.2391
   1.800   0.3062   0.00522   0.00110   0.0020  0.4621  0.9862  -0.7672   0.0000   0.0000   0.0000   0.2405
   1.900   0.3231   0.00523   0.00111   0.0008  0.4609  0.9891  -0.7860   0.0000   0.0000   0.0000   0.2446
   2.000   0.3429   0.00524   0.00111  -0.0011  0.4589  0.9927  -0.8089   0.0000   0.0000   0.0000   0.2501
   2.100   0.3686   0.00526   0.00112  -0.0042  0.4553  0.9982  -0.8367   0.0000   0.0000   0.0000   0.2584
   2.200   0.3865   0.00528   0.00114  -0.0057  0.4506  1.0000  -0.8585   0.0000   0.0000   0.0000   0.2617
   2.300   0.3972   0.00531   0.00115  -0.0056  0.4455  1.0000  -0.8744   0.0000   0.0000   0.0000   0.2610
   2.400   0.4079   0.00535   0.00115  -0.0055  0.4400  1.0000  -0.8903   0.0000   0.0000   0.0000   0.2603
   2.500   0.4186   0.00540   0.00116  -0.0054  0.4341  1.0000  -0.9063   0.0000   0.0000   0.0000   0.2597
   2.600   0.4293   0.00545   0.00117  -0.0054  0.4278  1.0000  -0.9245   0.0000   0.0000   0.0000   0.2592
   2.700   0.4400   0.00550   0.00119  -0.0053  0.4207  1.0000  -0.9434   0.0000   0.0000   0.0000   0.2586
   2.800   0.4507   0.00555   0.00122  -0.0052  0.4138  1.0000  -0.9623   0.0000   0.0000   0.0000   0.2581
   2.900   0.4614   0.00556   0.00123  -0.0051  0.4122  1.0000  -0.9815   0.0000   0.0000   0.0000   0.2575
   3.000   0.4721   0.00558   0.00125  -0.0050  0.4100  1.0000  -1.0007   0.0000   0.0000   0.0000   0.2570
   3.100   0.4829   0.00561   0.00126  -0.0049  0.4066  1.0000  -1.0200   0.0000   0.0000   0.0000   0.2565
   3.200   0.4936   0.00564   0.00128  -0.0048  0.4019  1.0000  -1.0394   0.0000   0.0000   0.0000   0.2560
   3.300   0.5042   0.00569   0.00130  -0.0048  0.3963  1.0000  -1.0588   0.0000   0.0000   0.0000   0.2556
   3.400   0.5149   0.00575   0.00133  -0.0047  0.3906  1.0000  -1.0783   0.0000   0.0000   0.0000   0.2552
   3.500   0.5256   0.00581   0.00135  -0.0046  0.3842  1.0000  -1.0978   0.0000   0.0000   0.0000   0.2548
   3.600   0.5362   0.00588   0.00138  -0.0045  0.3766  1.0000  -1.1174   0.0000   0.0000   0.0000   0.2544
   3.700   0.5469   0.00594   0.00142  -0.0045  0.3686  1.0000  -1.1371   0.0000   0.0000   0.0000   0.2541
   3.800   0.5576   0.00598   0.00145  -0.0044  0.3649  1.0000  -1.1597   0.0000   0.0000   0.0000   0.2537
   3.900   0.5684   0.00601   0.00148  -0.0043  0.3630  1.0000  -1.1838   0.0000   0.0000   0.0000   0.2533
   4.000   0.5791   0.00604   0.00151  -0.0042  0.3601  1.0000  -1.2080   0.0000   0.0000   0.0000   0.2529
   4.100   0.5898   0.00608   0.00154  -0.0041  0.3559  1.0000  -1.2322   0.0000   0.0000   0.0000   0.2526
   4.200   0.6004   0.00614   0.00157  -0.0041  0.3500  1.0000  -1.2565   0.0000   0.0000   0.0000   0.2522
   4.300   0.6110   0.00623   0.00161  -0.0040  0.3423  1.0000  -1.2808   0.0000   0.0000   0.0000   0.2519
   4.400   0.6215   0.00633   0.00166  -0.0040  0.3326  1.0000  -1.3051   0.0000   0.0000   0.0000   0.2517
   4.500   0.6321   0.00642   0.00171  -0.0039  0.3219  1.0000  -1.3295   0.0000   0.0000   0.0000   0.2514
   4.600   0.6428   0.00647   0.00175  -0.0038  0.3183  1.0000  -1.3542   0.0000   0.0000   0.0000   0.2511
   4.700   0.6535   0.00650   0.00179  -0.0037  0.3158  1.0000  -1.3791   0.0000   0.0000   0.0000   0.2508
   4.800   0.6642   0.00655   0.00183  -0.0037  0.3121  1.0000  -1.4075   0.0000   0.0000   0.0000   0.2505
   4.900   0.6748   0.00662   0.00188  -0.0036  0.3072  1.0000  -1.4378   0.0000   0.0000   0.0000   0.2502
   5.000   0.6853   0.00670   0.00193  -0.0035  0.3010  1.0000  -1.4682   0.0000   0.0000   0.0000   0.2499
   5.100   0.6958   0.00681   0.00200  -0.0035  0.2928  1.0000  -1.4986   0.0000   0.0000   0.0000   0.2497
   5.200   0.7063   0.00693   0.00206  -0.0034  0.2816  1.0000  -1.5290   0.0000   0.0000   0.0000   0.2494
   5.300   0.7168   0.00700   0.00212  -0.0034  0.2746  1.0000  -1.5600   0.0000   0.0000   0.0000   0.2492
   5.400   0.7275   0.00706   0.00217  -0.0033  0.2712  1.0000  -1.5913   0.0000   0.0000   0.0000   0.2489
   5.500   0.7381   0.00713   0.00223  -0.0032  0.2665  1.0000  -1.6227   0.0000   0.0000   0.0000   0.2487
   5.600   0.7486   0.00721   0.00229  -0.0031  0.2610  1.0000  -1.6554   0.0000   0.0000   0.0000   0.2484
   5.700   0.7565   0.00793   0.00265  -0.0032  0.1884  1.0000  -1.6919   0.0000   0.0000   0.0000   0.2483
   5.800   0.7656   0.00835   0.00285  -0.0032  0.1537  1.0000  -1.7278   0.0000   0.0000   0.0000   0.2481
   5.900   0.7749   0.00870   0.00304  -0.0031  0.1283  1.0000  -1.7644   0.0000   0.0000   0.0000   0.2479
   6.000   0.7848   0.00892   0.00317  -0.0031  0.1143  1.0000  -1.8027   0.0000   0.0000   0.0000   0.2477
   6.100   0.7943   0.00921   0.00334  -0.0030  0.0958  1.0000  -1.8403   0.0000   0.0000   0.0000   0.2475
   6.200   0.8042   0.00941   0.00348  -0.0029  0.0864  1.0000  -1.8792   0.0000   0.0000   0.0000   0.2472
   6.300   0.8137   0.00970   0.00365  -0.0028  0.0700  1.0000  -1.9171   0.0000   0.0000   0.0000   0.2470
   6.400   0.8235   0.00991   0.00381  -0.0027  0.0615  1.0000  -1.9564   0.0000   0.0000   0.0000   0.2467
   6.500   0.8329   0.01020   0.00399  -0.0026  0.0484  1.0000  -1.9948   0.0000   0.0000   0.0000   0.2465
   6.600   0.8430   0.01032   0.00409  -0.0025  0.0449  1.0000  -2.0355   0.0000   0.0000   0.0000   0.2462
   6.800   0.8598   0.01131   0.00483  -0.0022  0.0072  1.0000  -2.0922   0.0000   0.0000   0.0000   0.2456
   6.900   0.8699   0.01142   0.00494  -0.0021  0.0069  1.0000  -2.1360   0.0000   0.0000   0.0000   0.2453
   7.000   0.8801   0.01154   0.00504  -0.0020  0.0065  1.0000  -2.1809   0.0000   0.0000   0.0000   0.2451
   7.100   0.8903   0.01164   0.00513  -0.0019  0.0062  1.0000  -2.2528   0.0000   0.0000   0.0000   0.2448
   7.200   0.9005   0.01174   0.00522  -0.0018  0.0059  1.0000  -2.3323   0.0000   0.0000   0.0000   0.2446
   7.300   0.9107   0.01184   0.00532  -0.0018  0.0055  1.0000  -2.4132   0.0000   0.0000   0.0000   0.2443
   7.400   0.9209   0.01194   0.00541  -0.0017  0.0052  1.0000  -2.4956   0.0000   0.0000   0.0000   0.2441
   7.500   0.9310   0.01205   0.00552  -0.0016  0.0049  1.0000  -2.5795   0.0000   0.0000   0.0000   0.2439
   7.600   0.9411   0.01217   0.00562  -0.0015  0.0045  1.0000  -2.6654   0.0000   0.0000   0.0000   0.2436
   7.700   0.9513   0.01228   0.00573  -0.0014  0.0041  1.0000  -2.7536   0.0000   0.0000   0.0000   0.2434
   7.800   0.9614   0.01240   0.00585  -0.0013  0.0037  1.0000  -2.8443   0.0000   0.0000   0.0000   0.2432
   7.900   0.9714   0.01253   0.00597  -0.0012  0.0034  1.0000  -2.9382   0.0000   0.0000   0.0000   0.2429
   8.000   0.9815   0.01266   0.00610  -0.0012  0.0032  1.0000  -3.0360   0.0000   0.0000   0.0000   0.2427
   8.100   0.9915   0.01279   0.00624  -0.0011  0.0029  1.0000  -3.1384   0.0000   0.0000   0.0000   0.2425
   8.200   1.0016   0.01292   0.00638  -0.0010  0.0027  1.0000  -3.2453   0.0000   0.0000   0.0000   0.2423
   8.300   1.0116   0.01306   0.00653  -0.0009  0.0026  1.0000  -3.3556   0.0000   0.0000   0.0000   0.2420
   8.400   1.0216   0.01320   0.00669  -0.0008  0.0025  1.0000  -3.4685   0.0000   0.0000   0.0000   0.2418
   8.500   1.0315   0.01335   0.00685  -0.0007  0.0024  1.0000  -3.5828   0.0000   0.0000   0.0000   0.2416
   8.600   1.0415   0.01349   0.00702  -0.0006  0.0023  1.0000  -3.6979   0.0000   0.0000   0.0000   0.2413
   8.700   1.0514   0.01364   0.00719  -0.0005  0.0022  1.0000  -3.8139   0.0000   0.0000   0.0000   0.2411
   8.800   1.0612   0.01380   0.00737  -0.0004  0.0022  1.0000  -3.9306   0.0000   0.0000   0.0000   0.2408
   8.900   1.0711   0.01396   0.00757  -0.0003  0.0022  1.0000  -4.0479   0.0000   0.0000   0.0000   0.2406
   9.000   1.0808   0.01413   0.00777  -0.0002  0.0022  1.0000  -4.1656   0.0000   0.0000   0.0000   0.2404
   9.100   1.0907   0.01424   0.00795  -0.0002  0.0023  1.0000  -4.1964   0.0000   0.0000   0.0000   0.2402
   9.200   1.1004   0.01441   0.00815  -0.0000  0.0023  1.0000  -4.3116   0.0000   0.0000   0.0000   0.2399
   9.300   1.1100   0.01460   0.00837   0.0001  0.0023  1.0000  -4.4335   0.0000   0.0000   0.0000   0.2397
   9.400   1.1195   0.01480   0.00861   0.0002  0.0022  1.0000  -4.5576   0.0000   0.0000   0.0000   0.2394
   9.500   1.1289   0.01501   0.00886   0.0003  0.0022  1.0000  -4.6825   0.0000   0.0000   0.0000   0.2392
   9.600   1.1382   0.01523   0.00913   0.0005  0.0022  1.0000  -4.8074   0.0000   0.0000   0.0000   0.2389
   9.700   1.1474   0.01547   0.00942   0.0006  0.0023  1.0000  -4.9320   0.0000   0.0000   0.0000   0.2386
   9.800   1.1563   0.01574   0.00973   0.0008  0.0023  1.0000  -5.0560   0.0000   0.0000   0.0000   0.2383
   9.900   1.1651   0.01602   0.01005   0.0010  0.0023  1.0000  -5.1796   0.0000   0.0000   0.0000   0.2380
  10.000   1.1738   0.01631   0.01039   0.0012  0.0023  1.0000  -5.3030   0.0000   0.0000   0.0000   0.2377
  10.100   1.1823   0.01661   0.01074   0.0014  0.0024  1.0000  -5.4262   0.0000   0.0000   0.0000   0.2374
  10.200   1.1906   0.01693   0.01110   0.0016  0.0024  1.0000  -5.5491   0.0000   0.0000   0.0000   0.2371
  10.300   1.1988   0.01725   0.01148   0.0018  0.0025  1.0000  -5.6716   0.0000   0.0000   0.0000   0.2367
  10.400   1.2067   0.01760   0.01186   0.0021  0.0025  1.0000  -5.7933   0.0000   0.0000   0.0000   0.2364
  10.500   1.2145   0.01795   0.01226   0.0023  0.0026  1.0000  -5.9142   0.0000   0.0000   0.0000   0.2360
  10.600   1.2220   0.01832   0.01268   0.0026  0.0027  1.0000  -6.0342   0.0000   0.0000   0.0000   0.2357
  10.700   1.2292   0.01871   0.01311   0.0029  0.0027  1.0000  -6.1524   0.0000   0.0000   0.0000   0.2353
  10.800   1.2361   0.01911   0.01357   0.0032  0.0028  1.0000  -6.2683   0.0000   0.0000   0.0000   0.2349
  10.900   1.2427   0.01955   0.01406   0.0035  0.0029  1.0000  -6.3807   0.0000   0.0000   0.0000   0.2345
  11.000   1.2487   0.02001   0.01458   0.0039  0.0030  1.0000  -6.4884   0.0000   0.0000   0.0000   0.2341
  11.100   1.2541   0.02051   0.01514   0.0043  0.0032  1.0000  -6.5891   0.0000   0.0000   0.0000   0.2336
  11.200   1.2587   0.02107   0.01577   0.0047  0.0033  1.0000  -6.6797   0.0000   0.0000   0.0000   0.2331
  11.300   1.2621   0.02171   0.01649   0.0052  0.0035  1.0000  -6.7548   0.0000   0.0000   0.0000   0.2325
  11.400   1.2639   0.02245   0.01732   0.0059  0.0037  1.0000  -6.8050   0.0000   0.0000   0.0000   0.2318
  11.500   1.2622   0.02332   0.01830   0.0068  0.0039  1.0000  -6.8167   0.0000   0.0000   0.0000   0.2309
  11.600   1.2571   0.02430   0.01937   0.0079  0.0041  1.0000  -6.8017   0.0000   0.0000   0.0000   0.2298
  11.700   1.2516   0.02549   0.02067   0.0087  0.0043  1.0000  -6.7714   0.0000   0.0000   0.0000   0.2290
  11.800   1.2458   0.02686   0.02214   0.0093  0.0046  1.0000  -6.7313   0.0000   0.0000   0.0000   0.2283
  11.900   1.2398   0.02835   0.02374   0.0098  0.0048  1.0000  -6.6856   0.0000   0.0000   0.0000   0.2277
  12.000   1.2334   0.02996   0.02546   0.0101  0.0051  1.0000  -6.6373   0.0000   0.0000   0.0000   0.2272
  12.100   1.2266   0.03163   0.02724   0.0106  0.0054  1.0000  -6.5805   0.0000   0.0000   0.0000   0.2266
  12.200   1.2194   0.03340   0.02912   0.0109  0.0058  1.0000  -6.5183   0.0000   0.0000   0.0000   0.2261
  12.300   1.2117   0.03531   0.03114   0.0112  0.0061  1.0000  -6.4510   0.0000   0.0000   0.0000   0.2256
  12.400   1.2030   0.03738   0.03332   0.0115  0.0064  1.0000  -6.3676   0.0000   0.0000   0.0000   0.2251
  12.500   1.1927   0.03968   0.03574   0.0118  0.0067  1.0000  -6.2673   0.0000   0.0000   0.0000   0.2246
  12.600   1.1806   0.04219   0.03837   0.0118  0.0069  1.0000  -6.1575   0.0000   0.0000   0.0000   0.2243
  18.400   0.8769   0.22274   0.22105  -0.0742  0.0125  1.0000  -2.2144   0.0000   0.0000   0.0000   0.3152
  18.500   0.8781   0.22511   0.22342  -0.0751  0.0122  1.0000  -2.1991   0.0000   0.0000   0.0000   0.3161
  18.600   0.8794   0.22744   0.22575  -0.0761  0.0120  1.0000  -2.1863   0.0000   0.0000   0.0000   0.3169
  18.700   0.8808   0.22974   0.22805  -0.0770  0.0117  1.0000  -2.1760   0.0000   0.0000   0.0000   0.3177
  18.800   0.8822   0.23201   0.23032  -0.0779  0.0115  1.0000  -2.1678   0.0000   0.0000   0.0000   0.3185
  18.900   0.8836   0.23426   0.23257  -0.0787  0.0113  1.0000  -2.1617   0.0000   0.0000   0.0000   0.3192
  19.000   0.8851   0.23647   0.23479  -0.0796  0.0111  1.0000  -2.1575   0.0000   0.0000   0.0000   0.3199
  19.100   0.8867   0.23867   0.23698  -0.0804  0.0109  1.0000  -2.1552   0.0000   0.0000   0.0000   0.3206
  19.200   0.8887   0.24050   0.23882  -0.0812  0.0105  1.0000  -2.1762   0.0000   0.0000   0.0000   0.3211
  19.300   0.8909   0.24212   0.24044  -0.0819  0.0102  1.0000  -2.2110   0.0000   0.0000   0.0000   0.3215
  19.400   0.8934   0.24361   0.24193  -0.0826  0.0099  1.0000  -2.2537   0.0000   0.0000   0.0000   0.3218
  19.500   0.8960   0.24498   0.24330  -0.0832  0.0096  1.0000  -2.3048   0.0000   0.0000   0.0000   0.3220
  19.600   0.8987   0.24627   0.24459  -0.0838  0.0093  1.0000  -2.3612   0.0000   0.0000   0.0000   0.3222
  19.700   0.9015   0.24744   0.24577  -0.0844  0.0091  1.0000  -2.4252   0.0000   0.0000   0.0000   0.3223
  19.800   0.9038   0.24887   0.24720  -0.0850  0.0088  1.0000  -2.4767   0.0000   0.0000   0.0000   0.3226
  19.900   0.9059   0.25038   0.24871  -0.0857  0.0086  1.0000  -2.5247   0.0000   0.0000   0.0000   0.3229
  20.000   0.9074   0.25206   0.25040  -0.0864  0.0083  1.0000  -2.5641   0.0000   0.0000   0.0000   0.3233
  20.700   0.8993   0.27812   0.27643  -0.0938  0.0073  1.0000  -1.9847   0.0000   0.0000   0.0000   0.3322
  20.800   0.9007   0.28035   0.27867  -0.0945  0.0072  1.0000  -1.9828   0.0000   0.0000   0.0000   0.3328
  20.900   0.9023   0.28246   0.28078  -0.0953  0.0072  1.0000  -1.9879   0.0000   0.0000   0.0000   0.3334
  21.000   0.9045   0.28426   0.28258  -0.0961  0.0071  1.0000  -2.0095   0.0000   0.0000   0.0000   0.3338
  21.100   0.9080   0.28548   0.28381  -0.0968  0.0068  1.0000  -2.0634   0.0000   0.0000   0.0000   0.3340
  21.200   0.9113   0.28696   0.28528  -0.0975  0.0063  1.0000  -2.1031   0.0000   0.0000   0.0000   0.3342
  21.300   0.9131   0.28920   0.28753  -0.0982  0.0059  1.0000  -2.0999   0.0000   0.0000   0.0000   0.3347
  21.400   0.9142   0.29171   0.29004  -0.0990  0.0055  1.0000  -2.0836   0.0000   0.0000   0.0000   0.3354
  21.500   0.9151   0.29418   0.29252  -0.0998  0.0051  1.0000  -2.0713   0.0000   0.0000   0.0000   0.3360
  21.600   0.9158   0.29659   0.29492  -0.1006  0.0048  1.0000  -2.0641   0.0000   0.0000   0.0000   0.3366
  21.700   0.9165   0.29892   0.29726  -0.1013  0.0045  1.0000  -2.0612   0.0000   0.0000   0.0000   0.3372
  21.800   0.9172   0.30119   0.29954  -0.1020  0.0043  1.0000  -2.0619   0.0000   0.0000   0.0000   0.3378
  21.900   0.9178   0.30341   0.30176  -0.1027  0.0041  1.0000  -2.0658   0.0000   0.0000   0.0000   0.3384
  22.000   0.9183   0.30557   0.30392  -0.1034  0.0039  1.0000  -2.0723   0.0000   0.0000   0.0000   0.3389
  22.100   0.9187   0.30769   0.30604  -0.1041  0.0037  1.0000  -2.0812   0.0000   0.0000   0.0000   0.3395
  22.200   0.9191   0.30976   0.30811  -0.1048  0.0035  1.0000  -2.0922   0.0000   0.0000   0.0000   0.3400
  22.300   0.9194   0.31177   0.31013  -0.1054  0.0034  1.0000  -2.1052   0.0000   0.0000   0.0000   0.3405
  22.400   0.9196   0.31374   0.31210  -0.1060  0.0033  1.0000  -2.1201   0.0000   0.0000   0.0000   0.3410
  22.500   0.9197   0.31565   0.31402  -0.1067  0.0032  1.0000  -2.1368   0.0000   0.0000   0.0000   0.3416
  22.600   0.9197   0.31750   0.31588  -0.1073  0.0030  1.0000  -2.1550   0.0000   0.0000   0.0000   0.3421
  22.700   0.9195   0.31929   0.31767  -0.1078  0.0029  1.0000  -2.1748   0.0000   0.0000   0.0000   0.3426
  22.800   0.9192   0.32101   0.31940  -0.1084  0.0028  1.0000  -2.1958   0.0000   0.0000   0.0000   0.3431
  22.900   0.9187   0.32266   0.32105  -0.1089  0.0028  1.0000  -2.2179   0.0000   0.0000   0.0000   0.3436
  23.000   0.9179   0.32422   0.32262  -0.1095  0.0027  1.0000  -2.2407   0.0000   0.0000   0.0000   0.3441
  23.100   0.9168   0.32568   0.32408  -0.1099  0.0026  1.0000  -2.2638   0.0000   0.0000   0.0000   0.3446
  23.200   0.9153   0.32701   0.32542  -0.1103  0.0025  1.0000  -2.2866   0.0000   0.0000   0.0000   0.3451
  23.300   0.9127   0.32808   0.32651  -0.1107  0.0025  1.0000  -2.3049   0.0000   0.0000   0.0000   0.3457
  23.400   0.8597   0.31650   0.31500  -0.1062  0.0025  1.0000  -2.0576   0.0000   0.0000   0.0000   0.3491
  23.500   0.8557   0.31630   0.31481  -0.1063  0.0025  1.0000  -2.0671   0.0000   0.0000   0.0000   0.3497
  23.600   0.8523   0.31624   0.31476  -0.1065  0.0024  1.0000  -2.0784   0.0000   0.0000   0.0000   0.3503
  23.700   0.8491   0.31629   0.31482  -0.1067  0.0024  1.0000  -2.0874   0.0000   0.0000   0.0000   0.3510
  23.800   0.8464   0.31638   0.31492  -0.1069  0.0023  1.0000  -2.0984   0.0000   0.0000   0.0000   0.3516
  23.900   0.8438   0.31654   0.31508  -0.1072  0.0022  1.0000  -2.1096   0.0000   0.0000   0.0000   0.3522
  24.000   0.8414   0.31673   0.31528  -0.1075  0.0022  1.0000  -2.1198   0.0000   0.0000   0.0000   0.3528
  24.100   0.8390   0.31695   0.31552  -0.1077  0.0021  1.0000  -2.1270   0.0000   0.0000   0.0000   0.3534
  24.200   0.8363   0.31722   0.31579  -0.1080  0.0020  1.0000  -2.1240   0.0000   0.0000   0.0000   0.3540
  24.300   0.8143   0.31929   0.31785  -0.1073  0.0017  1.0000  -1.5325   0.0000   0.0000   0.0000   0.3576
  24.400   0.8127   0.31984   0.31841  -0.1076  0.0016  1.0000  -1.5155   0.0000   0.0000   0.0000   0.3582
  24.500   0.8112   0.32040   0.31898  -0.1080  0.0016  1.0000  -1.4991   0.0000   0.0000   0.0000   0.3588
  24.600   0.8098   0.32097   0.31955  -0.1083  0.0016  1.0000  -1.4832   0.0000   0.0000   0.0000   0.3593
  24.700   0.8085   0.32155   0.32014  -0.1087  0.0016  1.0000  -1.4678   0.0000   0.0000   0.0000   0.3599
  24.800   0.8072   0.32215   0.32074  -0.1090  0.0016  1.0000  -1.4529   0.0000   0.0000   0.0000   0.3604
  24.900   0.8061   0.32275   0.32135  -0.1094  0.0016  1.0000  -1.4385   0.0000   0.0000   0.0000   0.3610
  25.000   0.8050   0.32335   0.32196  -0.1097  0.0016  1.0000  -1.4245   0.0000   0.0000   0.0000   0.3615
  25.100   0.8040   0.32397   0.32258  -0.1101  0.0016  1.0000  -1.4109   0.0000   0.0000   0.0000   0.3621
  25.200   0.8030   0.32459   0.32321  -0.1105  0.0016  1.0000  -1.3977   0.0000   0.0000   0.0000   0.3626
  25.300   0.8021   0.32522   0.32384  -0.1108  0.0016  1.0000  -1.3848   0.0000   0.0000   0.0000   0.3631
  25.400   0.8013   0.32585   0.32448  -0.1112  0.0016  1.0000  -1.3723   0.0000   0.0000   0.0000   0.3636
  25.500   0.8005   0.32649   0.32512  -0.1116  0.0016  1.0000  -1.3602   0.0000   0.0000   0.0000   0.3641
  25.600   0.7998   0.32713   0.32577  -0.1120  0.0016  1.0000  -1.3483   0.0000   0.0000   0.0000   0.3646
  25.700   0.7991   0.32778   0.32642  -0.1124  0.0016  1.0000  -1.3368   0.0000   0.0000   0.0000   0.3651
  25.800   0.7984   0.32843   0.32708  -0.1127  0.0016  1.0000  -1.3256   0.0000   0.0000   0.0000   0.3656
  25.900   0.7978   0.32908   0.32774  -0.1131  0.0016  1.0000  -1.3146   0.0000   0.0000   0.0000   0.3661
  26.000   0.7972   0.32975   0.32844  -0.1135  0.0016  1.0000  -1.3026   0.0000   0.0000   0.0000   0.3666
  26.100   0.7966   0.33042   0.32911  -0.1139  0.0016  1.0000  -1.2916   0.0000   0.0000   0.0000   0.3671
  26.200   0.7961   0.33108   0.32978  -0.1143  0.0016  1.0000  -1.2813   0.0000   0.0000   0.0000   0.3676
  26.300   0.7956   0.33175   0.33045  -0.1147  0.0016  1.0000  -1.2713   0.0000   0.0000   0.0000   0.3680
  26.400   0.7951   0.33242   0.33112  -0.1151  0.0016  1.0000  -1.2615   0.0000   0.0000   0.0000   0.3685
  26.500   0.7947   0.33309   0.33180  -0.1155  0.0016  1.0000  -1.2520   0.0000   0.0000   0.0000   0.3689
  26.600   0.7943   0.33376   0.33248  -0.1159  0.0016  1.0000  -1.2428   0.0000   0.0000   0.0000   0.3694
  26.700   0.7939   0.33444   0.33316  -0.1163  0.0016  1.0000  -1.2337   0.0000   0.0000   0.0000   0.3698
  26.800   0.7935   0.33512   0.33384  -0.1168  0.0016  1.0000  -1.2249   0.0000   0.0000   0.0000   0.3703
  26.900   0.7932   0.33580   0.33452  -0.1172  0.0016  1.0000  -1.2163   0.0000   0.0000   0.0000   0.3707
  27.000   0.7928   0.33648   0.33521  -0.1176  0.0016  1.0000  -1.2078   0.0000   0.0000   0.0000   0.3712
  27.100   0.7925   0.33716   0.33589  -0.1180  0.0016  1.0000  -1.1996   0.0000   0.0000   0.0000   0.3716
  27.200   0.7923   0.33784   0.33658  -0.1184  0.0016  1.0000  -1.1915   0.0000   0.0000   0.0000   0.3720
  27.300   0.7920   0.33853   0.33727  -0.1188  0.0016  1.0000  -1.1835   0.0000   0.0000   0.0000   0.3725
  27.400   0.7917   0.33921   0.33796  -0.1192  0.0016  1.0000  -1.1758   0.0000   0.0000   0.0000   0.3729
  27.500   0.7915   0.33990   0.33866  -0.1196  0.0016  1.0000  -1.1680   0.0000   0.0000   0.0000   0.3733
  27.600   0.7913   0.34060   0.33935  -0.1201  0.0016  1.0000  -1.1603   0.0000   0.0000   0.0000   0.3738
  27.700   0.7911   0.34129   0.34005  -0.1205  0.0016  1.0000  -1.1528   0.0000   0.0000   0.0000   0.3742
  27.800   0.7909   0.34198   0.34075  -0.1209  0.0016  1.0000  -1.1454   0.0000   0.0000   0.0000   0.3746
  27.900   0.7907   0.34268   0.34145  -0.1213  0.0016  1.0000  -1.1382   0.0000   0.0000   0.0000   0.3750
  28.000   0.7905   0.34337   0.34215  -0.1218  0.0016  1.0000  -1.1311   0.0000   0.0000   0.0000   0.3754
  28.100   0.7904   0.34407   0.34285  -0.1222  0.0016  1.0000  -1.1242   0.0000   0.0000   0.0000   0.3758
  28.200   0.7902   0.34477   0.34355  -0.1226  0.0016  1.0000  -1.1174   0.0000   0.0000   0.0000   0.3762
  28.300   0.7901   0.34547   0.34426  -0.1230  0.0016  1.0000  -1.1107   0.0000   0.0000   0.0000   0.3766
  28.400   0.7899   0.34617   0.34496  -0.1235  0.0016  1.0000  -1.1042   0.0000   0.0000   0.0000   0.3770
  28.500   0.7898   0.34686   0.34566  -0.1239  0.0016  1.0000  -1.0977   0.0000   0.0000   0.0000   0.3774
  28.600   0.7897   0.34756   0.34637  -0.1243  0.0016  1.0000  -1.0914   0.0000   0.0000   0.0000   0.3778
  28.700   0.7896   0.34827   0.34707  -0.1248  0.0016  1.0000  -1.0852   0.0000   0.0000   0.0000   0.3782
  28.800   0.7895   0.34897   0.34778  -0.1252  0.0016  1.0000  -1.0791   0.0000   0.0000   0.0000   0.3786
  28.900   0.7894   0.34967   0.34848  -0.1256  0.0016  1.0000  -1.0731   0.0000   0.0000   0.0000   0.3790
  29.000   0.7893   0.35037   0.34919  -0.1260  0.0016  1.0000  -1.0672   0.0000   0.0000   0.0000   0.3794
  29.100   0.7893   0.35107   0.34990  -0.1265  0.0016  1.0000  -1.0614   0.0000   0.0000   0.0000   0.3798
  29.200   0.7892   0.35177   0.35060  -0.1269  0.0016  1.0000  -1.0557   0.0000   0.0000   0.0000   0.3802
  29.300   0.7891   0.35248   0.35131  -0.1274  0.0016  1.0000  -1.0502   0.0000   0.0000   0.0000   0.3806
  29.400   0.7891   0.35318   0.35202  -0.1278  0.0016  1.0000  -1.0447   0.0000   0.0000   0.0000   0.3809
  29.500   0.7890   0.35388   0.35273  -0.1282  0.0016  1.0000  -1.0392   0.0000   0.0000   0.0000   0.3813
  29.600   0.7890   0.35459   0.35343  -0.1287  0.0016  1.0000  -1.0339   0.0000   0.0000   0.0000   0.3817
  29.700   0.7889   0.35529   0.35414  -0.1291  0.0016  1.0000  -1.0287   0.0000   0.0000   0.0000   0.3821
  29.800   0.7889   0.35599   0.35485  -0.1295  0.0016  1.0000  -1.0235   0.0000   0.0000   0.0000   0.3824
  29.900   0.7888   0.35670   0.35556  -0.1300  0.0015  1.0000  -1.0185   0.0000   0.0000   0.0000   0.3828
  30.000   0.7888   0.35740   0.35627  -0.1304  0.0015  1.0000  -1.0135   0.0000   0.0000   0.0000   0.3832


