xflr5 v6.61

 Calculated polar for: S6063 7.05%

 1 1 Reynolds number fixed          Mach number fixed         

 xtrf =   1.000 (top)        1.000 (bottom)
 Mach =   0.000     Re =     0.130 e 6     Ncrit =   9.000

  alpha     CL        CD       CDp       Cm    Top Xtr Bot Xtr   Cpmin    Chinge    XCp    
 ------- -------- --------- --------- -------- ------- ------- -------- --------- ---------
 -10.000  -0.5593   0.13110   0.12656   0.0057  1.0000  0.0522  -1.5239   0.0000   0.0000   0.0000   0.2569
  -9.900  -0.5578   0.12972   0.12519   0.0047  1.0000  0.0523  -1.5335   0.0000   0.0000   0.0000   0.2553
  -9.800  -0.5564   0.12833   0.12380   0.0038  1.0000  0.0523  -1.5435   0.0000   0.0000   0.0000   0.2537
  -9.700  -0.5610   0.12307   0.11861   0.0028  1.0000  0.0531  -1.6118   0.0000   0.0000   0.0000   0.2519
  -9.600  -0.5587   0.11836   0.11389   0.0039  1.0000  0.0544  -1.5899   0.0000   0.0000   0.0000   0.2540
  -9.500  -0.5459   0.11563   0.11077   0.0077  1.0000  0.0573  -1.4446   0.0000   0.0000   0.0000   0.2610
  -9.400  -0.5423   0.11415   0.10929   0.0077  1.0000  0.0581  -1.4229   0.0000   0.0000   0.0000   0.2611
  -9.300  -0.5392   0.11272   0.10786   0.0075  1.0000  0.0589  -1.4070   0.0000   0.0000   0.0000   0.2609
  -9.200  -0.5365   0.11131   0.10646   0.0072  1.0000  0.0598  -1.3952   0.0000   0.0000   0.0000   0.2605
  -9.100  -0.5340   0.10992   0.10508   0.0068  1.0000  0.0606  -1.3864   0.0000   0.0000   0.0000   0.2599
  -9.000  -0.5318   0.10854   0.10371   0.0064  1.0000  0.0614  -1.3803   0.0000   0.0000   0.0000   0.2591
  -8.900  -0.5298   0.10717   0.10234   0.0059  1.0000  0.0623  -1.3763   0.0000   0.0000   0.0000   0.2583
  -8.800  -0.5279   0.10579   0.10098   0.0053  1.0000  0.0632  -1.3743   0.0000   0.0000   0.0000   0.2573
  -8.700  -0.5263   0.10443   0.09962   0.0047  1.0000  0.0640  -1.3739   0.0000   0.0000   0.0000   0.2562
  -8.600  -0.5248   0.10307   0.09827   0.0040  1.0000  0.0649  -1.3752   0.0000   0.0000   0.0000   0.2550
  -8.500  -0.5234   0.10170   0.09692   0.0033  1.0000  0.0659  -1.3779   0.0000   0.0000   0.0000   0.2538
  -8.400  -0.5221   0.10034   0.09557   0.0026  1.0000  0.0668  -1.3822   0.0000   0.0000   0.0000   0.2524
  -8.300  -0.5209   0.09898   0.09422   0.0017  1.0000  0.0678  -1.3881   0.0000   0.0000   0.0000   0.2508
  -8.200  -0.5199   0.09762   0.09288   0.0008  1.0000  0.0688  -1.3960   0.0000   0.0000   0.0000   0.2491
  -8.100  -0.5191   0.09628   0.09156  -0.0002  1.0000  0.0698  -1.4064   0.0000   0.0000   0.0000   0.2471
  -8.000  -0.5185   0.09498   0.09027  -0.0014  1.0000  0.0709  -1.4193   0.0000   0.0000   0.0000   0.2450
  -7.900  -0.5182   0.09374   0.08905  -0.0028  1.0000  0.0720  -1.4360   0.0000   0.0000   0.0000   0.2424
  -7.800  -0.5185   0.09258   0.08792  -0.0044  1.0000  0.0730  -1.4579   0.0000   0.0000   0.0000   0.2392
  -7.700  -0.5190   0.09157   0.08693  -0.0064  1.0000  0.0741  -1.4841   0.0000   0.0000   0.0000   0.2355
  -7.600  -0.5202   0.09065   0.08603  -0.0090  1.0000  0.0749  -1.5157   0.0000   0.0000   0.0000   0.2307
  -7.500  -0.5202   0.08957   0.08496  -0.0129  1.0000  0.0757  -1.5554   0.0000   0.0000   0.0000   0.2232
  -7.400  -0.5168   0.08865   0.08402  -0.0165  1.0000  0.0765  -1.5839   0.0000   0.0000   0.0000   0.2163
  -7.300  -0.5137   0.08757   0.08290  -0.0191  1.0000  0.0769  -1.6064   0.0000   0.0000   0.0000   0.2110
  -7.200  -0.5107   0.08635   0.08164  -0.0211  1.0000  0.0771  -1.6249   0.0000   0.0000   0.0000   0.2070
  -7.100  -0.5077   0.08503   0.08028  -0.0227  1.0000  0.0773  -1.6405   0.0000   0.0000   0.0000   0.2035
  -7.000  -0.5046   0.08365   0.07885  -0.0242  1.0000  0.0775  -1.6537   0.0000   0.0000   0.0000   0.2005
  -6.900  -0.5013   0.08221   0.07737  -0.0254  1.0000  0.0776  -1.6650   0.0000   0.0000   0.0000   0.1977
  -6.800  -0.5125   0.07457   0.06982  -0.0277  1.0000  0.0795  -1.7597   0.0000   0.0000   0.0000   0.1944
  -6.700  -0.5100   0.07180   0.06711  -0.0269  1.0000  0.0809  -1.7266   0.0000   0.0000   0.0000   0.1957
  -6.600  -0.5053   0.07019   0.06556  -0.0256  1.0000  0.0822  -1.6763   0.0000   0.0000   0.0000   0.1977
  -6.500  -0.5006   0.06883   0.06423  -0.0248  1.0000  0.0834  -1.6354   0.0000   0.0000   0.0000   0.1988
  -6.400  -0.4960   0.06754   0.06295  -0.0244  1.0000  0.0848  -1.6015   0.0000   0.0000   0.0000   0.1993
  -6.300  -0.4911   0.06625   0.06167  -0.0243  1.0000  0.0862  -1.5731   0.0000   0.0000   0.0000   0.1991
  -6.200  -0.4863   0.06489   0.06032  -0.0245  1.0000  0.0878  -1.5521   0.0000   0.0000   0.0000   0.1981
  -6.100  -0.4814   0.06348   0.05889  -0.0251  1.0000  0.0896  -1.5370   0.0000   0.0000   0.0000   0.1965
  -6.000  -0.4763   0.06200   0.05740  -0.0259  1.0000  0.0916  -1.5267   0.0000   0.0000   0.0000   0.1943
  -5.900  -0.4709   0.06048   0.05585  -0.0269  1.0000  0.0939  -1.5208   0.0000   0.0000   0.0000   0.1915
  -5.800  -0.4649   0.05896   0.05428  -0.0282  1.0000  0.0965  -1.5196   0.0000   0.0000   0.0000   0.1881
  -5.700  -0.4577   0.05760   0.05282  -0.0298  1.0000  0.1001  -1.5258   0.0000   0.0000   0.0000   0.1837
  -5.600  -0.4405   0.06058   0.05545  -0.0318  1.0000  0.1068  -1.5247   0.0000   0.0000   0.0000   0.1764
  -5.400  -0.4423   0.05220   0.04695  -0.0348  1.0000  0.1110  -1.5967   0.0000   0.0000   0.0000   0.1700
  -5.300  -0.4372   0.05006   0.04490  -0.0345  1.0000  0.1128  -1.5643   0.0000   0.0000   0.0000   0.1699
  -5.200  -0.4312   0.04858   0.04348  -0.0340  1.0000  0.1146  -1.5281   0.0000   0.0000   0.0000   0.1698
  -5.100  -0.4250   0.04734   0.04227  -0.0336  1.0000  0.1167  -1.4943   0.0000   0.0000   0.0000   0.1696
  -5.000  -0.4185   0.04619   0.04113  -0.0334  1.0000  0.1191  -1.4643   0.0000   0.0000   0.0000   0.1691
  -4.900  -0.4117   0.04509   0.04002  -0.0332  1.0000  0.1219  -1.4385   0.0000   0.0000   0.0000   0.1682
  -4.800  -0.4045   0.04403   0.03892  -0.0332  1.0000  0.1255  -1.4168   0.0000   0.0000   0.0000   0.1668
  -4.700  -0.3967   0.04307   0.03788  -0.0333  1.0000  0.1298  -1.3998   0.0000   0.0000   0.0000   0.1650
  -4.600  -0.3863   0.04292   0.03759  -0.0333  1.0000  0.1361  -1.3822   0.0000   0.0000   0.0000   0.1626
  -4.500  -0.3844   0.04060   0.03506  -0.0343  1.0000  0.1474  -1.3933   0.0000   0.0000   0.0000   0.1598
  -4.400  -0.3782   0.03904   0.03356  -0.0338  1.0000  0.1494  -1.3666   0.0000   0.0000   0.0000   0.1595
  -4.300  -0.3715   0.03778   0.03233  -0.0333  1.0000  0.1516  -1.3409   0.0000   0.0000   0.0000   0.1592
  -4.200  -0.3645   0.03666   0.03121  -0.0329  1.0000  0.1538  -1.3174   0.0000   0.0000   0.0000   0.1587
  -4.100  -0.3392   0.03130   0.02468  -0.0336  1.0000  0.0730  -1.6435   0.0000   0.0000   0.0000   0.1493
  -4.000  -0.3273   0.02840   0.02108  -0.0327  1.0000  0.0543  -1.8199   0.0000   0.0000   0.0000   0.1483
  -3.900  -0.3189   0.02672   0.01938  -0.0322  1.0000  0.0480  -1.8257   0.0000   0.0000   0.0000   0.1472
  -3.800  -0.3106   0.02502   0.01749  -0.0317  1.0000  0.0447  -1.8463   0.0000   0.0000   0.0000   0.1460
  -3.700  -0.3014   0.02351   0.01572  -0.0311  1.0000  0.0412  -1.8781   0.0000   0.0000   0.0000   0.1448
  -3.600  -0.2911   0.02209   0.01398  -0.0304  1.0000  0.0375  -1.9296   0.0000   0.0000   0.0000   0.1437
  -3.500  -0.2808   0.02136   0.01301  -0.0296  1.0000  0.0348  -1.9448   0.0000   0.0000   0.0000   0.1426
  -3.400  -0.2712   0.02125   0.01281  -0.0289  1.0000  0.0333  -1.9033   0.0000   0.0000   0.0000   0.1414
  -3.300  -0.2620   0.02129   0.01284  -0.0283  1.0000  0.0323  -1.8430   0.0000   0.0000   0.0000   0.1400
  -3.200  -0.2529   0.02052   0.01197  -0.0278  1.0000  0.0314  -1.8173   0.0000   0.0000   0.0000   0.1380
  -3.100  -0.2436   0.01936   0.01071  -0.0274  1.0000  0.0307  -1.8124   0.0000   0.0000   0.0000   0.1356
  -3.000  -0.2343   0.01848   0.00975  -0.0269  1.0000  0.0301  -1.7954   0.0000   0.0000   0.0000   0.1332
  -2.900  -0.2250   0.01775   0.00895  -0.0264  1.0000  0.0296  -1.7727   0.0000   0.0000   0.0000   0.1305
  -2.800  -0.2157   0.01710   0.00826  -0.0260  1.0000  0.0291  -1.7460   0.0000   0.0000   0.0000   0.1277
  -2.700  -0.2065   0.01653   0.00765  -0.0255  1.0000  0.0287  -1.7159   0.0000   0.0000   0.0000   0.1247
  -2.600  -0.1973   0.01603   0.00710  -0.0250  1.0000  0.0284  -1.6831   0.0000   0.0000   0.0000   0.1213
  -2.500  -0.1882   0.01558   0.00662  -0.0246  1.0000  0.0282  -1.6477   0.0000   0.0000   0.0000   0.1175
  -2.400  -0.1791   0.01518   0.00619  -0.0241  1.0000  0.0281  -1.6099   0.0000   0.0000   0.0000   0.1132
  -2.300  -0.1699   0.01483   0.00580  -0.0237  1.0000  0.0281  -1.5700   0.0000   0.0000   0.0000   0.1083
  -2.200  -0.1607   0.01453   0.00545  -0.0234  1.0000  0.0282  -1.5280   0.0000   0.0000   0.0000   0.1026
  -2.100  -0.1514   0.01427   0.00514  -0.0230  1.0000  0.0284  -1.4840   0.0000   0.0000   0.0000   0.0960
  -2.000  -0.1421   0.01405   0.00486  -0.0227  1.0000  0.0287  -1.4385   0.0000   0.0000   0.0000   0.0884
  -1.900  -0.1327   0.01386   0.00461  -0.0224  1.0000  0.0292  -1.3915   0.0000   0.0000   0.0000   0.0795
  -1.800  -0.1233   0.01369   0.00438  -0.0221  1.0000  0.0299  -1.3434   0.0000   0.0000   0.0000   0.0691
  -1.700  -0.1138   0.01355   0.00417  -0.0217  1.0000  0.0308  -1.2940   0.0000   0.0000   0.0000   0.0569
  -1.600  -0.1042   0.01341   0.00401  -0.0214  1.0000  0.0321  -1.2450   0.0000   0.0000   0.0000   0.0423
  -1.500  -0.0944   0.01322   0.00376  -0.0211  1.0000  0.0373  -1.2102   0.0000   0.0000   0.0000   0.0238
  -1.400  -0.0841   0.01258   0.00359  -0.0212  1.0000  0.1214  -1.1670   0.0000   0.0000   0.0000  -0.0046
  -1.300  -0.0750   0.01115   0.00356  -0.0216  1.0000  0.4386  -1.1132   0.0000   0.0000   0.0000  -0.0401
  -1.200  -0.0590   0.00962   0.00368  -0.0199  1.0000  1.0000  -0.8614   0.0000   0.0000   0.0000  -0.0902
  -1.100  -0.0509   0.00967   0.00368  -0.0196  1.0000  1.0000  -0.7915   0.0000   0.0000   0.0000  -0.1382
  -1.000  -0.0427   0.00972   0.00368  -0.0193  1.0000  1.0000  -0.7410   0.0000   0.0000   0.0000  -0.2057
  -0.900  -0.0344   0.00978   0.00369  -0.0191  1.0000  1.0000  -0.6919   0.0000   0.0000   0.0000  -0.3067
  -0.800  -0.0261   0.00985   0.00370  -0.0188  1.0000  1.0000  -0.6441   0.0000   0.0000   0.0000  -0.4727
  -0.700  -0.0178   0.00991   0.00373  -0.0185  1.0000  1.0000  -0.5976   0.0000   0.0000   0.0000  -0.7950
  -0.600  -0.0095   0.00999   0.00376  -0.0183  1.0000  1.0000  -0.5523   0.0000   0.0000   0.0000  -1.6819
  -0.500  -0.0012   0.01007   0.00380  -0.0181  1.0000  1.0000  -0.5080   0.0000   0.0000   0.0000  -14.7524
  -0.400   0.0109   0.01016   0.00385  -0.0186  0.9987  1.0000  -0.4558   0.0000   0.0000   0.0000   1.9570
  -0.300   0.0308   0.01028   0.00392  -0.0206  0.9948  1.0000  -0.3875   0.0000   0.0000   0.0000   0.9206
  -0.200   0.0504   0.01039   0.00400  -0.0226  0.9908  1.0000  -0.3445   0.0000   0.0000   0.0000   0.6972
  -0.100   0.0713   0.01052   0.00409  -0.0247  0.9875  1.0000  -0.3127   0.0000   0.0000   0.0000   0.5962
   0.000   0.0893   0.01059   0.00413  -0.0263  0.9824  1.0000  -0.3151   0.0000   0.0000   0.0000   0.5437
   0.100   0.1091   0.01068   0.00419  -0.0282  0.9780  1.0000  -0.3291   0.0000   0.0000   0.0000   0.5077
   0.200   0.1302   0.01076   0.00426  -0.0303  0.9745  1.0000  -0.3447   0.0000   0.0000   0.0000   0.4822
   0.300   0.1497   0.01084   0.00432  -0.0322  0.9706  1.0000  -0.3607   0.0000   0.0000   0.0000   0.4639
   0.400   0.1658   0.01088   0.00436  -0.0333  0.9649  1.0000  -0.3746   0.0000   0.0000   0.0000   0.4497
   0.500   0.1850   0.01093   0.00440  -0.0350  0.9601  1.0000  -0.3907   0.0000   0.0000   0.0000   0.4381
   0.600   0.2067   0.01096   0.00443  -0.0371  0.9562  1.0000  -0.4083   0.0000   0.0000   0.0000   0.4287
   0.700   0.2300   0.01097   0.00446  -0.0396  0.9532  1.0000  -0.4293   0.0000   0.0000   0.0000   0.4212
   0.800   0.2473   0.01099   0.00449  -0.0408  0.9480  1.0000  -0.4468   0.0000   0.0000   0.0000   0.4141
   0.900   0.2620   0.01100   0.00451  -0.0415  0.9412  1.0000  -0.4626   0.0000   0.0000   0.0000   0.4075
   1.000   0.2800   0.01100   0.00452  -0.0428  0.9358  1.0000  -0.4812   0.0000   0.0000   0.0000   0.4019
   1.100   0.2994   0.01098   0.00451  -0.0444  0.9312  1.0000  -0.5040   0.0000   0.0000   0.0000   0.3971
   1.200   0.3196   0.01095   0.00451  -0.0460  0.9271  1.0000  -0.5276   0.0000   0.0000   0.0000   0.3928
   1.300   0.3307   0.01097   0.00454  -0.0459  0.9195  1.0000  -0.5438   0.0000   0.0000   0.0000   0.3876
   1.400   0.3425   0.01097   0.00455  -0.0459  0.9116  1.0000  -0.5607   0.0000   0.0000   0.0000   0.3827
   1.500   0.3570   0.01095   0.00454  -0.0463  0.9050  1.0000  -0.5822   0.0000   0.0000   0.0000   0.3785
   1.600   0.3721   0.01091   0.00452  -0.0468  0.8993  1.0000  -0.6066   0.0000   0.0000   0.0000   0.3745
   1.700   0.3860   0.01088   0.00452  -0.0470  0.8945  1.0000  -0.6301   0.0000   0.0000   0.0000   0.3704
   1.800   0.3919   0.01077   0.00437  -0.0453  0.8783  1.0000  -0.6466   0.0000   0.0000   0.0000   0.3642
   1.900   0.3970   0.01034   0.00382  -0.0420  0.8464  1.0000  -0.6679   0.0000   0.0000   0.0000   0.3545
   2.000   0.4018   0.01008   0.00342  -0.0393  0.8143  1.0000  -0.7126   0.0000   0.0000   0.0000   0.3463
   2.100   0.4076   0.00996   0.00314  -0.0372  0.7819  1.0000  -0.7575   0.0000   0.0000   0.0000   0.3397
   2.200   0.4149   0.00994   0.00302  -0.0359  0.7525  1.0000  -0.8041   0.0000   0.0000   0.0000   0.3351
   2.300   0.4237   0.00996   0.00292  -0.0350  0.7326  1.0000  -0.8542   0.0000   0.0000   0.0000   0.3311
   2.400   0.4334   0.01000   0.00294  -0.0346  0.7170  1.0000  -0.9063   0.0000   0.0000   0.0000   0.3283
   2.500   0.4429   0.01005   0.00292  -0.0341  0.7000  1.0000  -0.9592   0.0000   0.0000   0.0000   0.3252
   2.600   0.4524   0.01011   0.00290  -0.0335  0.6842  1.0000  -1.0136   0.0000   0.0000   0.0000   0.3224
   2.700   0.4621   0.01017   0.00292  -0.0332  0.6659  1.0000  -1.0698   0.0000   0.0000   0.0000   0.3199
   2.800   0.4715   0.01026   0.00291  -0.0326  0.6462  1.0000  -1.1271   0.0000   0.0000   0.0000   0.3172
   2.900   0.4812   0.01034   0.00294  -0.0322  0.6277  1.0000  -1.1869   0.0000   0.0000   0.0000   0.3149
   3.000   0.4907   0.01045   0.00297  -0.0317  0.6055  1.0000  -1.2483   0.0000   0.0000   0.0000   0.3127
   3.100   0.5001   0.01058   0.00300  -0.0312  0.5842  1.0000  -1.3113   0.0000   0.0000   0.0000   0.3104
   3.200   0.5098   0.01070   0.00306  -0.0309  0.5603  1.0000  -1.3769   0.0000   0.0000   0.0000   0.3084
   3.300   0.5190   0.01087   0.00312  -0.0303  0.5363  1.0000  -1.4429   0.0000   0.0000   0.0000   0.3063
   3.400   0.5286   0.01102   0.00321  -0.0300  0.5088  1.0000  -1.5199   0.0000   0.0000   0.0000   0.3045
   3.500   0.5350   0.01148   0.00322  -0.0290  0.4337  1.0000  -1.5872   0.0000   0.0000   0.0000   0.3020
   3.600   0.5413   0.01206   0.00332  -0.0284  0.3450  1.0000  -1.6519   0.0000   0.0000   0.0000   0.3000
   3.700   0.5499   0.01246   0.00348  -0.0280  0.2955  1.0000  -1.7195   0.0000   0.0000   0.0000   0.2985
   3.800   0.5584   0.01289   0.00367  -0.0277  0.2429  1.0000  -1.7819   0.0000   0.0000   0.0000   0.2971
   3.900   0.5640   0.01391   0.00400  -0.0273  0.1258  1.0000  -1.8297   0.0000   0.0000   0.0000   0.2958
   4.000   0.5706   0.01488   0.00443  -0.0269  0.0428  1.0000  -1.8754   0.0000   0.0000   0.0000   0.2945
   4.100   0.5803   0.01525   0.00476  -0.0266  0.0337  1.0000  -1.9240   0.0000   0.0000   0.0000   0.2931
   4.200   0.5905   0.01554   0.00509  -0.0263  0.0310  1.0000  -1.9732   0.0000   0.0000   0.0000   0.2917
   4.300   0.6007   0.01581   0.00545  -0.0260  0.0301  1.0000  -2.0311   0.0000   0.0000   0.0000   0.2904
   4.400   0.6107   0.01610   0.00584  -0.0257  0.0294  1.0000  -2.0887   0.0000   0.0000   0.0000   0.2891
   4.500   0.6207   0.01642   0.00626  -0.0254  0.0290  1.0000  -2.1456   0.0000   0.0000   0.0000   0.2879
   4.600   0.6304   0.01677   0.00671  -0.0251  0.0287  1.0000  -2.2011   0.0000   0.0000   0.0000   0.2866
   4.700   0.6400   0.01716   0.00719  -0.0247  0.0285  1.0000  -2.2550   0.0000   0.0000   0.0000   0.2854
   4.800   0.6493   0.01758   0.00771  -0.0243  0.0284  1.0000  -2.3071   0.0000   0.0000   0.0000   0.2842
   4.900   0.6584   0.01805   0.00826  -0.0239  0.0283  1.0000  -2.3571   0.0000   0.0000   0.0000   0.2830
   5.000   0.6673   0.01857   0.00886  -0.0235  0.0284  1.0000  -2.4051   0.0000   0.0000   0.0000   0.2818
   5.100   0.6762   0.01914   0.00949  -0.0230  0.0285  1.0000  -2.4511   0.0000   0.0000   0.0000   0.2805
   5.200   0.6851   0.01976   0.01016  -0.0225  0.0287  1.0000  -2.4953   0.0000   0.0000   0.0000   0.2793
   5.300   0.6941   0.02045   0.01090  -0.0220  0.0289  1.0000  -2.5376   0.0000   0.0000   0.0000   0.2781
   5.400   0.7033   0.02119   0.01169  -0.0216  0.0291  1.0000  -2.5780   0.0000   0.0000   0.0000   0.2770
   5.500   0.7127   0.02201   0.01257  -0.0211  0.0294  1.0000  -2.6162   0.0000   0.0000   0.0000   0.2759
   5.600   0.7222   0.02292   0.01354  -0.0207  0.0298  1.0000  -2.6515   0.0000   0.0000   0.0000   0.2748
   5.700   0.7319   0.02394   0.01463  -0.0203  0.0302  1.0000  -2.6832   0.0000   0.0000   0.0000   0.2738
   5.800   0.7415   0.02510   0.01588  -0.0199  0.0306  1.0000  -2.7098   0.0000   0.0000   0.0000   0.2728
   5.900   0.7508   0.02649   0.01738  -0.0195  0.0311  1.0000  -2.7278   0.0000   0.0000   0.0000   0.2719
   6.100   0.7703   0.02862   0.01973  -0.0188  0.0323  1.0000  -2.7965   0.0000   0.0000   0.0000   0.2702
   6.200   0.7810   0.02883   0.01999  -0.0185  0.0330  1.0000  -2.8652   0.0000   0.0000   0.0000   0.2694
   6.300   0.7917   0.02913   0.02039  -0.0181  0.0339  1.0000  -2.9229   0.0000   0.0000   0.0000   0.2685
   6.400   0.8036   0.02989   0.02222  -0.0173  0.0372  1.0000  -3.0158   0.0000   0.0000   0.0000   0.2671
   6.500   0.8128   0.03172   0.02441  -0.0165  0.0397  1.0000  -2.9835   0.0000   0.0000   0.0000   0.2658
   6.600   0.8207   0.03368   0.02668  -0.0158  0.0421  1.0000  -2.9538   0.0000   0.0000   0.0000   0.2647
   6.700   0.8276   0.03567   0.02893  -0.0152  0.0444  1.0000  -2.9339   0.0000   0.0000   0.0000   0.2638
   6.800   0.8335   0.03782   0.03130  -0.0147  0.0464  1.0000  -2.9168   0.0000   0.0000   0.0000   0.2630
   6.900   0.8376   0.04043   0.03411  -0.0142  0.0485  1.0000  -2.8910   0.0000   0.0000   0.0000   0.2624
   9.400   0.8121   0.10272   0.09890  -0.0239  0.1015  1.0000  -2.0129   0.0000   0.0000   0.0000   0.2739
   9.500   0.8042   0.10489   0.10106  -0.0274  0.1011  1.0000  -1.9563   0.0000   0.0000   0.0000   0.2786
   9.600   0.7969   0.10615   0.10227  -0.0324  0.0993  1.0000  -1.8841   0.0000   0.0000   0.0000   0.2850
   9.700   0.7897   0.10793   0.10397  -0.0364  0.0968  1.0000  -1.8108   0.0000   0.0000   0.0000   0.2904
   9.800   0.7863   0.10987   0.10587  -0.0386  0.0948  1.0000  -1.7716   0.0000   0.0000   0.0000   0.2934
   9.900   0.7844   0.11179   0.10777  -0.0402  0.0930  1.0000  -1.7484   0.0000   0.0000   0.0000   0.2954
  10.000   0.7831   0.11365   0.10963  -0.0414  0.0915  1.0000  -1.7339   0.0000   0.0000   0.0000   0.2970
  10.100   0.7822   0.11546   0.11143  -0.0425  0.0901  1.0000  -1.7241   0.0000   0.0000   0.0000   0.2983
  10.200   0.7816   0.11721   0.11318  -0.0434  0.0888  1.0000  -1.7178   0.0000   0.0000   0.0000   0.2995
  10.300   0.7815   0.11892   0.11490  -0.0441  0.0876  1.0000  -1.7151   0.0000   0.0000   0.0000   0.3004
  10.400   0.7818   0.12060   0.11658  -0.0448  0.0864  1.0000  -1.7155   0.0000   0.0000   0.0000   0.3012
  10.500   0.7826   0.12224   0.11823  -0.0454  0.0852  1.0000  -1.7192   0.0000   0.0000   0.0000   0.3018
  10.600   0.7839   0.12384   0.11984  -0.0459  0.0841  1.0000  -1.7264   0.0000   0.0000   0.0000   0.3022
  10.700   0.7856   0.12541   0.12141  -0.0462  0.0830  1.0000  -1.7369   0.0000   0.0000   0.0000   0.3025
  10.800   0.7877   0.12694   0.12295  -0.0465  0.0820  1.0000  -1.7515   0.0000   0.0000   0.0000   0.3025
  10.900   0.7906   0.12843   0.12445  -0.0465  0.0810  1.0000  -1.7716   0.0000   0.0000   0.0000   0.3023
  11.000   0.7943   0.12990   0.12593  -0.0463  0.0800  1.0000  -1.7990   0.0000   0.0000   0.0000   0.3016
  11.100   0.7987   0.13138   0.12742  -0.0459  0.0790  1.0000  -1.8337   0.0000   0.0000   0.0000   0.3007
  11.200   0.8037   0.13295   0.12902  -0.0452  0.0781  1.0000  -1.8750   0.0000   0.0000   0.0000   0.2993
  11.300   0.8109   0.13493   0.13103  -0.0436  0.0769  1.0000  -1.9359   0.0000   0.0000   0.0000   0.2968
  11.400   0.8002   0.14341   0.13943  -0.0440  0.0745  1.0000  -1.8605   0.0000   0.0000   0.0000   0.2981
  11.500   0.8001   0.14529   0.14130  -0.0452  0.0745  1.0000  -1.8429   0.0000   0.0000   0.0000   0.2995
  11.600   0.8000   0.14711   0.14312  -0.0464  0.0744  1.0000  -1.8259   0.0000   0.0000   0.0000   0.3009
  11.700   0.8001   0.14888   0.14488  -0.0476  0.0743  1.0000  -1.8095   0.0000   0.0000   0.0000   0.3024
  11.800   0.8003   0.15057   0.14656  -0.0488  0.0742  1.0000  -1.7935   0.0000   0.0000   0.0000   0.3038
  11.900   0.8005   0.15218   0.14816  -0.0500  0.0741  1.0000  -1.7778   0.0000   0.0000   0.0000   0.3052
  12.000   0.8008   0.15366   0.14963  -0.0513  0.0739  1.0000  -1.7622   0.0000   0.0000   0.0000   0.3066
  12.100   0.8012   0.15498   0.15094  -0.0525  0.0737  1.0000  -1.7463   0.0000   0.0000   0.0000   0.3081
  12.200   0.8016   0.15603   0.15199  -0.0540  0.0733  1.0000  -1.7293   0.0000   0.0000   0.0000   0.3098
  12.300   0.8007   0.15684   0.15277  -0.0558  0.0727  1.0000  -1.7007   0.0000   0.0000   0.0000   0.3121
  12.400   0.7993   0.15758   0.15349  -0.0579  0.0716  1.0000  -1.6644   0.0000   0.0000   0.0000   0.3148
  12.500   0.7981   0.15861   0.15451  -0.0598  0.0704  1.0000  -1.6312   0.0000   0.0000   0.0000   0.3172
  12.600   0.7978   0.15991   0.15580  -0.0614  0.0692  1.0000  -1.6067   0.0000   0.0000   0.0000   0.3190
  12.700   0.7980   0.16133   0.15721  -0.0626  0.0680  1.0000  -1.5895   0.0000   0.0000   0.0000   0.3205
  12.800   0.7987   0.16280   0.15868  -0.0637  0.0669  1.0000  -1.5773   0.0000   0.0000   0.0000   0.3217
  12.900   0.7997   0.16429   0.16015  -0.0646  0.0658  1.0000  -1.5686   0.0000   0.0000   0.0000   0.3227
  13.000   0.8009   0.16573   0.16159  -0.0655  0.0647  1.0000  -1.5626   0.0000   0.0000   0.0000   0.3235
  13.100   0.8023   0.16713   0.16299  -0.0663  0.0637  1.0000  -1.5589   0.0000   0.0000   0.0000   0.3243
  13.200   0.8039   0.16851   0.16438  -0.0670  0.0628  1.0000  -1.5573   0.0000   0.0000   0.0000   0.3249
  13.300   0.8056   0.16990   0.16576  -0.0677  0.0618  1.0000  -1.5574   0.0000   0.0000   0.0000   0.3255
  13.400   0.8075   0.17130   0.16716  -0.0683  0.0609  1.0000  -1.5595   0.0000   0.0000   0.0000   0.3260
  13.500   0.8097   0.17271   0.16857  -0.0690  0.0600  1.0000  -1.5636   0.0000   0.0000   0.0000   0.3265
  13.600   0.8119   0.17414   0.17000  -0.0695  0.0592  1.0000  -1.5698   0.0000   0.0000   0.0000   0.3268
  13.700   0.8144   0.17558   0.17145  -0.0700  0.0584  1.0000  -1.5784   0.0000   0.0000   0.0000   0.3271
  13.800   0.8171   0.17705   0.17292  -0.0705  0.0576  1.0000  -1.5898   0.0000   0.0000   0.0000   0.3272
  13.900   0.8201   0.17856   0.17444  -0.0708  0.0568  1.0000  -1.6046   0.0000   0.0000   0.0000   0.3272
  14.000   0.8235   0.18013   0.17601  -0.0711  0.0560  1.0000  -1.6237   0.0000   0.0000   0.0000   0.3271
  14.100   0.8274   0.18181   0.17770  -0.0712  0.0553  1.0000  -1.6488   0.0000   0.0000   0.0000   0.3267
  14.200   0.8322   0.18369   0.17959  -0.0710  0.0545  1.0000  -1.6832   0.0000   0.0000   0.0000   0.3259
  14.300   0.8382   0.18589   0.18181  -0.0705  0.0537  1.0000  -1.7298   0.0000   0.0000   0.0000   0.3246
  14.400   0.8440   0.18847   0.18441  -0.0698  0.0529  1.0000  -1.7810   0.0000   0.0000   0.0000   0.3230
  14.500   0.8483   0.19313   0.18909  -0.0688  0.0518  1.0000  -1.8189   0.0000   0.0000   0.0000   0.3214
  14.600   0.8439   0.20007   0.19596  -0.0700  0.0509  1.0000  -1.7412   0.0000   0.0000   0.0000   0.3232
  14.700   0.8456   0.20169   0.19758  -0.0709  0.0509  1.0000  -1.7321   0.0000   0.0000   0.0000   0.3240
  14.800   0.8474   0.20330   0.19918  -0.0718  0.0508  1.0000  -1.7231   0.0000   0.0000   0.0000   0.3248
  14.900   0.8491   0.20489   0.20077  -0.0728  0.0508  1.0000  -1.7143   0.0000   0.0000   0.0000   0.3257
  15.000   0.8508   0.20646   0.20234  -0.0737  0.0508  1.0000  -1.7055   0.0000   0.0000   0.0000   0.3265
  15.100   0.8526   0.20801   0.20388  -0.0746  0.0507  1.0000  -1.6969   0.0000   0.0000   0.0000   0.3273
  15.200   0.8544   0.20952   0.20539  -0.0756  0.0506  1.0000  -1.6883   0.0000   0.0000   0.0000   0.3282
  15.300   0.8562   0.21099   0.20686  -0.0766  0.0506  1.0000  -1.6796   0.0000   0.0000   0.0000   0.3290
  15.400   0.8579   0.21235   0.20822  -0.0776  0.0505  1.0000  -1.6706   0.0000   0.0000   0.0000   0.3299
  15.500   0.8596   0.21347   0.20933  -0.0786  0.0503  1.0000  -1.6604   0.0000   0.0000   0.0000   0.3309
  15.600   0.8604   0.21424   0.21010  -0.0800  0.0501  1.0000  -1.6429   0.0000   0.0000   0.0000   0.3322
  15.700   0.8606   0.21466   0.21050  -0.0815  0.0497  1.0000  -1.6193   0.0000   0.0000   0.0000   0.3338
  15.800   0.8596   0.21484   0.21066  -0.0831  0.0493  1.0000  -1.5894   0.0000   0.0000   0.0000   0.3357
  15.900   0.8589   0.21504   0.21085  -0.0849  0.0486  1.0000  -1.5569   0.0000   0.0000   0.0000   0.3378
  16.000   0.8591   0.21555   0.21135  -0.0867  0.0475  1.0000  -1.5258   0.0000   0.0000   0.0000   0.3397
  16.100   0.8603   0.21659   0.21238  -0.0881  0.0458  1.0000  -1.5040   0.0000   0.0000   0.0000   0.3411
  16.200   0.8622   0.21798   0.21377  -0.0893  0.0435  1.0000  -1.4970   0.0000   0.0000   0.0000   0.3421
  16.300   0.8644   0.21941   0.21520  -0.0900  0.0407  1.0000  -1.5093   0.0000   0.0000   0.0000   0.3426
  16.400   0.8678   0.22055   0.21635  -0.0901  0.0371  1.0000  -1.5658   0.0000   0.0000   0.0000   0.3421
  16.700   0.8805   0.23416   0.22996  -0.0870  0.0316  1.0000  -1.7581   0.0000   0.0000   0.0000   0.3368
  16.800   0.8823   0.23596   0.23176  -0.0879  0.0315  1.0000  -1.7486   0.0000   0.0000   0.0000   0.3375
  16.900   0.8840   0.23774   0.23353  -0.0888  0.0315  1.0000  -1.7390   0.0000   0.0000   0.0000   0.3382
  17.000   0.8856   0.23949   0.23528  -0.0897  0.0314  1.0000  -1.7294   0.0000   0.0000   0.0000   0.3389
  17.100   0.8873   0.24120   0.23699  -0.0906  0.0314  1.0000  -1.7198   0.0000   0.0000   0.0000   0.3396
  17.200   0.8889   0.24287   0.23865  -0.0916  0.0313  1.0000  -1.7100   0.0000   0.0000   0.0000   0.3404
  17.300   0.8905   0.24447   0.24025  -0.0925  0.0312  1.0000  -1.7000   0.0000   0.0000   0.0000   0.3411
  17.400   0.8920   0.24598   0.24176  -0.0935  0.0311  1.0000  -1.6896   0.0000   0.0000   0.0000   0.3419
  17.500   0.8930   0.24733   0.24311  -0.0945  0.0309  1.0000  -1.6738   0.0000   0.0000   0.0000   0.3429
  17.600   0.8934   0.24851   0.24428  -0.0958  0.0308  1.0000  -1.6525   0.0000   0.0000   0.0000   0.3441
  17.700   0.8936   0.24959   0.24536  -0.0971  0.0306  1.0000  -1.6281   0.0000   0.0000   0.0000   0.3455
  17.800   0.8940   0.25062   0.24638  -0.0985  0.0302  1.0000  -1.6014   0.0000   0.0000   0.0000   0.3469
  17.900   0.8948   0.25171   0.24746  -0.1000  0.0297  1.0000  -1.5728   0.0000   0.0000   0.0000   0.3483
  18.000   0.8962   0.25307   0.24882  -0.1013  0.0290  1.0000  -1.5465   0.0000   0.0000   0.0000   0.3495
  18.100   0.8979   0.25476   0.25051  -0.1024  0.0282  1.0000  -1.5279   0.0000   0.0000   0.0000   0.3504
  18.200   0.8996   0.25666   0.25240  -0.1034  0.0274  1.0000  -1.5162   0.0000   0.0000   0.0000   0.3511
  18.300   0.9013   0.25864   0.25438  -0.1042  0.0266  1.0000  -1.5088   0.0000   0.0000   0.0000   0.3517
  18.400   0.9030   0.26065   0.25640  -0.1050  0.0259  1.0000  -1.5041   0.0000   0.0000   0.0000   0.3522
  18.500   0.9046   0.26269   0.25843  -0.1057  0.0253  1.0000  -1.5012   0.0000   0.0000   0.0000   0.3527
  18.600   0.9062   0.26472   0.26047  -0.1064  0.0246  1.0000  -1.4997   0.0000   0.0000   0.0000   0.3532
  18.700   0.9078   0.26674   0.26259  -0.1071  0.0244  1.0000  -1.4953   0.0000   0.0000   0.0000   0.3536
  18.800   0.9093   0.26878   0.26464  -0.1077  0.0239  1.0000  -1.4941   0.0000   0.0000   0.0000   0.3540
  18.900   0.9107   0.27083   0.26669  -0.1084  0.0235  1.0000  -1.4942   0.0000   0.0000   0.0000   0.3544
  19.000   0.9121   0.27287   0.26874  -0.1090  0.0230  1.0000  -1.4951   0.0000   0.0000   0.0000   0.3548
  19.100   0.9134   0.27492   0.27079  -0.1096  0.0225  1.0000  -1.4969   0.0000   0.0000   0.0000   0.3552
  19.200   0.9147   0.27696   0.27283  -0.1102  0.0221  1.0000  -1.4996   0.0000   0.0000   0.0000   0.3555
  19.300   0.9160   0.27899   0.27487  -0.1108  0.0217  1.0000  -1.5030   0.0000   0.0000   0.0000   0.3559
  19.400   0.9172   0.28102   0.27690  -0.1114  0.0213  1.0000  -1.5072   0.0000   0.0000   0.0000   0.3562
  19.500   0.9183   0.28304   0.27893  -0.1119  0.0209  1.0000  -1.5124   0.0000   0.0000   0.0000   0.3565
  19.600   0.9193   0.28506   0.28095  -0.1124  0.0206  1.0000  -1.5184   0.0000   0.0000   0.0000   0.3568
  19.700   0.9203   0.28706   0.28297  -0.1129  0.0202  1.0000  -1.5254   0.0000   0.0000   0.0000   0.3571
  19.800   0.9212   0.28906   0.28497  -0.1134  0.0199  1.0000  -1.5336   0.0000   0.0000   0.0000   0.3573
  19.900   0.9221   0.29106   0.28698  -0.1138  0.0196  1.0000  -1.5430   0.0000   0.0000   0.0000   0.3576
  20.000   0.9228   0.29305   0.28898  -0.1142  0.0193  1.0000  -1.5540   0.0000   0.0000   0.0000   0.3578
  20.100   0.9235   0.29505   0.29098  -0.1146  0.0190  1.0000  -1.5665   0.0000   0.0000   0.0000   0.3579
  20.200   0.9241   0.29705   0.29299  -0.1149  0.0188  1.0000  -1.5812   0.0000   0.0000   0.0000   0.3580
  20.300   0.9247   0.29909   0.29504  -0.1151  0.0185  1.0000  -1.5983   0.0000   0.0000   0.0000   0.3580
  20.400   0.9252   0.30119   0.29715  -0.1152  0.0182  1.0000  -1.6185   0.0000   0.0000   0.0000   0.3580
  20.500   0.9259   0.30343   0.29940  -0.1152  0.0180  1.0000  -1.6431   0.0000   0.0000   0.0000   0.3578
  20.600   0.9268   0.30603   0.30202  -0.1150  0.0177  1.0000  -1.6752   0.0000   0.0000   0.0000   0.3573
  20.700   0.9300   0.31066   0.30668  -0.1140  0.0172  1.0000  -1.7274   0.0000   0.0000   0.0000   0.3558
  20.800   0.9270   0.31735   0.31332  -0.1140  0.0168  1.0000  -1.6514   0.0000   0.0000   0.0000   0.3561
  20.900   0.9261   0.31912   0.31510  -0.1144  0.0168  1.0000  -1.6400   0.0000   0.0000   0.0000   0.3566
  21.000   0.9249   0.32081   0.31680  -0.1148  0.0168  1.0000  -1.6280   0.0000   0.0000   0.0000   0.3570
  21.100   0.9234   0.32241   0.31841  -0.1151  0.0168  1.0000  -1.6154   0.0000   0.0000   0.0000   0.3575
  21.200   0.9214   0.32388   0.31989  -0.1154  0.0168  1.0000  -1.6018   0.0000   0.0000   0.0000   0.3580
  21.300   0.9188   0.32517   0.32119  -0.1156  0.0167  1.0000  -1.5869   0.0000   0.0000   0.0000   0.3585
  21.400   0.9150   0.32613   0.32218  -0.1157  0.0167  1.0000  -1.5695   0.0000   0.0000   0.0000   0.3590
  21.500   0.8833   0.31930   0.31544  -0.1121  0.0167  1.0000  -1.4909   0.0000   0.0000   0.0000   0.3598
  21.600   0.8738   0.31788   0.31405  -0.1113  0.0167  1.0000  -1.4613   0.0000   0.0000   0.0000   0.3603
  21.700   0.8673   0.31720   0.31340  -0.1110  0.0167  1.0000  -1.4384   0.0000   0.0000   0.0000   0.3609
  21.800   0.8621   0.31684   0.31306  -0.1108  0.0167  1.0000  -1.4185   0.0000   0.0000   0.0000   0.3614
  21.900   0.8577   0.31666   0.31290  -0.1107  0.0167  1.0000  -1.4004   0.0000   0.0000   0.0000   0.3619
  22.000   0.8539   0.31659   0.31285  -0.1107  0.0167  1.0000  -1.3837   0.0000   0.0000   0.0000   0.3624
  22.100   0.8505   0.31660   0.31287  -0.1108  0.0167  1.0000  -1.3679   0.0000   0.0000   0.0000   0.3629
  22.200   0.8474   0.31664   0.31293  -0.1109  0.0167  1.0000  -1.3526   0.0000   0.0000   0.0000   0.3635
  22.300   0.8445   0.31674   0.31304  -0.1110  0.0167  1.0000  -1.3380   0.0000   0.0000   0.0000   0.3640
  22.400   0.8418   0.31687   0.31319  -0.1111  0.0167  1.0000  -1.3240   0.0000   0.0000   0.0000   0.3645
  22.500   0.8394   0.31704   0.31337  -0.1113  0.0167  1.0000  -1.3105   0.0000   0.0000   0.0000   0.3650
  22.600   0.8372   0.31723   0.31358  -0.1115  0.0166  1.0000  -1.2974   0.0000   0.0000   0.0000   0.3655
  22.700   0.8351   0.31744   0.31381  -0.1117  0.0166  1.0000  -1.2847   0.0000   0.0000   0.0000   0.3660
  22.800   0.8330   0.31766   0.31403  -0.1120  0.0166  1.0000  -1.2721   0.0000   0.0000   0.0000   0.3665
  22.900   0.8311   0.31786   0.31425  -0.1122  0.0166  1.0000  -1.2594   0.0000   0.0000   0.0000   0.3670
  23.000   0.8292   0.31808   0.31448  -0.1125  0.0166  1.0000  -1.2470   0.0000   0.0000   0.0000   0.3676
  23.100   0.8275   0.31831   0.31472  -0.1128  0.0166  1.0000  -1.2350   0.0000   0.0000   0.0000   0.3681
  23.200   0.8257   0.31849   0.31491  -0.1131  0.0165  1.0000  -1.2215   0.0000   0.0000   0.0000   0.3687
  23.300   0.8240   0.31866   0.31510  -0.1134  0.0165  1.0000  -1.2079   0.0000   0.0000   0.0000   0.3693
  23.400   0.8223   0.31885   0.31529  -0.1138  0.0165  1.0000  -1.1945   0.0000   0.0000   0.0000   0.3699
  23.500   0.8208   0.31905   0.31550  -0.1141  0.0165  1.0000  -1.1814   0.0000   0.0000   0.0000   0.3704
  23.600   0.8193   0.31926   0.31573  -0.1145  0.0164  1.0000  -1.1684   0.0000   0.0000   0.0000   0.3710
  23.700   0.8180   0.31948   0.31596  -0.1149  0.0164  1.0000  -1.1556   0.0000   0.0000   0.0000   0.3716
  23.800   0.8167   0.31973   0.31622  -0.1153  0.0164  1.0000  -1.1430   0.0000   0.0000   0.0000   0.3722
  23.900   0.8155   0.31998   0.31648  -0.1157  0.0163  1.0000  -1.1304   0.0000   0.0000   0.0000   0.3728
  24.000   0.8144   0.32025   0.31676  -0.1161  0.0163  1.0000  -1.1180   0.0000   0.0000   0.0000   0.3734
  24.100   0.8134   0.32053   0.31705  -0.1165  0.0163  1.0000  -1.1057   0.0000   0.0000   0.0000   0.3740
  24.200   0.8125   0.32084   0.31737  -0.1170  0.0162  1.0000  -1.0934   0.0000   0.0000   0.0000   0.3746
  24.300   0.8117   0.32117   0.31771  -0.1175  0.0162  1.0000  -1.0812   0.0000   0.0000   0.0000   0.3752
  24.400   0.8110   0.32152   0.31807  -0.1179  0.0161  1.0000  -1.0690   0.0000   0.0000   0.0000   0.3758
  24.500   0.8104   0.32191   0.31847  -0.1184  0.0160  1.0000  -1.0568   0.0000   0.0000   0.0000   0.3764
  24.600   0.8100   0.32234   0.31890  -0.1189  0.0159  1.0000  -1.0447   0.0000   0.0000   0.0000   0.3769
  24.700   0.8096   0.32280   0.31938  -0.1195  0.0158  1.0000  -1.0327   0.0000   0.0000   0.0000   0.3775
  24.800   0.8094   0.32332   0.31990  -0.1200  0.0157  1.0000  -1.0209   0.0000   0.0000   0.0000   0.3780
  24.900   0.8092   0.32387   0.32047  -0.1205  0.0156  1.0000  -1.0095   0.0000   0.0000   0.0000   0.3786
  25.000   0.8091   0.32447   0.32107  -0.1210  0.0155  1.0000  -0.9987   0.0000   0.0000   0.0000   0.3791
  25.100   0.8091   0.32509   0.32171  -0.1215  0.0153  1.0000  -0.9884   0.0000   0.0000   0.0000   0.3795
  25.200   0.8091   0.32574   0.32237  -0.1219  0.0151  1.0000  -0.9788   0.0000   0.0000   0.0000   0.3800
  25.300   0.8090   0.32640   0.32304  -0.1224  0.0150  1.0000  -0.9699   0.0000   0.0000   0.0000   0.3804
  25.400   0.8090   0.32707   0.32372  -0.1228  0.0148  1.0000  -0.9616   0.0000   0.0000   0.0000   0.3808
  25.500   0.8089   0.32774   0.32440  -0.1232  0.0147  1.0000  -0.9540   0.0000   0.0000   0.0000   0.3812
  25.600   0.8088   0.32842   0.32508  -0.1236  0.0145  1.0000  -0.9469   0.0000   0.0000   0.0000   0.3816
  25.700   0.8088   0.32909   0.32576  -0.1240  0.0143  1.0000  -0.9404   0.0000   0.0000   0.0000   0.3819
  25.800   0.8087   0.32976   0.32644  -0.1244  0.0142  1.0000  -0.9342   0.0000   0.0000   0.0000   0.3823
  25.900   0.8086   0.33043   0.32712  -0.1248  0.0140  1.0000  -0.9284   0.0000   0.0000   0.0000   0.3827
  26.000   0.8085   0.33109   0.32780  -0.1252  0.0138  1.0000  -0.9229   0.0000   0.0000   0.0000   0.3830
  26.100   0.8084   0.33176   0.32847  -0.1256  0.0137  1.0000  -0.9177   0.0000   0.0000   0.0000   0.3834
  26.200   0.8083   0.33243   0.32915  -0.1260  0.0135  1.0000  -0.9127   0.0000   0.0000   0.0000   0.3837
  26.300   0.8082   0.33309   0.32983  -0.1264  0.0134  1.0000  -0.9080   0.0000   0.0000   0.0000   0.3841
  26.400   0.8081   0.33376   0.33050  -0.1268  0.0132  1.0000  -0.9035   0.0000   0.0000   0.0000   0.3844
  26.500   0.8080   0.33442   0.33118  -0.1271  0.0131  1.0000  -0.8992   0.0000   0.0000   0.0000   0.3847
  26.600   0.8079   0.33509   0.33185  -0.1275  0.0129  1.0000  -0.8951   0.0000   0.0000   0.0000   0.3851
  26.700   0.8078   0.33576   0.33253  -0.1279  0.0128  1.0000  -0.8911   0.0000   0.0000   0.0000   0.3854
  26.800   0.8078   0.33641   0.33327  -0.1283  0.0127  1.0000  -0.8875   0.0000   0.0000   0.0000   0.3857
  26.900   0.8077   0.33708   0.33394  -0.1287  0.0126  1.0000  -0.8838   0.0000   0.0000   0.0000   0.3861
  27.000   0.8076   0.33774   0.33462  -0.1291  0.0124  1.0000  -0.8803   0.0000   0.0000   0.0000   0.3864
  27.100   0.8076   0.33841   0.33529  -0.1295  0.0123  1.0000  -0.8768   0.0000   0.0000   0.0000   0.3867
  27.200   0.8075   0.33907   0.33597  -0.1299  0.0122  1.0000  -0.8735   0.0000   0.0000   0.0000   0.3870
  27.300   0.8075   0.33974   0.33665  -0.1302  0.0121  1.0000  -0.8703   0.0000   0.0000   0.0000   0.3874
  27.400   0.8075   0.34041   0.33732  -0.1306  0.0119  1.0000  -0.8672   0.0000   0.0000   0.0000   0.3877
  27.500   0.8074   0.34108   0.33800  -0.1310  0.0118  1.0000  -0.8642   0.0000   0.0000   0.0000   0.3880
  27.600   0.8074   0.34174   0.33868  -0.1314  0.0117  1.0000  -0.8613   0.0000   0.0000   0.0000   0.3883
  27.700   0.8074   0.34241   0.33936  -0.1318  0.0116  1.0000  -0.8585   0.0000   0.0000   0.0000   0.3887
  27.800   0.8074   0.34308   0.34004  -0.1322  0.0115  1.0000  -0.8558   0.0000   0.0000   0.0000   0.3890
  27.900   0.8074   0.34375   0.34071  -0.1326  0.0113  1.0000  -0.8532   0.0000   0.0000   0.0000   0.3893
  28.000   0.8074   0.34442   0.34139  -0.1330  0.0112  1.0000  -0.8507   0.0000   0.0000   0.0000   0.3896
  28.100   0.8074   0.34509   0.34207  -0.1334  0.0111  1.0000  -0.8483   0.0000   0.0000   0.0000   0.3899
  28.200   0.8074   0.34576   0.34275  -0.1338  0.0110  1.0000  -0.8461   0.0000   0.0000   0.0000   0.3902
  28.300   0.8074   0.34642   0.34343  -0.1342  0.0109  1.0000  -0.8438   0.0000   0.0000   0.0000   0.3906
  28.400   0.8074   0.34709   0.34411  -0.1346  0.0108  1.0000  -0.8417   0.0000   0.0000   0.0000   0.3909
  28.500   0.8074   0.34776   0.34479  -0.1350  0.0107  1.0000  -0.8397   0.0000   0.0000   0.0000   0.3912
  28.600   0.8074   0.34843   0.34546  -0.1354  0.0105  1.0000  -0.8378   0.0000   0.0000   0.0000   0.3915
  28.700   0.8074   0.34910   0.34614  -0.1358  0.0104  1.0000  -0.8360   0.0000   0.0000   0.0000   0.3918
  28.800   0.8074   0.34977   0.34682  -0.1362  0.0103  1.0000  -0.8343   0.0000   0.0000   0.0000   0.3921
  28.900   0.8074   0.35043   0.34750  -0.1367  0.0102  1.0000  -0.8326   0.0000   0.0000   0.0000   0.3924
  29.000   0.8074   0.35110   0.34818  -0.1371  0.0101  1.0000  -0.8311   0.0000   0.0000   0.0000   0.3927
  29.100   0.8074   0.35177   0.34885  -0.1375  0.0100  1.0000  -0.8297   0.0000   0.0000   0.0000   0.3930
  29.200   0.8074   0.35243   0.34953  -0.1379  0.0099  1.0000  -0.8283   0.0000   0.0000   0.0000   0.3933
  29.300   0.8075   0.35310   0.35020  -0.1383  0.0098  1.0000  -0.8271   0.0000   0.0000   0.0000   0.3936
  29.400   0.8075   0.35376   0.35087  -0.1387  0.0097  1.0000  -0.8259   0.0000   0.0000   0.0000   0.3940
  29.500   0.8075   0.35442   0.35154  -0.1391  0.0096  1.0000  -0.8248   0.0000   0.0000   0.0000   0.3943
  29.600   0.8075   0.35508   0.35222  -0.1395  0.0095  1.0000  -0.8239   0.0000   0.0000   0.0000   0.3946
  29.700   0.8075   0.35574   0.35289  -0.1399  0.0094  1.0000  -0.8231   0.0000   0.0000   0.0000   0.3949
  29.800   0.8075   0.35640   0.35356  -0.1404  0.0093  1.0000  -0.8223   0.0000   0.0000   0.0000   0.3952
  29.900   0.8075   0.35706   0.35422  -0.1408  0.0092  1.0000  -0.8217   0.0000   0.0000   0.0000   0.3955
  30.000   0.8075   0.35772   0.35489  -0.1412  0.0092  1.0000  -0.8212   0.0000   0.0000   0.0000   0.3958


