xflr5 v6.61

 Calculated polar for: S6063 7.05%

 1 1 Reynolds number fixed          Mach number fixed         

 xtrf =   1.000 (top)        1.000 (bottom)
 Mach =   0.000     Re =     0.625 e 6     Ncrit =   9.000

  alpha     CL        CD       CDp       Cm    Top Xtr Bot Xtr   Cpmin    Chinge    XCp    
 ------- -------- --------- --------- -------- ------- ------- -------- --------- ---------
 -10.000  -0.5408   0.11839   0.11617   0.0134  1.0000  0.0057  -1.8293   0.0000   0.0000   0.0000   0.2710
  -9.900  -0.5389   0.11685   0.11464   0.0127  1.0000  0.0057  -1.8387   0.0000   0.0000   0.0000   0.2698
  -9.800  -0.5370   0.11531   0.11309   0.0120  1.0000  0.0057  -1.8483   0.0000   0.0000   0.0000   0.2687
  -9.700  -0.5351   0.11377   0.11155   0.0113  1.0000  0.0057  -1.8581   0.0000   0.0000   0.0000   0.2675
  -9.600  -0.5333   0.11222   0.11000   0.0106  1.0000  0.0057  -1.8679   0.0000   0.0000   0.0000   0.2663
  -9.500  -0.5314   0.11067   0.10845   0.0099  1.0000  0.0057  -1.8777   0.0000   0.0000   0.0000   0.2651
  -9.400  -0.5296   0.10913   0.10690   0.0092  1.0000  0.0057  -1.8872   0.0000   0.0000   0.0000   0.2639
  -9.300  -0.5277   0.10763   0.10525   0.0087  1.0000  0.0057  -1.8799   0.0000   0.0000   0.0000   0.2631
  -9.200  -0.5260   0.10607   0.10370   0.0080  1.0000  0.0057  -1.8916   0.0000   0.0000   0.0000   0.2618
  -9.100  -0.5244   0.10452   0.10215   0.0072  1.0000  0.0057  -1.9037   0.0000   0.0000   0.0000   0.2605
  -9.000  -0.5228   0.10297   0.10060   0.0065  1.0000  0.0057  -1.9161   0.0000   0.0000   0.0000   0.2592
  -8.900  -0.5213   0.10142   0.09905   0.0057  1.0000  0.0057  -1.9289   0.0000   0.0000   0.0000   0.2578
  -8.800  -0.5198   0.09987   0.09751   0.0050  1.0000  0.0057  -1.9422   0.0000   0.0000   0.0000   0.2565
  -8.700  -0.5185   0.09833   0.09597   0.0043  1.0000  0.0057  -1.9559   0.0000   0.0000   0.0000   0.2551
  -8.600  -0.5172   0.09679   0.09444   0.0035  1.0000  0.0057  -1.9700   0.0000   0.0000   0.0000   0.2537
  -8.500  -0.5160   0.09525   0.09291   0.0027  1.0000  0.0057  -1.9846   0.0000   0.0000   0.0000   0.2523
  -8.400  -0.5147   0.09368   0.09134   0.0019  1.0000  0.0057  -1.9996   0.0000   0.0000   0.0000   0.2508
  -8.300  -0.5134   0.09210   0.08977   0.0011  1.0000  0.0057  -2.0151   0.0000   0.0000   0.0000   0.2492
  -8.200  -0.5122   0.09052   0.08819   0.0002  1.0000  0.0057  -2.0312   0.0000   0.0000   0.0000   0.2476
  -8.100  -0.5111   0.08893   0.08661  -0.0006  1.0000  0.0057  -2.0479   0.0000   0.0000   0.0000   0.2459
  -8.000  -0.5101   0.08735   0.08503  -0.0015  1.0000  0.0057  -2.0652   0.0000   0.0000   0.0000   0.2442
  -5.500  -0.4319   0.03325   0.02986  -0.0349  1.0000  0.0061  -3.2509   0.0000   0.0000   0.0000   0.1668
  -5.400  -0.4304   0.02979   0.02614  -0.0347  1.0000  0.0065  -3.4487   0.0000   0.0000   0.0000   0.1669
  -5.300  -0.4267   0.02771   0.02389  -0.0343  1.0000  0.0068  -3.5081   0.0000   0.0000   0.0000   0.1673
  -5.200  -0.4219   0.02633   0.02240  -0.0337  1.0000  0.0070  -3.4946   0.0000   0.0000   0.0000   0.1677
  -5.100  -0.4166   0.02533   0.02132  -0.0331  1.0000  0.0073  -3.4430   0.0000   0.0000   0.0000   0.1682
  -5.000  -0.4112   0.02455   0.02047  -0.0324  1.0000  0.0076  -3.3727   0.0000   0.0000   0.0000   0.1688
  -4.900  -0.4058   0.02389   0.01974  -0.0317  1.0000  0.0078  -3.2938   0.0000   0.0000   0.0000   0.1696
  -4.800  -0.3949   0.02313   0.01891  -0.0321  0.9992  0.0082  -3.1827   0.0000   0.0000   0.0000   0.1665
  -4.700  -0.3816   0.02240   0.01811  -0.0330  0.9980  0.0087  -3.0540   0.0000   0.0000   0.0000   0.1614
  -4.600  -0.3679   0.02174   0.01738  -0.0338  0.9968  0.0093  -2.9229   0.0000   0.0000   0.0000   0.1558
  -4.500  -0.3546   0.02107   0.01663  -0.0345  0.9954  0.0099  -2.8054   0.0000   0.0000   0.0000   0.1504
  -4.400  -0.3410   0.02039   0.01588  -0.0352  0.9939  0.0107  -2.6969   0.0000   0.0000   0.0000   0.1444
  -4.300  -0.3270   0.01974   0.01515  -0.0360  0.9924  0.0117  -2.5944   0.0000   0.0000   0.0000   0.1378
  -4.200  -0.3126   0.01918   0.01452  -0.0366  0.9911  0.0129  -2.4926   0.0000   0.0000   0.0000   0.1306
  -4.100  -0.2977   0.01893   0.01422  -0.0373  0.9900  0.0144  -2.3754   0.0000   0.0000   0.0000   0.1224
  -3.900  -0.2706   0.01711   0.01224  -0.0395  0.9878  0.0221  -2.1174   0.0000   0.0000   0.0000   0.1018
  -3.700  -0.2449   0.01690   0.01201  -0.0409  0.9836  0.0358  -1.8205   0.0000   0.0000   0.0000   0.0807
  -3.600  -0.2326   0.01671   0.01194  -0.0418  0.9813  0.0408  -1.6720   0.0000   0.0000   0.0000   0.0683
  -3.500  -0.2188   0.01720   0.01250  -0.0424  0.9792  0.0481  -1.5374   0.0000   0.0000   0.0000   0.0542
  -3.400  -0.2064   0.01598   0.01115  -0.0431  0.9769  0.0576  -1.4795   0.0000   0.0000   0.0000   0.0392
  -3.300  -0.1938   0.01578   0.01109  -0.0439  0.9751  0.0650  -1.3623   0.0000   0.0000   0.0000   0.0214
  -3.200  -0.1798   0.01567   0.01098  -0.0444  0.9735  0.0711  -1.2860   0.0000   0.0000   0.0000   0.0011
  -3.100  -0.1667   0.01521   0.01047  -0.0444  0.9710  0.0732  -1.2410   0.0000   0.0000   0.0000  -0.0188
  -2.800  -0.1283   0.01051   0.00498  -0.0417  0.9604  0.0269  -1.5061   0.0000   0.0000   0.0000  -0.0778
  -2.700  -0.1165   0.00960   0.00385  -0.0410  0.9568  0.0195  -1.5840   0.0000   0.0000   0.0000  -0.1051
  -2.600  -0.1039   0.00974   0.00399  -0.0410  0.9534  0.0171  -1.4929   0.0000   0.0000   0.0000  -0.1479
  -2.500  -0.0935   0.00930   0.00350  -0.0406  0.9495  0.0156  -1.4733   0.0000   0.0000   0.0000  -0.1876
  -2.400  -0.0839   0.00886   0.00297  -0.0401  0.9446  0.0146  -1.4581   0.0000   0.0000   0.0000  -0.2309
  -2.300  -0.0738   0.00858   0.00262  -0.0396  0.9399  0.0138  -1.4227   0.0000   0.0000   0.0000  -0.2906
  -2.200  -0.0634   0.00837   0.00234  -0.0392  0.9353  0.0132  -1.3765   0.0000   0.0000   0.0000  -0.3728
  -2.100  -0.0530   0.00821   0.00211  -0.0388  0.9309  0.0127  -1.3231   0.0000   0.0000   0.0000  -0.4871
  -2.000  -0.0426   0.00809   0.00193  -0.0384  0.9264  0.0124  -1.2638   0.0000   0.0000   0.0000  -0.6578
  -1.900  -0.0320   0.00798   0.00178  -0.0382  0.9224  0.0121  -1.1975   0.0000   0.0000   0.0000  -0.9493
  -1.700  -0.0102   0.00772   0.00134  -0.0374  0.9135  0.0163  -0.9417   0.0000   0.0000   0.0000  -3.4172
  -1.600  -0.0009   0.00722   0.00123  -0.0372  0.9089  0.1090  -0.8588   0.0000   0.0000   0.0000  -41.2027
  -1.500   0.0086   0.00691   0.00119  -0.0370  0.9043  0.1791  -0.7656   0.0000   0.0000   0.0000   4.5639
  -1.400   0.0181   0.00664   0.00116  -0.0368  0.8995  0.2437  -0.6714   0.0000   0.0000   0.0000   2.2867
  -1.300   0.0279   0.00643   0.00113  -0.0366  0.8945  0.2983  -0.5991   0.0000   0.0000   0.0000   1.5643
  -1.200   0.0381   0.00622   0.00111  -0.0365  0.8905  0.3522  -0.5487   0.0000   0.0000   0.0000   1.2098
  -1.100   0.0482   0.00601   0.00109  -0.0364  0.8857  0.4093  -0.5005   0.0000   0.0000   0.0000   1.0064
  -1.000   0.0575   0.00568   0.00107  -0.0361  0.8805  0.4999  -0.4553   0.0000   0.0000   0.0000   0.8795
  -0.900   0.0648   0.00515   0.00110  -0.0355  0.8752  0.6576  -0.4155   0.0000   0.0000   0.0000   0.7978
  -0.800   0.0707   0.00476   0.00116  -0.0341  0.8698  0.7865  -0.3855   0.0000   0.0000   0.0000   0.7331
  -0.700   0.0765   0.00459   0.00120  -0.0326  0.8642  0.8629  -0.3618   0.0000   0.0000   0.0000   0.6757
  -0.600   0.0846   0.00453   0.00121  -0.0316  0.8589  0.8971  -0.3409   0.0000   0.0000   0.0000   0.6236
  -0.500   0.0943   0.00449   0.00121  -0.0311  0.8546  0.9163  -0.3200   0.0000   0.0000   0.0000   0.5796
  -0.400   0.1050   0.00447   0.00120  -0.0308  0.8494  0.9315  -0.3166   0.0000   0.0000   0.0000   0.5435
  -0.300   0.1165   0.00446   0.00118  -0.0307  0.8440  0.9465  -0.3265   0.0000   0.0000   0.0000   0.5136
  -0.200   0.1301   0.00445   0.00116  -0.0312  0.8388  0.9592  -0.3375   0.0000   0.0000   0.0000   0.4891
  -0.100   0.1441   0.00445   0.00114  -0.0317  0.8336  0.9712  -0.3487   0.0000   0.0000   0.0000   0.4693
   0.000   0.1598   0.00446   0.00111  -0.0326  0.8276  0.9790  -0.3619   0.0000   0.0000   0.0000   0.4535
   0.100   0.1744   0.00448   0.00108  -0.0333  0.8209  0.9859  -0.3752   0.0000   0.0000   0.0000   0.4404
   0.200   0.1907   0.00446   0.00106  -0.0344  0.8163  0.9918  -0.3895   0.0000   0.0000   0.0000   0.4299
   0.300   0.2072   0.00445   0.00104  -0.0356  0.8102  0.9978  -0.4040   0.0000   0.0000   0.0000   0.4211
   0.400   0.2196   0.00446   0.00102  -0.0359  0.8031  1.0000  -0.4162   0.0000   0.0000   0.0000   0.4126
   0.500   0.2295   0.00449   0.00101  -0.0356  0.7955  1.0000  -0.4272   0.0000   0.0000   0.0000   0.4043
   0.600   0.2393   0.00452   0.00099  -0.0353  0.7871  1.0000  -0.4397   0.0000   0.0000   0.0000   0.3965
   0.700   0.2493   0.00456   0.00098  -0.0350  0.7786  1.0000  -0.4524   0.0000   0.0000   0.0000   0.3895
   0.800   0.2598   0.00457   0.00098  -0.0349  0.7724  1.0000  -0.4654   0.0000   0.0000   0.0000   0.3833
   0.900   0.2702   0.00459   0.00098  -0.0347  0.7647  1.0000  -0.4784   0.0000   0.0000   0.0000   0.3774
   1.000   0.2805   0.00461   0.00097  -0.0345  0.7565  1.0000  -0.4935   0.0000   0.0000   0.0000   0.3719
   1.100   0.2907   0.00465   0.00097  -0.0343  0.7480  1.0000  -0.5089   0.0000   0.0000   0.0000   0.3668
   1.200   0.3008   0.00471   0.00096  -0.0340  0.7371  1.0000  -0.5243   0.0000   0.0000   0.0000   0.3620
   1.300   0.3110   0.00474   0.00096  -0.0338  0.7209  1.0000  -0.5399   0.0000   0.0000   0.0000   0.3575
   1.400   0.3199   0.00488   0.00092  -0.0332  0.6858  1.0000  -0.5547   0.0000   0.0000   0.0000   0.3527
   1.500   0.3287   0.00507   0.00090  -0.0327  0.6385  1.0000  -0.5694   0.0000   0.0000   0.0000   0.3483
   1.600   0.3375   0.00530   0.00089  -0.0323  0.5847  1.0000  -0.5870   0.0000   0.0000   0.0000   0.3444
   1.700   0.3466   0.00553   0.00090  -0.0320  0.5344  1.0000  -0.6054   0.0000   0.0000   0.0000   0.3409
   1.800   0.3567   0.00567   0.00092  -0.0318  0.5064  1.0000  -0.6252   0.0000   0.0000   0.0000   0.3377
   1.900   0.3592   0.00721   0.00110  -0.0311  0.2172  1.0000  -0.6366   0.0000   0.0000   0.0000   0.3351
   2.000   0.3650   0.00843   0.00145  -0.0307  0.0187  1.0000  -0.6443   0.0000   0.0000   0.0000   0.3327
   2.100   0.3757   0.00850   0.00142  -0.0307  0.0150  1.0000  -0.6824   0.0000   0.0000   0.0000   0.3301
   2.200   0.3864   0.00858   0.00143  -0.0306  0.0139  1.0000  -0.7130   0.0000   0.0000   0.0000   0.3276
   2.300   0.3973   0.00862   0.00146  -0.0305  0.0125  1.0000  -0.7770   0.0000   0.0000   0.0000   0.3252
   2.400   0.4081   0.00866   0.00152  -0.0305  0.0118  1.0000  -0.8435   0.0000   0.0000   0.0000   0.3230
   2.500   0.4189   0.00872   0.00158  -0.0304  0.0113  1.0000  -0.9105   0.0000   0.0000   0.0000   0.3209
   2.600   0.4297   0.00879   0.00164  -0.0304  0.0111  1.0000  -0.9786   0.0000   0.0000   0.0000   0.3189
   2.700   0.4405   0.00886   0.00172  -0.0303  0.0109  1.0000  -1.0481   0.0000   0.0000   0.0000   0.3170
   2.800   0.4513   0.00893   0.00179  -0.0303  0.0108  1.0000  -1.1191   0.0000   0.0000   0.0000   0.3151
   2.900   0.4621   0.00899   0.00187  -0.0302  0.0107  1.0000  -1.1916   0.0000   0.0000   0.0000   0.3134
   3.000   0.4730   0.00907   0.00196  -0.0301  0.0107  1.0000  -1.2656   0.0000   0.0000   0.0000   0.3117
   3.100   0.4838   0.00914   0.00205  -0.0301  0.0108  1.0000  -1.3408   0.0000   0.0000   0.0000   0.3101
   3.200   0.4946   0.00921   0.00215  -0.0300  0.0109  1.0000  -1.4171   0.0000   0.0000   0.0000   0.3085
   3.300   0.5055   0.00929   0.00226  -0.0299  0.0110  1.0000  -1.4941   0.0000   0.0000   0.0000   0.3070
   3.400   0.5163   0.00938   0.00238  -0.0299  0.0112  1.0000  -1.5714   0.0000   0.0000   0.0000   0.3056
   3.500   0.5271   0.00947   0.00251  -0.0298  0.0115  1.0000  -1.6480   0.0000   0.0000   0.0000   0.3041
   3.600   0.5379   0.00957   0.00265  -0.0297  0.0117  1.0000  -1.7227   0.0000   0.0000   0.0000   0.3028
   3.700   0.5486   0.00969   0.00282  -0.0295  0.0121  1.0000  -1.7937   0.0000   0.0000   0.0000   0.3014
   3.800   0.5594   0.00983   0.00299  -0.0294  0.0125  1.0000  -1.8594   0.0000   0.0000   0.0000   0.3000
   3.900   0.5701   0.00999   0.00320  -0.0292  0.0129  1.0000  -1.9215   0.0000   0.0000   0.0000   0.2987
   4.000   0.5807   0.01019   0.00345  -0.0290  0.0135  1.0000  -1.9800   0.0000   0.0000   0.0000   0.2973
   4.100   0.5911   0.01043   0.00376  -0.0288  0.0141  1.0000  -2.0346   0.0000   0.0000   0.0000   0.2960
   4.200   0.6014   0.01073   0.00414  -0.0285  0.0148  1.0000  -2.0826   0.0000   0.0000   0.0000   0.2946
   4.300   0.6113   0.01112   0.00462  -0.0282  0.0155  1.0000  -2.1203   0.0000   0.0000   0.0000   0.2932
   4.400   0.6202   0.01179   0.00540  -0.0276  0.0164  1.0000  -2.1316   0.0000   0.0000   0.0000   0.2916
   4.500   0.6299   0.01224   0.00590  -0.0272  0.0176  1.0000  -2.1688   0.0000   0.0000   0.0000   0.2902
   4.600   0.6413   0.01220   0.00584  -0.0271  0.0187  1.0000  -2.2596   0.0000   0.0000   0.0000   0.2892
   4.700   0.6522   0.01233   0.00601  -0.0269  0.0206  1.0000  -2.3276   0.0000   0.0000   0.0000   0.2881
   4.800   0.6608   0.01371   0.00765  -0.0255  0.0282  1.0000  -2.2185   0.0000   0.0000   0.0000   0.2854
   5.500   0.7382   0.02103   0.01584  -0.0209  0.0592  1.0000  -2.1972   0.0000   0.0000   0.0000   0.2746
   5.600   0.7468   0.02168   0.01643  -0.0209  0.0554  1.0000  -2.2824   0.0000   0.0000   0.0000   0.2742
   5.700   0.7503   0.02479   0.01981  -0.0205  0.0494  1.0000  -2.2730   0.0000   0.0000   0.0000   0.2735
   5.800   0.7634   0.02344   0.01840  -0.0204  0.0454  1.0000  -2.3974   0.0000   0.0000   0.0000   0.2728
   5.900   0.7736   0.02348   0.01844  -0.0203  0.0420  1.0000  -2.4886   0.0000   0.0000   0.0000   0.2723
   6.000   0.7831   0.02375   0.01868  -0.0203  0.0394  1.0000  -2.5831   0.0000   0.0000   0.0000   0.2718
   6.100   0.7924   0.02414   0.01903  -0.0203  0.0373  1.0000  -2.6828   0.0000   0.0000   0.0000   0.2714
   6.200   0.8006   0.02483   0.01972  -0.0202  0.0354  1.0000  -2.7737   0.0000   0.0000   0.0000   0.2710
   6.300   0.8096   0.02591   0.02122  -0.0198  0.0354  1.0000  -2.8305   0.0000   0.0000   0.0000   0.2701
   6.400   0.8156   0.02804   0.02345  -0.0196  0.0336  1.0000  -2.8709   0.0000   0.0000   0.0000   0.2696
   6.500   0.8095   0.03421   0.03006  -0.0186  0.0314  1.0000  -2.6800   0.0000   0.0000   0.0000   0.2687
   6.600   0.8177   0.03494   0.03094  -0.0182  0.0313  1.0000  -2.7435   0.0000   0.0000   0.0000   0.2679
   6.700   0.8329   0.03289   0.02890  -0.0180  0.0301  1.0000  -2.9118   0.0000   0.0000   0.0000   0.2671
   6.800   0.8450   0.03236   0.02839  -0.0178  0.0284  1.0000  -3.0237   0.0000   0.0000   0.0000   0.2664
   6.900   0.8545   0.03268   0.02877  -0.0175  0.0270  1.0000  -3.1013   0.0000   0.0000   0.0000   0.2657
   7.000   0.8629   0.03332   0.02948  -0.0171  0.0257  1.0000  -3.1683   0.0000   0.0000   0.0000   0.2651
   7.100   0.8707   0.03408   0.03033  -0.0168  0.0245  1.0000  -3.2330   0.0000   0.0000   0.0000   0.2645
   7.200   0.8780   0.03489   0.03122  -0.0165  0.0236  1.0000  -3.2993   0.0000   0.0000   0.0000   0.2639
   7.300   0.8851   0.03565   0.03203  -0.0163  0.0226  1.0000  -3.3758   0.0000   0.0000   0.0000   0.2634
   7.400   0.8921   0.03625   0.03268  -0.0161  0.0217  1.0000  -3.4705   0.0000   0.0000   0.0000   0.2630
   7.500   0.8994   0.03665   0.03308  -0.0161  0.0207  1.0000  -3.5947   0.0000   0.0000   0.0000   0.2627
   7.600   0.9068   0.03705   0.03344  -0.0162  0.0197  1.0000  -3.7368   0.0000   0.0000   0.0000   0.2625
   7.700   0.9116   0.03818   0.03458  -0.0161  0.0187  1.0000  -3.8390   0.0000   0.0000   0.0000   0.2623
   7.800   0.9101   0.04123   0.03777  -0.0157  0.0179  1.0000  -3.8075   0.0000   0.0000   0.0000   0.2618
   7.900   0.9021   0.04579   0.04258  -0.0151  0.0173  1.0000  -3.6547   0.0000   0.0000   0.0000   0.2613
   8.000   0.8921   0.05044   0.04746  -0.0145  0.0170  1.0000  -3.4821   0.0000   0.0000   0.0000   0.2609
   8.100   0.8827   0.05450   0.05168  -0.0141  0.0168  1.0000  -3.3369   0.0000   0.0000   0.0000   0.2606
   8.200   0.8833   0.05593   0.05321  -0.0138  0.0168  1.0000  -3.3417   0.0000   0.0000   0.0000   0.2601
   8.300   0.8832   0.05736   0.05474  -0.0135  0.0168  1.0000  -3.3441   0.0000   0.0000   0.0000   0.2597
   8.400   0.8825   0.05881   0.05627  -0.0132  0.0167  1.0000  -3.3439   0.0000   0.0000   0.0000   0.2593
   8.500   0.8811   0.06026   0.05780  -0.0129  0.0167  1.0000  -3.3410   0.0000   0.0000   0.0000   0.2590
   8.600   0.8789   0.06171   0.05933  -0.0127  0.0167  1.0000  -3.3350   0.0000   0.0000   0.0000   0.2587
   8.700   0.8760   0.06318   0.06087  -0.0125  0.0167  1.0000  -3.3258   0.0000   0.0000   0.0000   0.2584
   8.800   0.8720   0.06464   0.06239  -0.0124  0.0167  1.0000  -3.3129   0.0000   0.0000   0.0000   0.2582
   8.900   0.8662   0.06597   0.06377  -0.0119  0.0167  1.0000  -3.2956   0.0000   0.0000   0.0000   0.2577
   9.000   0.8595   0.06735   0.06519  -0.0116  0.0167  1.0000  -3.2744   0.0000   0.0000   0.0000   0.2574
   9.100   0.8525   0.06885   0.06674  -0.0117  0.0167  1.0000  -3.2495   0.0000   0.0000   0.0000   0.2576
   9.200   0.8455   0.07053   0.06846  -0.0123  0.0167  1.0000  -3.2209   0.0000   0.0000   0.0000   0.2582
   9.300   0.8387   0.07241   0.07038  -0.0132  0.0167  1.0000  -3.1884   0.0000   0.0000   0.0000   0.2594
   9.400   0.8317   0.07446   0.07247  -0.0146  0.0167  1.0000  -3.1518   0.0000   0.0000   0.0000   0.2610
   9.500   0.8250   0.07672   0.07476  -0.0162  0.0167  1.0000  -3.1109   0.0000   0.0000   0.0000   0.2631
   9.600   0.8187   0.07924   0.07731  -0.0183  0.0167  1.0000  -3.0653   0.0000   0.0000   0.0000   0.2657
   9.700   0.8128   0.08201   0.08011  -0.0207  0.0167  1.0000  -3.0145   0.0000   0.0000   0.0000   0.2687
   9.800   0.8075   0.08504   0.08316  -0.0233  0.0167  1.0000  -2.9581   0.0000   0.0000   0.0000   0.2720
   9.900   0.8027   0.08829   0.08644  -0.0261  0.0168  1.0000  -2.8958   0.0000   0.0000   0.0000   0.2756
  10.000   0.7987   0.09174   0.08990  -0.0289  0.0168  1.0000  -2.8282   0.0000   0.0000   0.0000   0.2793
  10.100   0.7954   0.09533   0.09351  -0.0317  0.0168  1.0000  -2.7551   0.0000   0.0000   0.0000   0.2828
  10.200   0.7930   0.09906   0.09725  -0.0342  0.0168  1.0000  -2.6743   0.0000   0.0000   0.0000   0.2861
  10.300   0.7911   0.10241   0.10059  -0.0362  0.0168  1.0000  -2.6044   0.0000   0.0000   0.0000   0.2888
  10.400   0.7895   0.10533   0.10350  -0.0379  0.0168  1.0000  -2.5494   0.0000   0.0000   0.0000   0.2910
  10.500   0.7882   0.10804   0.10621  -0.0394  0.0168  1.0000  -2.5026   0.0000   0.0000   0.0000   0.2929
  10.600   0.7872   0.11063   0.10879  -0.0408  0.0168  1.0000  -2.4610   0.0000   0.0000   0.0000   0.2947
  10.700   0.7864   0.11313   0.11128  -0.0421  0.0168  1.0000  -2.4233   0.0000   0.0000   0.0000   0.2964
  10.800   0.7858   0.11555   0.11370  -0.0434  0.0168  1.0000  -2.3886   0.0000   0.0000   0.0000   0.2980
  10.900   0.7854   0.11792   0.11606  -0.0446  0.0167  1.0000  -2.3563   0.0000   0.0000   0.0000   0.2996
  11.000   0.7852   0.12023   0.11837  -0.0458  0.0167  1.0000  -2.3263   0.0000   0.0000   0.0000   0.3010
  11.100   0.7852   0.12250   0.12063  -0.0470  0.0167  1.0000  -2.2981   0.0000   0.0000   0.0000   0.3025
  11.200   0.7853   0.12472   0.12285  -0.0481  0.0167  1.0000  -2.2716   0.0000   0.0000   0.0000   0.3038
  11.300   0.7855   0.12690   0.12503  -0.0492  0.0167  1.0000  -2.2466   0.0000   0.0000   0.0000   0.3051
  11.400   0.7859   0.12905   0.12717  -0.0503  0.0167  1.0000  -2.2231   0.0000   0.0000   0.0000   0.3064
  11.500   0.7864   0.13115   0.12928  -0.0513  0.0167  1.0000  -2.2011   0.0000   0.0000   0.0000   0.3077
  11.600   0.7870   0.13322   0.13134  -0.0524  0.0167  1.0000  -2.1804   0.0000   0.0000   0.0000   0.3089
  11.700   0.7878   0.13526   0.13337  -0.0534  0.0167  1.0000  -2.1611   0.0000   0.0000   0.0000   0.3101
  11.800   0.7887   0.13725   0.13536  -0.0544  0.0166  1.0000  -2.1433   0.0000   0.0000   0.0000   0.3112
  11.900   0.7897   0.13920   0.13731  -0.0554  0.0166  1.0000  -2.1271   0.0000   0.0000   0.0000   0.3123
  12.000   0.7909   0.14111   0.13922  -0.0564  0.0166  1.0000  -2.1127   0.0000   0.0000   0.0000   0.3134
  12.100   0.7923   0.14296   0.14107  -0.0574  0.0165  1.0000  -2.1006   0.0000   0.0000   0.0000   0.3144
  12.200   0.7939   0.14474   0.14285  -0.0583  0.0165  1.0000  -2.0916   0.0000   0.0000   0.0000   0.3154
  12.300   0.7959   0.14641   0.14452  -0.0593  0.0164  1.0000  -2.0879   0.0000   0.0000   0.0000   0.3163
  12.400   0.7991   0.14776   0.14586  -0.0601  0.0162  1.0000  -2.1008   0.0000   0.0000   0.0000   0.3170
  12.500   0.8091   0.14778   0.14590  -0.0608  0.0146  1.0000  -2.1835   0.0000   0.0000   0.0000   0.3168
  12.600   0.8111   0.14959   0.14771  -0.0618  0.0140  1.0000  -2.1706   0.0000   0.0000   0.0000   0.3178
  12.700   0.8126   0.15146   0.14957  -0.0628  0.0136  1.0000  -2.1556   0.0000   0.0000   0.0000   0.3188
  12.800   0.8139   0.15332   0.15142  -0.0638  0.0132  1.0000  -2.1412   0.0000   0.0000   0.0000   0.3198
  12.900   0.8152   0.15515   0.15326  -0.0648  0.0129  1.0000  -2.1284   0.0000   0.0000   0.0000   0.3208
  13.000   0.8165   0.15695   0.15506  -0.0657  0.0126  1.0000  -2.1175   0.0000   0.0000   0.0000   0.3217
  13.100   0.8179   0.15872   0.15682  -0.0666  0.0122  1.0000  -2.1086   0.0000   0.0000   0.0000   0.3226
  13.200   0.8193   0.16045   0.15855  -0.0675  0.0119  1.0000  -2.1021   0.0000   0.0000   0.0000   0.3235
  13.300   0.8208   0.16210   0.16020  -0.0684  0.0116  1.0000  -2.0979   0.0000   0.0000   0.0000   0.3243
  13.400   0.8223   0.16362   0.16172  -0.0692  0.0113  1.0000  -2.0963   0.0000   0.0000   0.0000   0.3251
  13.500   0.8239   0.16508   0.16318  -0.0701  0.0110  1.0000  -2.0974   0.0000   0.0000   0.0000   0.3259
  13.600   0.8256   0.16652   0.16461  -0.0709  0.0107  1.0000  -2.1015   0.0000   0.0000   0.0000   0.3266
  13.700   0.8274   0.16793   0.16602  -0.0717  0.0104  1.0000  -2.1092   0.0000   0.0000   0.0000   0.3273
  13.800   0.8293   0.16933   0.16742  -0.0725  0.0101  1.0000  -2.1207   0.0000   0.0000   0.0000   0.3279
  13.900   0.8313   0.17071   0.16880  -0.0733  0.0098  1.0000  -2.1366   0.0000   0.0000   0.0000   0.3285
  14.000   0.8334   0.17206   0.17015  -0.0740  0.0095  1.0000  -2.1578   0.0000   0.0000   0.0000   0.3291
  14.100   0.8357   0.17336   0.17146  -0.0747  0.0093  1.0000  -2.1855   0.0000   0.0000   0.0000   0.3296
  14.200   0.8380   0.17462   0.17272  -0.0754  0.0090  1.0000  -2.2211   0.0000   0.0000   0.0000   0.3300
  14.300   0.8406   0.17579   0.17389  -0.0760  0.0087  1.0000  -2.2670   0.0000   0.0000   0.0000   0.3304
  14.400   0.8434   0.17685   0.17496  -0.0765  0.0084  1.0000  -2.3267   0.0000   0.0000   0.0000   0.3305
  14.500   0.8464   0.17779   0.17590  -0.0770  0.0081  1.0000  -2.4030   0.0000   0.0000   0.0000   0.3306
  14.600   0.8492   0.17878   0.17689  -0.0775  0.0079  1.0000  -2.4762   0.0000   0.0000   0.0000   0.3307
  14.700   0.8512   0.18010   0.17821  -0.0782  0.0076  1.0000  -2.5191   0.0000   0.0000   0.0000   0.3312
  14.800   0.8527   0.18157   0.17969  -0.0789  0.0074  1.0000  -2.5512   0.0000   0.0000   0.0000   0.3317
  14.900   0.8530   0.18357   0.18169  -0.0798  0.0071  1.0000  -2.5392   0.0000   0.0000   0.0000   0.3326
  15.800   0.8614   0.20492   0.20298  -0.0891  0.0062  1.0000  -2.0695   0.0000   0.0000   0.0000   0.3419
  15.900   0.8645   0.20640   0.20446  -0.0900  0.0061  1.0000  -2.0947   0.0000   0.0000   0.0000   0.3424
  16.000   0.8681   0.20763   0.20568  -0.0908  0.0059  1.0000  -2.1447   0.0000   0.0000   0.0000   0.3427
  16.100   0.8719   0.20887   0.20693  -0.0915  0.0056  1.0000  -2.1964   0.0000   0.0000   0.0000   0.3430
  16.200   0.8753   0.21034   0.20840  -0.0923  0.0054  1.0000  -2.2312   0.0000   0.0000   0.0000   0.3434
  16.300   0.8783   0.21202   0.21008  -0.0931  0.0051  1.0000  -2.2487   0.0000   0.0000   0.0000   0.3438
  16.400   0.8808   0.21391   0.21197  -0.0940  0.0049  1.0000  -2.2479   0.0000   0.0000   0.0000   0.3444
  16.500   0.8833   0.21590   0.21395  -0.0948  0.0047  1.0000  -2.2413   0.0000   0.0000   0.0000   0.3450
  16.600   0.8856   0.21794   0.21600  -0.0957  0.0045  1.0000  -2.2308   0.0000   0.0000   0.0000   0.3456
  16.700   0.8877   0.22003   0.21808  -0.0965  0.0044  1.0000  -2.2177   0.0000   0.0000   0.0000   0.3462
  16.800   0.8899   0.22214   0.22020  -0.0974  0.0042  1.0000  -2.2031   0.0000   0.0000   0.0000   0.3468
  16.900   0.8919   0.22427   0.22233  -0.0982  0.0041  1.0000  -2.1874   0.0000   0.0000   0.0000   0.3473
  17.000   0.8939   0.22642   0.22447  -0.0991  0.0041  1.0000  -2.1709   0.0000   0.0000   0.0000   0.3479
  17.100   0.8959   0.22859   0.22664  -0.0999  0.0040  1.0000  -2.1536   0.0000   0.0000   0.0000   0.3485
  17.200   0.8979   0.23076   0.22881  -0.1007  0.0040  1.0000  -2.1356   0.0000   0.0000   0.0000   0.3491
  17.300   0.8998   0.23296   0.23100  -0.1015  0.0040  1.0000  -2.1170   0.0000   0.0000   0.0000   0.3496
  17.400   0.9017   0.23516   0.23321  -0.1023  0.0040  1.0000  -2.0978   0.0000   0.0000   0.0000   0.3502
  17.500   0.9035   0.23739   0.23543  -0.1031  0.0040  1.0000  -2.0781   0.0000   0.0000   0.0000   0.3507
  17.600   0.9054   0.23962   0.23767  -0.1040  0.0041  1.0000  -2.0580   0.0000   0.0000   0.0000   0.3513
  17.700   0.9072   0.24187   0.23991  -0.1048  0.0041  1.0000  -2.0375   0.0000   0.0000   0.0000   0.3518
  17.800   0.9089   0.24413   0.24218  -0.1056  0.0042  1.0000  -2.0169   0.0000   0.0000   0.0000   0.3524
  17.900   0.9106   0.24641   0.24445  -0.1063  0.0043  1.0000  -1.9961   0.0000   0.0000   0.0000   0.3529
  18.000   0.9124   0.24854   0.24663  -0.1071  0.0044  1.0000  -1.9813   0.0000   0.0000   0.0000   0.3534
  18.100   0.9140   0.25084   0.24893  -0.1079  0.0045  1.0000  -1.9606   0.0000   0.0000   0.0000   0.3540
  18.200   0.9155   0.25318   0.25127  -0.1087  0.0046  1.0000  -1.9395   0.0000   0.0000   0.0000   0.3545
  18.300   0.9169   0.25556   0.25365  -0.1095  0.0048  1.0000  -1.9178   0.0000   0.0000   0.0000   0.3551
  18.400   0.9180   0.25799   0.25608  -0.1102  0.0050  1.0000  -1.8947   0.0000   0.0000   0.0000   0.3556
  18.500   0.9189   0.26054   0.25862  -0.1110  0.0052  1.0000  -1.8685   0.0000   0.0000   0.0000   0.3562
  18.600   0.9196   0.26319   0.26128  -0.1117  0.0055  1.0000  -1.8392   0.0000   0.0000   0.0000   0.3568
  18.700   0.9204   0.26583   0.26392  -0.1123  0.0056  1.0000  -1.8124   0.0000   0.0000   0.0000   0.3573
  18.800   0.9214   0.26838   0.26647  -0.1130  0.0058  1.0000  -1.7911   0.0000   0.0000   0.0000   0.3578
  18.900   0.9226   0.27086   0.26895  -0.1137  0.0058  1.0000  -1.7722   0.0000   0.0000   0.0000   0.3583
  19.000   0.9238   0.27330   0.27139  -0.1144  0.0059  1.0000  -1.7560   0.0000   0.0000   0.0000   0.3587
  19.100   0.9250   0.27570   0.27379  -0.1151  0.0059  1.0000  -1.7418   0.0000   0.0000   0.0000   0.3592
  19.200   0.9263   0.27808   0.27618  -0.1158  0.0059  1.0000  -1.7289   0.0000   0.0000   0.0000   0.3597
  19.300   0.9275   0.28045   0.27854  -0.1165  0.0060  1.0000  -1.7170   0.0000   0.0000   0.0000   0.3601
  19.400   0.9286   0.28280   0.28090  -0.1172  0.0060  1.0000  -1.7058   0.0000   0.0000   0.0000   0.3606
  19.500   0.9298   0.28515   0.28325  -0.1178  0.0060  1.0000  -1.6952   0.0000   0.0000   0.0000   0.3610
  19.600   0.9308   0.28748   0.28558  -0.1185  0.0060  1.0000  -1.6849   0.0000   0.0000   0.0000   0.3615
  19.700   0.9318   0.28981   0.28791  -0.1191  0.0060  1.0000  -1.6750   0.0000   0.0000   0.0000   0.3619
  19.800   0.9328   0.29212   0.29023  -0.1198  0.0060  1.0000  -1.6652   0.0000   0.0000   0.0000   0.3624
  19.900   0.9336   0.29443   0.29254  -0.1204  0.0060  1.0000  -1.6557   0.0000   0.0000   0.0000   0.3628
  20.000   0.9344   0.29672   0.29483  -0.1210  0.0060  1.0000  -1.6463   0.0000   0.0000   0.0000   0.3632
  20.100   0.9351   0.29900   0.29712  -0.1217  0.0060  1.0000  -1.6369   0.0000   0.0000   0.0000   0.3637
  20.200   0.9356   0.30127   0.29938  -0.1223  0.0061  1.0000  -1.6275   0.0000   0.0000   0.0000   0.3641
  20.300   0.9361   0.30351   0.30164  -0.1228  0.0061  1.0000  -1.6181   0.0000   0.0000   0.0000   0.3646
  20.400   0.9364   0.30574   0.30386  -0.1234  0.0061  1.0000  -1.6086   0.0000   0.0000   0.0000   0.3650
  20.500   0.9366   0.30794   0.30607  -0.1240  0.0061  1.0000  -1.5990   0.0000   0.0000   0.0000   0.3655
  20.600   0.9366   0.31011   0.30824  -0.1245  0.0061  1.0000  -1.5892   0.0000   0.0000   0.0000   0.3659
  20.700   0.9364   0.31224   0.31037  -0.1250  0.0061  1.0000  -1.5791   0.0000   0.0000   0.0000   0.3664
  20.800   0.9359   0.31432   0.31246  -0.1255  0.0061  1.0000  -1.5686   0.0000   0.0000   0.0000   0.3668
  20.900   0.9353   0.31635   0.31449  -0.1259  0.0061  1.0000  -1.5577   0.0000   0.0000   0.0000   0.3673
  21.000   0.9343   0.31830   0.31645  -0.1264  0.0061  1.0000  -1.5463   0.0000   0.0000   0.0000   0.3678
  21.100   0.9329   0.32016   0.31832  -0.1267  0.0061  1.0000  -1.5341   0.0000   0.0000   0.0000   0.3683
  21.200   0.9310   0.32188   0.32005  -0.1270  0.0061  1.0000  -1.5208   0.0000   0.0000   0.0000   0.3688
  21.300   0.9284   0.32343   0.32161  -0.1272  0.0061  1.0000  -1.5062   0.0000   0.0000   0.0000   0.3693
  21.400   0.8802   0.31286   0.31112  -0.1221  0.0061  1.0000  -1.3858   0.0000   0.0000   0.0000   0.3715
  21.500   0.8733   0.31227   0.31054  -0.1218  0.0061  1.0000  -1.3619   0.0000   0.0000   0.0000   0.3722
  21.600   0.8681   0.31205   0.31033  -0.1216  0.0061  1.0000  -1.3419   0.0000   0.0000   0.0000   0.3728
  21.700   0.8638   0.31202   0.31032  -0.1215  0.0061  1.0000  -1.3243   0.0000   0.0000   0.0000   0.3733
  21.800   0.8601   0.31212   0.31043  -0.1215  0.0061  1.0000  -1.3082   0.0000   0.0000   0.0000   0.3739
  21.900   0.8570   0.31231   0.31062  -0.1216  0.0061  1.0000  -1.2941   0.0000   0.0000   0.0000   0.3744
  22.000   0.8542   0.31255   0.31088  -0.1217  0.0061  1.0000  -1.2813   0.0000   0.0000   0.0000   0.3749
  22.100   0.8517   0.31284   0.31117  -0.1218  0.0061  1.0000  -1.2692   0.0000   0.0000   0.0000   0.3754
  22.200   0.8494   0.31316   0.31150  -0.1220  0.0061  1.0000  -1.2576   0.0000   0.0000   0.0000   0.3759
  22.300   0.8473   0.31352   0.31187  -0.1222  0.0061  1.0000  -1.2460   0.0000   0.0000   0.0000   0.3764
  22.400   0.8454   0.31391   0.31226  -0.1224  0.0061  1.0000  -1.2350   0.0000   0.0000   0.0000   0.3768
  22.500   0.8437   0.31432   0.31268  -0.1226  0.0061  1.0000  -1.2245   0.0000   0.0000   0.0000   0.3773
  22.600   0.8421   0.31475   0.31312  -0.1228  0.0060  1.0000  -1.2145   0.0000   0.0000   0.0000   0.3778
  22.700   0.8406   0.31520   0.31358  -0.1231  0.0060  1.0000  -1.2049   0.0000   0.0000   0.0000   0.3782
  22.800   0.8392   0.31567   0.31405  -0.1234  0.0060  1.0000  -1.1957   0.0000   0.0000   0.0000   0.3787
  22.900   0.8380   0.31616   0.31455  -0.1236  0.0060  1.0000  -1.1869   0.0000   0.0000   0.0000   0.3791
  23.000   0.8368   0.31666   0.31505  -0.1239  0.0060  1.0000  -1.1785   0.0000   0.0000   0.0000   0.3795
  23.100   0.8358   0.31717   0.31557  -0.1242  0.0060  1.0000  -1.1705   0.0000   0.0000   0.0000   0.3800
  23.200   0.8349   0.31769   0.31610  -0.1245  0.0059  1.0000  -1.1628   0.0000   0.0000   0.0000   0.3804
  23.300   0.8340   0.31823   0.31664  -0.1248  0.0059  1.0000  -1.1555   0.0000   0.0000   0.0000   0.3808
  23.400   0.8332   0.31878   0.31719  -0.1252  0.0059  1.0000  -1.1485   0.0000   0.0000   0.0000   0.3812
  23.500   0.8326   0.31933   0.31776  -0.1255  0.0059  1.0000  -1.1419   0.0000   0.0000   0.0000   0.3816
  23.600   0.8320   0.31990   0.31833  -0.1258  0.0058  1.0000  -1.1357   0.0000   0.0000   0.0000   0.3820
  23.700   0.8316   0.32049   0.31892  -0.1262  0.0058  1.0000  -1.1298   0.0000   0.0000   0.0000   0.3824
  23.800   0.8313   0.32109   0.31953  -0.1266  0.0057  1.0000  -1.1244   0.0000   0.0000   0.0000   0.3828
  23.900   0.8311   0.32171   0.32015  -0.1270  0.0056  1.0000  -1.1193   0.0000   0.0000   0.0000   0.3832
  24.000   0.8312   0.32236   0.32080  -0.1274  0.0055  1.0000  -1.1146   0.0000   0.0000   0.0000   0.3835
  24.100   0.8315   0.32304   0.32149  -0.1278  0.0054  1.0000  -1.1099   0.0000   0.0000   0.0000   0.3838
  24.200   0.8319   0.32375   0.32221  -0.1282  0.0051  1.0000  -1.1049   0.0000   0.0000   0.0000   0.3841
  24.300   0.8323   0.32447   0.32293  -0.1286  0.0048  1.0000  -1.0999   0.0000   0.0000   0.0000   0.3844
  24.400   0.8323   0.32514   0.32361  -0.1290  0.0045  1.0000  -1.0956   0.0000   0.0000   0.0000   0.3847
  24.500   0.8321   0.32578   0.32426  -0.1293  0.0041  1.0000  -1.0922   0.0000   0.0000   0.0000   0.3850
  24.600   0.8318   0.32641   0.32489  -0.1297  0.0038  1.0000  -1.0898   0.0000   0.0000   0.0000   0.3854
  24.700   0.8315   0.32702   0.32551  -0.1300  0.0036  1.0000  -1.0882   0.0000   0.0000   0.0000   0.3857
  24.800   0.8311   0.32764   0.32612  -0.1303  0.0033  1.0000  -1.0873   0.0000   0.0000   0.0000   0.3860
  24.900   0.8307   0.32824   0.32674  -0.1307  0.0031  1.0000  -1.0871   0.0000   0.0000   0.0000   0.3864
  25.000   0.8304   0.32885   0.32735  -0.1310  0.0029  1.0000  -1.0874   0.0000   0.0000   0.0000   0.3867
  25.100   0.8300   0.32946   0.32796  -0.1314  0.0027  1.0000  -1.0883   0.0000   0.0000   0.0000   0.3871
  25.200   0.8297   0.33006   0.32857  -0.1317  0.0025  1.0000  -1.0898   0.0000   0.0000   0.0000   0.3874
  25.300   0.8294   0.33067   0.32918  -0.1321  0.0024  1.0000  -1.0919   0.0000   0.0000   0.0000   0.3878
  25.400   0.8291   0.33127   0.32979  -0.1325  0.0022  1.0000  -1.0946   0.0000   0.0000   0.0000   0.3881
  25.500   0.8288   0.33188   0.33040  -0.1328  0.0021  1.0000  -1.0978   0.0000   0.0000   0.0000   0.3884
  25.600   0.8286   0.33248   0.33101  -0.1332  0.0020  1.0000  -1.1017   0.0000   0.0000   0.0000   0.3888
  25.700   0.8284   0.33308   0.33161  -0.1336  0.0019  1.0000  -1.1062   0.0000   0.0000   0.0000   0.3891
  25.800   0.8281   0.33368   0.33222  -0.1339  0.0018  1.0000  -1.1113   0.0000   0.0000   0.0000   0.3894
  25.900   0.8279   0.33427   0.33282  -0.1343  0.0017  1.0000  -1.1171   0.0000   0.0000   0.0000   0.3898
  26.000   0.8277   0.33487   0.33342  -0.1347  0.0016  1.0000  -1.1236   0.0000   0.0000   0.0000   0.3901
  26.100   0.8275   0.33546   0.33401  -0.1351  0.0015  1.0000  -1.1309   0.0000   0.0000   0.0000   0.3904
  26.200   0.8274   0.33605   0.33461  -0.1354  0.0015  1.0000  -1.1388   0.0000   0.0000   0.0000   0.3907
  26.300   0.8272   0.33663   0.33520  -0.1358  0.0014  1.0000  -1.1476   0.0000   0.0000   0.0000   0.3910
  26.400   0.8271   0.33712   0.33572  -0.1362  0.0013  1.0000  -1.1757   0.0000   0.0000   0.0000   0.3913
  26.500   0.8270   0.33766   0.33627  -0.1366  0.0012  1.0000  -1.1910   0.0000   0.0000   0.0000   0.3916
  26.600   0.8269   0.33821   0.33682  -0.1370  0.0012  1.0000  -1.2061   0.0000   0.0000   0.0000   0.3919
  26.700   0.8268   0.33875   0.33737  -0.1374  0.0011  1.0000  -1.2218   0.0000   0.0000   0.0000   0.3922
  26.800   0.8266   0.33929   0.33791  -0.1377  0.0011  1.0000  -1.2382   0.0000   0.0000   0.0000   0.3925
  26.900   0.8265   0.33982   0.33845  -0.1381  0.0010  1.0000  -1.2555   0.0000   0.0000   0.0000   0.3928
  27.000   0.8264   0.34034   0.33897  -0.1385  0.0010  1.0000  -1.2736   0.0000   0.0000   0.0000   0.3931
  27.100   0.8262   0.34086   0.33949  -0.1389  0.0010  1.0000  -1.2927   0.0000   0.0000   0.0000   0.3934
  27.200   0.8261   0.34136   0.34001  -0.1393  0.0009  1.0000  -1.3127   0.0000   0.0000   0.0000   0.3937
  27.300   0.8260   0.34186   0.34051  -0.1396  0.0009  1.0000  -1.3337   0.0000   0.0000   0.0000   0.3940
  27.400   0.8258   0.34235   0.34100  -0.1400  0.0009  1.0000  -1.3555   0.0000   0.0000   0.0000   0.3942
  27.500   0.8256   0.34283   0.34149  -0.1403  0.0008  1.0000  -1.3782   0.0000   0.0000   0.0000   0.3945
  27.600   0.8255   0.34330   0.34196  -0.1407  0.0008  1.0000  -1.4016   0.0000   0.0000   0.0000   0.3947
  27.700   0.8253   0.34376   0.34243  -0.1410  0.0008  1.0000  -1.4255   0.0000   0.0000   0.0000   0.3949
  27.800   0.8250   0.34422   0.34290  -0.1413  0.0008  1.0000  -1.4496   0.0000   0.0000   0.0000   0.3951
  27.900   0.8247   0.34468   0.34337  -0.1416  0.0007  1.0000  -1.4722   0.0000   0.0000   0.0000   0.3953


