xflr5 v6.61

 Calculated polar for: S6063 7.05%

 1 1 Reynolds number fixed          Mach number fixed         

 xtrf =   1.000 (top)        1.000 (bottom)
 Mach =   0.000     Re =     0.200 e 6     Ncrit =   9.000

  alpha     CL        CD       CDp       Cm    Top Xtr Bot Xtr   Cpmin    Chinge    XCp    
 ------- -------- --------- --------- -------- ------- ------- -------- --------- ---------
  -9.900  -0.5532   0.12271   0.11904   0.0062  1.0000  0.0322  -1.6937   0.0000   0.0000   0.0000   0.2577
  -9.800  -0.5575   0.11844   0.11479   0.0055  1.0000  0.0330  -1.7570   0.0000   0.0000   0.0000   0.2565
  -9.700  -0.5560   0.11591   0.11224   0.0059  1.0000  0.0337  -1.7325   0.0000   0.0000   0.0000   0.2573
  -9.600  -0.5519   0.11418   0.11050   0.0066  1.0000  0.0345  -1.6752   0.0000   0.0000   0.0000   0.2587
  -9.500  -0.5477   0.11274   0.10905   0.0071  1.0000  0.0352  -1.6254   0.0000   0.0000   0.0000   0.2597
  -9.400  -0.5443   0.11135   0.10762   0.0071  1.0000  0.0357  -1.5954   0.0000   0.0000   0.0000   0.2598
  -9.300  -0.5418   0.10988   0.10591   0.0068  1.0000  0.0361  -1.5818   0.0000   0.0000   0.0000   0.2594
  -9.200  -0.5386   0.10859   0.10462   0.0067  1.0000  0.0369  -1.5517   0.0000   0.0000   0.0000   0.2594
  -9.100  -0.5360   0.10728   0.10332   0.0065  1.0000  0.0377  -1.5312   0.0000   0.0000   0.0000   0.2590
  -9.000  -0.5337   0.10596   0.10201   0.0061  1.0000  0.0384  -1.5168   0.0000   0.0000   0.0000   0.2584
  -8.900  -0.5317   0.10462   0.10068   0.0056  1.0000  0.0392  -1.5069   0.0000   0.0000   0.0000   0.2575
  -8.800  -0.5298   0.10328   0.09934   0.0050  1.0000  0.0399  -1.5006   0.0000   0.0000   0.0000   0.2566
  -8.700  -0.5282   0.10192   0.09800   0.0044  1.0000  0.0407  -1.4972   0.0000   0.0000   0.0000   0.2555
  -8.600  -0.5267   0.10056   0.09664   0.0037  1.0000  0.0415  -1.4964   0.0000   0.0000   0.0000   0.2543
  -8.500  -0.5253   0.09918   0.09528   0.0030  1.0000  0.0423  -1.4978   0.0000   0.0000   0.0000   0.2530
  -8.400  -0.5240   0.09779   0.09390   0.0022  1.0000  0.0431  -1.5011   0.0000   0.0000   0.0000   0.2516
  -8.300  -0.5226   0.09638   0.09250   0.0014  1.0000  0.0439  -1.5065   0.0000   0.0000   0.0000   0.2500
  -8.200  -0.5214   0.09497   0.09109   0.0004  1.0000  0.0447  -1.5141   0.0000   0.0000   0.0000   0.2483
  -8.100  -0.5204   0.09355   0.08969  -0.0006  1.0000  0.0455  -1.5242   0.0000   0.0000   0.0000   0.2464
  -8.000  -0.5194   0.09215   0.08830  -0.0017  1.0000  0.0464  -1.5370   0.0000   0.0000   0.0000   0.2443
  -7.900  -0.5186   0.09076   0.08693  -0.0029  1.0000  0.0472  -1.5526   0.0000   0.0000   0.0000   0.2420
  -7.800  -0.5179   0.08940   0.08558  -0.0043  1.0000  0.0480  -1.5719   0.0000   0.0000   0.0000   0.2393
  -7.700  -0.5173   0.08808   0.08428  -0.0060  1.0000  0.0488  -1.5943   0.0000   0.0000   0.0000   0.2362
  -7.600  -0.5168   0.08682   0.08304  -0.0078  1.0000  0.0495  -1.6193   0.0000   0.0000   0.0000   0.2327
  -7.500  -0.5165   0.08555   0.08178  -0.0100  1.0000  0.0500  -1.6472   0.0000   0.0000   0.0000   0.2285
  -7.400  -0.5143   0.08413   0.08037  -0.0133  1.0000  0.0506  -1.6779   0.0000   0.0000   0.0000   0.2220
  -7.300  -0.5091   0.08287   0.07909  -0.0168  1.0000  0.0513  -1.7017   0.0000   0.0000   0.0000   0.2150
  -7.200  -0.5046   0.08149   0.07768  -0.0197  1.0000  0.0517  -1.7245   0.0000   0.0000   0.0000   0.2091
  -7.100  -0.5006   0.08003   0.07618  -0.0219  1.0000  0.0519  -1.7457   0.0000   0.0000   0.0000   0.2044
  -7.000  -0.4970   0.07853   0.07464  -0.0237  1.0000  0.0520  -1.7650   0.0000   0.0000   0.0000   0.2004
  -6.900  -0.4935   0.07701   0.07307  -0.0253  1.0000  0.0522  -1.7824   0.0000   0.0000   0.0000   0.1969
  -6.800  -0.4900   0.07549   0.07149  -0.0267  1.0000  0.0522  -1.7978   0.0000   0.0000   0.0000   0.1938
  -6.700  -0.4863   0.07396   0.06990  -0.0278  1.0000  0.0523  -1.8113   0.0000   0.0000   0.0000   0.1910
  -6.600  -0.4935   0.06795   0.06389  -0.0304  1.0000  0.0532  -1.9323   0.0000   0.0000   0.0000   0.1866
  -6.500  -0.4966   0.06364   0.05958  -0.0317  1.0000  0.0544  -1.9746   0.0000   0.0000   0.0000   0.1844
  -6.400  -0.4940   0.06170   0.05773  -0.0309  1.0000  0.0560  -1.9085   0.0000   0.0000   0.0000   0.1857
  -6.300  -0.4893   0.06059   0.05667  -0.0302  1.0000  0.0571  -1.8454   0.0000   0.0000   0.0000   0.1866
  -6.200  -0.4844   0.05944   0.05553  -0.0300  1.0000  0.0583  -1.7994   0.0000   0.0000   0.0000   0.1865
  -6.100  -0.4792   0.05823   0.05432  -0.0301  1.0000  0.0595  -1.7630   0.0000   0.0000   0.0000   0.1857
  -6.000  -0.4738   0.05693   0.05301  -0.0304  1.0000  0.0608  -1.7343   0.0000   0.0000   0.0000   0.1844
  -5.900  -0.4681   0.05554   0.05159  -0.0309  1.0000  0.0621  -1.7137   0.0000   0.0000   0.0000   0.1826
  -5.800  -0.4622   0.05408   0.05010  -0.0315  1.0000  0.0636  -1.6989   0.0000   0.0000   0.0000   0.1804
  -5.700  -0.4559   0.05257   0.04854  -0.0322  1.0000  0.0653  -1.6886   0.0000   0.0000   0.0000   0.1778
  -5.600  -0.4492   0.05106   0.04697  -0.0330  1.0000  0.0671  -1.6819   0.0000   0.0000   0.0000   0.1751
  -5.500  -0.4419   0.04961   0.04544  -0.0337  1.0000  0.0693  -1.6787   0.0000   0.0000   0.0000   0.1722
  -5.400  -0.4332   0.04843   0.04415  -0.0345  1.0000  0.0720  -1.6793   0.0000   0.0000   0.0000   0.1690
  -5.300  -0.4184   0.04963   0.04515  -0.0345  1.0000  0.0761  -1.6518   0.0000   0.0000   0.0000   0.1661
  -5.200  -0.4075   0.05029   0.04567  -0.0343  1.0000  0.0772  -1.6223   0.0000   0.0000   0.0000   0.1644
  -5.100  -0.3999   0.04955   0.04481  -0.0343  1.0000  0.0775  -1.6083   0.0000   0.0000   0.0000   0.1628
  -5.000  -0.4086   0.04168   0.03681  -0.0364  1.0000  0.0810  -1.7223   0.0000   0.0000   0.0000   0.1594
  -4.900  -0.4034   0.03985   0.03501  -0.0363  1.0000  0.0827  -1.6913   0.0000   0.0000   0.0000   0.1586
  -4.800  -0.3971   0.03860   0.03380  -0.0359  1.0000  0.0842  -1.6501   0.0000   0.0000   0.0000   0.1581
  -4.700  -0.3906   0.03754   0.03276  -0.0355  1.0000  0.0859  -1.6115   0.0000   0.0000   0.0000   0.1576
  -4.600  -0.3840   0.03656   0.03177  -0.0351  1.0000  0.0877  -1.5764   0.0000   0.0000   0.0000   0.1572
  -4.500  -0.3773   0.03563   0.03081  -0.0347  1.0000  0.0898  -1.5452   0.0000   0.0000   0.0000   0.1566
  -4.400  -0.3703   0.03472   0.02986  -0.0343  1.0000  0.0923  -1.5176   0.0000   0.0000   0.0000   0.1559
  -4.300  -0.3630   0.03388   0.02896  -0.0339  1.0000  0.0952  -1.4930   0.0000   0.0000   0.0000   0.1553
  -4.200  -0.3552   0.03320   0.02819  -0.0334  1.0000  0.0985  -1.4698   0.0000   0.0000   0.0000   0.1546
  -4.100  -0.3462   0.03302   0.02791  -0.0328  1.0000  0.1024  -1.4425   0.0000   0.0000   0.0000   0.1541
  -4.000  -0.3414   0.03165   0.02626  -0.0326  1.0000  0.1113  -1.4455   0.0000   0.0000   0.0000   0.1531
  -3.900  -0.3364   0.02980   0.02440  -0.0324  1.0000  0.1142  -1.4230   0.0000   0.0000   0.0000   0.1524
  -3.500  -0.2911   0.02251   0.01593  -0.0289  1.0000  0.0489  -1.7032   0.0000   0.0000   0.0000   0.1491
  -3.400  -0.2813   0.02005   0.01313  -0.0283  1.0000  0.0411  -1.7863   0.0000   0.0000   0.0000   0.1476
  -3.300  -0.2696   0.01927   0.01198  -0.0272  1.0000  0.0338  -1.8593   0.0000   0.0000   0.0000   0.1474
  -3.200  -0.2606   0.01974   0.01251  -0.0264  1.0000  0.0314  -1.7849   0.0000   0.0000   0.0000   0.1469
  -3.100  -0.2509   0.01778   0.01036  -0.0261  1.0000  0.0294  -1.8254   0.0000   0.0000   0.0000   0.1442
  -3.000  -0.2412   0.01678   0.00924  -0.0256  1.0000  0.0278  -1.8232   0.0000   0.0000   0.0000   0.1420
  -2.900  -0.2315   0.01597   0.00833  -0.0251  1.0000  0.0264  -1.8141   0.0000   0.0000   0.0000   0.1397
  -2.800  -0.2218   0.01528   0.00755  -0.0246  1.0000  0.0252  -1.8012   0.0000   0.0000   0.0000   0.1371
  -2.700  -0.2121   0.01467   0.00687  -0.0241  1.0000  0.0241  -1.7841   0.0000   0.0000   0.0000   0.1343
  -2.600  -0.2025   0.01414   0.00628  -0.0237  1.0000  0.0231  -1.7616   0.0000   0.0000   0.0000   0.1312
  -2.500  -0.1930   0.01369   0.00577  -0.0232  1.0000  0.0223  -1.7341   0.0000   0.0000   0.0000   0.1277
  -2.400  -0.1836   0.01332   0.00535  -0.0228  1.0000  0.0217  -1.7011   0.0000   0.0000   0.0000   0.1236
  -2.300  -0.1741   0.01301   0.00500  -0.0225  1.0000  0.0212  -1.6621   0.0000   0.0000   0.0000   0.1189
  -2.200  -0.1647   0.01276   0.00471  -0.0222  1.0000  0.0208  -1.6179   0.0000   0.0000   0.0000   0.1135
  -2.100  -0.1551   0.01255   0.00446  -0.0219  1.0000  0.0206  -1.5693   0.0000   0.0000   0.0000   0.1070
  -2.000  -0.1455   0.01237   0.00424  -0.0216  1.0000  0.0205  -1.5178   0.0000   0.0000   0.0000   0.0995
  -1.900  -0.1307   0.01219   0.00399  -0.0224  0.9984  0.0205  -1.4498   0.0000   0.0000   0.0000   0.0767
  -1.800  -0.1138   0.01202   0.00376  -0.0235  0.9961  0.0209  -1.3742   0.0000   0.0000   0.0000   0.0410
  -1.700  -0.0975   0.01187   0.00355  -0.0246  0.9936  0.0215  -1.2984   0.0000   0.0000   0.0000  -0.0041
  -1.600  -0.0808   0.01174   0.00336  -0.0256  0.9912  0.0229  -1.2185   0.0000   0.0000   0.0000  -0.0696
  -1.300  -0.0516   0.00839   0.00327  -0.0247  0.9862  0.8065  -0.9117   0.0000   0.0000   0.0000  -0.2318
  -1.200  -0.0227   0.00810   0.00330  -0.0272  0.9889  1.0000  -0.7328   0.0000   0.0000   0.0000  -0.9563
  -1.100  -0.0044   0.00814   0.00328  -0.0288  0.9862  1.0000  -0.6568   0.0000   0.0000   0.0000  -6.2593
  -1.000   0.0125   0.00816   0.00326  -0.0301  0.9825  1.0000  -0.5877   0.0000   0.0000   0.0000   2.6653
  -0.900   0.0305   0.00819   0.00324  -0.0316  0.9793  1.0000  -0.5189   0.0000   0.0000   0.0000   1.2890
  -0.800   0.0492   0.00821   0.00322  -0.0332  0.9766  1.0000  -0.4510   0.0000   0.0000   0.0000   0.9263
  -0.700   0.0690   0.00823   0.00320  -0.0351  0.9744  1.0000  -0.3832   0.0000   0.0000   0.0000   0.7588
  -0.600   0.0896   0.00824   0.00318  -0.0371  0.9725  1.0000  -0.3414   0.0000   0.0000   0.0000   0.6639
  -0.500   0.1045   0.00824   0.00315  -0.0379  0.9679  1.0000  -0.3156   0.0000   0.0000   0.0000   0.6126
  -0.400   0.1213   0.00824   0.00312  -0.0391  0.9641  1.0000  -0.3213   0.0000   0.0000   0.0000   0.5721
  -0.300   0.1387   0.00823   0.00310  -0.0404  0.9606  1.0000  -0.3342   0.0000   0.0000   0.0000   0.5410
  -0.200   0.1566   0.00822   0.00307  -0.0418  0.9575  1.0000  -0.3476   0.0000   0.0000   0.0000   0.5165
  -0.100   0.1753   0.00821   0.00303  -0.0433  0.9545  1.0000  -0.3619   0.0000   0.0000   0.0000   0.4967
   0.000   0.1942   0.00819   0.00300  -0.0449  0.9518  1.0000  -0.3778   0.0000   0.0000   0.0000   0.4806
   0.100   0.2041   0.00819   0.00300  -0.0446  0.9448  1.0000  -0.3883   0.0000   0.0000   0.0000   0.4678
   0.200   0.2174   0.00818   0.00298  -0.0450  0.9390  1.0000  -0.4009   0.0000   0.0000   0.0000   0.4561
   0.300   0.2318   0.00817   0.00295  -0.0455  0.9339  1.0000  -0.4143   0.0000   0.0000   0.0000   0.4457
   0.400   0.2462   0.00815   0.00292  -0.0461  0.9293  1.0000  -0.4280   0.0000   0.0000   0.0000   0.4363
   0.500   0.2597   0.00814   0.00290  -0.0464  0.9246  1.0000  -0.4430   0.0000   0.0000   0.0000   0.4278
   0.600   0.2677   0.00815   0.00291  -0.0457  0.9166  1.0000  -0.4543   0.0000   0.0000   0.0000   0.4197
   0.700   0.2778   0.00815   0.00290  -0.0453  0.9095  1.0000  -0.4671   0.0000   0.0000   0.0000   0.4121
   0.800   0.2884   0.00814   0.00288  -0.0450  0.9033  1.0000  -0.4804   0.0000   0.0000   0.0000   0.4050
   0.900   0.2994   0.00813   0.00285  -0.0447  0.8978  1.0000  -0.4956   0.0000   0.0000   0.0000   0.3984
   1.000   0.3091   0.00815   0.00286  -0.0443  0.8916  1.0000  -0.5106   0.0000   0.0000   0.0000   0.3922
   1.100   0.3177   0.00816   0.00287  -0.0437  0.8837  1.0000  -0.5248   0.0000   0.0000   0.0000   0.3864
   1.200   0.3268   0.00816   0.00286  -0.0431  0.8760  1.0000  -0.5395   0.0000   0.0000   0.0000   0.3807
   1.300   0.3362   0.00815   0.00284  -0.0425  0.8689  1.0000  -0.5546   0.0000   0.0000   0.0000   0.3752
   1.400   0.3458   0.00815   0.00281  -0.0419  0.8624  1.0000  -0.5700   0.0000   0.0000   0.0000   0.3699
   1.500   0.3551   0.00817   0.00283  -0.0414  0.8550  1.0000  -0.5875   0.0000   0.0000   0.0000   0.3652
   1.600   0.3643   0.00817   0.00283  -0.0409  0.8465  1.0000  -0.6059   0.0000   0.0000   0.0000   0.3609
   1.700   0.3736   0.00818   0.00282  -0.0403  0.8382  1.0000  -0.6257   0.0000   0.0000   0.0000   0.3566
   1.800   0.3707   0.00792   0.00214  -0.0353  0.7541  1.0000  -0.6354   0.0000   0.0000   0.0000   0.3438
   1.900   0.3761   0.00804   0.00188  -0.0334  0.6916  1.0000  -0.6521   0.0000   0.0000   0.0000   0.3374
   2.000   0.3853   0.00813   0.00184  -0.0329  0.6615  1.0000  -0.6715   0.0000   0.0000   0.0000   0.3339
   2.100   0.3942   0.00826   0.00180  -0.0323  0.6342  1.0000  -0.7225   0.0000   0.0000   0.0000   0.3304
   2.200   0.4038   0.00837   0.00179  -0.0319  0.6071  1.0000  -0.7752   0.0000   0.0000   0.0000   0.3275
   2.300   0.4131   0.00851   0.00178  -0.0315  0.5822  1.0000  -0.8278   0.0000   0.0000   0.0000   0.3246
   2.400   0.4228   0.00864   0.00180  -0.0312  0.5557  1.0000  -0.8822   0.0000   0.0000   0.0000   0.3221
   2.500   0.4323   0.00880   0.00182  -0.0309  0.5303  1.0000  -0.9374   0.0000   0.0000   0.0000   0.3196
   2.600   0.4418   0.00896   0.00185  -0.0306  0.5010  1.0000  -0.9948   0.0000   0.0000   0.0000   0.3174
   2.700   0.4514   0.00914   0.00189  -0.0303  0.4737  1.0000  -1.0541   0.0000   0.0000   0.0000   0.3152
   2.800   0.4608   0.00935   0.00195  -0.0300  0.4428  1.0000  -1.1152   0.0000   0.0000   0.0000   0.3132
   2.900   0.4706   0.00952   0.00202  -0.0298  0.4151  1.0000  -1.1796   0.0000   0.0000   0.0000   0.3113
   3.000   0.4800   0.00975   0.00210  -0.0295  0.3853  1.0000  -1.2447   0.0000   0.0000   0.0000   0.3095
   3.100   0.4896   0.00997   0.00220  -0.0293  0.3519  1.0000  -1.3115   0.0000   0.0000   0.0000   0.3078
   3.200   0.4962   0.01070   0.00236  -0.0290  0.2493  1.0000  -1.3692   0.0000   0.0000   0.0000   0.3062
   3.300   0.5034   0.01143   0.00259  -0.0287  0.1513  1.0000  -1.4279   0.0000   0.0000   0.0000   0.3048
   3.400   0.5111   0.01215   0.00287  -0.0285  0.0723  1.0000  -1.4862   0.0000   0.0000   0.0000   0.3035
   3.500   0.5200   0.01264   0.00312  -0.0283  0.0287  1.0000  -1.5477   0.0000   0.0000   0.0000   0.3020
   3.600   0.5304   0.01281   0.00327  -0.0281  0.0254  1.0000  -1.6140   0.0000   0.0000   0.0000   0.3006
   3.700   0.5409   0.01297   0.00344  -0.0279  0.0232  1.0000  -1.6793   0.0000   0.0000   0.0000   0.2992
   3.800   0.5514   0.01313   0.00364  -0.0278  0.0219  1.0000  -1.7443   0.0000   0.0000   0.0000   0.2978
   3.900   0.5619   0.01330   0.00386  -0.0276  0.0211  1.0000  -1.8092   0.0000   0.0000   0.0000   0.2965
   4.000   0.5724   0.01347   0.00410  -0.0274  0.0206  1.0000  -1.8741   0.0000   0.0000   0.0000   0.2952
   4.100   0.5828   0.01366   0.00436  -0.0272  0.0203  1.0000  -1.9388   0.0000   0.0000   0.0000   0.2939
   4.200   0.5932   0.01388   0.00465  -0.0270  0.0201  1.0000  -2.0033   0.0000   0.0000   0.0000   0.2927
   4.300   0.6035   0.01411   0.00496  -0.0268  0.0201  1.0000  -2.0702   0.0000   0.0000   0.0000   0.2915
   4.400   0.6137   0.01435   0.00528  -0.0265  0.0201  1.0000  -2.1377   0.0000   0.0000   0.0000   0.2903
   4.500   0.6237   0.01463   0.00563  -0.0263  0.0202  1.0000  -2.2043   0.0000   0.0000   0.0000   0.2891
   4.600   0.6337   0.01492   0.00600  -0.0260  0.0203  1.0000  -2.2697   0.0000   0.0000   0.0000   0.2880
   4.700   0.6436   0.01524   0.00639  -0.0257  0.0205  1.0000  -2.3333   0.0000   0.0000   0.0000   0.2868
   4.800   0.6532   0.01560   0.00681  -0.0254  0.0208  1.0000  -2.3943   0.0000   0.0000   0.0000   0.2857
   4.900   0.6628   0.01599   0.00726  -0.0251  0.0211  1.0000  -2.4513   0.0000   0.0000   0.0000   0.2845
   5.000   0.6722   0.01644   0.00777  -0.0247  0.0215  1.0000  -2.5035   0.0000   0.0000   0.0000   0.2833
   5.100   0.6815   0.01694   0.00833  -0.0242  0.0220  1.0000  -2.5506   0.0000   0.0000   0.0000   0.2821
   5.200   0.6907   0.01752   0.00897  -0.0238  0.0225  1.0000  -2.5923   0.0000   0.0000   0.0000   0.2809
   5.300   0.6999   0.01816   0.00969  -0.0233  0.0231  1.0000  -2.6292   0.0000   0.0000   0.0000   0.2796
   5.400   0.7093   0.01889   0.01049  -0.0228  0.0238  1.0000  -2.6622   0.0000   0.0000   0.0000   0.2784
   5.500   0.7189   0.01970   0.01137  -0.0223  0.0246  1.0000  -2.6919   0.0000   0.0000   0.0000   0.2772
   5.600   0.7286   0.02059   0.01236  -0.0218  0.0255  1.0000  -2.7165   0.0000   0.0000   0.0000   0.2760
   5.700   0.7385   0.02158   0.01346  -0.0213  0.0264  1.0000  -2.7379   0.0000   0.0000   0.0000   0.2749
   5.800   0.7482   0.02269   0.01469  -0.0208  0.0275  1.0000  -2.7556   0.0000   0.0000   0.0000   0.2738
   5.900   0.7578   0.02396   0.01609  -0.0203  0.0286  1.0000  -2.7683   0.0000   0.0000   0.0000   0.2728
   6.000   0.7668   0.02552   0.01781  -0.0199  0.0297  1.0000  -2.7702   0.0000   0.0000   0.0000   0.2718
   6.100   0.7746   0.02839   0.02086  -0.0193  0.0321  1.0000  -2.7198   0.0000   0.0000   0.0000   0.2708
   6.200   0.7871   0.02757   0.02001  -0.0191  0.0334  1.0000  -2.8263   0.0000   0.0000   0.0000   0.2700
   6.300   0.7992   0.02761   0.02074  -0.0185  0.0357  1.0000  -2.9244   0.0000   0.0000   0.0000   0.2688
   6.800   0.8338   0.04531   0.04027  -0.0132  0.0959  1.0000  -2.2048   0.0000   0.0000   0.0000   0.2617
   6.900   0.8412   0.04599   0.04106  -0.0129  0.0927  1.0000  -2.2344   0.0000   0.0000   0.0000   0.2610
   8.100   0.8707   0.06532   0.06185  -0.0117  0.0704  1.0000  -2.5022   0.0000   0.0000   0.0000   0.2585
   8.200   0.8713   0.06639   0.06303  -0.0118  0.0685  1.0000  -2.4991   0.0000   0.0000   0.0000   0.2585
   8.300   0.8700   0.06796   0.06467  -0.0121  0.0672  1.0000  -2.4877   0.0000   0.0000   0.0000   0.2588
   8.400   0.8670   0.06971   0.06650  -0.0125  0.0662  1.0000  -2.4703   0.0000   0.0000   0.0000   0.2593
   8.500   0.8628   0.07157   0.06842  -0.0130  0.0654  1.0000  -2.4489   0.0000   0.0000   0.0000   0.2599
   8.600   0.8575   0.07345   0.07035  -0.0136  0.0648  1.0000  -2.4239   0.0000   0.0000   0.0000   0.2607
   8.700   0.8504   0.07533   0.07226  -0.0142  0.0645  1.0000  -2.3938   0.0000   0.0000   0.0000   0.2615
   8.800   0.8425   0.07741   0.07436  -0.0154  0.0643  1.0000  -2.3575   0.0000   0.0000   0.0000   0.2629
   8.900   0.8343   0.07983   0.07681  -0.0172  0.0642  1.0000  -2.3135   0.0000   0.0000   0.0000   0.2652
   9.000   0.8262   0.08275   0.07974  -0.0200  0.0641  1.0000  -2.2597   0.0000   0.0000   0.0000   0.2687
   9.100   0.8186   0.08636   0.08333  -0.0238  0.0641  1.0000  -2.1938   0.0000   0.0000   0.0000   0.2735
   9.200   0.8134   0.08937   0.08632  -0.0265  0.0637  1.0000  -2.1474   0.0000   0.0000   0.0000   0.2770
   9.300   0.8097   0.09199   0.08892  -0.0286  0.0631  1.0000  -2.1137   0.0000   0.0000   0.0000   0.2796
   9.400   0.8068   0.09438   0.09130  -0.0303  0.0624  1.0000  -2.0878   0.0000   0.0000   0.0000   0.2818
   9.500   0.8046   0.09662   0.09353  -0.0318  0.0617  1.0000  -2.0679   0.0000   0.0000   0.0000   0.2837
   9.600   0.8030   0.09874   0.09563  -0.0331  0.0610  1.0000  -2.0533   0.0000   0.0000   0.0000   0.2854
   9.700   0.8019   0.10074   0.09763  -0.0342  0.0602  1.0000  -2.0435   0.0000   0.0000   0.0000   0.2867
   9.800   0.8013   0.10265   0.09952  -0.0352  0.0595  1.0000  -2.0385   0.0000   0.0000   0.0000   0.2879
   9.900   0.8011   0.10445   0.10132  -0.0360  0.0588  1.0000  -2.0384   0.0000   0.0000   0.0000   0.2889
  10.000   0.8014   0.10614   0.10301  -0.0367  0.0580  1.0000  -2.0440   0.0000   0.0000   0.0000   0.2896
  10.100   0.8023   0.10773   0.10460  -0.0372  0.0573  1.0000  -2.0551   0.0000   0.0000   0.0000   0.2901
  10.200   0.8032   0.10929   0.10615  -0.0376  0.0566  1.0000  -2.0686   0.0000   0.0000   0.0000   0.2905
  10.300   0.8046   0.11073   0.10760  -0.0379  0.0560  1.0000  -2.0882   0.0000   0.0000   0.0000   0.2906
  10.400   0.8065   0.11206   0.10894  -0.0379  0.0553  1.0000  -2.1154   0.0000   0.0000   0.0000   0.2904
  10.500   0.8091   0.11327   0.11015  -0.0376  0.0546  1.0000  -2.1528   0.0000   0.0000   0.0000   0.2898
  10.600   0.8129   0.11435   0.11124  -0.0367  0.0539  1.0000  -2.2054   0.0000   0.0000   0.0000   0.2884
  10.700   0.8132   0.11615   0.11305  -0.0367  0.0532  1.0000  -2.2253   0.0000   0.0000   0.0000   0.2882
  10.800   0.8100   0.11891   0.11580  -0.0372  0.0524  1.0000  -2.2112   0.0000   0.0000   0.0000   0.2890
  10.900   0.7903   0.12700   0.12379  -0.0399  0.0509  1.0000  -2.0297   0.0000   0.0000   0.0000   0.2936
  11.000   0.7899   0.12917   0.12595  -0.0412  0.0509  1.0000  -2.0060   0.0000   0.0000   0.0000   0.2952
  11.100   0.7897   0.13128   0.12806  -0.0425  0.0509  1.0000  -1.9839   0.0000   0.0000   0.0000   0.2968
  11.200   0.7896   0.13335   0.13012  -0.0437  0.0508  1.0000  -1.9631   0.0000   0.0000   0.0000   0.2983
  11.300   0.7897   0.13537   0.13214  -0.0449  0.0508  1.0000  -1.9436   0.0000   0.0000   0.0000   0.2998
  11.400   0.7900   0.13735   0.13410  -0.0461  0.0507  1.0000  -1.9250   0.0000   0.0000   0.0000   0.3012
  11.500   0.7904   0.13926   0.13601  -0.0473  0.0507  1.0000  -1.9075   0.0000   0.0000   0.0000   0.3026
  11.600   0.7909   0.14112   0.13786  -0.0485  0.0506  1.0000  -1.8908   0.0000   0.0000   0.0000   0.3040
  11.700   0.7916   0.14291   0.13965  -0.0496  0.0505  1.0000  -1.8750   0.0000   0.0000   0.0000   0.3053
  11.800   0.7924   0.14461   0.14134  -0.0508  0.0504  1.0000  -1.8600   0.0000   0.0000   0.0000   0.3067
  11.900   0.7935   0.14619   0.14291  -0.0520  0.0502  1.0000  -1.8459   0.0000   0.0000   0.0000   0.3080
  12.000   0.7948   0.14759   0.14430  -0.0533  0.0499  1.0000  -1.8325   0.0000   0.0000   0.0000   0.3094
  12.100   0.7966   0.14877   0.14549  -0.0547  0.0493  1.0000  -1.8189   0.0000   0.0000   0.0000   0.3109
  12.200   0.7973   0.15011   0.14681  -0.0564  0.0486  1.0000  -1.7917   0.0000   0.0000   0.0000   0.3129
  12.300   0.7980   0.15161   0.14830  -0.0579  0.0478  1.0000  -1.7646   0.0000   0.0000   0.0000   0.3148
  12.400   0.7985   0.15324   0.14992  -0.0594  0.0470  1.0000  -1.7401   0.0000   0.0000   0.0000   0.3164
  12.500   0.7993   0.15491   0.15159  -0.0606  0.0462  1.0000  -1.7202   0.0000   0.0000   0.0000   0.3179
  12.600   0.8001   0.15659   0.15327  -0.0617  0.0455  1.0000  -1.7040   0.0000   0.0000   0.0000   0.3191
  12.700   0.8011   0.15827   0.15494  -0.0628  0.0448  1.0000  -1.6908   0.0000   0.0000   0.0000   0.3202
  12.800   0.8023   0.15992   0.15659  -0.0637  0.0441  1.0000  -1.6799   0.0000   0.0000   0.0000   0.3212
  12.900   0.8035   0.16155   0.15822  -0.0646  0.0434  1.0000  -1.6710   0.0000   0.0000   0.0000   0.3222
  13.000   0.8047   0.16315   0.15981  -0.0655  0.0428  1.0000  -1.6637   0.0000   0.0000   0.0000   0.3230
  13.100   0.8061   0.16466   0.16132  -0.0663  0.0422  1.0000  -1.6580   0.0000   0.0000   0.0000   0.3238
  13.200   0.8076   0.16613   0.16278  -0.0671  0.0416  1.0000  -1.6537   0.0000   0.0000   0.0000   0.3246
  13.300   0.8092   0.16757   0.16423  -0.0679  0.0411  1.0000  -1.6507   0.0000   0.0000   0.0000   0.3253
  13.400   0.8109   0.16902   0.16567  -0.0687  0.0405  1.0000  -1.6490   0.0000   0.0000   0.0000   0.3260
  13.500   0.8127   0.17046   0.16712  -0.0694  0.0400  1.0000  -1.6486   0.0000   0.0000   0.0000   0.3266
  13.600   0.8145   0.17192   0.16857  -0.0701  0.0394  1.0000  -1.6494   0.0000   0.0000   0.0000   0.3272
  13.700   0.8165   0.17338   0.17003  -0.0708  0.0389  1.0000  -1.6515   0.0000   0.0000   0.0000   0.3277
  13.800   0.8186   0.17485   0.17150  -0.0715  0.0384  1.0000  -1.6550   0.0000   0.0000   0.0000   0.3282
  13.900   0.8207   0.17632   0.17298  -0.0722  0.0379  1.0000  -1.6601   0.0000   0.0000   0.0000   0.3287
  14.000   0.8229   0.17781   0.17446  -0.0728  0.0375  1.0000  -1.6668   0.0000   0.0000   0.0000   0.3291
  14.100   0.8253   0.17930   0.17595  -0.0734  0.0370  1.0000  -1.6753   0.0000   0.0000   0.0000   0.3295
  14.200   0.8278   0.18080   0.17745  -0.0739  0.0366  1.0000  -1.6859   0.0000   0.0000   0.0000   0.3298
  14.300   0.8303   0.18231   0.17896  -0.0744  0.0361  1.0000  -1.6989   0.0000   0.0000   0.0000   0.3300
  14.400   0.8331   0.18383   0.18049  -0.0749  0.0357  1.0000  -1.7152   0.0000   0.0000   0.0000   0.3301
  14.500   0.8366   0.18532   0.18199  -0.0751  0.0351  1.0000  -1.7457   0.0000   0.0000   0.0000   0.3299
  14.700   0.8391   0.19542   0.19207  -0.0732  0.0317  1.0000  -1.8071   0.0000   0.0000   0.0000   0.3271
  14.800   0.8407   0.19694   0.19359  -0.0742  0.0316  1.0000  -1.7941   0.0000   0.0000   0.0000   0.3281
  14.900   0.8423   0.19838   0.19502  -0.0753  0.0315  1.0000  -1.7813   0.0000   0.0000   0.0000   0.3291
  15.000   0.8440   0.19970   0.19634  -0.0764  0.0314  1.0000  -1.7690   0.0000   0.0000   0.0000   0.3302
  15.100   0.8457   0.20088   0.19751  -0.0776  0.0313  1.0000  -1.7577   0.0000   0.0000   0.0000   0.3313
  15.200   0.8478   0.20178   0.19841  -0.0788  0.0311  1.0000  -1.7476   0.0000   0.0000   0.0000   0.3324
  15.300   0.8500   0.20221   0.19883  -0.0803  0.0306  1.0000  -1.7348   0.0000   0.0000   0.0000   0.3338
  15.400   0.8504   0.20270   0.19931  -0.0821  0.0299  1.0000  -1.7002   0.0000   0.0000   0.0000   0.3358
  15.500   0.8514   0.20351   0.20011  -0.0840  0.0288  1.0000  -1.6609   0.0000   0.0000   0.0000   0.3378
  15.600   0.8533   0.20488   0.20147  -0.0854  0.0272  1.0000  -1.6373   0.0000   0.0000   0.0000   0.3391
  15.700   0.8555   0.20652   0.20312  -0.0864  0.0260  1.0000  -1.6314   0.0000   0.0000   0.0000   0.3399
  15.800   0.8577   0.20824   0.20483  -0.0873  0.0251  1.0000  -1.6307   0.0000   0.0000   0.0000   0.3405
  15.900   0.8599   0.20995   0.20654  -0.0881  0.0242  1.0000  -1.6339   0.0000   0.0000   0.0000   0.3411
  16.000   0.8622   0.21164   0.20824  -0.0888  0.0233  1.0000  -1.6411   0.0000   0.0000   0.0000   0.3416
  16.100   0.8645   0.21331   0.20991  -0.0895  0.0225  1.0000  -1.6526   0.0000   0.0000   0.0000   0.3420
  16.200   0.8668   0.21495   0.21154  -0.0902  0.0217  1.0000  -1.6693   0.0000   0.0000   0.0000   0.3424
  16.300   0.8693   0.21655   0.21314  -0.0908  0.0210  1.0000  -1.6924   0.0000   0.0000   0.0000   0.3426
  16.400   0.8719   0.21809   0.21469  -0.0912  0.0203  1.0000  -1.7240   0.0000   0.0000   0.0000   0.3427
  16.500   0.8747   0.21959   0.21619  -0.0916  0.0196  1.0000  -1.7680   0.0000   0.0000   0.0000   0.3426
  16.600   0.8779   0.22105   0.21766  -0.0916  0.0189  1.0000  -1.8329   0.0000   0.0000   0.0000   0.3422
  16.700   0.8830   0.22274   0.21937  -0.0907  0.0181  1.0000  -1.9570   0.0000   0.0000   0.0000   0.3403
  16.800   0.8836   0.22686   0.22350  -0.0905  0.0172  1.0000  -1.9755   0.0000   0.0000   0.0000   0.3399
  16.900   0.8806   0.23257   0.22914  -0.0916  0.0168  1.0000  -1.8478   0.0000   0.0000   0.0000   0.3415
  17.000   0.8825   0.23461   0.23118  -0.0925  0.0168  1.0000  -1.8380   0.0000   0.0000   0.0000   0.3421
  17.100   0.8843   0.23664   0.23321  -0.0933  0.0167  1.0000  -1.8285   0.0000   0.0000   0.0000   0.3428
  17.200   0.8862   0.23867   0.23524  -0.0941  0.0167  1.0000  -1.8193   0.0000   0.0000   0.0000   0.3434
  17.300   0.8880   0.24071   0.23727  -0.0949  0.0167  1.0000  -1.8104   0.0000   0.0000   0.0000   0.3440
  17.400   0.8899   0.24273   0.23930  -0.0958  0.0167  1.0000  -1.8017   0.0000   0.0000   0.0000   0.3446
  17.500   0.8917   0.24475   0.24132  -0.0966  0.0167  1.0000  -1.7932   0.0000   0.0000   0.0000   0.3451
  17.600   0.8935   0.24677   0.24333  -0.0974  0.0166  1.0000  -1.7849   0.0000   0.0000   0.0000   0.3457
  17.700   0.8953   0.24877   0.24534  -0.0982  0.0166  1.0000  -1.7769   0.0000   0.0000   0.0000   0.3463
  17.800   0.8970   0.25076   0.24732  -0.0990  0.0166  1.0000  -1.7689   0.0000   0.0000   0.0000   0.3469
  17.900   0.8987   0.25273   0.24929  -0.0998  0.0165  1.0000  -1.7611   0.0000   0.0000   0.0000   0.3475
  18.000   0.9005   0.25469   0.25125  -0.1007  0.0165  1.0000  -1.7534   0.0000   0.0000   0.0000   0.3481
  18.100   0.9021   0.25661   0.25317  -0.1015  0.0164  1.0000  -1.7455   0.0000   0.0000   0.0000   0.3487
  18.200   0.9039   0.25859   0.25524  -0.1022  0.0164  1.0000  -1.7387   0.0000   0.0000   0.0000   0.3491
  18.300   0.9055   0.26051   0.25715  -0.1031  0.0164  1.0000  -1.7311   0.0000   0.0000   0.0000   0.3497
  18.400   0.9071   0.26236   0.25901  -0.1039  0.0163  1.0000  -1.7228   0.0000   0.0000   0.0000   0.3503
  18.500   0.9087   0.26415   0.26080  -0.1048  0.0162  1.0000  -1.7141   0.0000   0.0000   0.0000   0.3510
  18.600   0.9098   0.26586   0.26251  -0.1058  0.0161  1.0000  -1.6988   0.0000   0.0000   0.0000   0.3518
  18.700   0.9110   0.26750   0.26415  -0.1069  0.0159  1.0000  -1.6794   0.0000   0.0000   0.0000   0.3528
  18.800   0.9123   0.26910   0.26574  -0.1081  0.0157  1.0000  -1.6572   0.0000   0.0000   0.0000   0.3538
  18.900   0.9140   0.27074   0.26739  -0.1093  0.0153  1.0000  -1.6322   0.0000   0.0000   0.0000   0.3548
  19.000   0.9158   0.27258   0.26923  -0.1103  0.0148  1.0000  -1.6088   0.0000   0.0000   0.0000   0.3556
  19.100   0.9176   0.27461   0.27125  -0.1112  0.0144  1.0000  -1.5918   0.0000   0.0000   0.0000   0.3562
  19.200   0.9192   0.27671   0.27336  -0.1120  0.0139  1.0000  -1.5801   0.0000   0.0000   0.0000   0.3568
  19.300   0.9207   0.27885   0.27549  -0.1128  0.0135  1.0000  -1.5717   0.0000   0.0000   0.0000   0.3572
  19.400   0.9220   0.28099   0.27764  -0.1134  0.0131  1.0000  -1.5652   0.0000   0.0000   0.0000   0.3577
  19.500   0.9232   0.28313   0.27978  -0.1141  0.0128  1.0000  -1.5598   0.0000   0.0000   0.0000   0.3581
  19.600   0.9243   0.28527   0.28193  -0.1148  0.0125  1.0000  -1.5552   0.0000   0.0000   0.0000   0.3586
  19.700   0.9254   0.28741   0.28407  -0.1154  0.0123  1.0000  -1.5510   0.0000   0.0000   0.0000   0.3590
  19.800   0.9263   0.28954   0.28620  -0.1160  0.0120  1.0000  -1.5471   0.0000   0.0000   0.0000   0.3594
  19.900   0.9272   0.29166   0.28833  -0.1166  0.0118  1.0000  -1.5434   0.0000   0.0000   0.0000   0.3598
  20.000   0.9279   0.29377   0.29045  -0.1172  0.0116  1.0000  -1.5398   0.0000   0.0000   0.0000   0.3602
  20.100   0.9286   0.29587   0.29256  -0.1178  0.0114  1.0000  -1.5362   0.0000   0.0000   0.0000   0.3607
  20.200   0.9291   0.29796   0.29465  -0.1183  0.0112  1.0000  -1.5325   0.0000   0.0000   0.0000   0.3611
  20.300   0.9295   0.30004   0.29673  -0.1189  0.0110  1.0000  -1.5288   0.0000   0.0000   0.0000   0.3615
  20.400   0.9298   0.30209   0.29879  -0.1194  0.0109  1.0000  -1.5248   0.0000   0.0000   0.0000   0.3619
  20.500   0.9300   0.30412   0.30082  -0.1199  0.0107  1.0000  -1.5207   0.0000   0.0000   0.0000   0.3623
  20.600   0.9299   0.30612   0.30283  -0.1204  0.0106  1.0000  -1.5162   0.0000   0.0000   0.0000   0.3627
  20.700   0.9297   0.30809   0.30481  -0.1208  0.0104  1.0000  -1.5115   0.0000   0.0000   0.0000   0.3631
  20.800   0.9293   0.31001   0.30674  -0.1213  0.0103  1.0000  -1.5063   0.0000   0.0000   0.0000   0.3635
  20.900   0.9286   0.31188   0.30862  -0.1217  0.0102  1.0000  -1.5006   0.0000   0.0000   0.0000   0.3639
  21.000   0.9277   0.31369   0.31044  -0.1220  0.0101  1.0000  -1.4942   0.0000   0.0000   0.0000   0.3643
  21.100   0.9264   0.31542   0.31217  -0.1223  0.0100  1.0000  -1.4871   0.0000   0.0000   0.0000   0.3647
  21.200   0.9246   0.31704   0.31380  -0.1226  0.0099  1.0000  -1.4789   0.0000   0.0000   0.0000   0.3652
  21.300   0.9223   0.31851   0.31529  -0.1228  0.0098  1.0000  -1.4693   0.0000   0.0000   0.0000   0.3656
  21.400   0.9183   0.31958   0.31637  -0.1228  0.0097  1.0000  -1.4553   0.0000   0.0000   0.0000   0.3661
  21.500   0.8835   0.31260   0.30949  -0.1189  0.0099  1.0000  -1.3616   0.0000   0.0000   0.0000   0.3673
  21.600   0.8753   0.31173   0.30865  -0.1183  0.0099  1.0000  -1.3370   0.0000   0.0000   0.0000   0.3678
  21.700   0.8694   0.31137   0.30830  -0.1179  0.0098  1.0000  -1.3183   0.0000   0.0000   0.0000   0.3684
  21.800   0.8646   0.31124   0.30819  -0.1178  0.0098  1.0000  -1.3027   0.0000   0.0000   0.0000   0.3689
  21.900   0.8605   0.31125   0.30823  -0.1177  0.0097  1.0000  -1.2889   0.0000   0.0000   0.0000   0.3693
  22.000   0.8570   0.31137   0.30835  -0.1176  0.0096  1.0000  -1.2765   0.0000   0.0000   0.0000   0.3698
  22.100   0.8538   0.31155   0.30855  -0.1177  0.0096  1.0000  -1.2653   0.0000   0.0000   0.0000   0.3703
  22.200   0.8510   0.31178   0.30880  -0.1177  0.0095  1.0000  -1.2549   0.0000   0.0000   0.0000   0.3707
  22.300   0.8484   0.31205   0.30908  -0.1178  0.0094  1.0000  -1.2452   0.0000   0.0000   0.0000   0.3712
  22.400   0.8460   0.31236   0.30940  -0.1179  0.0094  1.0000  -1.2362   0.0000   0.0000   0.0000   0.3716
  22.500   0.8438   0.31269   0.30975  -0.1180  0.0093  1.0000  -1.2277   0.0000   0.0000   0.0000   0.3720
  22.600   0.8418   0.31305   0.31012  -0.1182  0.0092  1.0000  -1.2198   0.0000   0.0000   0.0000   0.3724
  22.700   0.8399   0.31344   0.31052  -0.1183  0.0091  1.0000  -1.2124   0.0000   0.0000   0.0000   0.3728
  22.800   0.8382   0.31384   0.31093  -0.1185  0.0091  1.0000  -1.2054   0.0000   0.0000   0.0000   0.3732
  22.900   0.8366   0.31426   0.31136  -0.1187  0.0090  1.0000  -1.1988   0.0000   0.0000   0.0000   0.3737
  23.000   0.8351   0.31470   0.31181  -0.1189  0.0089  1.0000  -1.1926   0.0000   0.0000   0.0000   0.3741
  23.100   0.8336   0.31515   0.31227  -0.1191  0.0089  1.0000  -1.1868   0.0000   0.0000   0.0000   0.3744
  23.200   0.8323   0.31561   0.31274  -0.1194  0.0088  1.0000  -1.1813   0.0000   0.0000   0.0000   0.3748
  23.300   0.8311   0.31608   0.31323  -0.1196  0.0087  1.0000  -1.1762   0.0000   0.0000   0.0000   0.3752
  23.400   0.8299   0.31656   0.31372  -0.1198  0.0087  1.0000  -1.1713   0.0000   0.0000   0.0000   0.3756
  23.500   0.8288   0.31705   0.31422  -0.1201  0.0086  1.0000  -1.1668   0.0000   0.0000   0.0000   0.3760
  23.600   0.8278   0.31755   0.31473  -0.1203  0.0085  1.0000  -1.1626   0.0000   0.0000   0.0000   0.3764
  23.700   0.8268   0.31806   0.31525  -0.1206  0.0085  1.0000  -1.1587   0.0000   0.0000   0.0000   0.3767
  23.800   0.8259   0.31857   0.31577  -0.1209  0.0084  1.0000  -1.1551   0.0000   0.0000   0.0000   0.3771
  23.900   0.8250   0.31909   0.31630  -0.1211  0.0084  1.0000  -1.1517   0.0000   0.0000   0.0000   0.3775
  24.000   0.8242   0.31962   0.31683  -0.1214  0.0083  1.0000  -1.1487   0.0000   0.0000   0.0000   0.3778
  24.100   0.8234   0.32015   0.31737  -0.1217  0.0082  1.0000  -1.1459   0.0000   0.0000   0.0000   0.3782
  24.200   0.8227   0.32068   0.31792  -0.1220  0.0082  1.0000  -1.1434   0.0000   0.0000   0.0000   0.3785
  24.300   0.8220   0.32122   0.31847  -0.1223  0.0081  1.0000  -1.1412   0.0000   0.0000   0.0000   0.3789
  24.400   0.8213   0.32177   0.31902  -0.1226  0.0080  1.0000  -1.1392   0.0000   0.0000   0.0000   0.3792
  24.500   0.8207   0.32231   0.31957  -0.1229  0.0080  1.0000  -1.1376   0.0000   0.0000   0.0000   0.3795
  24.600   0.8201   0.32286   0.32013  -0.1231  0.0079  1.0000  -1.1362   0.0000   0.0000   0.0000   0.3799
  24.700   0.8196   0.32341   0.32069  -0.1234  0.0079  1.0000  -1.1351   0.0000   0.0000   0.0000   0.3802
  24.800   0.8190   0.32397   0.32126  -0.1237  0.0078  1.0000  -1.1343   0.0000   0.0000   0.0000   0.3805
  24.900   0.8185   0.32453   0.32183  -0.1240  0.0078  1.0000  -1.1338   0.0000   0.0000   0.0000   0.3809
  25.000   0.8180   0.32509   0.32240  -0.1243  0.0077  1.0000  -1.1336   0.0000   0.0000   0.0000   0.3812
  25.100   0.8175   0.32565   0.32297  -0.1246  0.0076  1.0000  -1.1337   0.0000   0.0000   0.0000   0.3815
  25.200   0.8171   0.32622   0.32354  -0.1249  0.0076  1.0000  -1.1341   0.0000   0.0000   0.0000   0.3818
  25.300   0.8167   0.32679   0.32412  -0.1252  0.0075  1.0000  -1.1349   0.0000   0.0000   0.0000   0.3821
  25.400   0.8163   0.32736   0.32470  -0.1255  0.0075  1.0000  -1.1359   0.0000   0.0000   0.0000   0.3824
  25.500   0.8159   0.32793   0.32529  -0.1258  0.0074  1.0000  -1.1373   0.0000   0.0000   0.0000   0.3827
  25.600   0.8155   0.32851   0.32587  -0.1261  0.0074  1.0000  -1.1390   0.0000   0.0000   0.0000   0.3829
  25.700   0.8151   0.32910   0.32647  -0.1264  0.0073  1.0000  -1.1411   0.0000   0.0000   0.0000   0.3832
  25.800   0.8148   0.32969   0.32707  -0.1267  0.0073  1.0000  -1.1435   0.0000   0.0000   0.0000   0.3835
  25.900   0.8144   0.33030   0.32768  -0.1269  0.0072  1.0000  -1.1461   0.0000   0.0000   0.0000   0.3837
  26.000   0.8141   0.33091   0.32831  -0.1272  0.0071  1.0000  -1.1490   0.0000   0.0000   0.0000   0.3839
  26.100   0.8138   0.33155   0.32895  -0.1274  0.0071  1.0000  -1.1521   0.0000   0.0000   0.0000   0.3841
  26.200   0.8135   0.33221   0.32962  -0.1277  0.0070  1.0000  -1.1553   0.0000   0.0000   0.0000   0.3843
  26.300   0.8132   0.33290   0.33033  -0.1279  0.0070  1.0000  -1.1585   0.0000   0.0000   0.0000   0.3845
  26.400   0.8131   0.33355   0.33104  -0.1283  0.0070  1.0000  -1.1506   0.0000   0.0000   0.0000   0.3849
  26.500   0.8129   0.33424   0.33174  -0.1286  0.0070  1.0000  -1.1506   0.0000   0.0000   0.0000   0.3851
  26.600   0.8126   0.33498   0.33249  -0.1289  0.0069  1.0000  -1.1518   0.0000   0.0000   0.0000   0.3853
  26.700   0.8125   0.33577   0.33329  -0.1291  0.0069  1.0000  -1.1531   0.0000   0.0000   0.0000   0.3855
  26.800   0.8123   0.33664   0.33417  -0.1293  0.0068  1.0000  -1.1541   0.0000   0.0000   0.0000   0.3856
  26.900   0.8122   0.33762   0.33516  -0.1295  0.0067  1.0000  -1.1542   0.0000   0.0000   0.0000   0.3857
  27.000   0.8122   0.33879   0.33633  -0.1296  0.0067  1.0000  -1.1524   0.0000   0.0000   0.0000   0.3858
  27.100   0.8119   0.34005   0.33760  -0.1298  0.0066  1.0000  -1.1386   0.0000   0.0000   0.0000   0.3859
  27.200   0.8115   0.34168   0.33924  -0.1300  0.0065  1.0000  -1.1151   0.0000   0.0000   0.0000   0.3861


