xflr5 v6.61

 Calculated polar for: S6063 7.05%

 1 1 Reynolds number fixed          Mach number fixed         

 xtrf =   1.000 (top)        1.000 (bottom)
 Mach =   0.000     Re =     0.450 e 6     Ncrit =   9.000

  alpha     CL        CD       CDp       Cm    Top Xtr Bot Xtr   Cpmin    Chinge    XCp    
 ------- -------- --------- --------- -------- ------- ------- -------- --------- ---------
 -10.000  -0.5556   0.11591   0.11336   0.0132  1.0000  0.0082  -1.9650   0.0000   0.0000   0.0000   0.2700
  -9.900  -0.5538   0.11446   0.11191   0.0125  1.0000  0.0083  -1.9641   0.0000   0.0000   0.0000   0.2689
  -9.800  -0.5521   0.11299   0.11044   0.0118  1.0000  0.0084  -1.9643   0.0000   0.0000   0.0000   0.2678
  -9.700  -0.5504   0.11151   0.10897   0.0111  1.0000  0.0084  -1.9655   0.0000   0.0000   0.0000   0.2667
  -9.600  -0.5487   0.11003   0.10749   0.0104  1.0000  0.0085  -1.9681   0.0000   0.0000   0.0000   0.2655
  -9.500  -0.5471   0.10854   0.10599   0.0097  1.0000  0.0086  -1.9717   0.0000   0.0000   0.0000   0.2643
  -9.400  -0.5455   0.10703   0.10450   0.0090  1.0000  0.0086  -1.9767   0.0000   0.0000   0.0000   0.2631
  -9.300  -0.5440   0.10553   0.10299   0.0083  1.0000  0.0087  -1.9830   0.0000   0.0000   0.0000   0.2619
  -9.200  -0.5426   0.10401   0.10147   0.0075  1.0000  0.0088  -1.9909   0.0000   0.0000   0.0000   0.2606
  -9.100  -0.5412   0.10248   0.09994   0.0068  1.0000  0.0088  -2.0008   0.0000   0.0000   0.0000   0.2593
  -9.000  -0.5400   0.10094   0.09840   0.0060  1.0000  0.0088  -2.0132   0.0000   0.0000   0.0000   0.2579
  -8.900  -0.5389   0.09937   0.09684   0.0052  1.0000  0.0088  -2.0295   0.0000   0.0000   0.0000   0.2566
  -8.800  -0.5380   0.09777   0.09523   0.0044  1.0000  0.0088  -2.0526   0.0000   0.0000   0.0000   0.2551
  -8.300  -0.5356   0.08909   0.08640  -0.0003  1.0000  0.0082  -2.2442   0.0000   0.0000   0.0000   0.2465
  -8.200  -0.5348   0.08757   0.08489  -0.0012  1.0000  0.0083  -2.2510   0.0000   0.0000   0.0000   0.2450
  -8.100  -0.5341   0.08605   0.08338  -0.0021  1.0000  0.0084  -2.2595   0.0000   0.0000   0.0000   0.2434
  -8.000  -0.5335   0.08452   0.08185  -0.0030  1.0000  0.0084  -2.2697   0.0000   0.0000   0.0000   0.2417
  -7.900  -0.5331   0.08295   0.08030  -0.0040  1.0000  0.0085  -2.2817   0.0000   0.0000   0.0000   0.2399
  -7.800  -0.5328   0.08138   0.07874  -0.0050  1.0000  0.0086  -2.2957   0.0000   0.0000   0.0000   0.2380
  -7.700  -0.5328   0.07979   0.07716  -0.0061  1.0000  0.0086  -2.3124   0.0000   0.0000   0.0000   0.2360
  -7.600  -0.5332   0.07817   0.07555  -0.0073  1.0000  0.0087  -2.3321   0.0000   0.0000   0.0000   0.2339
  -7.500  -0.5339   0.07651   0.07391  -0.0086  1.0000  0.0087  -2.3556   0.0000   0.0000   0.0000   0.2315
  -7.400  -0.5335   0.07465   0.07206  -0.0106  1.0000  0.0087  -2.3818   0.0000   0.0000   0.0000   0.2278
  -7.300  -0.5318   0.07257   0.06998  -0.0130  1.0000  0.0088  -2.4094   0.0000   0.0000   0.0000   0.2232
  -7.200  -0.5296   0.07041   0.06782  -0.0155  1.0000  0.0088  -2.4381   0.0000   0.0000   0.0000   0.2184
  -7.100  -0.5268   0.06821   0.06560  -0.0180  1.0000  0.0089  -2.4668   0.0000   0.0000   0.0000   0.2137
  -7.000  -0.5237   0.06597   0.06335  -0.0203  1.0000  0.0089  -2.4948   0.0000   0.0000   0.0000   0.2091
  -6.900  -0.5201   0.06374   0.06109  -0.0225  1.0000  0.0090  -2.5215   0.0000   0.0000   0.0000   0.2046
  -6.800  -0.5161   0.06151   0.05884  -0.0245  1.0000  0.0091  -2.5464   0.0000   0.0000   0.0000   0.2004
  -6.700  -0.5118   0.05931   0.05660  -0.0264  1.0000  0.0092  -2.5692   0.0000   0.0000   0.0000   0.1964
  -6.600  -0.5071   0.05715   0.05439  -0.0280  1.0000  0.0093  -2.5894   0.0000   0.0000   0.0000   0.1927
  -6.500  -0.5022   0.05503   0.05223  -0.0295  1.0000  0.0094  -2.6069   0.0000   0.0000   0.0000   0.1892
  -6.400  -0.4968   0.05294   0.05009  -0.0309  1.0000  0.0096  -2.6220   0.0000   0.0000   0.0000   0.1859
  -6.300  -0.4912   0.05092   0.04801  -0.0320  1.0000  0.0097  -2.6344   0.0000   0.0000   0.0000   0.1829
  -6.200  -0.4853   0.04893   0.04596  -0.0330  1.0000  0.0099  -2.6445   0.0000   0.0000   0.0000   0.1800
  -6.100  -0.4792   0.04701   0.04397  -0.0338  1.0000  0.0101  -2.6523   0.0000   0.0000   0.0000   0.1774
  -6.000  -0.4727   0.04513   0.04201  -0.0345  1.0000  0.0104  -2.6583   0.0000   0.0000   0.0000   0.1749
  -5.900  -0.4662   0.04333   0.04013  -0.0351  1.0000  0.0107  -2.6621   0.0000   0.0000   0.0000   0.1727
  -5.800  -0.4593   0.04156   0.03828  -0.0355  1.0000  0.0110  -2.6648   0.0000   0.0000   0.0000   0.1706
  -5.700  -0.4523   0.03988   0.03650  -0.0358  1.0000  0.0113  -2.6655   0.0000   0.0000   0.0000   0.1687
  -5.600  -0.4452   0.03827   0.03480  -0.0360  1.0000  0.0117  -2.6637   0.0000   0.0000   0.0000   0.1671
  -5.500  -0.4378   0.03674   0.03318  -0.0360  1.0000  0.0121  -2.6598   0.0000   0.0000   0.0000   0.1656
  -5.400  -0.4305   0.03533   0.03167  -0.0360  1.0000  0.0126  -2.6525   0.0000   0.0000   0.0000   0.1644
  -5.300  -0.4230   0.03405   0.03029  -0.0357  1.0000  0.0132  -2.6415   0.0000   0.0000   0.0000   0.1635
  -5.200  -0.4152   0.03298   0.02913  -0.0354  1.0000  0.0139  -2.6225   0.0000   0.0000   0.0000   0.1628
  -5.100  -0.4069   0.03228   0.02836  -0.0348  1.0000  0.0147  -2.5841   0.0000   0.0000   0.0000   0.1623
  -5.000  -0.3930   0.03394   0.02999  -0.0340  1.0000  0.0161  -2.4208   0.0000   0.0000   0.0000   0.1613
  -4.800  -0.3926   0.02729   0.02281  -0.0330  1.0000  0.0179  -2.6632   0.0000   0.0000   0.0000   0.1638
  -4.700  -0.3886   0.02646   0.02201  -0.0327  1.0000  0.0196  -2.5440   0.0000   0.0000   0.0000   0.1638
  -4.600  -0.3829   0.02680   0.02247  -0.0324  1.0000  0.0218  -2.3504   0.0000   0.0000   0.0000   0.1635
  -4.500  -0.3766   0.02692   0.02262  -0.0318  1.0000  0.0246  -2.2196   0.0000   0.0000   0.0000   0.1636
  -4.400  -0.3599   0.03169   0.02752  -0.0306  1.0000  0.0316  -1.9435   0.0000   0.0000   0.0000   0.1633
  -4.300  -0.3541   0.03132   0.02705  -0.0296  1.0000  0.0318  -1.9103   0.0000   0.0000   0.0000   0.1646
  -4.200  -0.3469   0.02471   0.01997  -0.0316  0.9982  0.0342  -2.0834   0.0000   0.0000   0.0000   0.1569
  -4.100  -0.3348   0.02345   0.01879  -0.0329  0.9970  0.0377  -1.9608   0.0000   0.0000   0.0000   0.1498
  -4.000  -0.3215   0.02329   0.01870  -0.0339  0.9956  0.0419  -1.8225   0.0000   0.0000   0.0000   0.1427
  -3.900  -0.3059   0.02376   0.01917  -0.0346  0.9941  0.0485  -1.7065   0.0000   0.0000   0.0000   0.1353
  -3.800  -0.2915   0.02244   0.01757  -0.0355  0.9923  0.0551  -1.6800   0.0000   0.0000   0.0000   0.1264
  -3.700  -0.2795   0.02103   0.01627  -0.0367  0.9909  0.0608  -1.5820   0.0000   0.0000   0.0000   0.1168
  -3.600  -0.2650   0.02099   0.01631  -0.0377  0.9897  0.0682  -1.4720   0.0000   0.0000   0.0000   0.1061
  -3.500  -0.2490   0.02075   0.01602  -0.0383  0.9886  0.0727  -1.4100   0.0000   0.0000   0.0000   0.0943
  -3.400  -0.2323   0.02068   0.01589  -0.0390  0.9876  0.0754  -1.3506   0.0000   0.0000   0.0000   0.0805
  -3.000  -0.1725   0.01320   0.00725  -0.0388  0.9808  0.0348  -1.5761   0.0000   0.0000   0.0000   0.0228
  -2.900  -0.1579   0.01198   0.00594  -0.0387  0.9794  0.0256  -1.6324   0.0000   0.0000   0.0000   0.0022
  -2.800  -0.1437   0.01097   0.00474  -0.0387  0.9778  0.0202  -1.6925   0.0000   0.0000   0.0000  -0.0219
  -2.700  -0.1287   0.01085   0.00458  -0.0392  0.9763  0.0179  -1.6225   0.0000   0.0000   0.0000  -0.0577
  -2.600  -0.1132   0.01095   0.00471  -0.0399  0.9747  0.0165  -1.5160   0.0000   0.0000   0.0000  -0.1058
  -2.500  -0.0991   0.01020   0.00386  -0.0404  0.9731  0.0156  -1.5045   0.0000   0.0000   0.0000  -0.1611
  -2.400  -0.0866   0.00977   0.00336  -0.0405  0.9701  0.0150  -1.4684   0.0000   0.0000   0.0000  -0.2217
  -2.300  -0.0747   0.00947   0.00301  -0.0405  0.9662  0.0146  -1.4206   0.0000   0.0000   0.0000  -0.2967
  -2.200  -0.0621   0.00923   0.00271  -0.0407  0.9626  0.0142  -1.3633   0.0000   0.0000   0.0000  -0.4095
  -2.100  -0.0492   0.00905   0.00247  -0.0408  0.9592  0.0140  -1.2988   0.0000   0.0000   0.0000  -0.5843
  -2.000  -0.0361   0.00889   0.00226  -0.0411  0.9560  0.0139  -1.2274   0.0000   0.0000   0.0000  -0.8934
  -1.900  -0.0230   0.00876   0.00207  -0.0413  0.9531  0.0139  -1.1477   0.0000   0.0000   0.0000  -1.5575
  -1.700  -0.0035   0.00765   0.00157  -0.0406  0.9438  0.1970  -0.9184   0.0000   0.0000   0.0000  -11.4534
  -1.600   0.0059   0.00730   0.00155  -0.0404  0.9388  0.2803  -0.8259   0.0000   0.0000   0.0000   7.1755
  -1.500   0.0155   0.00699   0.00152  -0.0403  0.9341  0.3582  -0.7304   0.0000   0.0000   0.0000   2.8539
  -1.400   0.0253   0.00672   0.00151  -0.0400  0.9299  0.4290  -0.6433   0.0000   0.0000   0.0000   1.8389
  -1.200   0.0430   0.00613   0.00152  -0.0392  0.9216  0.5938  -0.5464   0.0000   0.0000   0.0000   1.1636
  -1.100   0.0481   0.00565   0.00159  -0.0378  0.9164  0.7394  -0.5082   0.0000   0.0000   0.0000   1.0364
  -1.000   0.0520   0.00536   0.00168  -0.0357  0.9110  0.8464  -0.4731   0.0000   0.0000   0.0000   0.9367
  -0.900   0.0580   0.00525   0.00172  -0.0339  0.9061  0.9112  -0.4341   0.0000   0.0000   0.0000   0.8351
  -0.800   0.0694   0.00522   0.00170  -0.0336  0.9018  0.9372  -0.3851   0.0000   0.0000   0.0000   0.7342
  -0.600   0.0969   0.00520   0.00164  -0.0343  0.8934  0.9622  -0.3286   0.0000   0.0000   0.0000   0.6044
  -0.500   0.1117   0.00518   0.00161  -0.0350  0.8894  0.9734  -0.3162   0.0000   0.0000   0.0000   0.5635
  -0.400   0.1291   0.00516   0.00157  -0.0363  0.8851  0.9818  -0.3291   0.0000   0.0000   0.0000   0.5311
  -0.300   0.1449   0.00514   0.00153  -0.0373  0.8799  0.9891  -0.3412   0.0000   0.0000   0.0000   0.5068
  -0.200   0.1616   0.00512   0.00148  -0.0384  0.8745  0.9949  -0.3539   0.0000   0.0000   0.0000   0.4873
  -0.100   0.1766   0.00511   0.00144  -0.0392  0.8691  1.0000  -0.3667   0.0000   0.0000   0.0000   0.4715
   0.000   0.1858   0.00513   0.00141  -0.0387  0.8630  1.0000  -0.3768   0.0000   0.0000   0.0000   0.4579
   0.100   0.1956   0.00514   0.00140  -0.0384  0.8579  1.0000  -0.3872   0.0000   0.0000   0.0000   0.4459
   0.200   0.2055   0.00514   0.00139  -0.0382  0.8525  1.0000  -0.3978   0.0000   0.0000   0.0000   0.4351
   0.300   0.2153   0.00515   0.00137  -0.0379  0.8460  1.0000  -0.4084   0.0000   0.0000   0.0000   0.4252
   0.400   0.2249   0.00516   0.00135  -0.0375  0.8390  1.0000  -0.4189   0.0000   0.0000   0.0000   0.4160
   0.500   0.2345   0.00518   0.00133  -0.0371  0.8318  1.0000  -0.4300   0.0000   0.0000   0.0000   0.4074
   0.600   0.2440   0.00521   0.00131  -0.0367  0.8244  1.0000  -0.4424   0.0000   0.0000   0.0000   0.3994
   0.700   0.2541   0.00522   0.00131  -0.0364  0.8183  1.0000  -0.4551   0.0000   0.0000   0.0000   0.3925
   0.800   0.2644   0.00523   0.00131  -0.0362  0.8119  1.0000  -0.4680   0.0000   0.0000   0.0000   0.3861
   0.900   0.2746   0.00525   0.00130  -0.0360  0.8044  1.0000  -0.4809   0.0000   0.0000   0.0000   0.3801
   1.000   0.2846   0.00527   0.00129  -0.0357  0.7962  1.0000  -0.4960   0.0000   0.0000   0.0000   0.3744
   1.100   0.2945   0.00530   0.00127  -0.0354  0.7875  1.0000  -0.5113   0.0000   0.0000   0.0000   0.3690
   1.200   0.3045   0.00535   0.00127  -0.0351  0.7790  1.0000  -0.5266   0.0000   0.0000   0.0000   0.3641
   1.300   0.3151   0.00536   0.00128  -0.0349  0.7728  1.0000  -0.5425   0.0000   0.0000   0.0000   0.3598
   1.400   0.3256   0.00538   0.00129  -0.0348  0.7654  1.0000  -0.5584   0.0000   0.0000   0.0000   0.3557
   1.500   0.3357   0.00541   0.00128  -0.0345  0.7538  1.0000  -0.5743   0.0000   0.0000   0.0000   0.3516
   1.600   0.3448   0.00549   0.00124  -0.0339  0.7314  1.0000  -0.5928   0.0000   0.0000   0.0000   0.3472
   1.700   0.3536   0.00560   0.00118  -0.0333  0.6954  1.0000  -0.6111   0.0000   0.0000   0.0000   0.3429
   1.900   0.3626   0.00708   0.00109  -0.0310  0.3750  1.0000  -0.6407   0.0000   0.0000   0.0000   0.3340
   2.000   0.3706   0.00762   0.00117  -0.0308  0.2801  1.0000  -0.6588   0.0000   0.0000   0.0000   0.3315
   2.100   0.3794   0.00809   0.00127  -0.0306  0.2057  1.0000  -0.6775   0.0000   0.0000   0.0000   0.3292
   2.200   0.3888   0.00844   0.00136  -0.0305  0.1524  1.0000  -0.7239   0.0000   0.0000   0.0000   0.3269
   2.300   0.3958   0.00937   0.00168  -0.0302  0.0167  1.0000  -0.7705   0.0000   0.0000   0.0000   0.3248
   2.400   0.4066   0.00944   0.00171  -0.0302  0.0159  1.0000  -0.8348   0.0000   0.0000   0.0000   0.3225
   2.500   0.4173   0.00950   0.00174  -0.0301  0.0153  1.0000  -0.9008   0.0000   0.0000   0.0000   0.3204
   2.600   0.4281   0.00957   0.00179  -0.0301  0.0148  1.0000  -0.9686   0.0000   0.0000   0.0000   0.3184
   2.700   0.4388   0.00963   0.00184  -0.0300  0.0142  1.0000  -1.0380   0.0000   0.0000   0.0000   0.3165
   2.800   0.4496   0.00971   0.00192  -0.0299  0.0137  1.0000  -1.1084   0.0000   0.0000   0.0000   0.3146
   2.900   0.4603   0.00979   0.00200  -0.0299  0.0134  1.0000  -1.1800   0.0000   0.0000   0.0000   0.3129
   3.000   0.4711   0.00986   0.00210  -0.0298  0.0132  1.0000  -1.2529   0.0000   0.0000   0.0000   0.3112
   3.100   0.4819   0.00993   0.00219  -0.0297  0.0131  1.0000  -1.3268   0.0000   0.0000   0.0000   0.3096
   3.200   0.4927   0.01000   0.00230  -0.0296  0.0130  1.0000  -1.4012   0.0000   0.0000   0.0000   0.3080
   3.300   0.5035   0.01008   0.00242  -0.0296  0.0130  1.0000  -1.4757   0.0000   0.0000   0.0000   0.3065
   3.400   0.5143   0.01016   0.00254  -0.0295  0.0130  1.0000  -1.5495   0.0000   0.0000   0.0000   0.3050
   3.500   0.5251   0.01025   0.00267  -0.0294  0.0131  1.0000  -1.6222   0.0000   0.0000   0.0000   0.3036
   3.600   0.5359   0.01036   0.00281  -0.0293  0.0132  1.0000  -1.6929   0.0000   0.0000   0.0000   0.3022
   3.700   0.5466   0.01048   0.00296  -0.0291  0.0133  1.0000  -1.7619   0.0000   0.0000   0.0000   0.3008
   3.800   0.5574   0.01061   0.00314  -0.0290  0.0135  1.0000  -1.8298   0.0000   0.0000   0.0000   0.2995
   3.900   0.5680   0.01078   0.00336  -0.0288  0.0138  1.0000  -1.8960   0.0000   0.0000   0.0000   0.2982
   4.000   0.5785   0.01097   0.00360  -0.0286  0.0141  1.0000  -1.9604   0.0000   0.0000   0.0000   0.2968
   4.100   0.5889   0.01119   0.00388  -0.0284  0.0144  1.0000  -2.0223   0.0000   0.0000   0.0000   0.2956
   4.200   0.5992   0.01146   0.00421  -0.0282  0.0147  1.0000  -2.0807   0.0000   0.0000   0.0000   0.2943
   4.300   0.6093   0.01177   0.00459  -0.0279  0.0151  1.0000  -2.1345   0.0000   0.0000   0.0000   0.2929
   4.400   0.6191   0.01215   0.00505  -0.0276  0.0155  1.0000  -2.1821   0.0000   0.0000   0.0000   0.2916
   4.500   0.6284   0.01265   0.00562  -0.0272  0.0160  1.0000  -2.2206   0.0000   0.0000   0.0000   0.2902
   4.600   0.6369   0.01338   0.00645  -0.0266  0.0165  1.0000  -2.2386   0.0000   0.0000   0.0000   0.2887
   4.700   0.6461   0.01396   0.00708  -0.0262  0.0172  1.0000  -2.2751   0.0000   0.0000   0.0000   0.2874
   4.800   0.6572   0.01399   0.00711  -0.0261  0.0179  1.0000  -2.3630   0.0000   0.0000   0.0000   0.2864
   4.900   0.6681   0.01408   0.00721  -0.0259  0.0189  1.0000  -2.4449   0.0000   0.0000   0.0000   0.2855
   5.000   0.6787   0.01430   0.00747  -0.0256  0.0202  1.0000  -2.5091   0.0000   0.0000   0.0000   0.2844
   5.100   0.6885   0.01513   0.00846  -0.0248  0.0236  1.0000  -2.4829   0.0000   0.0000   0.0000   0.2826
   5.200   0.6976   0.01683   0.01035  -0.0237  0.0284  1.0000  -2.4082   0.0000   0.0000   0.0000   0.2805
   5.600   0.7419   0.02632   0.02108  -0.0194  0.0725  1.0000  -2.0683   0.0000   0.0000   0.0000   0.2724
   5.700   0.7540   0.02578   0.02054  -0.0191  0.0694  1.0000  -2.1428   0.0000   0.0000   0.0000   0.2715
   5.800   0.7644   0.02599   0.02080  -0.0188  0.0662  1.0000  -2.2036   0.0000   0.0000   0.0000   0.2707
   5.900   0.7741   0.02646   0.02130  -0.0185  0.0632  1.0000  -2.2638   0.0000   0.0000   0.0000   0.2700
   6.000   0.7834   0.02702   0.02187  -0.0183  0.0606  1.0000  -2.3281   0.0000   0.0000   0.0000   0.2694
   6.100   0.7927   0.02766   0.02249  -0.0182  0.0585  1.0000  -2.3979   0.0000   0.0000   0.0000   0.2688
   6.200   0.8013   0.02846   0.02327  -0.0181  0.0564  1.0000  -2.4674   0.0000   0.0000   0.0000   0.2684
   6.300   0.8078   0.03009   0.02491  -0.0180  0.0541  1.0000  -2.5189   0.0000   0.0000   0.0000   0.2680
   6.400   0.7987   0.03755   0.03285  -0.0176  0.0507  1.0000  -2.3675   0.0000   0.0000   0.0000   0.2678
   6.500   0.8154   0.03448   0.02977  -0.0170  0.0489  1.0000  -2.5130   0.0000   0.0000   0.0000   0.2666
   6.600   0.8302   0.03271   0.02838  -0.0167  0.0438  1.0000  -2.6974   0.0000   0.0000   0.0000   0.2657
   6.700   0.8386   0.03339   0.02915  -0.0164  0.0419  1.0000  -2.7612   0.0000   0.0000   0.0000   0.2651
   6.800   0.8465   0.03418   0.03002  -0.0162  0.0404  1.0000  -2.8226   0.0000   0.0000   0.0000   0.2645
   6.900   0.8539   0.03502   0.03093  -0.0159  0.0391  1.0000  -2.8851   0.0000   0.0000   0.0000   0.2640
   7.000   0.8612   0.03589   0.03185  -0.0157  0.0381  1.0000  -2.9499   0.0000   0.0000   0.0000   0.2634
   7.100   0.8686   0.03679   0.03278  -0.0155  0.0371  1.0000  -3.0186   0.0000   0.0000   0.0000   0.2630
   7.200   0.8760   0.03775   0.03375  -0.0153  0.0362  1.0000  -3.0906   0.0000   0.0000   0.0000   0.2626
   7.300   0.8823   0.03890   0.03494  -0.0151  0.0354  1.0000  -3.1517   0.0000   0.0000   0.0000   0.2622
   7.400   0.8876   0.04038   0.03647  -0.0149  0.0345  1.0000  -3.2022   0.0000   0.0000   0.0000   0.2618
   7.500   0.8896   0.04287   0.03904  -0.0148  0.0335  1.0000  -3.2142   0.0000   0.0000   0.0000   0.2615
   7.700   0.8658   0.05454   0.05124  -0.0143  0.0316  1.0000  -2.8895   0.0000   0.0000   0.0000   0.2615
   7.800   0.8682   0.05597   0.05277  -0.0140  0.0316  1.0000  -2.8996   0.0000   0.0000   0.0000   0.2610
   7.900   0.8702   0.05738   0.05428  -0.0137  0.0315  1.0000  -2.9083   0.0000   0.0000   0.0000   0.2606
   8.000   0.8718   0.05876   0.05576  -0.0134  0.0315  1.0000  -2.9158   0.0000   0.0000   0.0000   0.2602
   8.100   0.8728   0.06011   0.05720  -0.0132  0.0315  1.0000  -2.9225   0.0000   0.0000   0.0000   0.2598
   8.200   0.8734   0.06139   0.05857  -0.0129  0.0314  1.0000  -2.9289   0.0000   0.0000   0.0000   0.2594
   8.300   0.8738   0.06259   0.05985  -0.0127  0.0313  1.0000  -2.9362   0.0000   0.0000   0.0000   0.2591
   8.400   0.8742   0.06360   0.06095  -0.0124  0.0312  1.0000  -2.9476   0.0000   0.0000   0.0000   0.2587
   8.500   0.8764   0.06413   0.06156  -0.0121  0.0309  1.0000  -2.9748   0.0000   0.0000   0.0000   0.2583
   8.600   0.8956   0.06156   0.05907  -0.0113  0.0284  1.0000  -3.1263   0.0000   0.0000   0.0000   0.2569
   8.700   0.8965   0.06276   0.06035  -0.0112  0.0274  1.0000  -3.1335   0.0000   0.0000   0.0000   0.2567
   8.800   0.8943   0.06434   0.06199  -0.0112  0.0269  1.0000  -3.1226   0.0000   0.0000   0.0000   0.2567
   8.900   0.8895   0.06601   0.06372  -0.0112  0.0266  1.0000  -3.1005   0.0000   0.0000   0.0000   0.2567
   9.000   0.8820   0.06768   0.06543  -0.0111  0.0267  1.0000  -3.0683   0.0000   0.0000   0.0000   0.2566
   9.100   0.8731   0.06952   0.06732  -0.0113  0.0271  1.0000  -3.0277   0.0000   0.0000   0.0000   0.2570
   9.200   0.8633   0.07165   0.06948  -0.0122  0.0275  1.0000  -2.9790   0.0000   0.0000   0.0000   0.2580
   9.300   0.8526   0.07417   0.07204  -0.0137  0.0282  1.0000  -2.9207   0.0000   0.0000   0.0000   0.2599
   9.400   0.8409   0.07720   0.07509  -0.0159  0.0289  1.0000  -2.8494   0.0000   0.0000   0.0000   0.2627
   9.500   0.8277   0.08091   0.07881  -0.0189  0.0297  1.0000  -2.7589   0.0000   0.0000   0.0000   0.2664
   9.600   0.8168   0.08496   0.08288  -0.0222  0.0302  1.0000  -2.6652   0.0000   0.0000   0.0000   0.2708
   9.700   0.8085   0.08938   0.08731  -0.0259  0.0305  1.0000  -2.5668   0.0000   0.0000   0.0000   0.2756
   9.800   0.8042   0.09355   0.09147  -0.0292  0.0306  1.0000  -2.4824   0.0000   0.0000   0.0000   0.2799
   9.900   0.8034   0.09655   0.09446  -0.0316  0.0304  1.0000  -2.4369   0.0000   0.0000   0.0000   0.2828
  10.000   0.8039   0.09905   0.09696  -0.0335  0.0301  1.0000  -2.4070   0.0000   0.0000   0.0000   0.2851
  10.100   0.8043   0.10140   0.09930  -0.0351  0.0297  1.0000  -2.3807   0.0000   0.0000   0.0000   0.2871
  10.200   0.8044   0.10371   0.10160  -0.0367  0.0293  1.0000  -2.3543   0.0000   0.0000   0.0000   0.2889
  10.300   0.8042   0.10598   0.10387  -0.0381  0.0290  1.0000  -2.3274   0.0000   0.0000   0.0000   0.2907
  10.400   0.8036   0.10821   0.10609  -0.0394  0.0286  1.0000  -2.3002   0.0000   0.0000   0.0000   0.2923
  10.500   0.8026   0.11047   0.10834  -0.0408  0.0283  1.0000  -2.2700   0.0000   0.0000   0.0000   0.2940
  10.600   0.8016   0.11273   0.11060  -0.0421  0.0280  1.0000  -2.2394   0.0000   0.0000   0.0000   0.2957
  10.700   0.8008   0.11496   0.11282  -0.0434  0.0276  1.0000  -2.2108   0.0000   0.0000   0.0000   0.2973
  10.800   0.8002   0.11716   0.11501  -0.0446  0.0272  1.0000  -2.1842   0.0000   0.0000   0.0000   0.2988
  10.900   0.7997   0.11933   0.11717  -0.0458  0.0268  1.0000  -2.1595   0.0000   0.0000   0.0000   0.3003
  11.000   0.7993   0.12146   0.11930  -0.0470  0.0264  1.0000  -2.1368   0.0000   0.0000   0.0000   0.3017
  11.100   0.7991   0.12356   0.12139  -0.0481  0.0260  1.0000  -2.1161   0.0000   0.0000   0.0000   0.3031
  11.200   0.7991   0.12563   0.12346  -0.0492  0.0256  1.0000  -2.0974   0.0000   0.0000   0.0000   0.3044
  11.300   0.7991   0.12766   0.12548  -0.0503  0.0252  1.0000  -2.0805   0.0000   0.0000   0.0000   0.3056
  11.400   0.7992   0.12966   0.12748  -0.0513  0.0249  1.0000  -2.0648   0.0000   0.0000   0.0000   0.3069
  11.500   0.7995   0.13163   0.12945  -0.0523  0.0245  1.0000  -2.0511   0.0000   0.0000   0.0000   0.3080
  11.600   0.7999   0.13357   0.13138  -0.0533  0.0241  1.0000  -2.0392   0.0000   0.0000   0.0000   0.3091
  11.700   0.8004   0.13546   0.13327  -0.0542  0.0237  1.0000  -2.0292   0.0000   0.0000   0.0000   0.3102
  11.800   0.8010   0.13732   0.13513  -0.0552  0.0234  1.0000  -2.0211   0.0000   0.0000   0.0000   0.3112
  11.900   0.8018   0.13914   0.13694  -0.0561  0.0230  1.0000  -2.0158   0.0000   0.0000   0.0000   0.3122
  12.000   0.8028   0.14089   0.13869  -0.0569  0.0226  1.0000  -2.0143   0.0000   0.0000   0.0000   0.3131
  12.100   0.8040   0.14255   0.14035  -0.0577  0.0222  1.0000  -2.0185   0.0000   0.0000   0.0000   0.3139
  12.200   0.8055   0.14408   0.14188  -0.0584  0.0216  1.0000  -2.0329   0.0000   0.0000   0.0000   0.3145
  12.300   0.8077   0.14529   0.14309  -0.0589  0.0209  1.0000  -2.0704   0.0000   0.0000   0.0000   0.3148
  12.400   0.8136   0.14475   0.14257  -0.0581  0.0195  1.0000  -2.2446   0.0000   0.0000   0.0000   0.3131
  12.800   0.8066   0.15395   0.15176  -0.0609  0.0170  1.0000  -2.1936   0.0000   0.0000   0.0000   0.3168
  12.900   0.8024   0.15795   0.15574  -0.0625  0.0168  1.0000  -2.0624   0.0000   0.0000   0.0000   0.3192
  13.000   0.8030   0.16014   0.15789  -0.0635  0.0168  1.0000  -2.0275   0.0000   0.0000   0.0000   0.3204
  13.100   0.8045   0.16194   0.15969  -0.0645  0.0168  1.0000  -2.0122   0.0000   0.0000   0.0000   0.3213
  13.200   0.8061   0.16363   0.16138  -0.0655  0.0167  1.0000  -1.9979   0.0000   0.0000   0.0000   0.3223
  13.300   0.8077   0.16524   0.16299  -0.0664  0.0167  1.0000  -1.9847   0.0000   0.0000   0.0000   0.3232
  13.400   0.8094   0.16682   0.16457  -0.0673  0.0167  1.0000  -1.9726   0.0000   0.0000   0.0000   0.3241
  13.500   0.8111   0.16840   0.16615  -0.0682  0.0167  1.0000  -1.9614   0.0000   0.0000   0.0000   0.3249
  13.600   0.8130   0.16999   0.16774  -0.0691  0.0166  1.0000  -1.9510   0.0000   0.0000   0.0000   0.3258
  13.700   0.8149   0.17160   0.16935  -0.0700  0.0166  1.0000  -1.9412   0.0000   0.0000   0.0000   0.3265
  13.800   0.8169   0.17324   0.17099  -0.0708  0.0166  1.0000  -1.9317   0.0000   0.0000   0.0000   0.3273
  13.900   0.8188   0.17490   0.17264  -0.0717  0.0166  1.0000  -1.9227   0.0000   0.0000   0.0000   0.3280
  14.000   0.8209   0.17656   0.17430  -0.0726  0.0166  1.0000  -1.9141   0.0000   0.0000   0.0000   0.3288
  14.100   0.8230   0.17822   0.17596  -0.0734  0.0165  1.0000  -1.9060   0.0000   0.0000   0.0000   0.3295
  14.200   0.8251   0.17988   0.17762  -0.0743  0.0165  1.0000  -1.8985   0.0000   0.0000   0.0000   0.3302
  14.300   0.8273   0.18154   0.17928  -0.0751  0.0165  1.0000  -1.8916   0.0000   0.0000   0.0000   0.3309
  14.400   0.8295   0.18319   0.18093  -0.0760  0.0164  1.0000  -1.8854   0.0000   0.0000   0.0000   0.3316
  14.500   0.8318   0.18482   0.18256  -0.0768  0.0164  1.0000  -1.8802   0.0000   0.0000   0.0000   0.3323
  14.600   0.8342   0.18642   0.18416  -0.0777  0.0163  1.0000  -1.8764   0.0000   0.0000   0.0000   0.3330
  14.700   0.8368   0.18796   0.18570  -0.0786  0.0162  1.0000  -1.8747   0.0000   0.0000   0.0000   0.3336
  14.800   0.8397   0.18936   0.18709  -0.0795  0.0161  1.0000  -1.8773   0.0000   0.0000   0.0000   0.3343
  14.900   0.8437   0.19030   0.18804  -0.0805  0.0156  1.0000  -1.8895   0.0000   0.0000   0.0000   0.3349
  15.000   0.8466   0.19153   0.18926  -0.0819  0.0147  1.0000  -1.8678   0.0000   0.0000   0.0000   0.3362
  15.100   0.8494   0.19316   0.19089  -0.0831  0.0137  1.0000  -1.8529   0.0000   0.0000   0.0000   0.3371
  15.200   0.8519   0.19485   0.19258  -0.0840  0.0128  1.0000  -1.8511   0.0000   0.0000   0.0000   0.3379
  15.300   0.8543   0.19650   0.19423  -0.0849  0.0120  1.0000  -1.8591   0.0000   0.0000   0.0000   0.3385
  15.400   0.8567   0.19810   0.19583  -0.0857  0.0112  1.0000  -1.8758   0.0000   0.0000   0.0000   0.3390
  15.500   0.8591   0.19962   0.19735  -0.0864  0.0105  1.0000  -1.9022   0.0000   0.0000   0.0000   0.3395
  15.600   0.8617   0.20104   0.19877  -0.0872  0.0098  1.0000  -1.9397   0.0000   0.0000   0.0000   0.3399
  15.700   0.8643   0.20235   0.20008  -0.0878  0.0093  1.0000  -1.9908   0.0000   0.0000   0.0000   0.3402
  15.800   0.8671   0.20350   0.20123  -0.0883  0.0087  1.0000  -2.0604   0.0000   0.0000   0.0000   0.3404
  15.900   0.8702   0.20444   0.20218  -0.0887  0.0082  1.0000  -2.1547   0.0000   0.0000   0.0000   0.3403
  16.000   0.8739   0.20509   0.20284  -0.0888  0.0078  1.0000  -2.2886   0.0000   0.0000   0.0000   0.3398
  16.100   0.8762   0.20627   0.20403  -0.0892  0.0073  1.0000  -2.3803   0.0000   0.0000   0.0000   0.3397
  16.500   0.8740   0.21910   0.21680  -0.0937  0.0063  1.0000  -2.0199   0.0000   0.0000   0.0000   0.3449
  16.600   0.8762   0.22101   0.21871  -0.0946  0.0063  1.0000  -2.0159   0.0000   0.0000   0.0000   0.3456
  16.700   0.8785   0.22290   0.22059  -0.0955  0.0062  1.0000  -2.0146   0.0000   0.0000   0.0000   0.3462
  16.800   0.8809   0.22475   0.22244  -0.0964  0.0061  1.0000  -2.0167   0.0000   0.0000   0.0000   0.3468
  16.900   0.8834   0.22657   0.22426  -0.0972  0.0060  1.0000  -2.0220   0.0000   0.0000   0.0000   0.3473
  17.000   0.8859   0.22840   0.22609  -0.0981  0.0060  1.0000  -2.0277   0.0000   0.0000   0.0000   0.3478
  17.100   0.8884   0.23027   0.22796  -0.0989  0.0059  1.0000  -2.0317   0.0000   0.0000   0.0000   0.3483
  17.200   0.8908   0.23221   0.22990  -0.0997  0.0058  1.0000  -2.0318   0.0000   0.0000   0.0000   0.3488
  17.300   0.8930   0.23423   0.23192  -0.1005  0.0057  1.0000  -2.0270   0.0000   0.0000   0.0000   0.3493
  17.400   0.8951   0.23632   0.23401  -0.1013  0.0057  1.0000  -2.0179   0.0000   0.0000   0.0000   0.3499
  17.500   0.8970   0.23847   0.23616  -0.1021  0.0057  1.0000  -2.0059   0.0000   0.0000   0.0000   0.3504
  17.600   0.8989   0.24067   0.23836  -0.1029  0.0057  1.0000  -1.9916   0.0000   0.0000   0.0000   0.3509
  17.700   0.9006   0.24292   0.24061  -0.1037  0.0057  1.0000  -1.9752   0.0000   0.0000   0.0000   0.3515
  17.800   0.9023   0.24522   0.24291  -0.1044  0.0057  1.0000  -1.9570   0.0000   0.0000   0.0000   0.3520
  17.900   0.9039   0.24756   0.24525  -0.1052  0.0058  1.0000  -1.9377   0.0000   0.0000   0.0000   0.3525
  18.000   0.9054   0.24993   0.24761  -0.1059  0.0058  1.0000  -1.9179   0.0000   0.0000   0.0000   0.3530
  18.100   0.9070   0.25219   0.24993  -0.1066  0.0059  1.0000  -1.9008   0.0000   0.0000   0.0000   0.3535
  18.200   0.9085   0.25455   0.25230  -0.1074  0.0059  1.0000  -1.8826   0.0000   0.0000   0.0000   0.3540
  18.300   0.9100   0.25692   0.25466  -0.1081  0.0059  1.0000  -1.8661   0.0000   0.0000   0.0000   0.3545
  18.400   0.9115   0.25927   0.25701  -0.1088  0.0060  1.0000  -1.8510   0.0000   0.0000   0.0000   0.3549
  18.500   0.9130   0.26162   0.25936  -0.1095  0.0060  1.0000  -1.8368   0.0000   0.0000   0.0000   0.3554
  18.600   0.9145   0.26395   0.26170  -0.1102  0.0060  1.0000  -1.8237   0.0000   0.0000   0.0000   0.3559
  18.700   0.9160   0.26628   0.26403  -0.1109  0.0060  1.0000  -1.8113   0.0000   0.0000   0.0000   0.3563
  18.800   0.9175   0.26861   0.26636  -0.1116  0.0061  1.0000  -1.7997   0.0000   0.0000   0.0000   0.3568
  18.900   0.9189   0.27094   0.26868  -0.1123  0.0061  1.0000  -1.7885   0.0000   0.0000   0.0000   0.3572
  19.000   0.9203   0.27325   0.27100  -0.1130  0.0061  1.0000  -1.7779   0.0000   0.0000   0.0000   0.3577
  19.100   0.9216   0.27557   0.27332  -0.1137  0.0061  1.0000  -1.7676   0.0000   0.0000   0.0000   0.3581
  19.200   0.9229   0.27789   0.27564  -0.1143  0.0061  1.0000  -1.7577   0.0000   0.0000   0.0000   0.3585
  19.300   0.9242   0.28020   0.27795  -0.1150  0.0061  1.0000  -1.7480   0.0000   0.0000   0.0000   0.3590
  19.400   0.9254   0.28250   0.28026  -0.1157  0.0061  1.0000  -1.7385   0.0000   0.0000   0.0000   0.3594
  19.500   0.9265   0.28480   0.28256  -0.1163  0.0061  1.0000  -1.7292   0.0000   0.0000   0.0000   0.3598
  19.600   0.9276   0.28710   0.28486  -0.1170  0.0061  1.0000  -1.7201   0.0000   0.0000   0.0000   0.3603
  19.700   0.9286   0.28939   0.28716  -0.1176  0.0061  1.0000  -1.7110   0.0000   0.0000   0.0000   0.3607
  19.800   0.9295   0.29168   0.28944  -0.1182  0.0061  1.0000  -1.7020   0.0000   0.0000   0.0000   0.3611
  19.900   0.9303   0.29395   0.29172  -0.1188  0.0061  1.0000  -1.6929   0.0000   0.0000   0.0000   0.3615
  20.000   0.9310   0.29621   0.29399  -0.1194  0.0061  1.0000  -1.6838   0.0000   0.0000   0.0000   0.3620
  20.100   0.9317   0.29847   0.29624  -0.1200  0.0062  1.0000  -1.6746   0.0000   0.0000   0.0000   0.3624
  20.200   0.9322   0.30070   0.29848  -0.1206  0.0062  1.0000  -1.6654   0.0000   0.0000   0.0000   0.3628
  20.300   0.9326   0.30292   0.30070  -0.1212  0.0062  1.0000  -1.6561   0.0000   0.0000   0.0000   0.3633
  20.400   0.9328   0.30511   0.30290  -0.1217  0.0062  1.0000  -1.6466   0.0000   0.0000   0.0000   0.3637
  20.500   0.9329   0.30728   0.30507  -0.1222  0.0062  1.0000  -1.6369   0.0000   0.0000   0.0000   0.3641
  20.600   0.9329   0.30941   0.30721  -0.1227  0.0062  1.0000  -1.6270   0.0000   0.0000   0.0000   0.3646
  20.700   0.9326   0.31151   0.30931  -0.1232  0.0062  1.0000  -1.6167   0.0000   0.0000   0.0000   0.3650
  20.800   0.9321   0.31355   0.31136  -0.1237  0.0062  1.0000  -1.6061   0.0000   0.0000   0.0000   0.3655
  20.900   0.9313   0.31553   0.31335  -0.1241  0.0062  1.0000  -1.5949   0.0000   0.0000   0.0000   0.3659
  21.000   0.9302   0.31744   0.31526  -0.1245  0.0062  1.0000  -1.5832   0.0000   0.0000   0.0000   0.3664
  21.100   0.9287   0.31924   0.31708  -0.1248  0.0062  1.0000  -1.5706   0.0000   0.0000   0.0000   0.3669
  21.200   0.9266   0.32091   0.31875  -0.1251  0.0062  1.0000  -1.5569   0.0000   0.0000   0.0000   0.3674
  21.300   0.9239   0.32238   0.32023  -0.1253  0.0062  1.0000  -1.5416   0.0000   0.0000   0.0000   0.3679
  21.400   0.8785   0.31243   0.31036  -0.1203  0.0062  1.0000  -1.4272   0.0000   0.0000   0.0000   0.3698
  21.500   0.8714   0.31178   0.30973  -0.1199  0.0062  1.0000  -1.4025   0.0000   0.0000   0.0000   0.3704
  21.600   0.8660   0.31153   0.30950  -0.1197  0.0062  1.0000  -1.3820   0.0000   0.0000   0.0000   0.3710
  21.700   0.8616   0.31149   0.30947  -0.1197  0.0062  1.0000  -1.3639   0.0000   0.0000   0.0000   0.3715
  21.800   0.8579   0.31157   0.30957  -0.1196  0.0062  1.0000  -1.3473   0.0000   0.0000   0.0000   0.3720
  21.900   0.8546   0.31175   0.30975  -0.1197  0.0062  1.0000  -1.3320   0.0000   0.0000   0.0000   0.3725
  22.000   0.8516   0.31199   0.31000  -0.1197  0.0062  1.0000  -1.3176   0.0000   0.0000   0.0000   0.3730
  22.100   0.8490   0.31228   0.31030  -0.1198  0.0062  1.0000  -1.3040   0.0000   0.0000   0.0000   0.3735
  22.200   0.8465   0.31261   0.31064  -0.1200  0.0062  1.0000  -1.2911   0.0000   0.0000   0.0000   0.3740
  22.300   0.8443   0.31296   0.31100  -0.1201  0.0062  1.0000  -1.2787   0.0000   0.0000   0.0000   0.3745
  22.400   0.8422   0.31335   0.31140  -0.1203  0.0062  1.0000  -1.2668   0.0000   0.0000   0.0000   0.3749
  22.500   0.8404   0.31377   0.31182  -0.1205  0.0062  1.0000  -1.2554   0.0000   0.0000   0.0000   0.3754
  22.600   0.8386   0.31420   0.31227  -0.1206  0.0062  1.0000  -1.2445   0.0000   0.0000   0.0000   0.3758
  22.700   0.8370   0.31466   0.31273  -0.1209  0.0062  1.0000  -1.2339   0.0000   0.0000   0.0000   0.3762
  22.800   0.8355   0.31513   0.31321  -0.1211  0.0062  1.0000  -1.2237   0.0000   0.0000   0.0000   0.3767
  22.900   0.8341   0.31562   0.31371  -0.1213  0.0062  1.0000  -1.2138   0.0000   0.0000   0.0000   0.3771
  23.000   0.8328   0.31612   0.31422  -0.1216  0.0062  1.0000  -1.2042   0.0000   0.0000   0.0000   0.3775
  23.100   0.8315   0.31663   0.31473  -0.1218  0.0062  1.0000  -1.1949   0.0000   0.0000   0.0000   0.3779
  23.200   0.8304   0.31714   0.31525  -0.1221  0.0062  1.0000  -1.1859   0.0000   0.0000   0.0000   0.3783
  23.300   0.8294   0.31767   0.31578  -0.1224  0.0062  1.0000  -1.1772   0.0000   0.0000   0.0000   0.3788
  23.400   0.8285   0.31820   0.31632  -0.1227  0.0062  1.0000  -1.1687   0.0000   0.0000   0.0000   0.3792
  23.500   0.8276   0.31873   0.31686  -0.1230  0.0062  1.0000  -1.1605   0.0000   0.0000   0.0000   0.3796
  23.600   0.8267   0.31928   0.31742  -0.1233  0.0062  1.0000  -1.1525   0.0000   0.0000   0.0000   0.3800
  23.700   0.8259   0.31984   0.31798  -0.1236  0.0062  1.0000  -1.1447   0.0000   0.0000   0.0000   0.3804
  23.800   0.8252   0.32040   0.31854  -0.1240  0.0062  1.0000  -1.1372   0.0000   0.0000   0.0000   0.3808
  23.900   0.8245   0.32097   0.31912  -0.1243  0.0061  1.0000  -1.1299   0.0000   0.0000   0.0000   0.3812
  24.000   0.8239   0.32154   0.31970  -0.1246  0.0061  1.0000  -1.1227   0.0000   0.0000   0.0000   0.3816
  24.100   0.8233   0.32212   0.32028  -0.1250  0.0061  1.0000  -1.1151   0.0000   0.0000   0.0000   0.3820
  24.200   0.8227   0.32270   0.32087  -0.1253  0.0061  1.0000  -1.1075   0.0000   0.0000   0.0000   0.3825
  24.300   0.8222   0.32329   0.32146  -0.1257  0.0061  1.0000  -1.1001   0.0000   0.0000   0.0000   0.3829
  24.400   0.8217   0.32388   0.32206  -0.1260  0.0061  1.0000  -1.0929   0.0000   0.0000   0.0000   0.3833
  24.500   0.8212   0.32448   0.32267  -0.1264  0.0061  1.0000  -1.0858   0.0000   0.0000   0.0000   0.3837
  24.600   0.8208   0.32508   0.32328  -0.1268  0.0061  1.0000  -1.0790   0.0000   0.0000   0.0000   0.3841
  24.700   0.8204   0.32569   0.32389  -0.1271  0.0061  1.0000  -1.0722   0.0000   0.0000   0.0000   0.3844
  24.800   0.8201   0.32630   0.32451  -0.1275  0.0060  1.0000  -1.0657   0.0000   0.0000   0.0000   0.3848
  24.900   0.8198   0.32692   0.32513  -0.1279  0.0060  1.0000  -1.0593   0.0000   0.0000   0.0000   0.3852
  25.000   0.8195   0.32754   0.32576  -0.1283  0.0060  1.0000  -1.0531   0.0000   0.0000   0.0000   0.3856
  25.100   0.8193   0.32817   0.32639  -0.1287  0.0060  1.0000  -1.0470   0.0000   0.0000   0.0000   0.3860
  25.200   0.8191   0.32880   0.32703  -0.1291  0.0060  1.0000  -1.0411   0.0000   0.0000   0.0000   0.3864
  25.300   0.8189   0.32943   0.32767  -0.1295  0.0059  1.0000  -1.0353   0.0000   0.0000   0.0000   0.3867
  25.400   0.8188   0.33008   0.32831  -0.1299  0.0059  1.0000  -1.0297   0.0000   0.0000   0.0000   0.3871
  25.500   0.8188   0.33072   0.32896  -0.1303  0.0059  1.0000  -1.0242   0.0000   0.0000   0.0000   0.3875
  25.600   0.8187   0.33137   0.32962  -0.1307  0.0059  1.0000  -1.0188   0.0000   0.0000   0.0000   0.3879
  25.700   0.8187   0.33203   0.33029  -0.1311  0.0058  1.0000  -1.0135   0.0000   0.0000   0.0000   0.3882
  25.800   0.8188   0.33270   0.33096  -0.1316  0.0058  1.0000  -1.0084   0.0000   0.0000   0.0000   0.3886
  25.900   0.8190   0.33338   0.33164  -0.1320  0.0057  1.0000  -1.0033   0.0000   0.0000   0.0000   0.3889
  26.000   0.8192   0.33407   0.33234  -0.1324  0.0057  1.0000  -0.9982   0.0000   0.0000   0.0000   0.3893
  26.100   0.8195   0.33478   0.33305  -0.1329  0.0056  1.0000  -0.9931   0.0000   0.0000   0.0000   0.3896
  26.200   0.8199   0.33550   0.33378  -0.1334  0.0055  1.0000  -0.9879   0.0000   0.0000   0.0000   0.3899
  26.300   0.8203   0.33624   0.33452  -0.1338  0.0053  1.0000  -0.9825   0.0000   0.0000   0.0000   0.3902
  26.400   0.8208   0.33699   0.33528  -0.1342  0.0052  1.0000  -0.9770   0.0000   0.0000   0.0000   0.3905
  26.500   0.8212   0.33774   0.33603  -0.1347  0.0050  1.0000  -0.9716   0.0000   0.0000   0.0000   0.3908
  26.600   0.8219   0.33851   0.33685  -0.1351  0.0045  1.0000  -0.9682   0.0000   0.0000   0.0000   0.3910
  26.700   0.8221   0.33921   0.33755  -0.1355  0.0043  1.0000  -0.9650   0.0000   0.0000   0.0000   0.3913
  26.800   0.8221   0.33989   0.33825  -0.1359  0.0040  1.0000  -0.9622   0.0000   0.0000   0.0000   0.3916
  26.900   0.8221   0.34057   0.33893  -0.1363  0.0038  1.0000  -0.9599   0.0000   0.0000   0.0000   0.3919
  27.000   0.8221   0.34125   0.33961  -0.1367  0.0036  1.0000  -0.9579   0.0000   0.0000   0.0000   0.3922
  27.100   0.8221   0.34192   0.34028  -0.1370  0.0034  1.0000  -0.9563   0.0000   0.0000   0.0000   0.3925
  27.200   0.8220   0.34258   0.34096  -0.1374  0.0033  1.0000  -0.9550   0.0000   0.0000   0.0000   0.3928
  27.300   0.8220   0.34325   0.34163  -0.1378  0.0031  1.0000  -0.9539   0.0000   0.0000   0.0000   0.3931
  27.400   0.8219   0.34392   0.34230  -0.1382  0.0030  1.0000  -0.9530   0.0000   0.0000   0.0000   0.3934
  27.500   0.8219   0.34458   0.34297  -0.1386  0.0028  1.0000  -0.9524   0.0000   0.0000   0.0000   0.3937
  27.600   0.8218   0.34524   0.34364  -0.1390  0.0027  1.0000  -0.9519   0.0000   0.0000   0.0000   0.3940
  27.700   0.8218   0.34591   0.34431  -0.1394  0.0026  1.0000  -0.9517   0.0000   0.0000   0.0000   0.3944
  27.800   0.8218   0.34657   0.34497  -0.1398  0.0025  1.0000  -0.9517   0.0000   0.0000   0.0000   0.3947
  27.900   0.8217   0.34723   0.34564  -0.1402  0.0024  1.0000  -0.9519   0.0000   0.0000   0.0000   0.3950
  28.000   0.8217   0.34789   0.34631  -0.1406  0.0023  1.0000  -0.9522   0.0000   0.0000   0.0000   0.3953
  28.100   0.8217   0.34855   0.34697  -0.1410  0.0022  1.0000  -0.9528   0.0000   0.0000   0.0000   0.3956
  28.200   0.8216   0.34921   0.34764  -0.1414  0.0021  1.0000  -0.9536   0.0000   0.0000   0.0000   0.3959
  28.300   0.8216   0.34987   0.34830  -0.1418  0.0020  1.0000  -0.9545   0.0000   0.0000   0.0000   0.3962
  28.400   0.8216   0.35053   0.34897  -0.1422  0.0020  1.0000  -0.9557   0.0000   0.0000   0.0000   0.3965
  28.500   0.8216   0.35119   0.34963  -0.1426  0.0019  1.0000  -0.9570   0.0000   0.0000   0.0000   0.3968
  28.600   0.8215   0.35184   0.35029  -0.1430  0.0018  1.0000  -0.9586   0.0000   0.0000   0.0000   0.3971
  28.700   0.8215   0.35250   0.35095  -0.1434  0.0018  1.0000  -0.9603   0.0000   0.0000   0.0000   0.3974
  28.800   0.8215   0.35315   0.35161  -0.1438  0.0017  1.0000  -0.9623   0.0000   0.0000   0.0000   0.3977
  28.900   0.8215   0.35381   0.35227  -0.1442  0.0016  1.0000  -0.9644   0.0000   0.0000   0.0000   0.3980
  29.000   0.8215   0.35446   0.35293  -0.1446  0.0016  1.0000  -0.9668   0.0000   0.0000   0.0000   0.3983
  29.100   0.8214   0.35510   0.35358  -0.1450  0.0015  1.0000  -0.9694   0.0000   0.0000   0.0000   0.3986
  29.200   0.8214   0.35575   0.35423  -0.1454  0.0015  1.0000  -0.9722   0.0000   0.0000   0.0000   0.3989
  29.300   0.8214   0.35640   0.35488  -0.1458  0.0014  1.0000  -0.9752   0.0000   0.0000   0.0000   0.3991
  29.400   0.8214   0.35704   0.35553  -0.1463  0.0014  1.0000  -0.9784   0.0000   0.0000   0.0000   0.3994
  29.500   0.8213   0.35768   0.35618  -0.1467  0.0014  1.0000  -0.9819   0.0000   0.0000   0.0000   0.3997


