xflr5 v6.61

 Calculated polar for: S6063 7.05%

 1 1 Reynolds number fixed          Mach number fixed         

 xtrf =   1.000 (top)        1.000 (bottom)
 Mach =   0.000     Re =     0.300 e 6     Ncrit =   9.000

  alpha     CL        CD       CDp       Cm    Top Xtr Bot Xtr   Cpmin    Chinge    XCp    
 ------- -------- --------- --------- -------- ------- ------- -------- --------- ---------
 -10.000  -0.5544   0.11819   0.11514   0.0092  1.0000  0.0169  -1.9313   0.0000   0.0000   0.0000   0.2629
  -9.900  -0.5556   0.11578   0.11273   0.0085  1.0000  0.0172  -1.9661   0.0000   0.0000   0.0000   0.2617
  -9.800  -0.5554   0.11387   0.11082   0.0080  1.0000  0.0175  -1.9714   0.0000   0.0000   0.0000   0.2608
  -9.700  -0.5539   0.11228   0.10924   0.0077  1.0000  0.0178  -1.9476   0.0000   0.0000   0.0000   0.2604
  -9.600  -0.5514   0.11094   0.10790   0.0077  1.0000  0.0182  -1.9053   0.0000   0.0000   0.0000   0.2604
  -9.500  -0.5487   0.10966   0.10661   0.0075  1.0000  0.0185  -1.8659   0.0000   0.0000   0.0000   0.2603
  -9.400  -0.5461   0.10836   0.10531   0.0073  1.0000  0.0188  -1.8347   0.0000   0.0000   0.0000   0.2600
  -9.300  -0.5438   0.10703   0.10397   0.0069  1.0000  0.0191  -1.8138   0.0000   0.0000   0.0000   0.2594
  -9.200  -0.5418   0.10563   0.10257   0.0064  1.0000  0.0193  -1.8031   0.0000   0.0000   0.0000   0.2585
  -9.100  -0.5402   0.10415   0.10107   0.0057  1.0000  0.0194  -1.8064   0.0000   0.0000   0.0000   0.2574
  -8.700  -0.5374   0.09740   0.09414   0.0019  1.0000  0.0189  -1.9257   0.0000   0.0000   0.0000   0.2505
  -8.600  -0.5347   0.09636   0.09311   0.0018  1.0000  0.0195  -1.8720   0.0000   0.0000   0.0000   0.2504
  -8.500  -0.5324   0.09520   0.09196   0.0015  1.0000  0.0200  -1.8363   0.0000   0.0000   0.0000   0.2499
  -8.400  -0.5304   0.09396   0.09072   0.0010  1.0000  0.0205  -1.8126   0.0000   0.0000   0.0000   0.2490
  -8.300  -0.5286   0.09266   0.08943   0.0004  1.0000  0.0210  -1.7967   0.0000   0.0000   0.0000   0.2480
  -8.200  -0.5271   0.09131   0.08810  -0.0003  1.0000  0.0215  -1.7866   0.0000   0.0000   0.0000   0.2467
  -8.100  -0.5257   0.08994   0.08673  -0.0011  1.0000  0.0220  -1.7810   0.0000   0.0000   0.0000   0.2453
  -8.000  -0.5246   0.08854   0.08534  -0.0019  1.0000  0.0225  -1.7791   0.0000   0.0000   0.0000   0.2439
  -7.900  -0.5236   0.08711   0.08393  -0.0027  1.0000  0.0230  -1.7805   0.0000   0.0000   0.0000   0.2423
  -7.800  -0.5227   0.08566   0.08249  -0.0036  1.0000  0.0234  -1.7846   0.0000   0.0000   0.0000   0.2406
  -7.700  -0.5220   0.08418   0.08102  -0.0046  1.0000  0.0239  -1.7912   0.0000   0.0000   0.0000   0.2387
  -7.600  -0.5215   0.08268   0.07954  -0.0057  1.0000  0.0243  -1.8003   0.0000   0.0000   0.0000   0.2368
  -7.500  -0.5212   0.08116   0.07803  -0.0068  1.0000  0.0248  -1.8120   0.0000   0.0000   0.0000   0.2347
  -7.400  -0.5213   0.07961   0.07650  -0.0081  1.0000  0.0251  -1.8265   0.0000   0.0000   0.0000   0.2323
  -7.300  -0.5211   0.07798   0.07488  -0.0096  1.0000  0.0255  -1.8438   0.0000   0.0000   0.0000   0.2294
  -7.200  -0.5194   0.07611   0.07302  -0.0119  1.0000  0.0259  -1.8631   0.0000   0.0000   0.0000   0.2251
  -7.100  -0.5169   0.07413   0.07104  -0.0143  1.0000  0.0264  -1.8847   0.0000   0.0000   0.0000   0.2203
  -7.000  -0.5138   0.07208   0.06898  -0.0168  1.0000  0.0270  -1.9085   0.0000   0.0000   0.0000   0.2153
  -6.900  -0.5098   0.07000   0.06689  -0.0193  1.0000  0.0276  -1.9334   0.0000   0.0000   0.0000   0.2102
  -6.800  -0.5048   0.06792   0.06478  -0.0219  1.0000  0.0284  -1.9618   0.0000   0.0000   0.0000   0.2048
  -6.700  -0.4980   0.06592   0.06273  -0.0246  1.0000  0.0294  -1.9953   0.0000   0.0000   0.0000   0.1988
  -6.600  -0.4833   0.06548   0.06221  -0.0269  1.0000  0.0311  -1.9893   0.0000   0.0000   0.0000   0.1925
  -6.500  -0.4765   0.06407   0.06074  -0.0283  1.0000  0.0314  -1.9992   0.0000   0.0000   0.0000   0.1886
  -6.400  -0.4709   0.06251   0.05912  -0.0295  1.0000  0.0315  -2.0110   0.0000   0.0000   0.0000   0.1854
  -6.300  -0.4656   0.06092   0.05746  -0.0306  1.0000  0.0316  -2.0221   0.0000   0.0000   0.0000   0.1825
  -5.900  -0.4488   0.05263   0.04883  -0.0341  1.0000  0.0322  -2.1319   0.0000   0.0000   0.0000   0.1720
  -5.800  -0.4525   0.04718   0.04324  -0.0358  1.0000  0.0332  -2.2709   0.0000   0.0000   0.0000   0.1689
  -5.700  -0.4509   0.04424   0.04026  -0.0365  1.0000  0.0344  -2.2760   0.0000   0.0000   0.0000   0.1672
  -5.600  -0.4459   0.04312   0.03921  -0.0365  1.0000  0.0357  -2.1847   0.0000   0.0000   0.0000   0.1664
  -5.500  -0.4398   0.04262   0.03877  -0.0362  1.0000  0.0373  -2.0775   0.0000   0.0000   0.0000   0.1659
  -5.400  -0.4332   0.04195   0.03811  -0.0361  1.0000  0.0391  -1.9997   0.0000   0.0000   0.0000   0.1649
  -5.300  -0.4263   0.04110   0.03722  -0.0361  1.0000  0.0412  -1.9453   0.0000   0.0000   0.0000   0.1636
  -5.200  -0.4189   0.04014   0.03620  -0.0361  1.0000  0.0437  -1.9082   0.0000   0.0000   0.0000   0.1622
  -5.100  -0.4101   0.03938   0.03535  -0.0360  1.0000  0.0470  -1.8822   0.0000   0.0000   0.0000   0.1606
  -5.000  -0.3905   0.04324   0.03906  -0.0347  1.0000  0.0520  -1.7686   0.0000   0.0000   0.0000   0.1595
  -4.900  -0.3829   0.04290   0.03859  -0.0343  1.0000  0.0523  -1.7445   0.0000   0.0000   0.0000   0.1588
  -4.800  -0.3894   0.03611   0.03154  -0.0352  1.0000  0.0543  -1.8965   0.0000   0.0000   0.0000   0.1578
  -4.700  -0.3872   0.03352   0.02896  -0.0352  1.0000  0.0567  -1.8755   0.0000   0.0000   0.0000   0.1574
  -4.600  -0.3815   0.03281   0.02838  -0.0348  1.0000  0.0592  -1.7882   0.0000   0.0000   0.0000   0.1572
  -4.500  -0.3756   0.03236   0.02799  -0.0343  1.0000  0.0621  -1.7146   0.0000   0.0000   0.0000   0.1573
  -4.400  -0.3693   0.03187   0.02748  -0.0337  1.0000  0.0655  -1.6623   0.0000   0.0000   0.0000   0.1573
  -4.300  -0.3625   0.03121   0.02676  -0.0330  1.0000  0.0684  -1.6315   0.0000   0.0000   0.0000   0.1574
  -4.200  -0.3551   0.03069   0.02616  -0.0323  1.0000  0.0711  -1.6041   0.0000   0.0000   0.0000   0.1575
  -4.100  -0.3469   0.03060   0.02599  -0.0315  1.0000  0.0738  -1.5712   0.0000   0.0000   0.0000   0.1578
  -4.000  -0.3369   0.03167   0.02700  -0.0303  1.0000  0.0763  -1.5156   0.0000   0.0000   0.0000   0.1586
  -3.900  -0.3283   0.03240   0.02766  -0.0292  1.0000  0.0773  -1.4687   0.0000   0.0000   0.0000   0.1595
  -3.800  -0.3305   0.02633   0.02128  -0.0301  1.0000  0.0827  -1.5490   0.0000   0.0000   0.0000   0.1575
  -3.700  -0.3240   0.02527   0.02022  -0.0296  1.0000  0.0847  -1.5135   0.0000   0.0000   0.0000   0.1572
  -3.600  -0.3170   0.02446   0.01942  -0.0291  1.0000  0.0865  -1.4746   0.0000   0.0000   0.0000   0.1568
  -3.500  -0.3096   0.02374   0.01869  -0.0285  1.0000  0.0884  -1.4376   0.0000   0.0000   0.0000   0.1564
  -3.400  -0.2951   0.02287   0.01777  -0.0293  0.9987  0.0914  -1.3899   0.0000   0.0000   0.0000   0.1494
  -3.300  -0.2793   0.02203   0.01685  -0.0302  0.9973  0.0947  -1.3453   0.0000   0.0000   0.0000   0.1406
  -3.200  -0.2635   0.02123   0.01597  -0.0309  0.9958  0.0978  -1.3056   0.0000   0.0000   0.0000   0.1313
  -3.100  -0.2425   0.01703   0.01079  -0.0293  0.9955  0.0441  -1.6170   0.0000   0.0000   0.0000   0.1274
  -3.000  -0.2253   0.01590   0.00934  -0.0288  0.9944  0.0299  -1.7179   0.0000   0.0000   0.0000   0.1200
  -2.900  -0.2111   0.01438   0.00765  -0.0290  0.9933  0.0264  -1.7497   0.0000   0.0000   0.0000   0.1104
  -2.800  -0.1962   0.01333   0.00645  -0.0293  0.9920  0.0232  -1.7694   0.0000   0.0000   0.0000   0.0985
  -2.700  -0.1808   0.01258   0.00557  -0.0297  0.9905  0.0206  -1.7727   0.0000   0.0000   0.0000   0.0834
  -2.600  -0.1645   0.01221   0.00514  -0.0305  0.9890  0.0189  -1.7215   0.0000   0.0000   0.0000   0.0623
  -2.500  -0.1479   0.01199   0.00490  -0.0315  0.9876  0.0178  -1.6409   0.0000   0.0000   0.0000   0.0347
  -2.400  -0.1336   0.01180   0.00469  -0.0321  0.9851  0.0171  -1.5628   0.0000   0.0000   0.0000   0.0076
  -2.300  -0.1190   0.01157   0.00447  -0.0327  0.9828  0.0166  -1.4860   0.0000   0.0000   0.0000  -0.0274
  -2.200  -0.1042   0.01124   0.00408  -0.0334  0.9808  0.0162  -1.4225   0.0000   0.0000   0.0000  -0.0729
  -2.100  -0.0890   0.01087   0.00364  -0.0342  0.9789  0.0161  -1.3663   0.0000   0.0000   0.0000  -0.1368
  -2.000  -0.0730   0.01059   0.00330  -0.0351  0.9771  0.0160  -1.2984   0.0000   0.0000   0.0000  -0.2342
  -1.600  -0.0149   0.00797   0.00220  -0.0384  0.9690  0.4489  -0.9144   0.0000   0.0000   0.0000  -2.3308
  -1.500  -0.0035   0.00762   0.00222  -0.0386  0.9652  0.5413  -0.8102   0.0000   0.0000   0.0000  -10.8457
  -1.400   0.0082   0.00730   0.00225  -0.0387  0.9618  0.6314  -0.7049   0.0000   0.0000   0.0000   4.9860
  -1.300   0.0153   0.00681   0.00239  -0.0373  0.9585  0.7885  -0.6521   0.0000   0.0000   0.0000   2.7027
  -1.200   0.0239   0.00659   0.00254  -0.0356  0.9566  0.9186  -0.5998   0.0000   0.0000   0.0000   1.7401
  -1.100   0.0511   0.00653   0.00252  -0.0384  0.9583  0.9728  -0.5075   0.0000   0.0000   0.0000   1.0028
  -1.000   0.0727   0.00649   0.00245  -0.0405  0.9570  0.9816  -0.4338   0.0000   0.0000   0.0000   0.8082
  -0.900   0.0936   0.00645   0.00238  -0.0425  0.9558  0.9899  -0.3653   0.0000   0.0000   0.0000   0.7045
  -0.800   0.1150   0.00640   0.00231  -0.0446  0.9546  0.9967  -0.3325   0.0000   0.0000   0.0000   0.6385
  -0.700   0.1330   0.00638   0.00225  -0.0461  0.9521  1.0000  -0.3188   0.0000   0.0000   0.0000   0.5965
  -0.600   0.1423   0.00637   0.00222  -0.0457  0.9453  1.0000  -0.3274   0.0000   0.0000   0.0000   0.5711
  -0.500   0.1525   0.00636   0.00218  -0.0455  0.9387  1.0000  -0.3366   0.0000   0.0000   0.0000   0.5480
  -0.400   0.1635   0.00635   0.00214  -0.0453  0.9329  1.0000  -0.3462   0.0000   0.0000   0.0000   0.5272
  -0.300   0.1746   0.00634   0.00210  -0.0452  0.9277  1.0000  -0.3559   0.0000   0.0000   0.0000   0.5088
  -0.200   0.1838   0.00634   0.00208  -0.0448  0.9217  1.0000  -0.3648   0.0000   0.0000   0.0000   0.4933
  -0.100   0.1922   0.00635   0.00207  -0.0442  0.9148  1.0000  -0.3745   0.0000   0.0000   0.0000   0.4794
   0.000   0.2009   0.00634   0.00204  -0.0436  0.9081  1.0000  -0.3843   0.0000   0.0000   0.0000   0.4663
   0.100   0.2100   0.00634   0.00201  -0.0430  0.9019  1.0000  -0.3945   0.0000   0.0000   0.0000   0.4542
   0.200   0.2192   0.00635   0.00198  -0.0424  0.8960  1.0000  -0.4048   0.0000   0.0000   0.0000   0.4429
   0.300   0.2282   0.00636   0.00198  -0.0419  0.8898  1.0000  -0.4148   0.0000   0.0000   0.0000   0.4331
   0.400   0.2373   0.00637   0.00197  -0.0415  0.8831  1.0000  -0.4250   0.0000   0.0000   0.0000   0.4240
   0.500   0.2465   0.00637   0.00196  -0.0410  0.8766  1.0000  -0.4367   0.0000   0.0000   0.0000   0.4155
   0.600   0.2557   0.00638   0.00193  -0.0404  0.8703  1.0000  -0.4489   0.0000   0.0000   0.0000   0.4074
   0.700   0.2649   0.00639   0.00191  -0.0399  0.8640  1.0000  -0.4611   0.0000   0.0000   0.0000   0.3997
   0.800   0.2744   0.00641   0.00190  -0.0394  0.8577  1.0000  -0.4736   0.0000   0.0000   0.0000   0.3928
   0.900   0.2841   0.00642   0.00191  -0.0391  0.8507  1.0000  -0.4867   0.0000   0.0000   0.0000   0.3867
   1.000   0.2937   0.00642   0.00190  -0.0387  0.8432  1.0000  -0.5016   0.0000   0.0000   0.0000   0.3808
   1.100   0.3033   0.00643   0.00188  -0.0383  0.8356  1.0000  -0.5166   0.0000   0.0000   0.0000   0.3751
   1.200   0.3128   0.00645   0.00186  -0.0378  0.8283  1.0000  -0.5316   0.0000   0.0000   0.0000   0.3697
   1.300   0.3225   0.00649   0.00185  -0.0373  0.8210  1.0000  -0.5469   0.0000   0.0000   0.0000   0.3646
   1.400   0.3327   0.00649   0.00187  -0.0371  0.8139  1.0000  -0.5625   0.0000   0.0000   0.0000   0.3604
   1.500   0.3427   0.00650   0.00187  -0.0368  0.8055  1.0000  -0.5791   0.0000   0.0000   0.0000   0.3562
   1.600   0.3526   0.00652   0.00186  -0.0365  0.7969  1.0000  -0.5982   0.0000   0.0000   0.0000   0.3521
   1.700   0.3625   0.00655   0.00185  -0.0361  0.7886  1.0000  -0.6173   0.0000   0.0000   0.0000   0.3482
   1.900   0.3683   0.00724   0.00129  -0.0315  0.5536  1.0000  -0.6462   0.0000   0.0000   0.0000   0.3341
   2.000   0.3768   0.00753   0.00128  -0.0311  0.4986  1.0000  -0.6650   0.0000   0.0000   0.0000   0.3309
   2.100   0.3858   0.00779   0.00130  -0.0308  0.4512  1.0000  -0.6941   0.0000   0.0000   0.0000   0.3282
   2.200   0.3951   0.00804   0.00134  -0.0305  0.4077  1.0000  -0.7480   0.0000   0.0000   0.0000   0.3257
   2.300   0.4045   0.00830   0.00139  -0.0303  0.3655  1.0000  -0.8028   0.0000   0.0000   0.0000   0.3233
   2.400   0.4140   0.00856   0.00145  -0.0302  0.3252  1.0000  -0.8594   0.0000   0.0000   0.0000   0.3212
   2.500   0.4235   0.00883   0.00153  -0.0300  0.2862  1.0000  -0.9180   0.0000   0.0000   0.0000   0.3192
   2.600   0.4332   0.00910   0.00162  -0.0299  0.2490  1.0000  -0.9787   0.0000   0.0000   0.0000   0.3173
   2.700   0.4430   0.00934   0.00171  -0.0298  0.2152  1.0000  -1.0419   0.0000   0.0000   0.0000   0.3154
   2.800   0.4529   0.00957   0.00181  -0.0297  0.1854  1.0000  -1.1071   0.0000   0.0000   0.0000   0.3137
   2.900   0.4621   0.00995   0.00196  -0.0296  0.1373  1.0000  -1.1707   0.0000   0.0000   0.0000   0.3121
   3.000   0.4690   0.01090   0.00232  -0.0293  0.0222  1.0000  -1.2238   0.0000   0.0000   0.0000   0.3105
   3.100   0.4797   0.01100   0.00242  -0.0292  0.0176  1.0000  -1.2934   0.0000   0.0000   0.0000   0.3088
   3.200   0.4904   0.01108   0.00251  -0.0291  0.0166  1.0000  -1.3634   0.0000   0.0000   0.0000   0.3073
   3.300   0.5011   0.01117   0.00261  -0.0290  0.0163  1.0000  -1.4336   0.0000   0.0000   0.0000   0.3057
   3.400   0.5119   0.01127   0.00273  -0.0289  0.0160  1.0000  -1.5029   0.0000   0.0000   0.0000   0.3042
   3.500   0.5225   0.01139   0.00286  -0.0288  0.0159  1.0000  -1.5718   0.0000   0.0000   0.0000   0.3028
   3.600   0.5332   0.01151   0.00303  -0.0287  0.0158  1.0000  -1.6402   0.0000   0.0000   0.0000   0.3013
   3.700   0.5438   0.01165   0.00321  -0.0285  0.0157  1.0000  -1.7083   0.0000   0.0000   0.0000   0.3000
   3.800   0.5544   0.01180   0.00341  -0.0284  0.0157  1.0000  -1.7758   0.0000   0.0000   0.0000   0.2986
   3.900   0.5650   0.01197   0.00365  -0.0282  0.0158  1.0000  -1.8422   0.0000   0.0000   0.0000   0.2973
   4.000   0.5754   0.01216   0.00391  -0.0280  0.0159  1.0000  -1.9070   0.0000   0.0000   0.0000   0.2960
   4.100   0.5858   0.01238   0.00421  -0.0278  0.0160  1.0000  -1.9696   0.0000   0.0000   0.0000   0.2947
   4.200   0.5960   0.01265   0.00455  -0.0275  0.0161  1.0000  -2.0291   0.0000   0.0000   0.0000   0.2934
   4.300   0.6060   0.01298   0.00495  -0.0273  0.0163  1.0000  -2.0849   0.0000   0.0000   0.0000   0.2921
   4.400   0.6156   0.01338   0.00543  -0.0270  0.0164  1.0000  -2.1354   0.0000   0.0000   0.0000   0.2908
   4.500   0.6248   0.01388   0.00599  -0.0266  0.0166  1.0000  -2.1788   0.0000   0.0000   0.0000   0.2895
   4.600   0.6337   0.01446   0.00667  -0.0261  0.0169  1.0000  -2.2179   0.0000   0.0000   0.0000   0.2882
   4.700   0.6437   0.01474   0.00697  -0.0259  0.0172  1.0000  -2.2872   0.0000   0.0000   0.0000   0.2871
   4.800   0.6538   0.01501   0.00725  -0.0256  0.0176  1.0000  -2.3581   0.0000   0.0000   0.0000   0.2860
   4.900   0.6640   0.01528   0.00754  -0.0254  0.0181  1.0000  -2.4296   0.0000   0.0000   0.0000   0.2849
   5.000   0.6741   0.01555   0.00784  -0.0251  0.0186  1.0000  -2.5000   0.0000   0.0000   0.0000   0.2839
   5.100   0.6842   0.01586   0.00818  -0.0249  0.0193  1.0000  -2.5684   0.0000   0.0000   0.0000   0.2829
   5.200   0.6942   0.01625   0.00861  -0.0245  0.0201  1.0000  -2.6268   0.0000   0.0000   0.0000   0.2818
   5.300   0.7041   0.01680   0.00925  -0.0240  0.0213  1.0000  -2.6609   0.0000   0.0000   0.0000   0.2805
   5.400   0.7138   0.01766   0.01024  -0.0234  0.0230  1.0000  -2.6634   0.0000   0.0000   0.0000   0.2790
   5.500   0.7237   0.01879   0.01151  -0.0227  0.0250  1.0000  -2.6524   0.0000   0.0000   0.0000   0.2776
   5.600   0.7335   0.02013   0.01300  -0.0220  0.0272  1.0000  -2.6382   0.0000   0.0000   0.0000   0.2762
   5.700   0.7427   0.02200   0.01503  -0.0214  0.0297  1.0000  -2.6103   0.0000   0.0000   0.0000   0.2749
   5.800   0.7552   0.02226   0.01530  -0.0209  0.0348  1.0000  -2.6421   0.0000   0.0000   0.0000   0.2738
   6.700   0.8357   0.03747   0.03300  -0.0146  0.0630  1.0000  -2.5037   0.0000   0.0000   0.0000   0.2631
   6.800   0.8433   0.03825   0.03386  -0.0144  0.0607  1.0000  -2.5691   0.0000   0.0000   0.0000   0.2626
   6.900   0.8506   0.03912   0.03479  -0.0141  0.0590  1.0000  -2.6315   0.0000   0.0000   0.0000   0.2621
   7.000   0.8580   0.04006   0.03575  -0.0139  0.0575  1.0000  -2.6965   0.0000   0.0000   0.0000   0.2616
   7.100   0.8657   0.04116   0.03682  -0.0138  0.0561  1.0000  -2.7649   0.0000   0.0000   0.0000   0.2613
   7.200   0.8713   0.04270   0.03838  -0.0137  0.0547  1.0000  -2.8146   0.0000   0.0000   0.0000   0.2610
   7.300   0.8725   0.04574   0.04148  -0.0138  0.0530  1.0000  -2.8222   0.0000   0.0000   0.0000   0.2609
   7.400   0.8513   0.05476   0.05085  -0.0142  0.0509  1.0000  -2.6016   0.0000   0.0000   0.0000   0.2619
   7.500   0.8553   0.05589   0.05209  -0.0138  0.0508  1.0000  -2.6198   0.0000   0.0000   0.0000   0.2613
   7.600   0.8595   0.05667   0.05300  -0.0134  0.0506  1.0000  -2.6435   0.0000   0.0000   0.0000   0.2607
   7.700   0.8704   0.05472   0.05118  -0.0125  0.0494  1.0000  -2.7326   0.0000   0.0000   0.0000   0.2594
   7.800   0.8816   0.05380   0.05038  -0.0119  0.0472  1.0000  -2.8032   0.0000   0.0000   0.0000   0.2585
   7.900   0.8866   0.05473   0.05141  -0.0116  0.0458  1.0000  -2.8247   0.0000   0.0000   0.0000   0.2580
   8.000   0.8894   0.05605   0.05283  -0.0114  0.0446  1.0000  -2.8345   0.0000   0.0000   0.0000   0.2576
   8.100   0.8908   0.05753   0.05441  -0.0112  0.0437  1.0000  -2.8392   0.0000   0.0000   0.0000   0.2574
   8.200   0.8914   0.05910   0.05607  -0.0111  0.0429  1.0000  -2.8405   0.0000   0.0000   0.0000   0.2572
   8.300   0.8912   0.06073   0.05778  -0.0111  0.0422  1.0000  -2.8392   0.0000   0.0000   0.0000   0.2571
   8.400   0.8902   0.06241   0.05953  -0.0111  0.0416  1.0000  -2.8353   0.0000   0.0000   0.0000   0.2571
   8.500   0.8884   0.06411   0.06131  -0.0112  0.0410  1.0000  -2.8282   0.0000   0.0000   0.0000   0.2572
   8.600   0.8857   0.06585   0.06311  -0.0113  0.0406  1.0000  -2.8175   0.0000   0.0000   0.0000   0.2573
   8.700   0.8820   0.06762   0.06494  -0.0116  0.0403  1.0000  -2.8023   0.0000   0.0000   0.0000   0.2576
   8.800   0.8766   0.06936   0.06673  -0.0118  0.0401  1.0000  -2.7810   0.0000   0.0000   0.0000   0.2578
   8.900   0.8695   0.07110   0.06850  -0.0120  0.0400  1.0000  -2.7525   0.0000   0.0000   0.0000   0.2581
   9.000   0.8615   0.07305   0.07049  -0.0127  0.0399  1.0000  -2.7158   0.0000   0.0000   0.0000   0.2590
   9.100   0.8528   0.07531   0.07279  -0.0141  0.0400  1.0000  -2.6691   0.0000   0.0000   0.0000   0.2606
   9.200   0.8438   0.07806   0.07556  -0.0163  0.0401  1.0000  -2.6106   0.0000   0.0000   0.0000   0.2634
   9.300   0.8343   0.08159   0.07912  -0.0197  0.0404  1.0000  -2.5318   0.0000   0.0000   0.0000   0.2676
   9.400   0.8253   0.08625   0.08378  -0.0245  0.0407  1.0000  -2.4283   0.0000   0.0000   0.0000   0.2737
   9.500   0.8203   0.08966   0.08717  -0.0274  0.0406  1.0000  -2.3686   0.0000   0.0000   0.0000   0.2774
   9.600   0.8166   0.09254   0.09003  -0.0296  0.0404  1.0000  -2.3261   0.0000   0.0000   0.0000   0.2802
   9.700   0.8137   0.09516   0.09264  -0.0314  0.0401  1.0000  -2.2923   0.0000   0.0000   0.0000   0.2825
   9.800   0.8114   0.09762   0.09509  -0.0330  0.0398  1.0000  -2.2644   0.0000   0.0000   0.0000   0.2845
   9.900   0.8094   0.09995   0.09740  -0.0345  0.0395  1.0000  -2.2413   0.0000   0.0000   0.0000   0.2863
  10.000   0.8079   0.10216   0.09961  -0.0358  0.0391  1.0000  -2.2224   0.0000   0.0000   0.0000   0.2880
  10.100   0.8067   0.10429   0.10173  -0.0370  0.0387  1.0000  -2.2073   0.0000   0.0000   0.0000   0.2895
  10.200   0.8057   0.10633   0.10376  -0.0381  0.0383  1.0000  -2.1956   0.0000   0.0000   0.0000   0.2908
  10.300   0.8050   0.10829   0.10571  -0.0391  0.0380  1.0000  -2.1869   0.0000   0.0000   0.0000   0.2920
  10.400   0.8044   0.11015   0.10757  -0.0400  0.0376  1.0000  -2.1811   0.0000   0.0000   0.0000   0.2931
  10.500   0.8040   0.11196   0.10937  -0.0408  0.0372  1.0000  -2.1787   0.0000   0.0000   0.0000   0.2941
  10.600   0.8038   0.11373   0.11114  -0.0416  0.0368  1.0000  -2.1783   0.0000   0.0000   0.0000   0.2950
  10.700   0.8039   0.11547   0.11287  -0.0423  0.0365  1.0000  -2.1809   0.0000   0.0000   0.0000   0.2958
  10.800   0.8043   0.11715   0.11455  -0.0430  0.0361  1.0000  -2.1871   0.0000   0.0000   0.0000   0.2965
  10.900   0.8050   0.11877   0.11618  -0.0436  0.0357  1.0000  -2.1971   0.0000   0.0000   0.0000   0.2971
  11.000   0.8059   0.12034   0.11775  -0.0441  0.0354  1.0000  -2.2113   0.0000   0.0000   0.0000   0.2976
  11.100   0.8072   0.12186   0.11926  -0.0445  0.0350  1.0000  -2.2298   0.0000   0.0000   0.0000   0.2979
  11.200   0.8087   0.12332   0.12073  -0.0448  0.0346  1.0000  -2.2530   0.0000   0.0000   0.0000   0.2981
  11.300   0.8104   0.12474   0.12215  -0.0450  0.0343  1.0000  -2.2810   0.0000   0.0000   0.0000   0.2981
  11.400   0.8112   0.12642   0.12383  -0.0454  0.0339  1.0000  -2.2962   0.0000   0.0000   0.0000   0.2984
  11.500   0.8107   0.12844   0.12585  -0.0461  0.0335  1.0000  -2.2946   0.0000   0.0000   0.0000   0.2992
  11.600   0.8093   0.13077   0.12817  -0.0468  0.0331  1.0000  -2.2812   0.0000   0.0000   0.0000   0.3002
  11.700   0.8044   0.13420   0.13159  -0.0479  0.0325  1.0000  -2.2246   0.0000   0.0000   0.0000   0.3019
  12.000   0.7913   0.14532   0.14263  -0.0528  0.0316  1.0000  -1.9768   0.0000   0.0000   0.0000   0.3089
  12.100   0.7923   0.14729   0.14459  -0.0538  0.0316  1.0000  -1.9608   0.0000   0.0000   0.0000   0.3100
  12.200   0.7933   0.14923   0.14653  -0.0548  0.0316  1.0000  -1.9455   0.0000   0.0000   0.0000   0.3111
  12.300   0.7945   0.15115   0.14845  -0.0557  0.0316  1.0000  -1.9308   0.0000   0.0000   0.0000   0.3121
  12.400   0.7957   0.15305   0.15034  -0.0567  0.0315  1.0000  -1.9167   0.0000   0.0000   0.0000   0.3132
  12.500   0.7970   0.15492   0.15221  -0.0577  0.0315  1.0000  -1.9033   0.0000   0.0000   0.0000   0.3142
  12.600   0.7983   0.15676   0.15405  -0.0586  0.0315  1.0000  -1.8904   0.0000   0.0000   0.0000   0.3152
  12.700   0.7997   0.15858   0.15587  -0.0596  0.0315  1.0000  -1.8781   0.0000   0.0000   0.0000   0.3161
  12.800   0.8012   0.16037   0.15766  -0.0605  0.0314  1.0000  -1.8663   0.0000   0.0000   0.0000   0.3171
  12.900   0.8028   0.16214   0.15942  -0.0614  0.0314  1.0000  -1.8551   0.0000   0.0000   0.0000   0.3180
  13.000   0.8044   0.16387   0.16115  -0.0624  0.0314  1.0000  -1.8445   0.0000   0.0000   0.0000   0.3190
  13.100   0.8061   0.16557   0.16284  -0.0633  0.0313  1.0000  -1.8345   0.0000   0.0000   0.0000   0.3199
  13.200   0.8078   0.16717   0.16444  -0.0642  0.0313  1.0000  -1.8251   0.0000   0.0000   0.0000   0.3208
  13.300   0.8097   0.16865   0.16592  -0.0652  0.0312  1.0000  -1.8166   0.0000   0.0000   0.0000   0.3217
  13.400   0.8117   0.16999   0.16726  -0.0661  0.0311  1.0000  -1.8092   0.0000   0.0000   0.0000   0.3226
  13.500   0.8141   0.17112   0.16838  -0.0671  0.0308  1.0000  -1.8041   0.0000   0.0000   0.0000   0.3235
  13.600   0.8174   0.17184   0.16911  -0.0683  0.0303  1.0000  -1.8019   0.0000   0.0000   0.0000   0.3245
  13.700   0.8195   0.17278   0.17004  -0.0699  0.0295  1.0000  -1.7791   0.0000   0.0000   0.0000   0.3261
  13.800   0.8208   0.17395   0.17120  -0.0713  0.0287  1.0000  -1.7521   0.0000   0.0000   0.0000   0.3276
  13.900   0.8224   0.17531   0.17256  -0.0726  0.0277  1.0000  -1.7307   0.0000   0.0000   0.0000   0.3290
  14.000   0.8242   0.17677   0.17402  -0.0737  0.0265  1.0000  -1.7193   0.0000   0.0000   0.0000   0.3300
  14.100   0.8262   0.17822   0.17546  -0.0746  0.0251  1.0000  -1.7193   0.0000   0.0000   0.0000   0.3308
  14.200   0.8284   0.17957   0.17682  -0.0754  0.0236  1.0000  -1.7335   0.0000   0.0000   0.0000   0.3315
  14.300   0.8311   0.18071   0.17796  -0.0760  0.0221  1.0000  -1.7706   0.0000   0.0000   0.0000   0.3317
  14.400   0.8350   0.18129   0.17854  -0.0761  0.0203  1.0000  -1.8643   0.0000   0.0000   0.0000   0.3312
  14.500   0.8430   0.18076   0.17805  -0.0743  0.0184  1.0000  -2.1151   0.0000   0.0000   0.0000   0.3279
  14.600   0.8451   0.18229   0.17959  -0.0745  0.0180  1.0000  -2.1576   0.0000   0.0000   0.0000   0.3278
  14.700   0.8449   0.18473   0.18202  -0.0752  0.0175  1.0000  -2.1453   0.0000   0.0000   0.0000   0.3285
  15.600   0.8539   0.20583   0.20304  -0.0838  0.0167  1.0000  -1.8573   0.0000   0.0000   0.0000   0.3369
  15.700   0.8560   0.20765   0.20486  -0.0846  0.0166  1.0000  -1.8493   0.0000   0.0000   0.0000   0.3376
  15.800   0.8582   0.20947   0.20668  -0.0855  0.0166  1.0000  -1.8417   0.0000   0.0000   0.0000   0.3383
  15.900   0.8604   0.21128   0.20849  -0.0864  0.0166  1.0000  -1.8343   0.0000   0.0000   0.0000   0.3389
  16.000   0.8625   0.21308   0.21029  -0.0873  0.0165  1.0000  -1.8274   0.0000   0.0000   0.0000   0.3396
  16.100   0.8647   0.21486   0.21206  -0.0882  0.0165  1.0000  -1.8210   0.0000   0.0000   0.0000   0.3402
  16.200   0.8670   0.21659   0.21379  -0.0891  0.0164  1.0000  -1.8153   0.0000   0.0000   0.0000   0.3409
  16.300   0.8693   0.21824   0.21544  -0.0900  0.0163  1.0000  -1.8106   0.0000   0.0000   0.0000   0.3416
  16.400   0.8719   0.21969   0.21689  -0.0910  0.0161  1.0000  -1.8076   0.0000   0.0000   0.0000   0.3423
  16.500   0.8742   0.22081   0.21801  -0.0924  0.0157  1.0000  -1.7922   0.0000   0.0000   0.0000   0.3435
  16.600   0.8771   0.22202   0.21921  -0.0941  0.0144  1.0000  -1.7517   0.0000   0.0000   0.0000   0.3451
  16.700   0.8799   0.22386   0.22105  -0.0952  0.0131  1.0000  -1.7392   0.0000   0.0000   0.0000   0.3459
  16.800   0.8822   0.22572   0.22291  -0.0961  0.0121  1.0000  -1.7447   0.0000   0.0000   0.0000   0.3465
  16.900   0.8844   0.22754   0.22473  -0.0969  0.0112  1.0000  -1.7583   0.0000   0.0000   0.0000   0.3470
  17.000   0.8867   0.22932   0.22651  -0.0976  0.0105  1.0000  -1.7775   0.0000   0.0000   0.0000   0.3474
  17.100   0.8889   0.23106   0.22825  -0.0983  0.0099  1.0000  -1.8020   0.0000   0.0000   0.0000   0.3478
  17.200   0.8911   0.23275   0.22995  -0.0990  0.0094  1.0000  -1.8318   0.0000   0.0000   0.0000   0.3482
  17.300   0.8934   0.23440   0.23160  -0.0997  0.0090  1.0000  -1.8673   0.0000   0.0000   0.0000   0.3485
  17.400   0.8957   0.23600   0.23320  -0.1003  0.0086  1.0000  -1.9094   0.0000   0.0000   0.0000   0.3487
  17.500   0.8980   0.23755   0.23476  -0.1008  0.0083  1.0000  -1.9594   0.0000   0.0000   0.0000   0.3489
  17.600   0.9004   0.23905   0.23626  -0.1013  0.0079  1.0000  -2.0195   0.0000   0.0000   0.0000   0.3489
  17.700   0.9029   0.24050   0.23772  -0.1016  0.0076  1.0000  -2.0924   0.0000   0.0000   0.0000   0.3488
  17.800   0.9047   0.24258   0.23987  -0.1024  0.0077  1.0000  -2.0699   0.0000   0.0000   0.0000   0.3494
  17.900   0.9071   0.24422   0.24152  -0.1028  0.0075  1.0000  -2.1264   0.0000   0.0000   0.0000   0.3493
  18.000   0.9091   0.24611   0.24341  -0.1031  0.0072  1.0000  -2.1771   0.0000   0.0000   0.0000   0.3493
  18.100   0.9098   0.24870   0.24600  -0.1037  0.0069  1.0000  -2.1778   0.0000   0.0000   0.0000   0.3497
  18.400   0.9078   0.26012   0.25736  -0.1061  0.0064  1.0000  -1.8967   0.0000   0.0000   0.0000   0.3525
  18.500   0.9094   0.26235   0.25959  -0.1069  0.0064  1.0000  -1.8869   0.0000   0.0000   0.0000   0.3530
  18.600   0.9110   0.26458   0.26182  -0.1076  0.0064  1.0000  -1.8774   0.0000   0.0000   0.0000   0.3535
  18.700   0.9125   0.26681   0.26405  -0.1083  0.0064  1.0000  -1.8678   0.0000   0.0000   0.0000   0.3539
  18.800   0.9140   0.26905   0.26629  -0.1090  0.0064  1.0000  -1.8585   0.0000   0.0000   0.0000   0.3544
  18.900   0.9155   0.27130   0.26854  -0.1097  0.0064  1.0000  -1.8493   0.0000   0.0000   0.0000   0.3549
  19.000   0.9169   0.27354   0.27079  -0.1104  0.0064  1.0000  -1.8402   0.0000   0.0000   0.0000   0.3553
  19.100   0.9182   0.27580   0.27304  -0.1111  0.0064  1.0000  -1.8313   0.0000   0.0000   0.0000   0.3558
  19.200   0.9195   0.27805   0.27530  -0.1118  0.0064  1.0000  -1.8224   0.0000   0.0000   0.0000   0.3562
  19.300   0.9207   0.28030   0.27755  -0.1125  0.0064  1.0000  -1.8136   0.0000   0.0000   0.0000   0.3567
  19.400   0.9219   0.28256   0.27981  -0.1131  0.0064  1.0000  -1.8049   0.0000   0.0000   0.0000   0.3571
  19.500   0.9230   0.28481   0.28206  -0.1138  0.0064  1.0000  -1.7962   0.0000   0.0000   0.0000   0.3575
  19.600   0.9241   0.28706   0.28432  -0.1144  0.0064  1.0000  -1.7875   0.0000   0.0000   0.0000   0.3580
  19.700   0.9250   0.28930   0.28657  -0.1150  0.0064  1.0000  -1.7788   0.0000   0.0000   0.0000   0.3584
  19.800   0.9259   0.29154   0.28881  -0.1156  0.0063  1.0000  -1.7701   0.0000   0.0000   0.0000   0.3588
  19.900   0.9267   0.29377   0.29104  -0.1162  0.0063  1.0000  -1.7613   0.0000   0.0000   0.0000   0.3593
  20.000   0.9274   0.29599   0.29327  -0.1168  0.0063  1.0000  -1.7525   0.0000   0.0000   0.0000   0.3597
  20.100   0.9280   0.29820   0.29548  -0.1174  0.0063  1.0000  -1.7436   0.0000   0.0000   0.0000   0.3601
  20.200   0.9285   0.30040   0.29768  -0.1180  0.0063  1.0000  -1.7345   0.0000   0.0000   0.0000   0.3605
  20.300   0.9288   0.30257   0.29986  -0.1185  0.0063  1.0000  -1.7253   0.0000   0.0000   0.0000   0.3610
  20.400   0.9290   0.30472   0.30201  -0.1190  0.0063  1.0000  -1.7158   0.0000   0.0000   0.0000   0.3614
  20.500   0.9291   0.30684   0.30414  -0.1195  0.0063  1.0000  -1.7062   0.0000   0.0000   0.0000   0.3618
  20.600   0.9290   0.30893   0.30623  -0.1200  0.0063  1.0000  -1.6961   0.0000   0.0000   0.0000   0.3622
  20.700   0.9286   0.31098   0.30829  -0.1205  0.0063  1.0000  -1.6856   0.0000   0.0000   0.0000   0.3627
  20.800   0.9280   0.31297   0.31029  -0.1209  0.0063  1.0000  -1.6747   0.0000   0.0000   0.0000   0.3631
  20.900   0.9272   0.31490   0.31222  -0.1213  0.0063  1.0000  -1.6633   0.0000   0.0000   0.0000   0.3635
  21.000   0.9260   0.31675   0.31408  -0.1217  0.0063  1.0000  -1.6512   0.0000   0.0000   0.0000   0.3640
  21.100   0.9244   0.31849   0.31583  -0.1220  0.0063  1.0000  -1.6383   0.0000   0.0000   0.0000   0.3645
  21.200   0.9222   0.32008   0.31743  -0.1222  0.0063  1.0000  -1.6242   0.0000   0.0000   0.0000   0.3649
  21.300   0.9193   0.32147   0.31883  -0.1223  0.0063  1.0000  -1.6084   0.0000   0.0000   0.0000   0.3654
  21.400   0.8778   0.31244   0.30989  -0.1177  0.0063  1.0000  -1.5026   0.0000   0.0000   0.0000   0.3669
  21.500   0.8702   0.31166   0.30914  -0.1173  0.0063  1.0000  -1.4764   0.0000   0.0000   0.0000   0.3675
  21.600   0.8646   0.31135   0.30884  -0.1170  0.0063  1.0000  -1.4551   0.0000   0.0000   0.0000   0.3681
  21.700   0.8601   0.31127   0.30878  -0.1169  0.0063  1.0000  -1.4362   0.0000   0.0000   0.0000   0.3686
  21.800   0.8562   0.31133   0.30885  -0.1168  0.0063  1.0000  -1.4191   0.0000   0.0000   0.0000   0.3691
  21.900   0.8528   0.31149   0.30902  -0.1169  0.0063  1.0000  -1.4032   0.0000   0.0000   0.0000   0.3696
  22.000   0.8498   0.31171   0.30926  -0.1169  0.0063  1.0000  -1.3884   0.0000   0.0000   0.0000   0.3700
  22.100   0.8471   0.31200   0.30956  -0.1170  0.0063  1.0000  -1.3743   0.0000   0.0000   0.0000   0.3705
  22.200   0.8446   0.31232   0.30989  -0.1171  0.0063  1.0000  -1.3609   0.0000   0.0000   0.0000   0.3710
  22.300   0.8423   0.31268   0.31026  -0.1172  0.0063  1.0000  -1.3481   0.0000   0.0000   0.0000   0.3714
  22.400   0.8402   0.31307   0.31066  -0.1174  0.0063  1.0000  -1.3358   0.0000   0.0000   0.0000   0.3719
  22.500   0.8383   0.31348   0.31108  -0.1176  0.0063  1.0000  -1.3240   0.0000   0.0000   0.0000   0.3723
  22.600   0.8365   0.31392   0.31153  -0.1178  0.0063  1.0000  -1.3126   0.0000   0.0000   0.0000   0.3728
  22.700   0.8349   0.31437   0.31199  -0.1180  0.0063  1.0000  -1.3015   0.0000   0.0000   0.0000   0.3732
  22.800   0.8333   0.31485   0.31247  -0.1182  0.0063  1.0000  -1.2909   0.0000   0.0000   0.0000   0.3736
  22.900   0.8319   0.31533   0.31297  -0.1184  0.0063  1.0000  -1.2805   0.0000   0.0000   0.0000   0.3740
  23.000   0.8306   0.31584   0.31349  -0.1186  0.0063  1.0000  -1.2705   0.0000   0.0000   0.0000   0.3744
  23.100   0.8293   0.31636   0.31401  -0.1189  0.0063  1.0000  -1.2607   0.0000   0.0000   0.0000   0.3749
  23.200   0.8281   0.31688   0.31455  -0.1192  0.0063  1.0000  -1.2512   0.0000   0.0000   0.0000   0.3753
  23.300   0.8270   0.31742   0.31509  -0.1194  0.0063  1.0000  -1.2420   0.0000   0.0000   0.0000   0.3757
  23.400   0.8260   0.31797   0.31565  -0.1197  0.0063  1.0000  -1.2330   0.0000   0.0000   0.0000   0.3761
  23.500   0.8250   0.31853   0.31622  -0.1200  0.0063  1.0000  -1.2242   0.0000   0.0000   0.0000   0.3765
  23.600   0.8241   0.31909   0.31679  -0.1203  0.0063  1.0000  -1.2156   0.0000   0.0000   0.0000   0.3769
  23.700   0.8233   0.31967   0.31737  -0.1205  0.0063  1.0000  -1.2072   0.0000   0.0000   0.0000   0.3773
  23.800   0.8225   0.32025   0.31796  -0.1208  0.0063  1.0000  -1.1989   0.0000   0.0000   0.0000   0.3776
  23.900   0.8217   0.32083   0.31855  -0.1211  0.0063  1.0000  -1.1909   0.0000   0.0000   0.0000   0.3780
  24.000   0.8210   0.32143   0.31915  -0.1215  0.0063  1.0000  -1.1830   0.0000   0.0000   0.0000   0.3784
  24.100   0.8203   0.32202   0.31976  -0.1218  0.0063  1.0000  -1.1753   0.0000   0.0000   0.0000   0.3788
  24.200   0.8197   0.32262   0.32036  -0.1221  0.0063  1.0000  -1.1676   0.0000   0.0000   0.0000   0.3792
  24.300   0.8191   0.32323   0.32098  -0.1224  0.0063  1.0000  -1.1600   0.0000   0.0000   0.0000   0.3796
  24.400   0.8185   0.32383   0.32159  -0.1227  0.0063  1.0000  -1.1525   0.0000   0.0000   0.0000   0.3800
  24.500   0.8180   0.32445   0.32221  -0.1231  0.0063  1.0000  -1.1452   0.0000   0.0000   0.0000   0.3803
  24.600   0.8175   0.32506   0.32283  -0.1234  0.0063  1.0000  -1.1380   0.0000   0.0000   0.0000   0.3807
  24.700   0.8170   0.32568   0.32346  -0.1238  0.0063  1.0000  -1.1309   0.0000   0.0000   0.0000   0.3811
  24.800   0.8165   0.32631   0.32409  -0.1241  0.0063  1.0000  -1.1239   0.0000   0.0000   0.0000   0.3815
  24.900   0.8161   0.32693   0.32472  -0.1244  0.0063  1.0000  -1.1171   0.0000   0.0000   0.0000   0.3818
  25.000   0.8157   0.32752   0.32532  -0.1248  0.0063  1.0000  -1.1095   0.0000   0.0000   0.0000   0.3822
  25.100   0.8153   0.32812   0.32592  -0.1252  0.0063  1.0000  -1.1021   0.0000   0.0000   0.0000   0.3826
  25.200   0.8149   0.32872   0.32653  -0.1256  0.0063  1.0000  -1.0948   0.0000   0.0000   0.0000   0.3830
  25.300   0.8145   0.32932   0.32713  -0.1260  0.0063  1.0000  -1.0877   0.0000   0.0000   0.0000   0.3834
  25.400   0.8142   0.32992   0.32775  -0.1263  0.0063  1.0000  -1.0807   0.0000   0.0000   0.0000   0.3838
  25.500   0.8139   0.33053   0.32836  -0.1267  0.0063  1.0000  -1.0738   0.0000   0.0000   0.0000   0.3842
  25.600   0.8136   0.33114   0.32898  -0.1271  0.0063  1.0000  -1.0671   0.0000   0.0000   0.0000   0.3846
  25.700   0.8133   0.33176   0.32960  -0.1275  0.0063  1.0000  -1.0605   0.0000   0.0000   0.0000   0.3850
  25.800   0.8131   0.33237   0.33022  -0.1279  0.0063  1.0000  -1.0541   0.0000   0.0000   0.0000   0.3854
  25.900   0.8128   0.33299   0.33085  -0.1283  0.0063  1.0000  -1.0477   0.0000   0.0000   0.0000   0.3858
  26.000   0.8126   0.33361   0.33148  -0.1287  0.0063  1.0000  -1.0415   0.0000   0.0000   0.0000   0.3861
  26.100   0.8124   0.33424   0.33211  -0.1291  0.0062  1.0000  -1.0354   0.0000   0.0000   0.0000   0.3865
  26.200   0.8123   0.33487   0.33274  -0.1295  0.0062  1.0000  -1.0294   0.0000   0.0000   0.0000   0.3869
  26.300   0.8121   0.33550   0.33338  -0.1299  0.0062  1.0000  -1.0235   0.0000   0.0000   0.0000   0.3873
  26.400   0.8120   0.33613   0.33402  -0.1303  0.0062  1.0000  -1.0177   0.0000   0.0000   0.0000   0.3876
  26.500   0.8118   0.33676   0.33466  -0.1307  0.0062  1.0000  -1.0120   0.0000   0.0000   0.0000   0.3880
  26.600   0.8117   0.33740   0.33534  -0.1311  0.0062  1.0000  -1.0082   0.0000   0.0000   0.0000   0.3883
  26.700   0.8116   0.33803   0.33599  -0.1315  0.0062  1.0000  -1.0030   0.0000   0.0000   0.0000   0.3887
  26.800   0.8115   0.33867   0.33663  -0.1319  0.0062  1.0000  -0.9971   0.0000   0.0000   0.0000   0.3891
  26.900   0.8114   0.33930   0.33726  -0.1324  0.0062  1.0000  -0.9911   0.0000   0.0000   0.0000   0.3894
  27.000   0.8113   0.33993   0.33791  -0.1328  0.0062  1.0000  -0.9853   0.0000   0.0000   0.0000   0.3898
  27.100   0.8112   0.34057   0.33855  -0.1332  0.0062  1.0000  -0.9795   0.0000   0.0000   0.0000   0.3902
  27.200   0.8112   0.34121   0.33920  -0.1336  0.0062  1.0000  -0.9738   0.0000   0.0000   0.0000   0.3906
  27.300   0.8111   0.34185   0.33985  -0.1341  0.0061  1.0000  -0.9682   0.0000   0.0000   0.0000   0.3909
  27.400   0.8111   0.34250   0.34050  -0.1345  0.0061  1.0000  -0.9627   0.0000   0.0000   0.0000   0.3913
  27.500   0.8110   0.34315   0.34115  -0.1349  0.0061  1.0000  -0.9572   0.0000   0.0000   0.0000   0.3917
  27.600   0.8110   0.34380   0.34181  -0.1354  0.0061  1.0000  -0.9519   0.0000   0.0000   0.0000   0.3920
  27.700   0.8110   0.34445   0.34247  -0.1358  0.0061  1.0000  -0.9466   0.0000   0.0000   0.0000   0.3924
  27.800   0.8110   0.34510   0.34313  -0.1362  0.0061  1.0000  -0.9414   0.0000   0.0000   0.0000   0.3927
  27.900   0.8110   0.34576   0.34379  -0.1367  0.0061  1.0000  -0.9363   0.0000   0.0000   0.0000   0.3931
  28.000   0.8110   0.34642   0.34446  -0.1371  0.0061  1.0000  -0.9313   0.0000   0.0000   0.0000   0.3934
  28.100   0.8111   0.34708   0.34513  -0.1375  0.0061  1.0000  -0.9263   0.0000   0.0000   0.0000   0.3938
  28.200   0.8111   0.34775   0.34580  -0.1380  0.0060  1.0000  -0.9214   0.0000   0.0000   0.0000   0.3941
  28.300   0.8112   0.34842   0.34647  -0.1384  0.0060  1.0000  -0.9166   0.0000   0.0000   0.0000   0.3945
  28.400   0.8112   0.34909   0.34715  -0.1389  0.0060  1.0000  -0.9119   0.0000   0.0000   0.0000   0.3948
  28.500   0.8113   0.34976   0.34782  -0.1393  0.0060  1.0000  -0.9072   0.0000   0.0000   0.0000   0.3952
  28.600   0.8114   0.35043   0.34850  -0.1397  0.0060  1.0000  -0.9026   0.0000   0.0000   0.0000   0.3955
  28.700   0.8115   0.35111   0.34919  -0.1402  0.0060  1.0000  -0.8981   0.0000   0.0000   0.0000   0.3959
  28.800   0.8116   0.35179   0.34987  -0.1406  0.0059  1.0000  -0.8936   0.0000   0.0000   0.0000   0.3962
  28.900   0.8117   0.35247   0.35056  -0.1411  0.0059  1.0000  -0.8892   0.0000   0.0000   0.0000   0.3965
  29.000   0.8118   0.35315   0.35125  -0.1415  0.0059  1.0000  -0.8849   0.0000   0.0000   0.0000   0.3968
  29.100   0.8119   0.35383   0.35194  -0.1420  0.0059  1.0000  -0.8806   0.0000   0.0000   0.0000   0.3972
  29.200   0.8120   0.35452   0.35263  -0.1424  0.0059  1.0000  -0.8763   0.0000   0.0000   0.0000   0.3975
  29.300   0.8122   0.35521   0.35333  -0.1429  0.0058  1.0000  -0.8722   0.0000   0.0000   0.0000   0.3978
  29.400   0.8123   0.35591   0.35403  -0.1433  0.0058  1.0000  -0.8680   0.0000   0.0000   0.0000   0.3981
  29.500   0.8125   0.35660   0.35473  -0.1438  0.0058  1.0000  -0.8639   0.0000   0.0000   0.0000   0.3985
  29.600   0.8126   0.35730   0.35543  -0.1442  0.0058  1.0000  -0.8599   0.0000   0.0000   0.0000   0.3988
  29.700   0.8128   0.35800   0.35614  -0.1447  0.0057  1.0000  -0.8559   0.0000   0.0000   0.0000   0.3991
  29.800   0.8130   0.35871   0.35685  -0.1451  0.0057  1.0000  -0.8519   0.0000   0.0000   0.0000   0.3994
  29.900   0.8131   0.35941   0.35757  -0.1456  0.0057  1.0000  -0.8480   0.0000   0.0000   0.0000   0.3997
  30.000   0.8133   0.36012   0.35828  -0.1461  0.0057  1.0000  -0.8441   0.0000   0.0000   0.0000   0.4000


