xflr5 v6.61

 Calculated polar for: S6063 7.05%

 1 1 Reynolds number fixed          Mach number fixed         

 xtrf =   1.000 (top)        1.000 (bottom)
 Mach =   0.000     Re =     0.563 e 6     Ncrit =   9.000

  alpha     CL        CD       CDp       Cm    Top Xtr Bot Xtr   Cpmin    Chinge    XCp    
 ------- -------- --------- --------- -------- ------- ------- -------- --------- ---------
 -10.000  -0.5411   0.11840   0.11607   0.0130  1.0000  0.0057  -1.8640   0.0000   0.0000   0.0000   0.2703
  -9.900  -0.5392   0.11686   0.11452   0.0123  1.0000  0.0057  -1.8739   0.0000   0.0000   0.0000   0.2691
  -9.800  -0.5373   0.11531   0.11297   0.0116  1.0000  0.0057  -1.8840   0.0000   0.0000   0.0000   0.2680
  -9.700  -0.5354   0.11375   0.11142   0.0109  1.0000  0.0057  -1.8943   0.0000   0.0000   0.0000   0.2668
  -9.600  -0.5336   0.11220   0.10987   0.0102  1.0000  0.0057  -1.9047   0.0000   0.0000   0.0000   0.2656
  -9.500  -0.5317   0.11065   0.10831   0.0095  1.0000  0.0057  -1.9152   0.0000   0.0000   0.0000   0.2643
  -9.400  -0.5299   0.10909   0.10676   0.0088  1.0000  0.0057  -1.9256   0.0000   0.0000   0.0000   0.2631
  -9.300  -0.5282   0.10754   0.10520   0.0081  1.0000  0.0057  -1.9357   0.0000   0.0000   0.0000   0.2619
  -9.200  -0.5262   0.10605   0.10355   0.0076  1.0000  0.0057  -1.9257   0.0000   0.0000   0.0000   0.2611
  -9.100  -0.5245   0.10449   0.10199   0.0069  1.0000  0.0057  -1.9382   0.0000   0.0000   0.0000   0.2598
  -9.000  -0.5230   0.10294   0.10044   0.0061  1.0000  0.0057  -1.9512   0.0000   0.0000   0.0000   0.2584
  -8.900  -0.5214   0.10138   0.09889   0.0054  1.0000  0.0057  -1.9645   0.0000   0.0000   0.0000   0.2571
  -8.800  -0.5200   0.09982   0.09734   0.0046  1.0000  0.0057  -1.9783   0.0000   0.0000   0.0000   0.2557
  -8.700  -0.5187   0.09827   0.09579   0.0039  1.0000  0.0057  -1.9926   0.0000   0.0000   0.0000   0.2543
  -8.600  -0.5174   0.09673   0.09425   0.0031  1.0000  0.0057  -2.0073   0.0000   0.0000   0.0000   0.2529
  -8.500  -0.5162   0.09518   0.09270   0.0023  1.0000  0.0057  -2.0225   0.0000   0.0000   0.0000   0.2515
  -8.400  -0.5149   0.09360   0.09113   0.0015  1.0000  0.0057  -2.0382   0.0000   0.0000   0.0000   0.2499
  -8.300  -0.5136   0.09200   0.08954   0.0007  1.0000  0.0057  -2.0544   0.0000   0.0000   0.0000   0.2483
  -8.200  -0.5123   0.09041   0.08796  -0.0002  1.0000  0.0057  -2.0711   0.0000   0.0000   0.0000   0.2467
  -8.100  -0.5112   0.08881   0.08637  -0.0011  1.0000  0.0057  -2.0885   0.0000   0.0000   0.0000   0.2450
  -8.000  -0.5102   0.08722   0.08478  -0.0020  1.0000  0.0057  -2.1066   0.0000   0.0000   0.0000   0.2433
  -7.900  -0.5094   0.08562   0.08319  -0.0029  1.0000  0.0057  -2.1255   0.0000   0.0000   0.0000   0.2415
  -7.800  -0.5086   0.08401   0.08158  -0.0039  1.0000  0.0057  -2.1451   0.0000   0.0000   0.0000   0.2396
  -7.700  -0.5079   0.08238   0.07996  -0.0049  1.0000  0.0057  -2.1657   0.0000   0.0000   0.0000   0.2377
  -7.600  -0.5074   0.08074   0.07834  -0.0060  1.0000  0.0057  -2.1873   0.0000   0.0000   0.0000   0.2356
  -7.500  -0.5071   0.07910   0.07670  -0.0071  1.0000  0.0057  -2.2102   0.0000   0.0000   0.0000   0.2334
  -7.400  -0.5071   0.07744   0.07505  -0.0084  1.0000  0.0057  -2.2345   0.0000   0.0000   0.0000   0.2310
  -7.300  -0.5071   0.07570   0.07333  -0.0099  1.0000  0.0057  -2.2612   0.0000   0.0000   0.0000   0.2280
  -7.200  -0.5054   0.07368   0.07131  -0.0123  1.0000  0.0057  -2.2911   0.0000   0.0000   0.0000   0.2234
  -7.100  -0.5027   0.07150   0.06913  -0.0148  1.0000  0.0057  -2.3234   0.0000   0.0000   0.0000   0.2182
  -7.000  -0.4995   0.06926   0.06688  -0.0173  1.0000  0.0057  -2.3572   0.0000   0.0000   0.0000   0.2131
  -6.900  -0.4959   0.06699   0.06458  -0.0196  1.0000  0.0057  -2.3921   0.0000   0.0000   0.0000   0.2082
  -6.800  -0.4920   0.06470   0.06227  -0.0218  1.0000  0.0057  -2.4277   0.0000   0.0000   0.0000   0.2036
  -6.700  -0.4877   0.06241   0.05995  -0.0238  1.0000  0.0057  -2.4638   0.0000   0.0000   0.0000   0.1992
  -6.600  -0.4854   0.05914   0.05667  -0.0262  1.0000  0.0058  -2.5844   0.0000   0.0000   0.0000   0.1939
  -6.500  -0.4840   0.05536   0.05282  -0.0286  1.0000  0.0059  -2.7521   0.0000   0.0000   0.0000   0.1887
  -6.400  -0.4824   0.05156   0.04892  -0.0307  1.0000  0.0060  -2.9269   0.0000   0.0000   0.0000   0.1842
  -6.300  -0.4806   0.04786   0.04511  -0.0323  1.0000  0.0061  -3.0986   0.0000   0.0000   0.0000   0.1805
  -6.200  -0.4783   0.04438   0.04149  -0.0336  1.0000  0.0062  -3.2571   0.0000   0.0000   0.0000   0.1774
  -6.100  -0.4753   0.04126   0.03822  -0.0345  1.0000  0.0064  -3.3863   0.0000   0.0000   0.0000   0.1750
  -6.000  -0.4714   0.03861   0.03544  -0.0351  1.0000  0.0066  -3.4712   0.0000   0.0000   0.0000   0.1731
  -5.900  -0.4665   0.03646   0.03316  -0.0355  1.0000  0.0068  -3.5085   0.0000   0.0000   0.0000   0.1715
  -5.800  -0.4608   0.03472   0.03131  -0.0357  1.0000  0.0070  -3.5046   0.0000   0.0000   0.0000   0.1701
  -5.700  -0.4545   0.03329   0.02979  -0.0358  1.0000  0.0072  -3.4709   0.0000   0.0000   0.0000   0.1689
  -5.600  -0.4479   0.03207   0.02849  -0.0357  1.0000  0.0074  -3.4183   0.0000   0.0000   0.0000   0.1678
  -5.500  -0.4412   0.03100   0.02734  -0.0356  1.0000  0.0077  -3.3557   0.0000   0.0000   0.0000   0.1669
  -5.400  -0.4345   0.03002   0.02629  -0.0354  1.0000  0.0079  -3.2889   0.0000   0.0000   0.0000   0.1663
  -5.300  -0.4279   0.02911   0.02531  -0.0350  1.0000  0.0082  -3.2219   0.0000   0.0000   0.0000   0.1658
  -5.200  -0.4214   0.02837   0.02451  -0.0346  1.0000  0.0085  -3.1400   0.0000   0.0000   0.0000   0.1656
  -5.100  -0.4151   0.02763   0.02372  -0.0341  1.0000  0.0088  -3.0631   0.0000   0.0000   0.0000   0.1656
  -5.000  -0.4091   0.02691   0.02293  -0.0335  1.0000  0.0091  -2.9925   0.0000   0.0000   0.0000   0.1659
  -4.900  -0.4033   0.02619   0.02215  -0.0328  1.0000  0.0095  -2.9279   0.0000   0.0000   0.0000   0.1664
  -4.800  -0.3976   0.02548   0.02138  -0.0321  1.0000  0.0099  -2.8681   0.0000   0.0000   0.0000   0.1671
  -4.700  -0.3919   0.02479   0.02061  -0.0313  1.0000  0.0103  -2.8118   0.0000   0.0000   0.0000   0.1680
  -4.600  -0.3781   0.02383   0.01955  -0.0321  0.9988  0.0111  -2.7295   0.0000   0.0000   0.0000   0.1629
  -4.500  -0.3641   0.02294   0.01855  -0.0329  0.9976  0.0120  -2.6499   0.0000   0.0000   0.0000   0.1575
  -4.400  -0.3498   0.02219   0.01770  -0.0336  0.9964  0.0131  -2.5681   0.0000   0.0000   0.0000   0.1518
  -4.300  -0.3353   0.02180   0.01725  -0.0342  0.9950  0.0144  -2.4690   0.0000   0.0000   0.0000   0.1460
  -3.500  -0.2275   0.01735   0.01250  -0.0416  0.9828  0.0585  -1.5181   0.0000   0.0000   0.0000   0.0651
  -2.900  -0.1396   0.01173   0.00612  -0.0423  0.9724  0.0296  -1.5034   0.0000   0.0000   0.0000  -0.0558
  -2.800  -0.1293   0.01027   0.00446  -0.0414  0.9686  0.0222  -1.6069   0.0000   0.0000   0.0000  -0.0728
  -2.700  -0.1173   0.01000   0.00409  -0.0411  0.9647  0.0183  -1.5867   0.0000   0.0000   0.0000  -0.1031
  -2.600  -0.1046   0.01019   0.00432  -0.0412  0.9611  0.0167  -1.4843   0.0000   0.0000   0.0000  -0.1468
  -2.500  -0.0932   0.00947   0.00350  -0.0410  0.9574  0.0154  -1.4877   0.0000   0.0000   0.0000  -0.1933
  -2.400  -0.0813   0.00906   0.00301  -0.0409  0.9540  0.0145  -1.4586   0.0000   0.0000   0.0000  -0.2569
  -2.300  -0.0700   0.00880   0.00267  -0.0407  0.9503  0.0139  -1.4153   0.0000   0.0000   0.0000  -0.3355
  -2.200  -0.0600   0.00860   0.00242  -0.0403  0.9456  0.0134  -1.3664   0.0000   0.0000   0.0000  -0.4252
  -2.100  -0.0497   0.00844   0.00220  -0.0399  0.9409  0.0131  -1.3107   0.0000   0.0000   0.0000  -0.5570
  -2.000  -0.0392   0.00831   0.00202  -0.0396  0.9363  0.0128  -1.2490   0.0000   0.0000   0.0000  -0.7643
  -1.900  -0.0287   0.00820   0.00186  -0.0392  0.9318  0.0126  -1.1807   0.0000   0.0000   0.0000  -1.1254
  -1.700  -0.0078   0.00764   0.00137  -0.0384  0.9232  0.0789  -0.9357   0.0000   0.0000   0.0000  -4.6847
  -1.600   0.0016   0.00723   0.00132  -0.0382  0.9188  0.1612  -0.8474   0.0000   0.0000   0.0000  24.6802
  -1.500   0.0112   0.00692   0.00129  -0.0381  0.9143  0.2335  -0.7531   0.0000   0.0000   0.0000   3.6767
  -1.400   0.0207   0.00663   0.00126  -0.0379  0.9095  0.3017  -0.6590   0.0000   0.0000   0.0000   2.0891
  -1.300   0.0302   0.00641   0.00123  -0.0376  0.9047  0.3609  -0.5968   0.0000   0.0000   0.0000   1.4978
  -1.200   0.0397   0.00622   0.00120  -0.0373  0.8998  0.4175  -0.5479   0.0000   0.0000   0.0000   1.1912
  -1.100   0.0491   0.00598   0.00119  -0.0370  0.8947  0.4846  -0.5011   0.0000   0.0000   0.0000   1.0053
  -1.000   0.0570   0.00549   0.00122  -0.0365  0.8904  0.6287  -0.4587   0.0000   0.0000   0.0000   0.8913
  -0.900   0.0627   0.00503   0.00129  -0.0352  0.8854  0.7709  -0.4214   0.0000   0.0000   0.0000   0.8113
  -0.700   0.0750   0.00471   0.00137  -0.0321  0.8749  0.9038  -0.3630   0.0000   0.0000   0.0000   0.6788
  -0.600   0.0845   0.00469   0.00135  -0.0315  0.8696  0.9229  -0.3411   0.0000   0.0000   0.0000   0.6233
  -0.500   0.0957   0.00468   0.00133  -0.0313  0.8643  0.9379  -0.3187   0.0000   0.0000   0.0000   0.5773
  -0.300   0.1226   0.00466   0.00129  -0.0321  0.8548  0.9637  -0.3297   0.0000   0.0000   0.0000   0.5113
  -0.200   0.1375   0.00465   0.00126  -0.0328  0.8500  0.9744  -0.3414   0.0000   0.0000   0.0000   0.4882
  -0.100   0.1538   0.00464   0.00124  -0.0339  0.8453  0.9823  -0.3538   0.0000   0.0000   0.0000   0.4699
   0.000   0.1689   0.00464   0.00121  -0.0347  0.8399  0.9888  -0.3671   0.0000   0.0000   0.0000   0.4549
   0.100   0.1852   0.00464   0.00117  -0.0358  0.8340  0.9945  -0.3815   0.0000   0.0000   0.0000   0.4427
   0.200   0.2007   0.00465   0.00113  -0.0367  0.8272  1.0000  -0.3954   0.0000   0.0000   0.0000   0.4323
   0.300   0.2105   0.00467   0.00112  -0.0364  0.8202  1.0000  -0.4060   0.0000   0.0000   0.0000   0.4223
   0.400   0.2208   0.00468   0.00111  -0.0362  0.8148  1.0000  -0.4168   0.0000   0.0000   0.0000   0.4133
   0.500   0.2309   0.00469   0.00110  -0.0360  0.8081  1.0000  -0.4280   0.0000   0.0000   0.0000   0.4051
   0.600   0.2410   0.00470   0.00109  -0.0357  0.8007  1.0000  -0.4407   0.0000   0.0000   0.0000   0.3975
   0.700   0.2509   0.00473   0.00108  -0.0355  0.7927  1.0000  -0.4533   0.0000   0.0000   0.0000   0.3904
   0.800   0.2607   0.00477   0.00106  -0.0351  0.7837  1.0000  -0.4659   0.0000   0.0000   0.0000   0.3838
   0.900   0.2710   0.00480   0.00106  -0.0349  0.7765  1.0000  -0.4789   0.0000   0.0000   0.0000   0.3779
   1.000   0.2815   0.00481   0.00106  -0.0348  0.7696  1.0000  -0.4941   0.0000   0.0000   0.0000   0.3725
   1.100   0.2919   0.00483   0.00106  -0.0346  0.7618  1.0000  -0.5097   0.0000   0.0000   0.0000   0.3675
   1.200   0.3023   0.00486   0.00106  -0.0344  0.7536  1.0000  -0.5253   0.0000   0.0000   0.0000   0.3627
   1.300   0.3123   0.00491   0.00105  -0.0341  0.7425  1.0000  -0.5407   0.0000   0.0000   0.0000   0.3581
   1.400   0.3222   0.00497   0.00104  -0.0338  0.7236  1.0000  -0.5562   0.0000   0.0000   0.0000   0.3538
   1.500   0.3309   0.00511   0.00100  -0.0332  0.6870  1.0000  -0.5709   0.0000   0.0000   0.0000   0.3491
   1.600   0.3396   0.00530   0.00097  -0.0327  0.6390  1.0000  -0.5888   0.0000   0.0000   0.0000   0.3449
   1.700   0.3483   0.00553   0.00096  -0.0322  0.5851  1.0000  -0.6069   0.0000   0.0000   0.0000   0.3411
   1.800   0.3575   0.00576   0.00096  -0.0319  0.5368  1.0000  -0.6261   0.0000   0.0000   0.0000   0.3377
   1.900   0.3602   0.00715   0.00109  -0.0310  0.2668  1.0000  -0.6380   0.0000   0.0000   0.0000   0.3347
   2.000   0.3681   0.00782   0.00122  -0.0309  0.1563  1.0000  -0.6556   0.0000   0.0000   0.0000   0.3323
   2.100   0.3752   0.00873   0.00150  -0.0306  0.0162  1.0000  -0.6690   0.0000   0.0000   0.0000   0.3299
   2.200   0.3860   0.00879   0.00149  -0.0305  0.0150  1.0000  -0.7102   0.0000   0.0000   0.0000   0.3274
   2.300   0.3968   0.00886   0.00151  -0.0304  0.0142  1.0000  -0.7748   0.0000   0.0000   0.0000   0.3251
   2.400   0.4076   0.00892   0.00155  -0.0304  0.0131  1.0000  -0.8409   0.0000   0.0000   0.0000   0.3229
   2.500   0.4184   0.00896   0.00161  -0.0303  0.0124  1.0000  -0.9083   0.0000   0.0000   0.0000   0.3208
   2.600   0.4292   0.00903   0.00167  -0.0303  0.0120  1.0000  -0.9764   0.0000   0.0000   0.0000   0.3187
   2.700   0.4400   0.00910   0.00175  -0.0302  0.0117  1.0000  -1.0457   0.0000   0.0000   0.0000   0.3168
   2.800   0.4508   0.00917   0.00182  -0.0302  0.0115  1.0000  -1.1165   0.0000   0.0000   0.0000   0.3150
   2.900   0.4616   0.00924   0.00191  -0.0301  0.0114  1.0000  -1.1887   0.0000   0.0000   0.0000   0.3132
   3.000   0.4724   0.00931   0.00199  -0.0300  0.0114  1.0000  -1.2624   0.0000   0.0000   0.0000   0.3115
   3.100   0.4832   0.00938   0.00209  -0.0300  0.0114  1.0000  -1.3373   0.0000   0.0000   0.0000   0.3099
   3.200   0.4940   0.00946   0.00219  -0.0299  0.0115  1.0000  -1.4131   0.0000   0.0000   0.0000   0.3084
   3.300   0.5048   0.00954   0.00230  -0.0298  0.0116  1.0000  -1.4895   0.0000   0.0000   0.0000   0.3069
   3.400   0.5156   0.00962   0.00243  -0.0297  0.0117  1.0000  -1.5660   0.0000   0.0000   0.0000   0.3054
   3.500   0.5264   0.00971   0.00256  -0.0296  0.0119  1.0000  -1.6416   0.0000   0.0000   0.0000   0.3040
   3.600   0.5372   0.00982   0.00271  -0.0295  0.0121  1.0000  -1.7151   0.0000   0.0000   0.0000   0.3026
   3.700   0.5480   0.00993   0.00286  -0.0294  0.0124  1.0000  -1.7852   0.0000   0.0000   0.0000   0.3012
   3.800   0.5588   0.01006   0.00303  -0.0293  0.0127  1.0000  -1.8517   0.0000   0.0000   0.0000   0.2999
   3.900   0.5694   0.01023   0.00324  -0.0291  0.0131  1.0000  -1.9156   0.0000   0.0000   0.0000   0.2985
   4.000   0.5800   0.01042   0.00349  -0.0289  0.0135  1.0000  -1.9768   0.0000   0.0000   0.0000   0.2972
   4.100   0.5905   0.01065   0.00378  -0.0287  0.0140  1.0000  -2.0346   0.0000   0.0000   0.0000   0.2959
   4.200   0.6008   0.01093   0.00414  -0.0284  0.0146  1.0000  -2.0875   0.0000   0.0000   0.0000   0.2945
   4.300   0.6108   0.01128   0.00456  -0.0281  0.0152  1.0000  -2.1333   0.0000   0.0000   0.0000   0.2932
   4.400   0.6203   0.01176   0.00512  -0.0277  0.0159  1.0000  -2.1673   0.0000   0.0000   0.0000   0.2917
   4.500   0.6274   0.01292   0.00644  -0.0268  0.0168  1.0000  -2.1357   0.0000   0.0000   0.0000   0.2898
   4.600   0.6390   0.01281   0.00630  -0.0268  0.0177  1.0000  -2.2324   0.0000   0.0000   0.0000   0.2889
   4.700   0.6503   0.01280   0.00629  -0.0267  0.0187  1.0000  -2.3212   0.0000   0.0000   0.0000   0.2879
   4.800   0.6612   0.01295   0.00647  -0.0265  0.0204  1.0000  -2.3893   0.0000   0.0000   0.0000   0.2868
   4.900   0.6703   0.01409   0.00785  -0.0253  0.0264  1.0000  -2.3099   0.0000   0.0000   0.0000   0.2845
   5.500   0.7377   0.02216   0.01700  -0.0203  0.0646  1.0000  -2.1284   0.0000   0.0000   0.0000   0.2738
   5.600   0.7475   0.02255   0.01738  -0.0201  0.0614  1.0000  -2.1977   0.0000   0.0000   0.0000   0.2732
   5.700   0.7571   0.02304   0.01783  -0.0201  0.0586  1.0000  -2.2737   0.0000   0.0000   0.0000   0.2727
   5.800   0.7658   0.02375   0.01853  -0.0200  0.0560  1.0000  -2.3473   0.0000   0.0000   0.0000   0.2722
   5.900   0.7615   0.03056   0.02574  -0.0196  0.0508  1.0000  -2.2378   0.0000   0.0000   0.0000   0.2718
   6.000   0.7795   0.02661   0.02167  -0.0194  0.0474  1.0000  -2.4243   0.0000   0.0000   0.0000   0.2708
   6.100   0.7905   0.02632   0.02138  -0.0192  0.0439  1.0000  -2.5172   0.0000   0.0000   0.0000   0.2702
   6.200   0.8001   0.02658   0.02165  -0.0191  0.0411  1.0000  -2.6022   0.0000   0.0000   0.0000   0.2696
   6.300   0.8092   0.02695   0.02201  -0.0190  0.0389  1.0000  -2.6931   0.0000   0.0000   0.0000   0.2692
   6.400   0.8179   0.02805   0.02356  -0.0185  0.0386  1.0000  -2.7596   0.0000   0.0000   0.0000   0.2683
   6.500   0.8267   0.02872   0.02426  -0.0184  0.0373  1.0000  -2.8499   0.0000   0.0000   0.0000   0.2678
   6.600   0.8349   0.02952   0.02510  -0.0183  0.0360  1.0000  -2.9320   0.0000   0.0000   0.0000   0.2674
   6.700   0.8418   0.03072   0.02633  -0.0181  0.0347  1.0000  -3.0028   0.0000   0.0000   0.0000   0.2669
   7.100   0.8533   0.04006   0.03644  -0.0162  0.0307  1.0000  -2.9476   0.0000   0.0000   0.0000   0.2642
   7.200   0.8685   0.03840   0.03479  -0.0158  0.0289  1.0000  -3.0959   0.0000   0.0000   0.0000   0.2634
   7.300   0.8777   0.03870   0.03515  -0.0155  0.0274  1.0000  -3.1671   0.0000   0.0000   0.0000   0.2627
   7.400   0.8850   0.03946   0.03600  -0.0151  0.0262  1.0000  -3.2208   0.0000   0.0000   0.0000   0.2620
   7.500   0.8915   0.04038   0.03701  -0.0148  0.0251  1.0000  -3.2716   0.0000   0.0000   0.0000   0.2615
   7.600   0.8976   0.04129   0.03800  -0.0145  0.0240  1.0000  -3.3289   0.0000   0.0000   0.0000   0.2609
   7.700   0.9036   0.04208   0.03884  -0.0142  0.0229  1.0000  -3.4021   0.0000   0.0000   0.0000   0.2605
   7.800   0.9100   0.04258   0.03937  -0.0141  0.0218  1.0000  -3.5063   0.0000   0.0000   0.0000   0.2601
   7.900   0.9174   0.04265   0.03941  -0.0142  0.0206  1.0000  -3.6614   0.0000   0.0000   0.0000   0.2600
   8.000   0.9241   0.04285   0.03956  -0.0143  0.0195  1.0000  -3.8247   0.0000   0.0000   0.0000   0.2599
   8.100   0.9275   0.04409   0.04080  -0.0142  0.0186  1.0000  -3.9205   0.0000   0.0000   0.0000   0.2597
   8.200   0.9253   0.04681   0.04362  -0.0140  0.0180  1.0000  -3.9009   0.0000   0.0000   0.0000   0.2593
   8.300   0.9190   0.05027   0.04724  -0.0136  0.0176  1.0000  -3.8088   0.0000   0.0000   0.0000   0.2590
   8.400   0.9114   0.05371   0.05084  -0.0132  0.0173  1.0000  -3.7034   0.0000   0.0000   0.0000   0.2587
   8.500   0.9035   0.05688   0.05416  -0.0129  0.0171  1.0000  -3.6058   0.0000   0.0000   0.0000   0.2584
   8.600   0.8959   0.05975   0.05715  -0.0126  0.0170  1.0000  -3.5212   0.0000   0.0000   0.0000   0.2582
   8.700   0.8884   0.06231   0.05982  -0.0125  0.0169  1.0000  -3.4501   0.0000   0.0000   0.0000   0.2581
   8.800   0.8813   0.06460   0.06219  -0.0124  0.0169  1.0000  -3.3917   0.0000   0.0000   0.0000   0.2581
   8.900   0.8744   0.06658   0.06423  -0.0122  0.0168  1.0000  -3.3462   0.0000   0.0000   0.0000   0.2580
   9.000   0.8673   0.06807   0.06579  -0.0118  0.0168  1.0000  -3.3172   0.0000   0.0000   0.0000   0.2575
   9.100   0.8605   0.06946   0.06722  -0.0116  0.0168  1.0000  -3.2953   0.0000   0.0000   0.0000   0.2573
   9.200   0.8542   0.07086   0.06866  -0.0117  0.0168  1.0000  -3.2771   0.0000   0.0000   0.0000   0.2575
   9.300   0.8484   0.07233   0.07017  -0.0122  0.0168  1.0000  -3.2610   0.0000   0.0000   0.0000   0.2580
   9.400   0.8430   0.07390   0.07177  -0.0131  0.0169  1.0000  -3.2459   0.0000   0.0000   0.0000   0.2590
   9.500   0.8381   0.07550   0.07340  -0.0141  0.0169  1.0000  -3.2332   0.0000   0.0000   0.0000   0.2603
   9.600   0.8337   0.07719   0.07513  -0.0154  0.0169  1.0000  -3.2211   0.0000   0.0000   0.0000   0.2618
   9.700   0.8298   0.07902   0.07700  -0.0170  0.0169  1.0000  -3.2087   0.0000   0.0000   0.0000   0.2637
   9.800   0.8264   0.08099   0.07900  -0.0188  0.0170  1.0000  -3.1955   0.0000   0.0000   0.0000   0.2658
   9.900   0.8236   0.08311   0.08114  -0.0208  0.0170  1.0000  -3.1808   0.0000   0.0000   0.0000   0.2682
  10.000   0.8213   0.08536   0.08342  -0.0229  0.0171  1.0000  -3.1638   0.0000   0.0000   0.0000   0.2708
  10.100   0.8194   0.08777   0.08585  -0.0252  0.0171  1.0000  -3.1434   0.0000   0.0000   0.0000   0.2735
  10.200   0.8180   0.09034   0.08844  -0.0274  0.0172  1.0000  -3.1184   0.0000   0.0000   0.0000   0.2763
  10.300   0.8170   0.09308   0.09120  -0.0298  0.0172  1.0000  -3.0871   0.0000   0.0000   0.0000   0.2791
  10.400   0.8162   0.09600   0.09414  -0.0320  0.0173  1.0000  -3.0466   0.0000   0.0000   0.0000   0.2818
  10.500   0.8156   0.09914   0.09729  -0.0341  0.0173  1.0000  -2.9926   0.0000   0.0000   0.0000   0.2844
  10.600   0.8143   0.10227   0.10041  -0.0360  0.0174  1.0000  -2.9320   0.0000   0.0000   0.0000   0.2868
  10.700   0.8122   0.10529   0.10343  -0.0377  0.0174  1.0000  -2.8704   0.0000   0.0000   0.0000   0.2890
  10.800   0.8097   0.10829   0.10641  -0.0393  0.0173  1.0000  -2.8071   0.0000   0.0000   0.0000   0.2911
  10.900   0.8070   0.11130   0.10942  -0.0409  0.0173  1.0000  -2.7412   0.0000   0.0000   0.0000   0.2932
  11.000   0.8040   0.11435   0.11246  -0.0425  0.0172  1.0000  -2.6715   0.0000   0.0000   0.0000   0.2953
  11.100   0.8008   0.11748   0.11558  -0.0440  0.0172  1.0000  -2.5965   0.0000   0.0000   0.0000   0.2974
  11.200   0.7974   0.12072   0.11880  -0.0456  0.0171  1.0000  -2.5143   0.0000   0.0000   0.0000   0.2996
  11.300   0.7935   0.12412   0.12220  -0.0472  0.0170  1.0000  -2.4215   0.0000   0.0000   0.0000   0.3019
  11.400   0.7889   0.12781   0.12587  -0.0490  0.0169  1.0000  -2.3121   0.0000   0.0000   0.0000   0.3044
  11.500   0.7864   0.13091   0.12894  -0.0504  0.0168  1.0000  -2.2345   0.0000   0.0000   0.0000   0.3065
  11.600   0.7869   0.13305   0.13107  -0.0515  0.0168  1.0000  -2.2106   0.0000   0.0000   0.0000   0.3077
  11.700   0.7875   0.13516   0.13318  -0.0525  0.0168  1.0000  -2.1879   0.0000   0.0000   0.0000   0.3090
  11.800   0.7882   0.13723   0.13525  -0.0536  0.0168  1.0000  -2.1662   0.0000   0.0000   0.0000   0.3101
  11.900   0.7890   0.13927   0.13728  -0.0546  0.0167  1.0000  -2.1457   0.0000   0.0000   0.0000   0.3113
  12.000   0.7899   0.14128   0.13929  -0.0556  0.0167  1.0000  -2.1262   0.0000   0.0000   0.0000   0.3124
  12.100   0.7909   0.14326   0.14127  -0.0566  0.0167  1.0000  -2.1078   0.0000   0.0000   0.0000   0.3136
  12.200   0.7920   0.14520   0.14321  -0.0576  0.0167  1.0000  -2.0905   0.0000   0.0000   0.0000   0.3146
  12.300   0.7932   0.14712   0.14512  -0.0586  0.0167  1.0000  -2.0743   0.0000   0.0000   0.0000   0.3157
  12.400   0.7945   0.14899   0.14700  -0.0596  0.0167  1.0000  -2.0594   0.0000   0.0000   0.0000   0.3167
  12.500   0.7959   0.15084   0.14884  -0.0605  0.0166  1.0000  -2.0457   0.0000   0.0000   0.0000   0.3177
  12.600   0.7974   0.15264   0.15064  -0.0615  0.0166  1.0000  -2.0334   0.0000   0.0000   0.0000   0.3187
  12.700   0.7991   0.15441   0.15241  -0.0624  0.0166  1.0000  -2.0227   0.0000   0.0000   0.0000   0.3196
  12.800   0.8008   0.15614   0.15413  -0.0633  0.0165  1.0000  -2.0137   0.0000   0.0000   0.0000   0.3205
  12.900   0.8028   0.15781   0.15581  -0.0642  0.0165  1.0000  -2.0066   0.0000   0.0000   0.0000   0.3214
  13.000   0.8048   0.15944   0.15744  -0.0651  0.0164  1.0000  -2.0016   0.0000   0.0000   0.0000   0.3222
  13.100   0.8071   0.16102   0.15901  -0.0660  0.0163  1.0000  -1.9987   0.0000   0.0000   0.0000   0.3230
  13.200   0.8094   0.16250   0.16049  -0.0669  0.0162  1.0000  -1.9974   0.0000   0.0000   0.0000   0.3237
  13.300   0.8123   0.16377   0.16176  -0.0677  0.0160  1.0000  -2.0033   0.0000   0.0000   0.0000   0.3244
  13.400   0.8173   0.16459   0.16258  -0.0685  0.0154  1.0000  -2.0315   0.0000   0.0000   0.0000   0.3247
  13.500   0.8207   0.16588   0.16387  -0.0695  0.0147  1.0000  -2.0278   0.0000   0.0000   0.0000   0.3256
  13.600   0.8227   0.16739   0.16538  -0.0706  0.0142  1.0000  -2.0116   0.0000   0.0000   0.0000   0.3266
  13.700   0.8246   0.16895   0.16694  -0.0716  0.0137  1.0000  -1.9979   0.0000   0.0000   0.0000   0.3275
  13.800   0.8265   0.17053   0.16852  -0.0725  0.0133  1.0000  -1.9877   0.0000   0.0000   0.0000   0.3283
  13.900   0.8284   0.17212   0.17011  -0.0734  0.0128  1.0000  -1.9808   0.0000   0.0000   0.0000   0.3291
  14.000   0.8303   0.17370   0.17169  -0.0743  0.0124  1.0000  -1.9773   0.0000   0.0000   0.0000   0.3299
  14.100   0.8323   0.17528   0.17326  -0.0752  0.0119  1.0000  -1.9771   0.0000   0.0000   0.0000   0.3306
  14.200   0.8343   0.17684   0.17482  -0.0760  0.0115  1.0000  -1.9805   0.0000   0.0000   0.0000   0.3313
  14.300   0.8363   0.17838   0.17636  -0.0768  0.0111  1.0000  -1.9878   0.0000   0.0000   0.0000   0.3320
  14.400   0.8385   0.17990   0.17788  -0.0776  0.0107  1.0000  -1.9996   0.0000   0.0000   0.0000   0.3326
  14.500   0.8407   0.18138   0.17936  -0.0784  0.0103  1.0000  -2.0165   0.0000   0.0000   0.0000   0.3332
  14.600   0.8430   0.18280   0.18079  -0.0792  0.0099  1.0000  -2.0402   0.0000   0.0000   0.0000   0.3337
  14.700   0.8454   0.18417   0.18215  -0.0799  0.0095  1.0000  -2.0718   0.0000   0.0000   0.0000   0.3341
  14.800   0.8480   0.18545   0.18344  -0.0805  0.0091  1.0000  -2.1135   0.0000   0.0000   0.0000   0.3345
  14.900   0.8507   0.18663   0.18462  -0.0811  0.0087  1.0000  -2.1685   0.0000   0.0000   0.0000   0.3347
  15.000   0.8537   0.18765   0.18564  -0.0816  0.0084  1.0000  -2.2416   0.0000   0.0000   0.0000   0.3348
  15.100   0.8571   0.18845   0.18645  -0.0819  0.0080  1.0000  -2.3418   0.0000   0.0000   0.0000   0.3346
  15.200   0.8600   0.18941   0.18741  -0.0823  0.0077  1.0000  -2.4312   0.0000   0.0000   0.0000   0.3346
  15.300   0.8618   0.19082   0.18883  -0.0830  0.0074  1.0000  -2.4802   0.0000   0.0000   0.0000   0.3350
  15.400   0.8615   0.19309   0.19110  -0.0838  0.0070  1.0000  -2.4619   0.0000   0.0000   0.0000   0.3359
  15.900   0.8625   0.20715   0.20509  -0.0895  0.0063  1.0000  -2.0511   0.0000   0.0000   0.0000   0.3421
  16.000   0.8650   0.20889   0.20683  -0.0904  0.0062  1.0000  -2.0547   0.0000   0.0000   0.0000   0.3428
  16.100   0.8677   0.21050   0.20844  -0.0913  0.0061  1.0000  -2.0697   0.0000   0.0000   0.0000   0.3434
  16.200   0.8710   0.21189   0.20984  -0.0922  0.0060  1.0000  -2.1041   0.0000   0.0000   0.0000   0.3438
  16.300   0.8746   0.21320   0.21115  -0.0930  0.0058  1.0000  -2.1489   0.0000   0.0000   0.0000   0.3442
  16.400   0.8779   0.21468   0.21263  -0.0938  0.0055  1.0000  -2.1824   0.0000   0.0000   0.0000   0.3445
  16.500   0.8809   0.21639   0.21434  -0.0946  0.0053  1.0000  -2.1977   0.0000   0.0000   0.0000   0.3450
  16.600   0.8835   0.21828   0.21623  -0.0954  0.0051  1.0000  -2.1986   0.0000   0.0000   0.0000   0.3455
  16.700   0.8859   0.22030   0.21824  -0.0963  0.0049  1.0000  -2.1893   0.0000   0.0000   0.0000   0.3461
  16.800   0.8881   0.22237   0.22032  -0.0971  0.0048  1.0000  -2.1766   0.0000   0.0000   0.0000   0.3467
  16.900   0.8903   0.22448   0.22243  -0.0980  0.0047  1.0000  -2.1620   0.0000   0.0000   0.0000   0.3473
  17.000   0.8924   0.22662   0.22456  -0.0988  0.0046  1.0000  -2.1462   0.0000   0.0000   0.0000   0.3479
  17.100   0.8944   0.22877   0.22671  -0.0997  0.0045  1.0000  -2.1296   0.0000   0.0000   0.0000   0.3484
  17.200   0.8964   0.23094   0.22888  -0.1005  0.0045  1.0000  -2.1125   0.0000   0.0000   0.0000   0.3490
  17.300   0.8983   0.23312   0.23106  -0.1013  0.0045  1.0000  -2.0950   0.0000   0.0000   0.0000   0.3496
  17.400   0.9002   0.23532   0.23326  -0.1021  0.0044  1.0000  -2.0771   0.0000   0.0000   0.0000   0.3501
  17.500   0.9021   0.23753   0.23547  -0.1029  0.0045  1.0000  -2.0590   0.0000   0.0000   0.0000   0.3507
  17.600   0.9039   0.23975   0.23769  -0.1037  0.0045  1.0000  -2.0406   0.0000   0.0000   0.0000   0.3512
  17.700   0.9057   0.24199   0.23993  -0.1045  0.0045  1.0000  -2.0221   0.0000   0.0000   0.0000   0.3517
  17.800   0.9074   0.24425   0.24218  -0.1053  0.0046  1.0000  -2.0034   0.0000   0.0000   0.0000   0.3523
  17.900   0.9091   0.24652   0.24445  -0.1061  0.0047  1.0000  -1.9846   0.0000   0.0000   0.0000   0.3528
  18.000   0.9109   0.24866   0.24664  -0.1069  0.0048  1.0000  -1.9704   0.0000   0.0000   0.0000   0.3533
  18.100   0.9124   0.25096   0.24894  -0.1076  0.0049  1.0000  -1.9514   0.0000   0.0000   0.0000   0.3539
  18.200   0.9138   0.25331   0.25129  -0.1084  0.0050  1.0000  -1.9314   0.0000   0.0000   0.0000   0.3544
  18.300   0.9150   0.25572   0.25371  -0.1091  0.0052  1.0000  -1.9100   0.0000   0.0000   0.0000   0.3549
  18.400   0.9160   0.25822   0.25620  -0.1099  0.0053  1.0000  -1.8862   0.0000   0.0000   0.0000   0.3555
  18.500   0.9169   0.26080   0.25878  -0.1105  0.0055  1.0000  -1.8602   0.0000   0.0000   0.0000   0.3560
  18.600   0.9179   0.26339   0.26137  -0.1112  0.0057  1.0000  -1.8356   0.0000   0.0000   0.0000   0.3565
  18.700   0.9190   0.26593   0.26391  -0.1119  0.0058  1.0000  -1.8128   0.0000   0.0000   0.0000   0.3570
  18.800   0.9202   0.26841   0.26639  -0.1126  0.0058  1.0000  -1.7934   0.0000   0.0000   0.0000   0.3575
  18.900   0.9214   0.27084   0.26882  -0.1133  0.0059  1.0000  -1.7771   0.0000   0.0000   0.0000   0.3580
  19.000   0.9227   0.27324   0.27122  -0.1140  0.0059  1.0000  -1.7628   0.0000   0.0000   0.0000   0.3584
  19.100   0.9240   0.27561   0.27360  -0.1147  0.0060  1.0000  -1.7498   0.0000   0.0000   0.0000   0.3589
  19.200   0.9252   0.27798   0.27597  -0.1154  0.0060  1.0000  -1.7378   0.0000   0.0000   0.0000   0.3593
  19.300   0.9264   0.28033   0.27832  -0.1161  0.0060  1.0000  -1.7265   0.0000   0.0000   0.0000   0.3598
  19.400   0.9276   0.28267   0.28066  -0.1167  0.0060  1.0000  -1.7157   0.0000   0.0000   0.0000   0.3602
  19.500   0.9287   0.28500   0.28300  -0.1174  0.0060  1.0000  -1.7054   0.0000   0.0000   0.0000   0.3607
  19.600   0.9298   0.28733   0.28533  -0.1180  0.0060  1.0000  -1.6954   0.0000   0.0000   0.0000   0.3611
  19.700   0.9308   0.28965   0.28764  -0.1187  0.0060  1.0000  -1.6856   0.0000   0.0000   0.0000   0.3616
  19.800   0.9317   0.29195   0.28995  -0.1193  0.0061  1.0000  -1.6761   0.0000   0.0000   0.0000   0.3620
  19.900   0.9326   0.29425   0.29225  -0.1199  0.0061  1.0000  -1.6666   0.0000   0.0000   0.0000   0.3624
  20.000   0.9333   0.29654   0.29454  -0.1206  0.0061  1.0000  -1.6573   0.0000   0.0000   0.0000   0.3629
  20.100   0.9340   0.29881   0.29682  -0.1212  0.0061  1.0000  -1.6479   0.0000   0.0000   0.0000   0.3633
  20.200   0.9345   0.30106   0.29908  -0.1218  0.0061  1.0000  -1.6386   0.0000   0.0000   0.0000   0.3638
  20.300   0.9350   0.30330   0.30132  -0.1223  0.0061  1.0000  -1.6292   0.0000   0.0000   0.0000   0.3642
  20.400   0.9353   0.30552   0.30354  -0.1229  0.0061  1.0000  -1.6196   0.0000   0.0000   0.0000   0.3646
  20.500   0.9354   0.30771   0.30574  -0.1234  0.0061  1.0000  -1.6100   0.0000   0.0000   0.0000   0.3651
  20.600   0.9354   0.30987   0.30790  -0.1240  0.0061  1.0000  -1.6001   0.0000   0.0000   0.0000   0.3655
  20.700   0.9351   0.31199   0.31002  -0.1245  0.0061  1.0000  -1.5899   0.0000   0.0000   0.0000   0.3660
  20.800   0.9347   0.31406   0.31210  -0.1249  0.0061  1.0000  -1.5794   0.0000   0.0000   0.0000   0.3664
  20.900   0.9340   0.31607   0.31412  -0.1254  0.0061  1.0000  -1.5684   0.0000   0.0000   0.0000   0.3669
  21.000   0.9329   0.31801   0.31606  -0.1258  0.0061  1.0000  -1.5568   0.0000   0.0000   0.0000   0.3674
  21.100   0.9315   0.31985   0.31791  -0.1261  0.0061  1.0000  -1.5445   0.0000   0.0000   0.0000   0.3679
  21.200   0.9296   0.32156   0.31963  -0.1264  0.0061  1.0000  -1.5311   0.0000   0.0000   0.0000   0.3684
  21.300   0.9269   0.32308   0.32116  -0.1266  0.0061  1.0000  -1.5162   0.0000   0.0000   0.0000   0.3689
  21.400   0.8796   0.31271   0.31087  -0.1216  0.0061  1.0000  -1.3978   0.0000   0.0000   0.0000   0.3710
  21.500   0.8727   0.31210   0.31028  -0.1212  0.0061  1.0000  -1.3736   0.0000   0.0000   0.0000   0.3716
  21.600   0.8674   0.31187   0.31006  -0.1210  0.0061  1.0000  -1.3534   0.0000   0.0000   0.0000   0.3722
  21.700   0.8631   0.31184   0.31004  -0.1210  0.0061  1.0000  -1.3356   0.0000   0.0000   0.0000   0.3728
  21.800   0.8594   0.31194   0.31015  -0.1210  0.0061  1.0000  -1.3194   0.0000   0.0000   0.0000   0.3733
  21.900   0.8561   0.31212   0.31034  -0.1210  0.0061  1.0000  -1.3043   0.0000   0.0000   0.0000   0.3738
  22.000   0.8532   0.31236   0.31059  -0.1211  0.0061  1.0000  -1.2902   0.0000   0.0000   0.0000   0.3743
  22.100   0.8505   0.31265   0.31089  -0.1212  0.0061  1.0000  -1.2768   0.0000   0.0000   0.0000   0.3748
  22.200   0.8481   0.31298   0.31123  -0.1213  0.0061  1.0000  -1.2641   0.0000   0.0000   0.0000   0.3753
  22.300   0.8460   0.31334   0.31159  -0.1215  0.0061  1.0000  -1.2527   0.0000   0.0000   0.0000   0.3758
  22.400   0.8441   0.31372   0.31198  -0.1217  0.0061  1.0000  -1.2419   0.0000   0.0000   0.0000   0.3762
  22.500   0.8423   0.31413   0.31240  -0.1219  0.0061  1.0000  -1.2316   0.0000   0.0000   0.0000   0.3767
  22.600   0.8407   0.31456   0.31284  -0.1221  0.0061  1.0000  -1.2217   0.0000   0.0000   0.0000   0.3771
  22.700   0.8392   0.31501   0.31329  -0.1224  0.0061  1.0000  -1.2122   0.0000   0.0000   0.0000   0.3776
  22.800   0.8378   0.31547   0.31376  -0.1226  0.0061  1.0000  -1.2026   0.0000   0.0000   0.0000   0.3780
  22.900   0.8365   0.31595   0.31425  -0.1229  0.0061  1.0000  -1.1931   0.0000   0.0000   0.0000   0.3785
  23.000   0.8353   0.31645   0.31475  -0.1232  0.0061  1.0000  -1.1839   0.0000   0.0000   0.0000   0.3789
  23.100   0.8341   0.31695   0.31526  -0.1234  0.0061  1.0000  -1.1750   0.0000   0.0000   0.0000   0.3794
  23.200   0.8331   0.31747   0.31579  -0.1237  0.0061  1.0000  -1.1665   0.0000   0.0000   0.0000   0.3798
  23.300   0.8321   0.31800   0.31632  -0.1240  0.0060  1.0000  -1.1582   0.0000   0.0000   0.0000   0.3802
  23.400   0.8312   0.31854   0.31687  -0.1244  0.0060  1.0000  -1.1502   0.0000   0.0000   0.0000   0.3806
  23.500   0.8304   0.31909   0.31742  -0.1247  0.0060  1.0000  -1.1425   0.0000   0.0000   0.0000   0.3811
  23.600   0.8297   0.31964   0.31798  -0.1250  0.0060  1.0000  -1.1351   0.0000   0.0000   0.0000   0.3815
  23.700   0.8290   0.32021   0.31855  -0.1253  0.0060  1.0000  -1.1280   0.0000   0.0000   0.0000   0.3819
  23.800   0.8284   0.32078   0.31913  -0.1257  0.0059  1.0000  -1.1211   0.0000   0.0000   0.0000   0.3823
  23.900   0.8279   0.32136   0.31971  -0.1260  0.0059  1.0000  -1.1144   0.0000   0.0000   0.0000   0.3827
  24.000   0.8274   0.32195   0.32031  -0.1264  0.0059  1.0000  -1.1081   0.0000   0.0000   0.0000   0.3831
  24.100   0.8270   0.32255   0.32091  -0.1268  0.0059  1.0000  -1.1020   0.0000   0.0000   0.0000   0.3835
  24.200   0.8267   0.32315   0.32152  -0.1271  0.0058  1.0000  -1.0961   0.0000   0.0000   0.0000   0.3839
  24.300   0.8264   0.32377   0.32215  -0.1275  0.0058  1.0000  -1.0906   0.0000   0.0000   0.0000   0.3842
  24.400   0.8263   0.32440   0.32278  -0.1279  0.0057  1.0000  -1.0853   0.0000   0.0000   0.0000   0.3846
  24.500   0.8263   0.32505   0.32344  -0.1284  0.0056  1.0000  -1.0802   0.0000   0.0000   0.0000   0.3850
  24.600   0.8265   0.32572   0.32411  -0.1288  0.0055  1.0000  -1.0752   0.0000   0.0000   0.0000   0.3853
  24.700   0.8269   0.32642   0.32482  -0.1292  0.0054  1.0000  -1.0701   0.0000   0.0000   0.0000   0.3857
  24.800   0.8273   0.32715   0.32555  -0.1297  0.0052  1.0000  -1.0648   0.0000   0.0000   0.0000   0.3860
  24.900   0.8278   0.32789   0.32629  -0.1301  0.0049  1.0000  -1.0594   0.0000   0.0000   0.0000   0.3862
  25.000   0.8281   0.32859   0.32701  -0.1305  0.0046  1.0000  -1.0545   0.0000   0.0000   0.0000   0.3865
  25.100   0.8281   0.32927   0.32769  -0.1308  0.0043  1.0000  -1.0504   0.0000   0.0000   0.0000   0.3868
  25.200   0.8280   0.32993   0.32835  -0.1312  0.0040  1.0000  -1.0473   0.0000   0.0000   0.0000   0.3871
  25.300   0.8278   0.33058   0.32900  -0.1315  0.0038  1.0000  -1.0449   0.0000   0.0000   0.0000   0.3874
  25.400   0.8276   0.33122   0.32965  -0.1319  0.0036  1.0000  -1.0431   0.0000   0.0000   0.0000   0.3878
  25.500   0.8274   0.33185   0.33029  -0.1322  0.0033  1.0000  -1.0419   0.0000   0.0000   0.0000   0.3881
  25.600   0.8271   0.33249   0.33093  -0.1326  0.0031  1.0000  -1.0413   0.0000   0.0000   0.0000   0.3884
  25.700   0.8269   0.33312   0.33157  -0.1330  0.0029  1.0000  -1.0410   0.0000   0.0000   0.0000   0.3888
  25.800   0.8267   0.33375   0.33220  -0.1333  0.0028  1.0000  -1.0413   0.0000   0.0000   0.0000   0.3891
  25.900   0.8265   0.33438   0.33284  -0.1337  0.0026  1.0000  -1.0419   0.0000   0.0000   0.0000   0.3894
  26.000   0.8263   0.33501   0.33347  -0.1341  0.0025  1.0000  -1.0430   0.0000   0.0000   0.0000   0.3897
  26.100   0.8261   0.33564   0.33411  -0.1345  0.0023  1.0000  -1.0445   0.0000   0.0000   0.0000   0.3901
  26.200   0.8259   0.33626   0.33474  -0.1348  0.0022  1.0000  -1.0465   0.0000   0.0000   0.0000   0.3904
  26.300   0.8258   0.33689   0.33537  -0.1352  0.0021  1.0000  -1.0489   0.0000   0.0000   0.0000   0.3907
  26.400   0.8256   0.33752   0.33600  -0.1356  0.0020  1.0000  -1.0518   0.0000   0.0000   0.0000   0.3910
  26.500   0.8256   0.33809   0.33661  -0.1360  0.0018  1.0000  -1.0658   0.0000   0.0000   0.0000   0.3914
  26.600   0.8254   0.33870   0.33722  -0.1364  0.0017  1.0000  -1.0725   0.0000   0.0000   0.0000   0.3917
  26.700   0.8253   0.33930   0.33784  -0.1368  0.0016  1.0000  -1.0791   0.0000   0.0000   0.0000   0.3920
  26.800   0.8252   0.33991   0.33845  -0.1371  0.0015  1.0000  -1.0861   0.0000   0.0000   0.0000   0.3923
  26.900   0.8251   0.34051   0.33906  -0.1375  0.0015  1.0000  -1.0935   0.0000   0.0000   0.0000   0.3926
  27.000   0.8250   0.34111   0.33966  -0.1379  0.0014  1.0000  -1.1014   0.0000   0.0000   0.0000   0.3929
  27.100   0.8249   0.34171   0.34026  -0.1383  0.0013  1.0000  -1.1099   0.0000   0.0000   0.0000   0.3932
  27.200   0.8248   0.34230   0.34086  -0.1387  0.0013  1.0000  -1.1191   0.0000   0.0000   0.0000   0.3935
  27.300   0.8248   0.34289   0.34146  -0.1391  0.0012  1.0000  -1.1289   0.0000   0.0000   0.0000   0.3938
  27.400   0.8247   0.34348   0.34205  -0.1395  0.0012  1.0000  -1.1393   0.0000   0.0000   0.0000   0.3941
  27.500   0.8246   0.34406   0.34263  -0.1399  0.0011  1.0000  -1.1505   0.0000   0.0000   0.0000   0.3944
  27.600   0.8245   0.34463   0.34321  -0.1403  0.0011  1.0000  -1.1624   0.0000   0.0000   0.0000   0.3947
  27.700   0.8244   0.34520   0.34378  -0.1407  0.0011  1.0000  -1.1751   0.0000   0.0000   0.0000   0.3950
  27.800   0.8244   0.34576   0.34435  -0.1411  0.0010  1.0000  -1.1886   0.0000   0.0000   0.0000   0.3953
  27.900   0.8243   0.34632   0.34491  -0.1415  0.0010  1.0000  -1.2028   0.0000   0.0000   0.0000   0.3956
  28.000   0.8242   0.34686   0.34546  -0.1418  0.0010  1.0000  -1.2178   0.0000   0.0000   0.0000   0.3959
  28.100   0.8241   0.34740   0.34601  -0.1422  0.0009  1.0000  -1.2336   0.0000   0.0000   0.0000   0.3962
  28.200   0.8240   0.34793   0.34655  -0.1426  0.0009  1.0000  -1.2502   0.0000   0.0000   0.0000   0.3964
  28.300   0.8238   0.34846   0.34707  -0.1430  0.0009  1.0000  -1.2676   0.0000   0.0000   0.0000   0.3967
  28.400   0.8237   0.34897   0.34759  -0.1434  0.0009  1.0000  -1.2857   0.0000   0.0000   0.0000   0.3970


