xflr5 v6.61

 Calculated polar for: S7012 8.75%

 1 1 Reynolds number fixed          Mach number fixed         

 xtrf =   1.000 (top)        1.000 (bottom)
 Mach =   0.000     Re =     0.688 e 6     Ncrit =   9.000

  alpha     CL        CD       CDp       Cm    Top Xtr Bot Xtr   Cpmin    Chinge    XCp    
 ------- -------- --------- --------- -------- ------- ------- -------- --------- ---------
 -10.000  -0.4774   0.11247   0.11044  -0.0043  1.0000  0.0120  -1.8483   0.0000   0.0000   0.0000   0.2355
  -9.900  -0.4757   0.11096   0.10893  -0.0050  1.0000  0.0120  -1.8594   0.0000   0.0000   0.0000   0.2341
  -9.800  -0.4740   0.10942   0.10740  -0.0057  1.0000  0.0120  -1.8708   0.0000   0.0000   0.0000   0.2327
  -9.700  -0.4722   0.10788   0.10585  -0.0064  1.0000  0.0120  -1.8826   0.0000   0.0000   0.0000   0.2312
  -9.600  -0.4705   0.10632   0.10431  -0.0071  1.0000  0.0120  -1.8947   0.0000   0.0000   0.0000   0.2297
  -9.500  -0.4688   0.10477   0.10275  -0.0078  1.0000  0.0120  -1.9074   0.0000   0.0000   0.0000   0.2282
  -9.400  -0.4672   0.10320   0.10120  -0.0085  1.0000  0.0120  -1.9204   0.0000   0.0000   0.0000   0.2266
  -9.300  -0.4656   0.10164   0.09964  -0.0092  1.0000  0.0120  -1.9340   0.0000   0.0000   0.0000   0.2250
  -9.200  -0.4641   0.10007   0.09807  -0.0100  1.0000  0.0120  -1.9480   0.0000   0.0000   0.0000   0.2234
  -9.100  -0.4627   0.09850   0.09651  -0.0107  1.0000  0.0120  -1.9626   0.0000   0.0000   0.0000   0.2218
  -9.000  -0.4613   0.09693   0.09494  -0.0115  1.0000  0.0120  -1.9778   0.0000   0.0000   0.0000   0.2201
  -8.900  -0.4600   0.09535   0.09337  -0.0123  1.0000  0.0120  -1.9936   0.0000   0.0000   0.0000   0.2184
  -8.800  -0.4588   0.09376   0.09179  -0.0131  1.0000  0.0120  -2.0101   0.0000   0.0000   0.0000   0.2167
  -8.700  -0.4575   0.09215   0.09019  -0.0139  1.0000  0.0120  -2.0271   0.0000   0.0000   0.0000   0.2148
  -8.600  -0.4562   0.09052   0.08857  -0.0148  1.0000  0.0120  -2.0450   0.0000   0.0000   0.0000   0.2129
  -8.500  -0.4551   0.08889   0.08694  -0.0156  1.0000  0.0120  -2.0636   0.0000   0.0000   0.0000   0.2110
  -8.400  -0.4540   0.08724   0.08530  -0.0165  1.0000  0.0121  -2.0831   0.0000   0.0000   0.0000   0.2090
  -8.300  -0.4531   0.08559   0.08366  -0.0175  1.0000  0.0121  -2.1036   0.0000   0.0000   0.0000   0.2069
  -8.200  -0.4523   0.08392   0.08199  -0.0184  1.0000  0.0121  -2.1252   0.0000   0.0000   0.0000   0.2048
  -8.100  -0.4515   0.08221   0.08030  -0.0194  1.0000  0.0121  -2.1480   0.0000   0.0000   0.0000   0.2025
  -8.000  -0.4509   0.08049   0.07859  -0.0205  1.0000  0.0121  -2.1722   0.0000   0.0000   0.0000   0.2002
  -7.900  -0.4504   0.07875   0.07686  -0.0216  1.0000  0.0121  -2.1980   0.0000   0.0000   0.0000   0.1977
  -7.800  -0.4503   0.07697   0.07509  -0.0228  1.0000  0.0121  -2.2258   0.0000   0.0000   0.0000   0.1952
  -7.700  -0.4505   0.07517   0.07330  -0.0240  1.0000  0.0121  -2.2559   0.0000   0.0000   0.0000   0.1925
  -7.600  -0.4511   0.07331   0.07146  -0.0254  1.0000  0.0121  -2.2893   0.0000   0.0000   0.0000   0.1895
  -7.500  -0.4515   0.07124   0.06940  -0.0275  1.0000  0.0121  -2.3287   0.0000   0.0000   0.0000   0.1851
  -7.400  -0.4496   0.06840   0.06656  -0.0315  1.0000  0.0121  -2.3846   0.0000   0.0000   0.0000   0.1760
  -7.300  -0.4473   0.06552   0.06366  -0.0350  1.0000  0.0121  -2.4445   0.0000   0.0000   0.0000   0.1679
  -7.200  -0.4454   0.06306   0.06116  -0.0371  1.0000  0.0121  -2.4957   0.0000   0.0000   0.0000   0.1628
  -7.100  -0.4437   0.06076   0.05883  -0.0388  1.0000  0.0121  -2.5432   0.0000   0.0000   0.0000   0.1588
  -7.000  -0.4421   0.05862   0.05665  -0.0401  1.0000  0.0121  -2.5867   0.0000   0.0000   0.0000   0.1556
  -6.900  -0.4594   0.05135   0.04925  -0.0436  1.0000  0.0125  -3.0034   0.0000   0.0000   0.0000   0.1513
  -6.800  -0.4648   0.04773   0.04553  -0.0448  1.0000  0.0127  -3.1512   0.0000   0.0000   0.0000   0.1498
  -6.700  -0.4656   0.04537   0.04310  -0.0453  1.0000  0.0129  -3.2009   0.0000   0.0000   0.0000   0.1489
  -6.600  -0.4642   0.04361   0.04128  -0.0455  1.0000  0.0132  -3.2046   0.0000   0.0000   0.0000   0.1482
  -6.500  -0.4616   0.04217   0.03978  -0.0455  1.0000  0.0134  -3.1849   0.0000   0.0000   0.0000   0.1477
  -6.400  -0.4583   0.04091   0.03847  -0.0455  1.0000  0.0136  -3.1530   0.0000   0.0000   0.0000   0.1471
  -6.300  -0.4544   0.03984   0.03735  -0.0453  1.0000  0.0138  -3.1078   0.0000   0.0000   0.0000   0.1467
  -6.200  -0.4500   0.03900   0.03649  -0.0450  1.0000  0.0140  -3.0439   0.0000   0.0000   0.0000   0.1464
  -6.100  -0.4456   0.03816   0.03561  -0.0447  1.0000  0.0142  -2.9841   0.0000   0.0000   0.0000   0.1462
  -6.000  -0.4411   0.03730   0.03472  -0.0443  1.0000  0.0145  -2.9285   0.0000   0.0000   0.0000   0.1460
  -5.900  -0.4365   0.03643   0.03380  -0.0440  1.0000  0.0147  -2.8771   0.0000   0.0000   0.0000   0.1459
  -5.800  -0.4287   0.03540   0.03270  -0.0443  0.9996  0.0151  -2.8185   0.0000   0.0000   0.0000   0.1433
  -5.700  -0.4156   0.03409   0.03132  -0.0457  0.9986  0.0157  -2.7499   0.0000   0.0000   0.0000   0.1366
  -5.600  -0.4025   0.03276   0.02989  -0.0470  0.9976  0.0163  -2.6904   0.0000   0.0000   0.0000   0.1297
  -5.500  -0.3892   0.03147   0.02847  -0.0483  0.9963  0.0172  -2.6347   0.0000   0.0000   0.0000   0.1225
  -5.400  -0.3754   0.03014   0.02702  -0.0494  0.9951  0.0181  -2.5942   0.0000   0.0000   0.0000   0.1148
  -5.300  -0.3610   0.02903   0.02580  -0.0504  0.9940  0.0193  -2.5528   0.0000   0.0000   0.0000   0.1068
  -5.200  -0.3454   0.02874   0.02543  -0.0510  0.9931  0.0208  -2.4826   0.0000   0.0000   0.0000   0.0986
  -5.100  -0.3287   0.03011   0.02676  -0.0511  0.9920  0.0219  -2.3460   0.0000   0.0000   0.0000   0.0911
  -5.000  -0.3146   0.02967   0.02619  -0.0518  0.9902  0.0221  -2.2864   0.0000   0.0000   0.0000   0.0816
  -4.900  -0.3056   0.02338   0.01939  -0.0542  0.9877  0.0236  -2.4967   0.0000   0.0000   0.0000   0.0688
  -4.800  -0.2926   0.02189   0.01784  -0.0553  0.9863  0.0247  -2.4292   0.0000   0.0000   0.0000   0.0570
  -4.700  -0.2785   0.02106   0.01699  -0.0563  0.9851  0.0255  -2.3365   0.0000   0.0000   0.0000   0.0438
  -4.600  -0.2651   0.02039   0.01628  -0.0571  0.9833  0.0264  -2.2469   0.0000   0.0000   0.0000   0.0306
  -4.500  -0.2521   0.01976   0.01561  -0.0577  0.9807  0.0274  -2.1660   0.0000   0.0000   0.0000   0.0171
  -4.400  -0.2382   0.01914   0.01492  -0.0584  0.9786  0.0287  -2.0899   0.0000   0.0000   0.0000   0.0008
  -4.300  -0.2237   0.01857   0.01428  -0.0591  0.9768  0.0303  -2.0187   0.0000   0.0000   0.0000  -0.0184
  -4.200  -0.2088   0.01817   0.01381  -0.0597  0.9751  0.0321  -1.9479   0.0000   0.0000   0.0000  -0.0404
  -4.100  -0.1934   0.01828   0.01389  -0.0603  0.9735  0.0339  -1.8612   0.0000   0.0000   0.0000  -0.0661
  -4.000  -0.1811   0.01685   0.01219  -0.0607  0.9702  0.0369  -1.8489   0.0000   0.0000   0.0000  -0.0900
  -3.900  -0.1694   0.01554   0.01085  -0.0612  0.9667  0.0392  -1.7917   0.0000   0.0000   0.0000  -0.1164
  -3.800  -0.1560   0.01500   0.01031  -0.0618  0.9637  0.0409  -1.7127   0.0000   0.0000   0.0000  -0.1515
  -3.500  -0.1125   0.01121   0.00602  -0.0611  0.9540  0.0183  -1.9351   0.0000   0.0000   0.0000  -0.2996
  -3.400  -0.0998   0.01017   0.00480  -0.0608  0.9488  0.0138  -2.0306   0.0000   0.0000   0.0000  -0.3664
  -3.300  -0.0860   0.01008   0.00469  -0.0611  0.9437  0.0130  -1.9397   0.0000   0.0000   0.0000  -0.4688
  -3.200  -0.0731   0.01006   0.00466  -0.0613  0.9379  0.0124  -1.8391   0.0000   0.0000   0.0000  -0.5977
  -3.000  -0.0499   0.00923   0.00361  -0.0613  0.9232  0.0116  -1.7521   0.0000   0.0000   0.0000  -0.9907
  -2.900  -0.0387   0.00883   0.00314  -0.0612  0.9157  0.0112  -1.7143   0.0000   0.0000   0.0000  -1.3477
  -2.800  -0.0276   0.00856   0.00279  -0.0610  0.9072  0.0109  -1.6640   0.0000   0.0000   0.0000  -1.9821
  -2.700  -0.0163   0.00836   0.00250  -0.0609  0.8991  0.0106  -1.6061   0.0000   0.0000   0.0000  -3.5195
  -2.600  -0.0053   0.00820   0.00228  -0.0607  0.8907  0.0104  -1.5441   0.0000   0.0000   0.0000  -11.2614
  -2.500   0.0056   0.00807   0.00208  -0.0605  0.8812  0.0102  -1.4782   0.0000   0.0000   0.0000  11.1838
  -2.400   0.0164   0.00799   0.00191  -0.0603  0.8721  0.0101  -1.4094   0.0000   0.0000   0.0000   3.9421
  -2.300   0.0274   0.00791   0.00177  -0.0601  0.8631  0.0100  -1.3383   0.0000   0.0000   0.0000   2.4616
  -2.200   0.0382   0.00785   0.00165  -0.0599  0.8533  0.0100  -1.2658   0.0000   0.0000   0.0000   1.8294
  -2.100   0.0489   0.00782   0.00155  -0.0597  0.8441  0.0100  -1.1918   0.0000   0.0000   0.0000   1.4777
  -2.000   0.0599   0.00778   0.00147  -0.0596  0.8360  0.0101  -1.1153   0.0000   0.0000   0.0000   1.2493
  -1.900   0.0708   0.00775   0.00139  -0.0594  0.8270  0.0103  -1.0371   0.0000   0.0000   0.0000   1.0932
  -1.800   0.0815   0.00775   0.00132  -0.0592  0.8179  0.0106  -0.9574   0.0000   0.0000   0.0000   0.9797
  -1.700   0.0925   0.00773   0.00127  -0.0591  0.8101  0.0112  -0.8753   0.0000   0.0000   0.0000   0.8918
  -1.600   0.1034   0.00771   0.00122  -0.0590  0.8015  0.0119  -0.7926   0.0000   0.0000   0.0000   0.8225
  -1.500   0.1138   0.00737   0.00111  -0.0590  0.7922  0.0846  -0.7188   0.0000   0.0000   0.0000   0.7698
  -1.400   0.1242   0.00719   0.00105  -0.0589  0.7828  0.1347  -0.6489   0.0000   0.0000   0.0000   0.7257
  -1.300   0.1350   0.00696   0.00101  -0.0590  0.7748  0.1919  -0.5841   0.0000   0.0000   0.0000   0.6881
  -1.200   0.1456   0.00675   0.00098  -0.0590  0.7654  0.2485  -0.5247   0.0000   0.0000   0.0000   0.6563
  -1.000   0.1665   0.00642   0.00094  -0.0590  0.7471  0.3575  -0.4241   0.0000   0.0000   0.0000   0.6047
  -0.900   0.1773   0.00625   0.00093  -0.0591  0.7393  0.4124  -0.4327   0.0000   0.0000   0.0000   0.5832
  -0.800   0.1879   0.00608   0.00092  -0.0591  0.7307  0.4683  -0.4413   0.0000   0.0000   0.0000   0.5642
  -0.700   0.1982   0.00594   0.00092  -0.0590  0.7216  0.5263  -0.4498   0.0000   0.0000   0.0000   0.5473
  -0.600   0.2085   0.00580   0.00095  -0.0589  0.7132  0.5853  -0.4583   0.0000   0.0000   0.0000   0.5319
  -0.500   0.2191   0.00569   0.00099  -0.0587  0.7057  0.6396  -0.4678   0.0000   0.0000   0.0000   0.5176
  -0.400   0.2285   0.00555   0.00108  -0.0583  0.6970  0.7124  -0.4768   0.0000   0.0000   0.0000   0.5045
  -0.300   0.2373   0.00549   0.00118  -0.0576  0.6880  0.7685  -0.4856   0.0000   0.0000   0.0000   0.4921
  -0.200   0.2478   0.00552   0.00118  -0.0574  0.6789  0.7755  -0.4951   0.0000   0.0000   0.0000   0.4809
  -0.100   0.2587   0.00552   0.00119  -0.0573  0.6725  0.7824  -0.5049   0.0000   0.0000   0.0000   0.4706
   0.000   0.2696   0.00554   0.00119  -0.0572  0.6648  0.7887  -0.5147   0.0000   0.0000   0.0000   0.4612
   0.100   0.2805   0.00558   0.00119  -0.0571  0.6563  0.7940  -0.5245   0.0000   0.0000   0.0000   0.4526
   0.200   0.2911   0.00563   0.00119  -0.0570  0.6470  0.8000  -0.5342   0.0000   0.0000   0.0000   0.4445
   0.300   0.3017   0.00563   0.00120  -0.0568  0.6399  0.8068  -0.5440   0.0000   0.0000   0.0000   0.4370
   0.400   0.3125   0.00564   0.00121  -0.0567  0.6335  0.8134  -0.5549   0.0000   0.0000   0.0000   0.4301
   0.500   0.3233   0.00566   0.00122  -0.0565  0.6266  0.8201  -0.5658   0.0000   0.0000   0.0000   0.4236
   0.600   0.3342   0.00569   0.00122  -0.0564  0.6194  0.8262  -0.5778   0.0000   0.0000   0.0000   0.4175
   0.700   0.3447   0.00573   0.00123  -0.0563  0.6114  0.8324  -0.5899   0.0000   0.0000   0.0000   0.4118
   0.800   0.3551   0.00575   0.00125  -0.0561  0.6042  0.8391  -0.6018   0.0000   0.0000   0.0000   0.4064
   0.900   0.3659   0.00575   0.00126  -0.0559  0.5989  0.8461  -0.6141   0.0000   0.0000   0.0000   0.4013
   1.000   0.3766   0.00576   0.00127  -0.0558  0.5922  0.8530  -0.6264   0.0000   0.0000   0.0000   0.3965
   1.100   0.3874   0.00580   0.00128  -0.0557  0.5846  0.8592  -0.6387   0.0000   0.0000   0.0000   0.3921
   1.200   0.3973   0.00583   0.00129  -0.0554  0.5763  0.8670  -0.6505   0.0000   0.0000   0.0000   0.3876
   1.300   0.4073   0.00586   0.00131  -0.0551  0.5676  0.8754  -0.6633   0.0000   0.0000   0.0000   0.3834
   1.400   0.4178   0.00586   0.00133  -0.0549  0.5632  0.8842  -0.6771   0.0000   0.0000   0.0000   0.3795
   1.500   0.4279   0.00586   0.00134  -0.0546  0.5576  0.8932  -0.6906   0.0000   0.0000   0.0000   0.3756
   1.600   0.4375   0.00586   0.00136  -0.0542  0.5517  0.9037  -0.7038   0.0000   0.0000   0.0000   0.3718
   1.800   0.4564   0.00590   0.00138  -0.0533  0.5394  0.9259  -0.7313   0.0000   0.0000   0.0000   0.3646
   1.900   0.4657   0.00592   0.00139  -0.0528  0.5319  0.9393  -0.7461   0.0000   0.0000   0.0000   0.3612
   2.100   0.4903   0.00590   0.00140  -0.0532  0.5226  0.9741  -0.7828   0.0000   0.0000   0.0000   0.3562
   2.200   0.5055   0.00592   0.00140  -0.0541  0.5164  1.0000  -0.8051   0.0000   0.0000   0.0000   0.3546
   2.300   0.5169   0.00597   0.00144  -0.0542  0.5107  1.0000  -0.8240   0.0000   0.0000   0.0000   0.3524
   2.400   0.5281   0.00603   0.00146  -0.0542  0.5046  1.0000  -0.8429   0.0000   0.0000   0.0000   0.3502
   2.500   0.5392   0.00610   0.00149  -0.0543  0.4972  1.0000  -0.8618   0.0000   0.0000   0.0000   0.3481
   2.600   0.5504   0.00616   0.00152  -0.0543  0.4903  1.0000  -0.8808   0.0000   0.0000   0.0000   0.3461
   2.700   0.5617   0.00620   0.00153  -0.0544  0.4810  1.0000  -0.9001   0.0000   0.0000   0.0000   0.3441
   2.800   0.5723   0.00631   0.00155  -0.0543  0.4645  1.0000  -0.9189   0.0000   0.0000   0.0000   0.3421
   2.900   0.5830   0.00641   0.00157  -0.0543  0.4480  1.0000  -0.9423   0.0000   0.0000   0.0000   0.3403
   3.000   0.5935   0.00654   0.00160  -0.0543  0.4281  1.0000  -0.9675   0.0000   0.0000   0.0000   0.3385
   3.100   0.6041   0.00666   0.00163  -0.0542  0.4090  1.0000  -0.9929   0.0000   0.0000   0.0000   0.3367
   3.200   0.6144   0.00682   0.00167  -0.0541  0.3860  1.0000  -1.0181   0.0000   0.0000   0.0000   0.3350
   3.300   0.6252   0.00692   0.00171  -0.0541  0.3707  1.0000  -1.0440   0.0000   0.0000   0.0000   0.3334
   3.400   0.6360   0.00702   0.00175  -0.0541  0.3588  1.0000  -1.0701   0.0000   0.0000   0.0000   0.3319
   3.500   0.6467   0.00713   0.00180  -0.0541  0.3471  1.0000  -1.0961   0.0000   0.0000   0.0000   0.3303
   3.600   0.6578   0.00720   0.00184  -0.0541  0.3393  1.0000  -1.1228   0.0000   0.0000   0.0000   0.3289
   3.700   0.6686   0.00730   0.00189  -0.0541  0.3280  1.0000  -1.1516   0.0000   0.0000   0.0000   0.3275
   3.800   0.6790   0.00746   0.00196  -0.0541  0.3109  1.0000  -1.1887   0.0000   0.0000   0.0000   0.3261
   3.900   0.6897   0.00758   0.00202  -0.0541  0.2967  1.0000  -1.2268   0.0000   0.0000   0.0000   0.3247
   4.000   0.6999   0.00778   0.00210  -0.0540  0.2759  1.0000  -1.2639   0.0000   0.0000   0.0000   0.3234
   4.100   0.7103   0.00793   0.00218  -0.0539  0.2583  1.0000  -1.3018   0.0000   0.0000   0.0000   0.3222
   4.200   0.7206   0.00811   0.00227  -0.0539  0.2411  1.0000  -1.3855   0.0000   0.0000   0.0000   0.3209
   4.300   0.7310   0.00828   0.00235  -0.0538  0.2250  1.0000  -1.4885   0.0000   0.0000   0.0000   0.3197
   4.400   0.7413   0.00846   0.00244  -0.0538  0.2085  1.0000  -1.5928   0.0000   0.0000   0.0000   0.3185
   4.500   0.7513   0.00869   0.00256  -0.0537  0.1876  1.0000  -1.6964   0.0000   0.0000   0.0000   0.3174
   4.600   0.7613   0.00892   0.00268  -0.0536  0.1672  1.0000  -1.8012   0.0000   0.0000   0.0000   0.3162
   4.700   0.7710   0.00920   0.00282  -0.0535  0.1418  1.0000  -1.9037   0.0000   0.0000   0.0000   0.3151
   4.800   0.7801   0.00958   0.00301  -0.0534  0.1104  1.0000  -2.0012   0.0000   0.0000   0.0000   0.3140
   4.900   0.7893   0.00996   0.00321  -0.0532  0.0799  1.0000  -2.0950   0.0000   0.0000   0.0000   0.3129
   5.000   0.8062   0.00905   0.00308  -0.0537  0.1731  1.0000  -2.3224   0.0000   0.0000   0.0000   0.3120
   5.100   0.8170   0.00916   0.00318  -0.0537  0.1683  1.0000  -2.4545   0.0000   0.0000   0.0000   0.3110
   5.200   0.8271   0.00935   0.00331  -0.0536  0.1532  1.0000  -2.5785   0.0000   0.0000   0.0000   0.3101
   5.300   0.8368   0.00963   0.00347  -0.0535  0.1331  1.0000  -2.6976   0.0000   0.0000   0.0000   0.3091
   5.400   0.8463   0.00993   0.00364  -0.0534  0.1110  1.0000  -2.8110   0.0000   0.0000   0.0000   0.3081
   5.500   0.8536   0.01061   0.00399  -0.0530  0.0605  1.0000  -2.8925   0.0000   0.0000   0.0000   0.3071
   5.600   0.8600   0.01149   0.00455  -0.0525  0.0109  1.0000  -2.9403   0.0000   0.0000   0.0000   0.3059
   5.700   0.8704   0.01168   0.00475  -0.0523  0.0074  1.0000  -3.0096   0.0000   0.0000   0.0000   0.3049
   5.800   0.8810   0.01183   0.00494  -0.0522  0.0070  1.0000  -3.0994   0.0000   0.0000   0.0000   0.3039
   5.900   0.8915   0.01199   0.00514  -0.0520  0.0068  1.0000  -3.1926   0.0000   0.0000   0.0000   0.3030
   6.000   0.9019   0.01217   0.00537  -0.0519  0.0067  1.0000  -3.2868   0.0000   0.0000   0.0000   0.3020
   6.100   0.9123   0.01237   0.00561  -0.0517  0.0066  1.0000  -3.3809   0.0000   0.0000   0.0000   0.3011
   6.200   0.9225   0.01258   0.00587  -0.0515  0.0066  1.0000  -3.4743   0.0000   0.0000   0.0000   0.3002
   6.300   0.9326   0.01282   0.00617  -0.0513  0.0066  1.0000  -3.5662   0.0000   0.0000   0.0000   0.2992
   6.400   0.9425   0.01309   0.00649  -0.0511  0.0066  1.0000  -3.6562   0.0000   0.0000   0.0000   0.2983
   6.500   0.9522   0.01338   0.00685  -0.0509  0.0067  1.0000  -3.7437   0.0000   0.0000   0.0000   0.2974
   6.600   0.9618   0.01371   0.00724  -0.0506  0.0067  1.0000  -3.8280   0.0000   0.0000   0.0000   0.2964
   6.700   0.9710   0.01409   0.00768  -0.0502  0.0068  1.0000  -3.9082   0.0000   0.0000   0.0000   0.2955
   6.800   0.9800   0.01450   0.00817  -0.0498  0.0069  1.0000  -3.9841   0.0000   0.0000   0.0000   0.2945
   6.900   0.9886   0.01497   0.00870  -0.0494  0.0070  1.0000  -4.0548   0.0000   0.0000   0.0000   0.2935
   7.000   0.9969   0.01549   0.00930  -0.0489  0.0071  1.0000  -4.1194   0.0000   0.0000   0.0000   0.2925
   7.100   1.0046   0.01609   0.00998  -0.0484  0.0072  1.0000  -4.1767   0.0000   0.0000   0.0000   0.2915
   7.200   1.0118   0.01679   0.01075  -0.0477  0.0073  1.0000  -4.2237   0.0000   0.0000   0.0000   0.2904
   7.300   1.0181   0.01766   0.01170  -0.0470  0.0074  1.0000  -4.2532   0.0000   0.0000   0.0000   0.2892
   7.400   1.0206   0.01942   0.01358  -0.0456  0.0078  1.0000  -4.1823   0.0000   0.0000   0.0000   0.2877
   7.500   1.0315   0.01940   0.01360  -0.0455  0.0080  1.0000  -4.3009   0.0000   0.0000   0.0000   0.2870
   7.600   1.0420   0.01948   0.01369  -0.0454  0.0083  1.0000  -4.4240   0.0000   0.0000   0.0000   0.2863
   7.700   1.0523   0.01962   0.01384  -0.0452  0.0086  1.0000  -4.5416   0.0000   0.0000   0.0000   0.2856
   7.800   1.0622   0.01984   0.01410  -0.0450  0.0090  1.0000  -4.6431   0.0000   0.0000   0.0000   0.2848
   7.900   1.0677   0.02236   0.01691  -0.0431  0.0124  1.0000  -4.3886   0.0000   0.0000   0.0000   0.2827
   9.500   1.1631   0.04288   0.03924  -0.0325  0.0182  1.0000  -4.7456   0.0000   0.0000   0.0000   0.2686
   9.600   1.1668   0.04391   0.04031  -0.0320  0.0179  1.0000  -4.8129   0.0000   0.0000   0.0000   0.2680
   9.700   1.1705   0.04496   0.04140  -0.0315  0.0177  1.0000  -4.8814   0.0000   0.0000   0.0000   0.2674
   9.800   1.1723   0.04610   0.04261  -0.0309  0.0174  1.0000  -4.9348   0.0000   0.0000   0.0000   0.2667
   9.900   1.1735   0.04731   0.04388  -0.0304  0.0172  1.0000  -4.9842   0.0000   0.0000   0.0000   0.2661
  10.000   1.1740   0.04861   0.04524  -0.0297  0.0170  1.0000  -5.0271   0.0000   0.0000   0.0000   0.2654
  10.100   1.1733   0.05005   0.04674  -0.0291  0.0168  1.0000  -5.0600   0.0000   0.0000   0.0000   0.2648
  10.200   1.1710   0.05168   0.04844  -0.0284  0.0165  1.0000  -5.0773   0.0000   0.0000   0.0000   0.2642
  10.300   1.1662   0.05358   0.05042  -0.0277  0.0163  1.0000  -5.0708   0.0000   0.0000   0.0000   0.2635
  10.400   1.1580   0.05579   0.05272  -0.0268  0.0161  1.0000  -5.0328   0.0000   0.0000   0.0000   0.2629
  10.500   1.1467   0.05785   0.05488  -0.0256  0.0160  1.0000  -4.9766   0.0000   0.0000   0.0000   0.2619
  10.600   1.1344   0.05981   0.05692  -0.0244  0.0159  1.0000  -4.9170   0.0000   0.0000   0.0000   0.2610
  10.700   1.1222   0.06173   0.05893  -0.0236  0.0158  1.0000  -4.8590   0.0000   0.0000   0.0000   0.2604
  10.800   1.1104   0.06372   0.06100  -0.0232  0.0157  1.0000  -4.8026   0.0000   0.0000   0.0000   0.2601
  10.900   1.0993   0.06567   0.06303  -0.0231  0.0157  1.0000  -4.7530   0.0000   0.0000   0.0000   0.2602
  11.000   1.0889   0.06772   0.06514  -0.0234  0.0156  1.0000  -4.7064   0.0000   0.0000   0.0000   0.2605
  11.100   1.0792   0.06982   0.06731  -0.0241  0.0156  1.0000  -4.6638   0.0000   0.0000   0.0000   0.2612
  11.200   1.0704   0.07190   0.06945  -0.0249  0.0156  1.0000  -4.6278   0.0000   0.0000   0.0000   0.2620
  11.300   1.0625   0.07392   0.07153  -0.0259  0.0156  1.0000  -4.5993   0.0000   0.0000   0.0000   0.2629
  11.400   1.0550   0.07602   0.07368  -0.0270  0.0156  1.0000  -4.5731   0.0000   0.0000   0.0000   0.2641
  11.500   1.0481   0.07818   0.07590  -0.0283  0.0156  1.0000  -4.5487   0.0000   0.0000   0.0000   0.2653
  11.600   1.0418   0.08039   0.07815  -0.0298  0.0156  1.0000  -4.5273   0.0000   0.0000   0.0000   0.2668
  11.700   1.0359   0.08263   0.08044  -0.0314  0.0156  1.0000  -4.5082   0.0000   0.0000   0.0000   0.2683
  11.800   1.0304   0.08494   0.08279  -0.0331  0.0157  1.0000  -4.4892   0.0000   0.0000   0.0000   0.2700
  11.900   1.0251   0.08729   0.08519  -0.0348  0.0157  1.0000  -4.4711   0.0000   0.0000   0.0000   0.2717
  12.000   1.0203   0.08966   0.08759  -0.0366  0.0157  1.0000  -4.4554   0.0000   0.0000   0.0000   0.2735
  12.100   1.0155   0.09212   0.09009  -0.0385  0.0158  1.0000  -4.4368   0.0000   0.0000   0.0000   0.2754
  12.200   1.0110   0.09462   0.09263  -0.0405  0.0158  1.0000  -4.4186   0.0000   0.0000   0.0000   0.2774
  12.300   1.0066   0.09717   0.09522  -0.0425  0.0158  1.0000  -4.3989   0.0000   0.0000   0.0000   0.2794
  12.400   1.0020   0.09977   0.09786  -0.0445  0.0159  1.0000  -4.3754   0.0000   0.0000   0.0000   0.2815
  12.500   0.9975   0.10247   0.10060  -0.0466  0.0160  1.0000  -4.3495   0.0000   0.0000   0.0000   0.2837
  12.600   0.9927   0.10542   0.10358  -0.0489  0.0160  1.0000  -4.3137   0.0000   0.0000   0.0000   0.2862
  12.700   0.9874   0.10866   0.10686  -0.0514  0.0161  1.0000  -4.2655   0.0000   0.0000   0.0000   0.2889
  12.800   0.9812   0.11242   0.11066  -0.0543  0.0163  1.0000  -4.1949   0.0000   0.0000   0.0000   0.2921
  12.900   0.9728   0.11720   0.11550  -0.0579  0.0164  1.0000  -4.0762   0.0000   0.0000   0.0000   0.2963
  13.000   0.9611   0.12358   0.12192  -0.0623  0.0166  1.0000  -3.8799   0.0000   0.0000   0.0000   0.3016
  13.100   0.9506   0.12986   0.12823  -0.0660  0.0167  1.0000  -3.6817   0.0000   0.0000   0.0000   0.3064
  13.200   0.9437   0.13480   0.13317  -0.0686  0.0166  1.0000  -3.5428   0.0000   0.0000   0.0000   0.3097
  13.300   0.9389   0.13876   0.13713  -0.0705  0.0165  1.0000  -3.4472   0.0000   0.0000   0.0000   0.3122
  13.400   0.9350   0.14222   0.14059  -0.0722  0.0163  1.0000  -3.3739   0.0000   0.0000   0.0000   0.3143
  13.500   0.9305   0.14574   0.14410  -0.0740  0.0161  1.0000  -3.2938   0.0000   0.0000   0.0000   0.3165
  13.600   0.8986   0.15858   0.15687  -0.0799  0.0153  1.0000  -2.6769   0.0000   0.0000   0.0000   0.3264
  13.700   0.8983   0.16128   0.15957  -0.0812  0.0153  1.0000  -2.6320   0.0000   0.0000   0.0000   0.3278
  13.800   0.8983   0.16388   0.16217  -0.0824  0.0153  1.0000  -2.5911   0.0000   0.0000   0.0000   0.3291
  13.900   0.8985   0.16641   0.16470  -0.0836  0.0153  1.0000  -2.5533   0.0000   0.0000   0.0000   0.3303
  14.000   0.8989   0.16888   0.16716  -0.0848  0.0152  1.0000  -2.5183   0.0000   0.0000   0.0000   0.3315
  14.100   0.8995   0.17128   0.16956  -0.0859  0.0152  1.0000  -2.4858   0.0000   0.0000   0.0000   0.3327
  14.200   0.9002   0.17364   0.17191  -0.0871  0.0152  1.0000  -2.4554   0.0000   0.0000   0.0000   0.3338
  14.300   0.9010   0.17594   0.17422  -0.0882  0.0152  1.0000  -2.4269   0.0000   0.0000   0.0000   0.3348
  14.400   0.9020   0.17821   0.17648  -0.0892  0.0152  1.0000  -2.4003   0.0000   0.0000   0.0000   0.3358
  14.500   0.9032   0.18040   0.17867  -0.0903  0.0152  1.0000  -2.3755   0.0000   0.0000   0.0000   0.3368
  14.600   0.9045   0.18248   0.18074  -0.0914  0.0152  1.0000  -2.3527   0.0000   0.0000   0.0000   0.3378
  14.700   0.9060   0.18446   0.18272  -0.0924  0.0151  1.0000  -2.3316   0.0000   0.0000   0.0000   0.3387
  14.800   0.9076   0.18638   0.18464  -0.0935  0.0151  1.0000  -2.3124   0.0000   0.0000   0.0000   0.3395
  14.900   0.9094   0.18827   0.18653  -0.0945  0.0151  1.0000  -2.2950   0.0000   0.0000   0.0000   0.3404
  15.000   0.9113   0.19012   0.18838  -0.0955  0.0150  1.0000  -2.2799   0.0000   0.0000   0.0000   0.3412
  15.100   0.9134   0.19194   0.19019  -0.0965  0.0150  1.0000  -2.2675   0.0000   0.0000   0.0000   0.3419
  15.200   0.9159   0.19369   0.19195  -0.0975  0.0149  1.0000  -2.2592   0.0000   0.0000   0.0000   0.3427
  15.300   0.9187   0.19535   0.19361  -0.0985  0.0147  1.0000  -2.2565   0.0000   0.0000   0.0000   0.3433
  15.400   0.9220   0.19696   0.19522  -0.0995  0.0145  1.0000  -2.2568   0.0000   0.0000   0.0000   0.3438
  15.500   0.9250   0.19871   0.19697  -0.1004  0.0141  1.0000  -2.2483   0.0000   0.0000   0.0000   0.3444
  15.600   0.9273   0.20071   0.19897  -0.1016  0.0138  1.0000  -2.2239   0.0000   0.0000   0.0000   0.3453
  15.700   0.9293   0.20273   0.20099  -0.1027  0.0135  1.0000  -2.1994   0.0000   0.0000   0.0000   0.3461
  15.800   0.9311   0.20477   0.20302  -0.1038  0.0132  1.0000  -2.1751   0.0000   0.0000   0.0000   0.3470
  15.900   0.9329   0.20678   0.20503  -0.1048  0.0129  1.0000  -2.1538   0.0000   0.0000   0.0000   0.3478
  16.000   0.9347   0.20876   0.20701  -0.1058  0.0127  1.0000  -2.1357   0.0000   0.0000   0.0000   0.3486
  16.100   0.9366   0.21072   0.20897  -0.1068  0.0124  1.0000  -2.1202   0.0000   0.0000   0.0000   0.3494
  16.200   0.9385   0.21267   0.21092  -0.1078  0.0122  1.0000  -2.1070   0.0000   0.0000   0.0000   0.3501
  16.300   0.9405   0.21460   0.21284  -0.1088  0.0120  1.0000  -2.0956   0.0000   0.0000   0.0000   0.3507
  16.400   0.9425   0.21651   0.21476  -0.1097  0.0118  1.0000  -2.0859   0.0000   0.0000   0.0000   0.3514
  16.500   0.9445   0.21842   0.21667  -0.1107  0.0116  1.0000  -2.0777   0.0000   0.0000   0.0000   0.3520
  16.600   0.9465   0.22031   0.21856  -0.1116  0.0114  1.0000  -2.0709   0.0000   0.0000   0.0000   0.3526
  16.700   0.9486   0.22220   0.22045  -0.1125  0.0112  1.0000  -2.0652   0.0000   0.0000   0.0000   0.3532
  16.800   0.9507   0.22408   0.22233  -0.1134  0.0110  1.0000  -2.0608   0.0000   0.0000   0.0000   0.3537
  16.900   0.9528   0.22595   0.22420  -0.1143  0.0109  1.0000  -2.0574   0.0000   0.0000   0.0000   0.3543
  17.000   0.9549   0.22782   0.22607  -0.1151  0.0107  1.0000  -2.0552   0.0000   0.0000   0.0000   0.3548
  17.100   0.9571   0.22968   0.22793  -0.1160  0.0106  1.0000  -2.0541   0.0000   0.0000   0.0000   0.3553
  17.200   0.9593   0.23153   0.22979  -0.1169  0.0104  1.0000  -2.0540   0.0000   0.0000   0.0000   0.3558
  17.300   0.9614   0.23338   0.23164  -0.1177  0.0103  1.0000  -2.0549   0.0000   0.0000   0.0000   0.3563
  17.400   0.9636   0.23523   0.23348  -0.1186  0.0102  1.0000  -2.0568   0.0000   0.0000   0.0000   0.3567
  17.500   0.9658   0.23706   0.23532  -0.1194  0.0100  1.0000  -2.0597   0.0000   0.0000   0.0000   0.3572
  17.600   0.9681   0.23890   0.23715  -0.1202  0.0099  1.0000  -2.0636   0.0000   0.0000   0.0000   0.3576
  17.700   0.9703   0.24072   0.23898  -0.1211  0.0098  1.0000  -2.0684   0.0000   0.0000   0.0000   0.3580
  17.800   0.9726   0.24248   0.24074  -0.1219  0.0097  1.0000  -2.0799   0.0000   0.0000   0.0000   0.3584
  17.900   0.9749   0.24421   0.24247  -0.1226  0.0095  1.0000  -2.0941   0.0000   0.0000   0.0000   0.3587
  18.000   0.9772   0.24593   0.24419  -0.1234  0.0094  1.0000  -2.1102   0.0000   0.0000   0.0000   0.3591
  18.100   0.9796   0.24762   0.24589  -0.1241  0.0093  1.0000  -2.1284   0.0000   0.0000   0.0000   0.3594
  18.200   0.9820   0.24930   0.24757  -0.1249  0.0092  1.0000  -2.1488   0.0000   0.0000   0.0000   0.3596
  18.300   0.9843   0.25097   0.24924  -0.1256  0.0090  1.0000  -2.1715   0.0000   0.0000   0.0000   0.3599
  18.400   0.9867   0.25261   0.25088  -0.1262  0.0089  1.0000  -2.1965   0.0000   0.0000   0.0000   0.3601
  18.500   0.9892   0.25423   0.25250  -0.1269  0.0088  1.0000  -2.2246   0.0000   0.0000   0.0000   0.3603
  18.600   0.9917   0.25579   0.25408  -0.1275  0.0087  1.0000  -2.2583   0.0000   0.0000   0.0000   0.3604
  18.700   0.9942   0.25730   0.25559  -0.1280  0.0086  1.0000  -2.2991   0.0000   0.0000   0.0000   0.3604
  18.800   0.9967   0.25883   0.25712  -0.1286  0.0085  1.0000  -2.3419   0.0000   0.0000   0.0000   0.3604
  18.900   0.9985   0.26066   0.25896  -0.1292  0.0083  1.0000  -2.3659   0.0000   0.0000   0.0000   0.3607
  19.000   0.9919   0.26774   0.26601  -0.1307  0.0077  1.0000  -2.0744   0.0000   0.0000   0.0000   0.3631
  19.100   0.9939   0.26987   0.26813  -0.1315  0.0077  1.0000  -2.0634   0.0000   0.0000   0.0000   0.3635
  19.200   0.9959   0.27199   0.27025  -0.1324  0.0077  1.0000  -2.0527   0.0000   0.0000   0.0000   0.3640
  19.300   0.9979   0.27411   0.27238  -0.1333  0.0077  1.0000  -2.0421   0.0000   0.0000   0.0000   0.3645
  19.400   0.9999   0.27622   0.27449  -0.1341  0.0077  1.0000  -2.0319   0.0000   0.0000   0.0000   0.3649
  19.500   1.0019   0.27834   0.27661  -0.1350  0.0077  1.0000  -2.0221   0.0000   0.0000   0.0000   0.3654
  19.600   1.0038   0.28045   0.27873  -0.1359  0.0077  1.0000  -2.0128   0.0000   0.0000   0.0000   0.3658
  19.700   1.0058   0.28257   0.28084  -0.1367  0.0077  1.0000  -2.0040   0.0000   0.0000   0.0000   0.3663
  19.800   1.0077   0.28468   0.28296  -0.1375  0.0077  1.0000  -1.9956   0.0000   0.0000   0.0000   0.3667
  19.900   1.0096   0.28680   0.28508  -0.1384  0.0077  1.0000  -1.9876   0.0000   0.0000   0.0000   0.3671
  20.000   1.0115   0.28893   0.28721  -0.1392  0.0076  1.0000  -1.9799   0.0000   0.0000   0.0000   0.3675
  20.100   1.0134   0.29108   0.28936  -0.1400  0.0076  1.0000  -1.9724   0.0000   0.0000   0.0000   0.3679
  20.200   1.0152   0.29322   0.29151  -0.1408  0.0076  1.0000  -1.9651   0.0000   0.0000   0.0000   0.3683
  20.300   1.0171   0.29537   0.29366  -0.1416  0.0076  1.0000  -1.9579   0.0000   0.0000   0.0000   0.3687
  20.400   1.0189   0.29751   0.29583  -0.1424  0.0076  1.0000  -1.9522   0.0000   0.0000   0.0000   0.3691
  20.500   1.0207   0.29966   0.29799  -0.1432  0.0076  1.0000  -1.9457   0.0000   0.0000   0.0000   0.3695
  20.600   1.0224   0.30182   0.30014  -0.1440  0.0076  1.0000  -1.9392   0.0000   0.0000   0.0000   0.3698
  20.700   1.0242   0.30397   0.30230  -0.1448  0.0076  1.0000  -1.9330   0.0000   0.0000   0.0000   0.3702
  20.800   1.0259   0.30612   0.30445  -0.1456  0.0076  1.0000  -1.9271   0.0000   0.0000   0.0000   0.3706
  20.900   1.0276   0.30826   0.30660  -0.1464  0.0075  1.0000  -1.9215   0.0000   0.0000   0.0000   0.3710
  21.000   1.0292   0.31041   0.30874  -0.1472  0.0075  1.0000  -1.9159   0.0000   0.0000   0.0000   0.3714
  21.100   1.0309   0.31253   0.31087  -0.1480  0.0075  1.0000  -1.9110   0.0000   0.0000   0.0000   0.3717
  21.200   1.0327   0.31463   0.31297  -0.1488  0.0074  1.0000  -1.9089   0.0000   0.0000   0.0000   0.3721
  21.300   1.0345   0.31669   0.31503  -0.1496  0.0074  1.0000  -1.9161   0.0000   0.0000   0.0000   0.3725
  21.400   1.0365   0.31873   0.31708  -0.1506  0.0072  1.0000  -1.9128   0.0000   0.0000   0.0000   0.3731
  21.500   1.0402   0.32082   0.31917  -0.1518  0.0064  1.0000  -1.8876   0.0000   0.0000   0.0000   0.3736
  21.600   1.0423   0.32304   0.32139  -0.1526  0.0056  1.0000  -1.8894   0.0000   0.0000   0.0000   0.3739
  21.700   1.0438   0.32511   0.32346  -0.1533  0.0050  1.0000  -1.9084   0.0000   0.0000   0.0000   0.3742
  21.800   1.0452   0.32707   0.32543  -0.1540  0.0046  1.0000  -1.9350   0.0000   0.0000   0.0000   0.3745
  21.900   1.0465   0.32897   0.32733  -0.1547  0.0043  1.0000  -1.9675   0.0000   0.0000   0.0000   0.3748
  22.000   1.0478   0.33080   0.32917  -0.1553  0.0040  1.0000  -2.0048   0.0000   0.0000   0.0000   0.3750
  22.100   1.0491   0.33258   0.33095  -0.1560  0.0038  1.0000  -2.0466   0.0000   0.0000   0.0000   0.3753
  22.200   1.0503   0.33431   0.33269  -0.1566  0.0037  1.0000  -2.0923   0.0000   0.0000   0.0000   0.3755
  22.300   1.0515   0.33600   0.33438  -0.1572  0.0035  1.0000  -2.1415   0.0000   0.0000   0.0000   0.3756
  22.400   1.0526   0.33766   0.33604  -0.1577  0.0034  1.0000  -2.1941   0.0000   0.0000   0.0000   0.3758
  22.500   1.0537   0.33928   0.33768  -0.1583  0.0033  1.0000  -2.2500   0.0000   0.0000   0.0000   0.3760
  22.600   1.0546   0.34088   0.33927  -0.1588  0.0032  1.0000  -2.3093   0.0000   0.0000   0.0000   0.3761
  22.700   1.0554   0.34248   0.34089  -0.1592  0.0031  1.0000  -2.3695   0.0000   0.0000   0.0000   0.3762
  27.100   0.8402   0.34689   0.34563  -0.1461  0.0025  1.0000  -1.1196   0.0000   0.0000   0.0000   0.3961
  27.200   0.8395   0.34735   0.34609  -0.1463  0.0025  1.0000  -1.1116   0.0000   0.0000   0.0000   0.3964
  27.300   0.8388   0.34780   0.34655  -0.1466  0.0025  1.0000  -1.1037   0.0000   0.0000   0.0000   0.3967
  27.400   0.8381   0.34827   0.34702  -0.1468  0.0025  1.0000  -1.0960   0.0000   0.0000   0.0000   0.3970
  27.500   0.8374   0.34873   0.34749  -0.1471  0.0025  1.0000  -1.0884   0.0000   0.0000   0.0000   0.3973
  27.600   0.8368   0.34920   0.34797  -0.1473  0.0025  1.0000  -1.0810   0.0000   0.0000   0.0000   0.3976
  27.700   0.8362   0.34968   0.34845  -0.1476  0.0025  1.0000  -1.0737   0.0000   0.0000   0.0000   0.3979
  27.800   0.8356   0.35016   0.34893  -0.1479  0.0025  1.0000  -1.0665   0.0000   0.0000   0.0000   0.3981
  27.900   0.8350   0.35064   0.34942  -0.1482  0.0025  1.0000  -1.0595   0.0000   0.0000   0.0000   0.3984
  28.000   0.8345   0.35113   0.34991  -0.1484  0.0025  1.0000  -1.0525   0.0000   0.0000   0.0000   0.3987
  28.100   0.8339   0.35162   0.35040  -0.1487  0.0025  1.0000  -1.0457   0.0000   0.0000   0.0000   0.3990
  28.200   0.8334   0.35212   0.35090  -0.1490  0.0025  1.0000  -1.0387   0.0000   0.0000   0.0000   0.3993
  28.300   0.8329   0.35262   0.35141  -0.1493  0.0025  1.0000  -1.0316   0.0000   0.0000   0.0000   0.3995
  28.400   0.8324   0.35312   0.35192  -0.1496  0.0025  1.0000  -1.0247   0.0000   0.0000   0.0000   0.3998
  28.500   0.8320   0.35363   0.35243  -0.1499  0.0025  1.0000  -1.0179   0.0000   0.0000   0.0000   0.4001
  28.600   0.8315   0.35414   0.35295  -0.1502  0.0025  1.0000  -1.0112   0.0000   0.0000   0.0000   0.4004
  28.700   0.8311   0.35466   0.35346  -0.1505  0.0025  1.0000  -1.0047   0.0000   0.0000   0.0000   0.4007
  28.800   0.8307   0.35517   0.35398  -0.1508  0.0025  1.0000  -0.9982   0.0000   0.0000   0.0000   0.4009


