xflr5 v6.61

 Calculated polar for: S7012 8.75%

 1 1 Reynolds number fixed          Mach number fixed         

 xtrf =   1.000 (top)        1.000 (bottom)
 Mach =   0.000     Re =     0.625 e 6     Ncrit =   9.000

  alpha     CL        CD       CDp       Cm    Top Xtr Bot Xtr   Cpmin    Chinge    XCp    
 ------- -------- --------- --------- -------- ------- ------- -------- --------- ---------
 -10.000  -0.4775   0.11265   0.11051  -0.0047  1.0000  0.0120  -1.8667   0.0000   0.0000   0.0000   0.2346
  -9.900  -0.4759   0.11112   0.10899  -0.0054  1.0000  0.0120  -1.8787   0.0000   0.0000   0.0000   0.2332
  -9.800  -0.4741   0.10956   0.10744  -0.0061  1.0000  0.0120  -1.8909   0.0000   0.0000   0.0000   0.2318
  -9.700  -0.4724   0.10800   0.10588  -0.0068  1.0000  0.0121  -1.9036   0.0000   0.0000   0.0000   0.2303
  -9.600  -0.4707   0.10642   0.10431  -0.0075  1.0000  0.0121  -1.9167   0.0000   0.0000   0.0000   0.2287
  -9.500  -0.4691   0.10485   0.10274  -0.0083  1.0000  0.0121  -1.9302   0.0000   0.0000   0.0000   0.2272
  -9.400  -0.4675   0.10327   0.10117  -0.0090  1.0000  0.0121  -1.9442   0.0000   0.0000   0.0000   0.2256
  -9.300  -0.4659   0.10169   0.09959  -0.0097  1.0000  0.0121  -1.9588   0.0000   0.0000   0.0000   0.2240
  -9.200  -0.4644   0.10010   0.09801  -0.0105  1.0000  0.0121  -1.9738   0.0000   0.0000   0.0000   0.2223
  -9.100  -0.4630   0.09851   0.09642  -0.0113  1.0000  0.0121  -1.9895   0.0000   0.0000   0.0000   0.2207
  -9.000  -0.4617   0.09692   0.09484  -0.0120  1.0000  0.0121  -2.0057   0.0000   0.0000   0.0000   0.2190
  -8.700  -0.4751   0.08802   0.08601  -0.0161  1.0000  0.0126  -2.3584   0.0000   0.0000   0.0000   0.2113
  -8.600  -0.4774   0.08582   0.08382  -0.0171  1.0000  0.0127  -2.4124   0.0000   0.0000   0.0000   0.2093
  -8.500  -0.4786   0.08392   0.08193  -0.0181  1.0000  0.0128  -2.4440   0.0000   0.0000   0.0000   0.2075
  -8.400  -0.4792   0.08214   0.08016  -0.0191  1.0000  0.0129  -2.4663   0.0000   0.0000   0.0000   0.2056
  -8.300  -0.4796   0.08041   0.07844  -0.0201  1.0000  0.0130  -2.4841   0.0000   0.0000   0.0000   0.2036
  -8.200  -0.4800   0.07871   0.07675  -0.0211  1.0000  0.0131  -2.5003   0.0000   0.0000   0.0000   0.2016
  -8.100  -0.4805   0.07702   0.07507  -0.0221  1.0000  0.0132  -2.5171   0.0000   0.0000   0.0000   0.1996
  -8.000  -0.4812   0.07531   0.07337  -0.0232  1.0000  0.0133  -2.5360   0.0000   0.0000   0.0000   0.1974
  -7.900  -0.4823   0.07356   0.07164  -0.0244  1.0000  0.0134  -2.5590   0.0000   0.0000   0.0000   0.1951
  -7.800  -0.4838   0.07175   0.06984  -0.0259  1.0000  0.0134  -2.5874   0.0000   0.0000   0.0000   0.1924
  -7.700  -0.4841   0.06963   0.06773  -0.0282  1.0000  0.0134  -2.6195   0.0000   0.0000   0.0000   0.1877
  -7.600  -0.4832   0.06659   0.06470  -0.0326  1.0000  0.0134  -2.6860   0.0000   0.0000   0.0000   0.1786
  -7.500  -0.4819   0.06393   0.06202  -0.0357  1.0000  0.0135  -2.7329   0.0000   0.0000   0.0000   0.1721
  -7.400  -0.4804   0.06176   0.05982  -0.0376  1.0000  0.0136  -2.7561   0.0000   0.0000   0.0000   0.1679
  -7.300  -0.4786   0.05978   0.05782  -0.0391  1.0000  0.0136  -2.7690   0.0000   0.0000   0.0000   0.1645
  -7.200  -0.4767   0.05794   0.05596  -0.0403  1.0000  0.0138  -2.7742   0.0000   0.0000   0.0000   0.1617
  -7.100  -0.4746   0.05621   0.05420  -0.0413  1.0000  0.0139  -2.7734   0.0000   0.0000   0.0000   0.1592
  -7.000  -0.4722   0.05458   0.05253  -0.0422  1.0000  0.0140  -2.7679   0.0000   0.0000   0.0000   0.1571
  -6.900  -0.4697   0.05301   0.05093  -0.0428  1.0000  0.0141  -2.7590   0.0000   0.0000   0.0000   0.1553
  -6.800  -0.4669   0.05149   0.04937  -0.0433  1.0000  0.0143  -2.7475   0.0000   0.0000   0.0000   0.1536
  -6.700  -0.4638   0.05000   0.04785  -0.0438  1.0000  0.0145  -2.7342   0.0000   0.0000   0.0000   0.1521
  -6.600  -0.4605   0.04855   0.04636  -0.0441  1.0000  0.0147  -2.7196   0.0000   0.0000   0.0000   0.1507
  -6.500  -0.4569   0.04712   0.04488  -0.0444  1.0000  0.0149  -2.7045   0.0000   0.0000   0.0000   0.1494
  -6.400  -0.4532   0.04575   0.04346  -0.0446  1.0000  0.0151  -2.6873   0.0000   0.0000   0.0000   0.1483
  -6.300  -0.4494   0.04440   0.04206  -0.0446  1.0000  0.0154  -2.6703   0.0000   0.0000   0.0000   0.1474
  -6.200  -0.4454   0.04306   0.04067  -0.0446  1.0000  0.0157  -2.6546   0.0000   0.0000   0.0000   0.1465
  -6.100  -0.4413   0.04174   0.03929  -0.0445  1.0000  0.0160  -2.6399   0.0000   0.0000   0.0000   0.1459
  -6.000  -0.4372   0.04044   0.03793  -0.0443  1.0000  0.0164  -2.6264   0.0000   0.0000   0.0000   0.1454
  -5.900  -0.4329   0.03916   0.03659  -0.0441  1.0000  0.0168  -2.6143   0.0000   0.0000   0.0000   0.1450
  -5.800  -0.4284   0.03790   0.03526  -0.0437  1.0000  0.0173  -2.6039   0.0000   0.0000   0.0000   0.1447
  -5.700  -0.4238   0.03667   0.03395  -0.0433  1.0000  0.0178  -2.5947   0.0000   0.0000   0.0000   0.1445
  -5.600  -0.4103   0.03498   0.03214  -0.0447  0.9990  0.0187  -2.5780   0.0000   0.0000   0.0000   0.1378
  -5.500  -0.3954   0.03374   0.03074  -0.0458  0.9980  0.0200  -2.5548   0.0000   0.0000   0.0000   0.1307
  -5.400  -0.3786   0.03415   0.03109  -0.0461  0.9971  0.0215  -2.4673   0.0000   0.0000   0.0000   0.1248
  -5.300  -0.3622   0.03450   0.03132  -0.0468  0.9960  0.0221  -2.3803   0.0000   0.0000   0.0000   0.1175
  -5.200  -0.3481   0.03339   0.03007  -0.0480  0.9946  0.0222  -2.3456   0.0000   0.0000   0.0000   0.1087
  -5.100  -0.3386   0.02698   0.02317  -0.0509  0.9928  0.0233  -2.5625   0.0000   0.0000   0.0000   0.0959
  -5.000  -0.3276   0.02474   0.02084  -0.0521  0.9910  0.0244  -2.5282   0.0000   0.0000   0.0000   0.0872
  -4.900  -0.3147   0.02375   0.01981  -0.0530  0.9894  0.0251  -2.4440   0.0000   0.0000   0.0000   0.0777
  -4.800  -0.3012   0.02297   0.01899  -0.0540  0.9879  0.0259  -2.3526   0.0000   0.0000   0.0000   0.0670
  -4.700  -0.2870   0.02222   0.01820  -0.0549  0.9865  0.0268  -2.2665   0.0000   0.0000   0.0000   0.0548
  -4.600  -0.2724   0.02148   0.01739  -0.0559  0.9853  0.0279  -2.1875   0.0000   0.0000   0.0000   0.0408
  -4.500  -0.2581   0.02078   0.01661  -0.0567  0.9836  0.0293  -2.1179   0.0000   0.0000   0.0000   0.0264
  -4.400  -0.2446   0.02019   0.01594  -0.0572  0.9810  0.0309  -2.0554   0.0000   0.0000   0.0000   0.0122
  -4.300  -0.2299   0.01986   0.01553  -0.0577  0.9789  0.0327  -1.9867   0.0000   0.0000   0.0000  -0.0053
  -4.200  -0.2138   0.02061   0.01626  -0.0581  0.9771  0.0345  -1.8793   0.0000   0.0000   0.0000  -0.0263
  -4.100  -0.2009   0.01755   0.01287  -0.0594  0.9753  0.0378  -1.9099   0.0000   0.0000   0.0000  -0.0502
  -4.000  -0.1869   0.01668   0.01198  -0.0603  0.9738  0.0396  -1.8327   0.0000   0.0000   0.0000  -0.0773
  -3.900  -0.1738   0.01614   0.01145  -0.0608  0.9712  0.0412  -1.7548   0.0000   0.0000   0.0000  -0.1046
  -3.800  -0.1612   0.01570   0.01099  -0.0611  0.9675  0.0431  -1.6843   0.0000   0.0000   0.0000  -0.1338
  -3.600  -0.1306   0.01246   0.00721  -0.0603  0.9624  0.0246  -1.9062   0.0000   0.0000   0.0000  -0.2179
  -3.500  -0.1161   0.01094   0.00554  -0.0602  0.9599  0.0158  -2.0512   0.0000   0.0000   0.0000  -0.2747
  -3.400  -0.1026   0.01044   0.00495  -0.0603  0.9561  0.0137  -2.0454   0.0000   0.0000   0.0000  -0.3446
  -3.300  -0.0900   0.01033   0.00481  -0.0604  0.9507  0.0130  -1.9598   0.0000   0.0000   0.0000  -0.4288
  -3.200  -0.0764   0.01025   0.00473  -0.0608  0.9456  0.0125  -1.8605   0.0000   0.0000   0.0000  -0.5546
  -3.000  -0.0516   0.00950   0.00377  -0.0611  0.9335  0.0117  -1.7485   0.0000   0.0000   0.0000  -0.9462
  -2.900  -0.0396   0.00908   0.00327  -0.0612  0.9263  0.0114  -1.7088   0.0000   0.0000   0.0000  -1.3080
  -2.800  -0.0274   0.00878   0.00290  -0.0612  0.9197  0.0111  -1.6549   0.0000   0.0000   0.0000  -2.0062
  -2.700  -0.0164   0.00857   0.00262  -0.0611  0.9115  0.0109  -1.5973   0.0000   0.0000   0.0000  -3.5036
  -2.600  -0.0050   0.00839   0.00238  -0.0610  0.9032  0.0107  -1.5336   0.0000   0.0000   0.0000  -11.9327
  -2.500   0.0063   0.00826   0.00217  -0.0608  0.8953  0.0105  -1.4662   0.0000   0.0000   0.0000  10.0383
  -2.400   0.0172   0.00816   0.00201  -0.0606  0.8862  0.0105  -1.3972   0.0000   0.0000   0.0000   3.8088
  -2.300   0.0281   0.00808   0.00186  -0.0604  0.8768  0.0104  -1.3259   0.0000   0.0000   0.0000   2.4151
  -2.200   0.0390   0.00802   0.00173  -0.0602  0.8681  0.0104  -1.2530   0.0000   0.0000   0.0000   1.8035
  -2.100   0.0499   0.00797   0.00163  -0.0601  0.8585  0.0105  -1.1788   0.0000   0.0000   0.0000   1.4610
  -2.000   0.0607   0.00794   0.00153  -0.0598  0.8490  0.0106  -1.1035   0.0000   0.0000   0.0000   1.2419
  -1.900   0.0715   0.00792   0.00146  -0.0597  0.8408  0.0109  -1.0261   0.0000   0.0000   0.0000   1.0883
  -1.800   0.0825   0.00789   0.00140  -0.0595  0.8322  0.0114  -0.9465   0.0000   0.0000   0.0000   0.9752
  -1.700   0.0932   0.00787   0.00134  -0.0594  0.8230  0.0120  -0.8655   0.0000   0.0000   0.0000   0.8892
  -1.600   0.1037   0.00767   0.00123  -0.0593  0.8144  0.0553  -0.7895   0.0000   0.0000   0.0000   0.8233
  -1.500   0.1143   0.00732   0.00115  -0.0594  0.8066  0.1312  -0.7159   0.0000   0.0000   0.0000   0.7707
  -1.400   0.1249   0.00710   0.00110  -0.0594  0.7974  0.1876  -0.6475   0.0000   0.0000   0.0000   0.7266
  -1.300   0.1352   0.00690   0.00106  -0.0593  0.7879  0.2456  -0.5852   0.0000   0.0000   0.0000   0.6898
  -1.200   0.1457   0.00672   0.00104  -0.0593  0.7793  0.3015  -0.5266   0.0000   0.0000   0.0000   0.6578
  -1.100   0.1563   0.00652   0.00102  -0.0594  0.7704  0.3598  -0.4708   0.0000   0.0000   0.0000   0.6302
  -1.000   0.1668   0.00636   0.00100  -0.0593  0.7607  0.4152  -0.4242   0.0000   0.0000   0.0000   0.6059
  -0.800   0.1876   0.00603   0.00100  -0.0592  0.7437  0.5300  -0.4411   0.0000   0.0000   0.0000   0.5655
  -0.700   0.1981   0.00588   0.00103  -0.0591  0.7355  0.5873  -0.4497   0.0000   0.0000   0.0000   0.5482
  -0.600   0.2084   0.00582   0.00106  -0.0589  0.7266  0.6298  -0.4582   0.0000   0.0000   0.0000   0.5323
  -0.400   0.2273   0.00564   0.00120  -0.0580  0.7100  0.7437  -0.4762   0.0000   0.0000   0.0000   0.5045
  -0.300   0.2365   0.00559   0.00127  -0.0574  0.7018  0.7805  -0.4851   0.0000   0.0000   0.0000   0.4920
  -0.200   0.2472   0.00562   0.00128  -0.0572  0.6928  0.7870  -0.4948   0.0000   0.0000   0.0000   0.4807
  -0.100   0.2579   0.00568   0.00128  -0.0571  0.6835  0.7930  -0.5044   0.0000   0.0000   0.0000   0.4705
   0.000   0.2687   0.00570   0.00128  -0.0570  0.6761  0.7986  -0.5142   0.0000   0.0000   0.0000   0.4610
   0.100   0.2794   0.00570   0.00128  -0.0568  0.6690  0.8055  -0.5238   0.0000   0.0000   0.0000   0.4523
   0.200   0.2899   0.00571   0.00128  -0.0566  0.6608  0.8123  -0.5335   0.0000   0.0000   0.0000   0.4441
   0.300   0.3004   0.00575   0.00129  -0.0564  0.6520  0.8188  -0.5433   0.0000   0.0000   0.0000   0.4366
   0.400   0.3110   0.00580   0.00129  -0.0563  0.6428  0.8251  -0.5540   0.0000   0.0000   0.0000   0.4296
   0.500   0.3220   0.00581   0.00130  -0.0562  0.6371  0.8313  -0.5650   0.0000   0.0000   0.0000   0.4231
   0.600   0.3324   0.00580   0.00131  -0.0560  0.6306  0.8384  -0.5767   0.0000   0.0000   0.0000   0.4169
   0.700   0.3429   0.00582   0.00132  -0.0558  0.6236  0.8452  -0.5887   0.0000   0.0000   0.0000   0.4112
   0.800   0.3534   0.00586   0.00133  -0.0556  0.6162  0.8521  -0.6007   0.0000   0.0000   0.0000   0.4057
   0.900   0.3639   0.00591   0.00134  -0.0554  0.6077  0.8586  -0.6128   0.0000   0.0000   0.0000   0.4007
   1.000   0.3743   0.00591   0.00135  -0.0552  0.6020  0.8657  -0.6248   0.0000   0.0000   0.0000   0.3958
   1.100   0.3845   0.00590   0.00136  -0.0549  0.5960  0.8736  -0.6368   0.0000   0.0000   0.0000   0.3911
   1.200   0.3948   0.00592   0.00138  -0.0547  0.5888  0.8820  -0.6488   0.0000   0.0000   0.0000   0.3867
   1.300   0.4048   0.00595   0.00139  -0.0544  0.5811  0.8905  -0.6615   0.0000   0.0000   0.0000   0.3825
   1.400   0.4140   0.00598   0.00140  -0.0539  0.5728  0.9005  -0.6743   0.0000   0.0000   0.0000   0.3782
   1.500   0.4237   0.00600   0.00142  -0.0535  0.5661  0.9111  -0.6876   0.0000   0.0000   0.0000   0.3743
   1.600   0.4331   0.00598   0.00142  -0.0530  0.5614  0.9222  -0.7006   0.0000   0.0000   0.0000   0.3703
   1.700   0.4427   0.00598   0.00143  -0.0526  0.5558  0.9348  -0.7139   0.0000   0.0000   0.0000   0.3667
   1.800   0.4528   0.00597   0.00143  -0.0523  0.5499  0.9489  -0.7285   0.0000   0.0000   0.0000   0.3632
   1.900   0.4652   0.00599   0.00143  -0.0525  0.5436  0.9652  -0.7457   0.0000   0.0000   0.0000   0.3606
   2.000   0.4802   0.00603   0.00143  -0.0533  0.5358  0.9855  -0.7651   0.0000   0.0000   0.0000   0.3588
   2.100   0.4932   0.00608   0.00145  -0.0538  0.5288  1.0000  -0.7852   0.0000   0.0000   0.0000   0.3567
   2.200   0.5048   0.00611   0.00147  -0.0539  0.5246  1.0000  -0.8043   0.0000   0.0000   0.0000   0.3544
   2.300   0.5163   0.00614   0.00151  -0.0540  0.5195  1.0000  -0.8233   0.0000   0.0000   0.0000   0.3522
   2.400   0.5277   0.00618   0.00153  -0.0541  0.5140  1.0000  -0.8423   0.0000   0.0000   0.0000   0.3500
   2.500   0.5389   0.00624   0.00156  -0.0541  0.5080  1.0000  -0.8613   0.0000   0.0000   0.0000   0.3479
   2.600   0.5499   0.00631   0.00158  -0.0542  0.5012  1.0000  -0.8802   0.0000   0.0000   0.0000   0.3458
   2.700   0.5608   0.00640   0.00162  -0.0542  0.4920  1.0000  -0.8990   0.0000   0.0000   0.0000   0.3439
   2.800   0.5722   0.00643   0.00163  -0.0542  0.4849  1.0000  -0.9185   0.0000   0.0000   0.0000   0.3420
   2.900   0.5830   0.00651   0.00165  -0.0542  0.4712  1.0000  -0.9419   0.0000   0.0000   0.0000   0.3401
   3.000   0.5933   0.00664   0.00168  -0.0541  0.4532  1.0000  -0.9669   0.0000   0.0000   0.0000   0.3383
   3.100   0.6043   0.00672   0.00170  -0.0541  0.4377  1.0000  -0.9927   0.0000   0.0000   0.0000   0.3365
   3.200   0.6144   0.00688   0.00173  -0.0540  0.4160  1.0000  -1.0177   0.0000   0.0000   0.0000   0.3348
   3.300   0.6252   0.00698   0.00176  -0.0540  0.3979  1.0000  -1.0437   0.0000   0.0000   0.0000   0.3332
   3.400   0.6355   0.00714   0.00181  -0.0539  0.3782  1.0000  -1.0691   0.0000   0.0000   0.0000   0.3316
   3.500   0.6464   0.00722   0.00185  -0.0539  0.3663  1.0000  -1.0955   0.0000   0.0000   0.0000   0.3301
   3.600   0.6572   0.00732   0.00189  -0.0539  0.3556  1.0000  -1.1218   0.0000   0.0000   0.0000   0.3286
   3.700   0.6679   0.00743   0.00195  -0.0539  0.3443  1.0000  -1.1502   0.0000   0.0000   0.0000   0.3272
   3.800   0.6788   0.00751   0.00200  -0.0539  0.3344  1.0000  -1.1884   0.0000   0.0000   0.0000   0.3258
   3.900   0.6893   0.00767   0.00206  -0.0538  0.3179  1.0000  -1.2259   0.0000   0.0000   0.0000   0.3245
   4.000   0.6998   0.00780   0.00213  -0.0538  0.3024  1.0000  -1.2638   0.0000   0.0000   0.0000   0.3232
   4.100   0.7100   0.00799   0.00221  -0.0537  0.2820  1.0000  -1.3012   0.0000   0.0000   0.0000   0.3219
   4.200   0.7205   0.00814   0.00229  -0.0537  0.2658  1.0000  -1.3809   0.0000   0.0000   0.0000   0.3206
   4.300   0.7306   0.00835   0.00238  -0.0536  0.2465  1.0000  -1.4825   0.0000   0.0000   0.0000   0.3194
   4.400   0.7412   0.00848   0.00246  -0.0536  0.2325  1.0000  -1.5881   0.0000   0.0000   0.0000   0.3183
   4.500   0.7512   0.00870   0.00257  -0.0535  0.2134  1.0000  -1.6923   0.0000   0.0000   0.0000   0.3171
   4.600   0.7613   0.00891   0.00268  -0.0534  0.1944  1.0000  -1.7980   0.0000   0.0000   0.0000   0.3160
   4.700   0.7712   0.00915   0.00280  -0.0534  0.1720  1.0000  -1.9027   0.0000   0.0000   0.0000   0.3149
   4.800   0.7808   0.00945   0.00295  -0.0532  0.1455  1.0000  -2.0047   0.0000   0.0000   0.0000   0.3138
   4.900   0.7898   0.00985   0.00315  -0.0530  0.1132  1.0000  -2.1007   0.0000   0.0000   0.0000   0.3127
   5.000   0.8057   0.00912   0.00312  -0.0535  0.1930  1.0000  -2.3156   0.0000   0.0000   0.0000   0.3118
   5.100   0.8166   0.00921   0.00322  -0.0534  0.1892  1.0000  -2.4484   0.0000   0.0000   0.0000   0.3108
   5.200   0.8269   0.00937   0.00334  -0.0534  0.1761  1.0000  -2.5742   0.0000   0.0000   0.0000   0.3098
   5.300   0.8367   0.00963   0.00349  -0.0533  0.1568  1.0000  -2.6947   0.0000   0.0000   0.0000   0.3088
   5.400   0.8463   0.00992   0.00365  -0.0532  0.1359  1.0000  -2.8119   0.0000   0.0000   0.0000   0.3079
   5.500   0.8554   0.01028   0.00385  -0.0530  0.1081  1.0000  -2.9173   0.0000   0.0000   0.0000   0.3069
   5.600   0.8613   0.01119   0.00433  -0.0525  0.0430  1.0000  -2.9794   0.0000   0.0000   0.0000   0.3058
   5.700   0.8688   0.01188   0.00481  -0.0520  0.0104  1.0000  -3.0330   0.0000   0.0000   0.0000   0.3047
   5.800   0.8793   0.01208   0.00503  -0.0519  0.0076  1.0000  -3.0917   0.0000   0.0000   0.0000   0.3037
   5.900   0.8898   0.01225   0.00524  -0.0517  0.0073  1.0000  -3.1805   0.0000   0.0000   0.0000   0.3027
   6.000   0.9002   0.01243   0.00548  -0.0516  0.0071  1.0000  -3.2721   0.0000   0.0000   0.0000   0.3018
   6.100   0.9105   0.01263   0.00573  -0.0514  0.0070  1.0000  -3.3646   0.0000   0.0000   0.0000   0.3008
   6.200   0.9207   0.01285   0.00600  -0.0512  0.0070  1.0000  -3.4566   0.0000   0.0000   0.0000   0.2999
   6.300   0.9307   0.01309   0.00630  -0.0510  0.0069  1.0000  -3.5476   0.0000   0.0000   0.0000   0.2990
   6.400   0.9406   0.01337   0.00664  -0.0508  0.0069  1.0000  -3.6367   0.0000   0.0000   0.0000   0.2980
   6.500   0.9503   0.01367   0.00701  -0.0505  0.0069  1.0000  -3.7232   0.0000   0.0000   0.0000   0.2971
   6.600   0.9597   0.01401   0.00741  -0.0502  0.0070  1.0000  -3.8065   0.0000   0.0000   0.0000   0.2961
   6.700   0.9689   0.01439   0.00785  -0.0498  0.0070  1.0000  -3.8862   0.0000   0.0000   0.0000   0.2952
   6.800   0.9778   0.01482   0.00835  -0.0495  0.0071  1.0000  -3.9615   0.0000   0.0000   0.0000   0.2942
   6.900   0.9863   0.01530   0.00890  -0.0490  0.0071  1.0000  -4.0318   0.0000   0.0000   0.0000   0.2932
   7.000   0.9945   0.01583   0.00951  -0.0485  0.0072  1.0000  -4.0963   0.0000   0.0000   0.0000   0.2922
   7.100   1.0021   0.01645   0.01020  -0.0480  0.0073  1.0000  -4.1532   0.0000   0.0000   0.0000   0.2912
   7.200   1.0091   0.01716   0.01099  -0.0473  0.0074  1.0000  -4.1998   0.0000   0.0000   0.0000   0.2901
   7.300   1.0153   0.01806   0.01197  -0.0465  0.0075  1.0000  -4.2276   0.0000   0.0000   0.0000   0.2889
   7.400   1.0192   0.01949   0.01351  -0.0454  0.0078  1.0000  -4.1972   0.0000   0.0000   0.0000   0.2876
   7.500   1.0294   0.01964   0.01371  -0.0453  0.0080  1.0000  -4.3002   0.0000   0.0000   0.0000   0.2868
   7.600   1.0394   0.01981   0.01388  -0.0451  0.0082  1.0000  -4.4158   0.0000   0.0000   0.0000   0.2861
   7.700   1.0494   0.02000   0.01409  -0.0449  0.0084  1.0000  -4.5295   0.0000   0.0000   0.0000   0.2854
   7.800   1.0592   0.02023   0.01436  -0.0446  0.0087  1.0000  -4.6366   0.0000   0.0000   0.0000   0.2846
   7.900   1.0686   0.02059   0.01476  -0.0442  0.0092  1.0000  -4.7224   0.0000   0.0000   0.0000   0.2838
   8.000   1.0747   0.02261   0.01703  -0.0427  0.0115  1.0000  -4.5449   0.0000   0.0000   0.0000   0.2820
   9.500   1.1547   0.04473   0.04117  -0.0314  0.0195  1.0000  -4.5664   0.0000   0.0000   0.0000   0.2679
   9.600   1.1568   0.04584   0.04235  -0.0307  0.0192  1.0000  -4.6130   0.0000   0.0000   0.0000   0.2672
   9.700   1.1585   0.04694   0.04353  -0.0301  0.0189  1.0000  -4.6588   0.0000   0.0000   0.0000   0.2665
   9.800   1.1596   0.04806   0.04472  -0.0295  0.0186  1.0000  -4.7035   0.0000   0.0000   0.0000   0.2658
   9.900   1.1603   0.04918   0.04591  -0.0288  0.0184  1.0000  -4.7467   0.0000   0.0000   0.0000   0.2651
  10.000   1.1604   0.05030   0.04709  -0.0282  0.0182  1.0000  -4.7882   0.0000   0.0000   0.0000   0.2645
  10.100   1.1600   0.05144   0.04829  -0.0276  0.0180  1.0000  -4.8276   0.0000   0.0000   0.0000   0.2638
  10.200   1.1592   0.05257   0.04948  -0.0269  0.0179  1.0000  -4.8647   0.0000   0.0000   0.0000   0.2631
  10.300   1.1577   0.05371   0.05067  -0.0262  0.0177  1.0000  -4.8987   0.0000   0.0000   0.0000   0.2625
  10.400   1.1550   0.05478   0.05179  -0.0253  0.0176  1.0000  -4.9266   0.0000   0.0000   0.0000   0.2616
  10.500   1.1511   0.05587   0.05292  -0.0244  0.0175  1.0000  -4.9467   0.0000   0.0000   0.0000   0.2607
  10.600   1.1454   0.05701   0.05412  -0.0234  0.0174  1.0000  -4.9528   0.0000   0.0000   0.0000   0.2599
  10.700   1.1393   0.05822   0.05539  -0.0227  0.0173  1.0000  -4.9546   0.0000   0.0000   0.0000   0.2592
  10.800   1.1330   0.05954   0.05676  -0.0222  0.0173  1.0000  -4.9531   0.0000   0.0000   0.0000   0.2588
  10.900   1.1263   0.06095   0.05822  -0.0219  0.0172  1.0000  -4.9475   0.0000   0.0000   0.0000   0.2586
  11.000   1.1194   0.06246   0.05980  -0.0219  0.0172  1.0000  -4.9380   0.0000   0.0000   0.0000   0.2585
  11.100   1.1124   0.06411   0.06151  -0.0222  0.0171  1.0000  -4.9252   0.0000   0.0000   0.0000   0.2587
  11.200   1.1053   0.06590   0.06335  -0.0227  0.0171  1.0000  -4.9087   0.0000   0.0000   0.0000   0.2592
  11.300   1.0980   0.06783   0.06534  -0.0234  0.0171  1.0000  -4.8878   0.0000   0.0000   0.0000   0.2598
  11.400   1.0902   0.06986   0.06743  -0.0244  0.0171  1.0000  -4.8612   0.0000   0.0000   0.0000   0.2607
  11.500   1.0822   0.07205   0.06968  -0.0255  0.0171  1.0000  -4.8296   0.0000   0.0000   0.0000   0.2618
  11.600   1.0741   0.07443   0.07212  -0.0270  0.0171  1.0000  -4.7931   0.0000   0.0000   0.0000   0.2632
  11.700   1.0658   0.07701   0.07476  -0.0287  0.0171  1.0000  -4.7506   0.0000   0.0000   0.0000   0.2648
  11.800   1.0572   0.07981   0.07762  -0.0307  0.0171  1.0000  -4.7013   0.0000   0.0000   0.0000   0.2668
  11.900   1.0484   0.08283   0.08070  -0.0329  0.0172  1.0000  -4.6445   0.0000   0.0000   0.0000   0.2690
  12.000   1.0393   0.08610   0.08403  -0.0353  0.0172  1.0000  -4.5790   0.0000   0.0000   0.0000   0.2715
  12.100   1.0297   0.08965   0.08764  -0.0380  0.0173  1.0000  -4.5024   0.0000   0.0000   0.0000   0.2743
  12.200   1.0177   0.09396   0.09202  -0.0414  0.0174  1.0000  -4.3902   0.0000   0.0000   0.0000   0.2780
  12.300   0.9936   0.10182   0.10001  -0.0480  0.0178  1.0000  -4.1063   0.0000   0.0000   0.0000   0.2856
  12.400   0.9649   0.11261   0.11089  -0.0559  0.0183  1.0000  -3.7050   0.0000   0.0000   0.0000   0.2955
  12.500   0.9444   0.12302   0.12132  -0.0619  0.0185  1.0000  -3.3363   0.0000   0.0000   0.0000   0.3035
  12.600   0.9383   0.12742   0.12572  -0.0642  0.0184  1.0000  -3.2297   0.0000   0.0000   0.0000   0.3064
  12.700   0.9342   0.13093   0.12922  -0.0660  0.0183  1.0000  -3.1616   0.0000   0.0000   0.0000   0.3086
  12.800   0.9311   0.13404   0.13233  -0.0676  0.0182  1.0000  -3.1108   0.0000   0.0000   0.0000   0.3106
  12.900   0.9287   0.13690   0.13517  -0.0691  0.0181  1.0000  -3.0715   0.0000   0.0000   0.0000   0.3122
  13.000   0.9269   0.13955   0.13782  -0.0704  0.0179  1.0000  -3.0411   0.0000   0.0000   0.0000   0.3138
  13.100   0.9256   0.14203   0.14030  -0.0717  0.0178  1.0000  -3.0182   0.0000   0.0000   0.0000   0.3151
  13.200   0.9246   0.14437   0.14264  -0.0728  0.0176  1.0000  -3.0019   0.0000   0.0000   0.0000   0.3164
  13.300   0.9241   0.14659   0.14486  -0.0739  0.0175  1.0000  -2.9916   0.0000   0.0000   0.0000   0.3175
  13.400   0.9239   0.14869   0.14696  -0.0749  0.0173  1.0000  -2.9870   0.0000   0.0000   0.0000   0.3186
  13.500   0.9240   0.15069   0.14895  -0.0759  0.0172  1.0000  -2.9877   0.0000   0.0000   0.0000   0.3195
  13.600   0.9243   0.15258   0.15084  -0.0768  0.0170  1.0000  -2.9934   0.0000   0.0000   0.0000   0.3203
  13.700   0.9243   0.15463   0.15289  -0.0778  0.0169  1.0000  -2.9906   0.0000   0.0000   0.0000   0.3213
  13.800   0.9239   0.15681   0.15507  -0.0789  0.0167  1.0000  -2.9798   0.0000   0.0000   0.0000   0.3224
  13.900   0.9236   0.15897   0.15723  -0.0799  0.0166  1.0000  -2.9693   0.0000   0.0000   0.0000   0.3235
  14.000   0.9231   0.16118   0.15943  -0.0810  0.0164  1.0000  -2.9559   0.0000   0.0000   0.0000   0.3246
  14.100   0.9219   0.16355   0.16180  -0.0822  0.0162  1.0000  -2.9315   0.0000   0.0000   0.0000   0.3259
  14.400   0.9016   0.17765   0.17583  -0.0885  0.0153  1.0000  -2.4319   0.0000   0.0000   0.0000   0.3350
  14.500   0.9026   0.17989   0.17807  -0.0896  0.0153  1.0000  -2.4047   0.0000   0.0000   0.0000   0.3360
  14.600   0.9038   0.18201   0.18019  -0.0906  0.0152  1.0000  -2.3793   0.0000   0.0000   0.0000   0.3370
  14.700   0.9051   0.18405   0.18223  -0.0917  0.0152  1.0000  -2.3554   0.0000   0.0000   0.0000   0.3379
  14.800   0.9065   0.18604   0.18422  -0.0927  0.0152  1.0000  -2.3328   0.0000   0.0000   0.0000   0.3388
  14.900   0.9081   0.18801   0.18618  -0.0938  0.0152  1.0000  -2.3115   0.0000   0.0000   0.0000   0.3397
  15.000   0.9097   0.18996   0.18813  -0.0948  0.0152  1.0000  -2.2913   0.0000   0.0000   0.0000   0.3405
  15.100   0.9114   0.19191   0.19008  -0.0958  0.0152  1.0000  -2.2721   0.0000   0.0000   0.0000   0.3414
  15.200   0.9131   0.19385   0.19202  -0.0968  0.0152  1.0000  -2.2541   0.0000   0.0000   0.0000   0.3422
  15.300   0.9150   0.19578   0.19395  -0.0978  0.0151  1.0000  -2.2371   0.0000   0.0000   0.0000   0.3430
  15.400   0.9169   0.19771   0.19587  -0.0988  0.0151  1.0000  -2.2213   0.0000   0.0000   0.0000   0.3437
  15.500   0.9189   0.19962   0.19778  -0.0998  0.0151  1.0000  -2.2067   0.0000   0.0000   0.0000   0.3445
  15.600   0.9210   0.20151   0.19967  -0.1008  0.0151  1.0000  -2.1935   0.0000   0.0000   0.0000   0.3452
  15.700   0.9232   0.20337   0.20154  -0.1018  0.0150  1.0000  -2.1820   0.0000   0.0000   0.0000   0.3459
  15.800   0.9256   0.20519   0.20336  -0.1028  0.0149  1.0000  -2.1728   0.0000   0.0000   0.0000   0.3466
  15.900   0.9282   0.20696   0.20512  -0.1037  0.0148  1.0000  -2.1665   0.0000   0.0000   0.0000   0.3472
  16.000   0.9311   0.20864   0.20681  -0.1047  0.0146  1.0000  -2.1634   0.0000   0.0000   0.0000   0.3478
  16.100   0.9343   0.21032   0.20849  -0.1057  0.0144  1.0000  -2.1598   0.0000   0.0000   0.0000   0.3483
  16.200   0.9368   0.21228   0.21045  -0.1068  0.0141  1.0000  -2.1375   0.0000   0.0000   0.0000   0.3491
  16.300   0.9390   0.21433   0.21249  -0.1080  0.0137  1.0000  -2.1112   0.0000   0.0000   0.0000   0.3500
  16.400   0.9410   0.21639   0.21455  -0.1091  0.0134  1.0000  -2.0864   0.0000   0.0000   0.0000   0.3508
  16.500   0.9430   0.21842   0.21658  -0.1101  0.0132  1.0000  -2.0660   0.0000   0.0000   0.0000   0.3516
  16.600   0.9450   0.22042   0.21858  -0.1111  0.0129  1.0000  -2.0491   0.0000   0.0000   0.0000   0.3523
  16.700   0.9471   0.22241   0.22057  -0.1121  0.0126  1.0000  -2.0349   0.0000   0.0000   0.0000   0.3530
  16.800   0.9491   0.22437   0.22254  -0.1130  0.0124  1.0000  -2.0229   0.0000   0.0000   0.0000   0.3536
  16.900   0.9512   0.22633   0.22449  -0.1140  0.0122  1.0000  -2.0127   0.0000   0.0000   0.0000   0.3542
  17.000   0.9533   0.22827   0.22643  -0.1149  0.0120  1.0000  -2.0040   0.0000   0.0000   0.0000   0.3548
  17.100   0.9554   0.23021   0.22837  -0.1158  0.0118  1.0000  -1.9966   0.0000   0.0000   0.0000   0.3553
  17.200   0.9576   0.23213   0.23030  -0.1167  0.0116  1.0000  -1.9905   0.0000   0.0000   0.0000   0.3559
  17.300   0.9597   0.23406   0.23222  -0.1176  0.0114  1.0000  -1.9854   0.0000   0.0000   0.0000   0.3564
  17.400   0.9618   0.23597   0.23414  -0.1185  0.0112  1.0000  -1.9813   0.0000   0.0000   0.0000   0.3569
  17.500   0.9640   0.23788   0.23605  -0.1193  0.0111  1.0000  -1.9782   0.0000   0.0000   0.0000   0.3574
  17.600   0.9662   0.23979   0.23796  -0.1202  0.0109  1.0000  -1.9759   0.0000   0.0000   0.0000   0.3579
  17.700   0.9684   0.24170   0.23986  -0.1210  0.0108  1.0000  -1.9745   0.0000   0.0000   0.0000   0.3583
  17.800   0.9705   0.24360   0.24176  -0.1219  0.0106  1.0000  -1.9740   0.0000   0.0000   0.0000   0.3588
  17.900   0.9727   0.24549   0.24366  -0.1227  0.0105  1.0000  -1.9743   0.0000   0.0000   0.0000   0.3592
  18.000   0.9749   0.24739   0.24556  -0.1236  0.0103  1.0000  -1.9755   0.0000   0.0000   0.0000   0.3597
  18.100   0.9771   0.24927   0.24745  -0.1244  0.0102  1.0000  -1.9775   0.0000   0.0000   0.0000   0.3601
  18.200   0.9793   0.25116   0.24933  -0.1252  0.0101  1.0000  -1.9803   0.0000   0.0000   0.0000   0.3605
  18.300   0.9815   0.25304   0.25122  -0.1260  0.0100  1.0000  -1.9839   0.0000   0.0000   0.0000   0.3609
  18.400   0.9837   0.25492   0.25310  -0.1268  0.0098  1.0000  -1.9884   0.0000   0.0000   0.0000   0.3613
  18.500   0.9859   0.25680   0.25498  -0.1276  0.0097  1.0000  -1.9936   0.0000   0.0000   0.0000   0.3616
  18.600   0.9881   0.25867   0.25685  -0.1284  0.0096  1.0000  -1.9997   0.0000   0.0000   0.0000   0.3620
  18.700   0.9903   0.26054   0.25872  -0.1292  0.0095  1.0000  -2.0067   0.0000   0.0000   0.0000   0.3624
  18.800   0.9925   0.26234   0.26052  -0.1299  0.0094  1.0000  -2.0204   0.0000   0.0000   0.0000   0.3627
  18.900   0.9948   0.26406   0.26225  -0.1307  0.0093  1.0000  -2.0407   0.0000   0.0000   0.0000   0.3629
  19.000   0.9971   0.26572   0.26391  -0.1313  0.0091  1.0000  -2.0678   0.0000   0.0000   0.0000   0.3631
  19.100   0.9995   0.26728   0.26548  -0.1320  0.0090  1.0000  -2.1034   0.0000   0.0000   0.0000   0.3632
  19.200   1.0019   0.26875   0.26695  -0.1325  0.0088  1.0000  -2.1493   0.0000   0.0000   0.0000   0.3633
  19.300   1.0046   0.27009   0.26830  -0.1329  0.0086  1.0000  -2.2080   0.0000   0.0000   0.0000   0.3631
  19.400   1.0072   0.27137   0.26958  -0.1332  0.0084  1.0000  -2.2792   0.0000   0.0000   0.0000   0.3629
  19.500   1.0088   0.27324   0.27146  -0.1337  0.0082  1.0000  -2.3145   0.0000   0.0000   0.0000   0.3630
  19.600   1.0030   0.28018   0.27837  -0.1351  0.0077  1.0000  -2.0413   0.0000   0.0000   0.0000   0.3651
  19.700   1.0049   0.28233   0.28052  -0.1359  0.0077  1.0000  -2.0303   0.0000   0.0000   0.0000   0.3656
  19.800   1.0068   0.28446   0.28265  -0.1368  0.0077  1.0000  -2.0199   0.0000   0.0000   0.0000   0.3660
  19.900   1.0087   0.28659   0.28479  -0.1376  0.0077  1.0000  -2.0099   0.0000   0.0000   0.0000   0.3665
  20.000   1.0105   0.28873   0.28692  -0.1385  0.0077  1.0000  -2.0006   0.0000   0.0000   0.0000   0.3669
  20.100   1.0124   0.29087   0.28907  -0.1393  0.0077  1.0000  -1.9918   0.0000   0.0000   0.0000   0.3673
  20.200   1.0142   0.29302   0.29122  -0.1401  0.0077  1.0000  -1.9834   0.0000   0.0000   0.0000   0.3678
  20.300   1.0160   0.29518   0.29338  -0.1409  0.0077  1.0000  -1.9755   0.0000   0.0000   0.0000   0.3682
  20.900   1.0261   0.30821   0.30646  -0.1457  0.0076  1.0000  -1.9322   0.0000   0.0000   0.0000   0.3705
  21.000   1.0277   0.31039   0.30864  -0.1465  0.0076  1.0000  -1.9253   0.0000   0.0000   0.0000   0.3709
  21.100   1.0293   0.31256   0.31082  -0.1472  0.0076  1.0000  -1.9186   0.0000   0.0000   0.0000   0.3713
  21.200   1.0308   0.31473   0.31299  -0.1480  0.0076  1.0000  -1.9123   0.0000   0.0000   0.0000   0.3716
  21.300   1.0324   0.31690   0.31516  -0.1488  0.0075  1.0000  -1.9144   0.0000   0.0000   0.0000   0.3720
  21.400   1.0339   0.31904   0.31731  -0.1496  0.0075  1.0000  -1.9189   0.0000   0.0000   0.0000   0.3724
  21.500   1.0355   0.32115   0.31942  -0.1504  0.0075  1.0000  -1.9223   0.0000   0.0000   0.0000   0.3728
  21.600   1.0373   0.32321   0.32148  -0.1513  0.0074  1.0000  -1.9222   0.0000   0.0000   0.0000   0.3733
  21.700   1.0398   0.32524   0.32351  -0.1525  0.0071  1.0000  -1.9000   0.0000   0.0000   0.0000   0.3740
  21.800   1.0432   0.32754   0.32581  -0.1535  0.0058  1.0000  -1.8681   0.0000   0.0000   0.0000   0.3744
  21.900   1.0447   0.32966   0.32793  -0.1542  0.0051  1.0000  -1.8807   0.0000   0.0000   0.0000   0.3747
  22.000   1.0459   0.33166   0.32994  -0.1549  0.0047  1.0000  -1.9025   0.0000   0.0000   0.0000   0.3750
  22.100   1.0471   0.33360   0.33188  -0.1556  0.0043  1.0000  -1.9303   0.0000   0.0000   0.0000   0.3753
  22.200   1.0482   0.33548   0.33376  -0.1562  0.0041  1.0000  -1.9629   0.0000   0.0000   0.0000   0.3755
  22.300   1.0493   0.33730   0.33559  -0.1568  0.0039  1.0000  -1.9997   0.0000   0.0000   0.0000   0.3758
  22.400   1.0503   0.33908   0.33737  -0.1574  0.0037  1.0000  -2.0404   0.0000   0.0000   0.0000   0.3760
  22.500   1.0513   0.34081   0.33911  -0.1580  0.0035  1.0000  -2.0845   0.0000   0.0000   0.0000   0.3762
  22.600   1.0522   0.34251   0.34082  -0.1585  0.0034  1.0000  -2.1319   0.0000   0.0000   0.0000   0.3764
  22.700   1.0530   0.34418   0.34249  -0.1590  0.0033  1.0000  -2.1831   0.0000   0.0000   0.0000   0.3765
  22.800   1.0537   0.34581   0.34413  -0.1595  0.0032  1.0000  -2.2386   0.0000   0.0000   0.0000   0.3766
  22.900   1.0542   0.34741   0.34574  -0.1599  0.0031  1.0000  -2.2973   0.0000   0.0000   0.0000   0.3767
  23.000   1.0540   0.34926   0.34760  -0.1603  0.0030  1.0000  -2.3438   0.0000   0.0000   0.0000   0.3769
  27.700   0.8354   0.34939   0.34810  -0.1471  0.0026  1.0000  -1.0862   0.0000   0.0000   0.0000   0.3974
  27.800   0.8348   0.34987   0.34858  -0.1474  0.0026  1.0000  -1.0789   0.0000   0.0000   0.0000   0.3977
  27.900   0.8343   0.35035   0.34907  -0.1477  0.0025  1.0000  -1.0717   0.0000   0.0000   0.0000   0.3980
  28.000   0.8337   0.35084   0.34956  -0.1479  0.0025  1.0000  -1.0646   0.0000   0.0000   0.0000   0.3983
  28.100   0.8332   0.35133   0.35005  -0.1482  0.0025  1.0000  -1.0577   0.0000   0.0000   0.0000   0.3986
  28.200   0.8327   0.35182   0.35055  -0.1485  0.0025  1.0000  -1.0509   0.0000   0.0000   0.0000   0.3988
  28.300   0.8322   0.35232   0.35105  -0.1488  0.0025  1.0000  -1.0442   0.0000   0.0000   0.0000   0.3991
  28.400   0.8317   0.35282   0.35155  -0.1491  0.0025  1.0000  -1.0376   0.0000   0.0000   0.0000   0.3994
  28.500   0.8312   0.35332   0.35206  -0.1494  0.0025  1.0000  -1.0311   0.0000   0.0000   0.0000   0.3997
  28.600   0.8308   0.35383   0.35257  -0.1497  0.0025  1.0000  -1.0247   0.0000   0.0000   0.0000   0.4000
  28.700   0.8303   0.35434   0.35309  -0.1500  0.0025  1.0000  -1.0184   0.0000   0.0000   0.0000   0.4002
  28.800   0.8299   0.35485   0.35360  -0.1503  0.0025  1.0000  -1.0121   0.0000   0.0000   0.0000   0.4005
  28.900   0.8295   0.35537   0.35412  -0.1506  0.0025  1.0000  -1.0056   0.0000   0.0000   0.0000   0.4008
  29.000   0.8291   0.35589   0.35465  -0.1509  0.0025  1.0000  -0.9991   0.0000   0.0000   0.0000   0.4011
  29.100   0.8287   0.35641   0.35517  -0.1512  0.0025  1.0000  -0.9927   0.0000   0.0000   0.0000   0.4013
  29.200   0.8283   0.35694   0.35570  -0.1515  0.0025  1.0000  -0.9865   0.0000   0.0000   0.0000   0.4016
  29.300   0.8279   0.35746   0.35623  -0.1519  0.0025  1.0000  -0.9803   0.0000   0.0000   0.0000   0.4019
  29.400   0.8275   0.35799   0.35677  -0.1522  0.0025  1.0000  -0.9743   0.0000   0.0000   0.0000   0.4022


