xflr5 v6.61

 Calculated polar for: S7012 8.75%

 1 1 Reynolds number fixed          Mach number fixed         

 xtrf =   1.000 (top)        1.000 (bottom)
 Mach =   0.000     Re =     0.300 e 6     Ncrit =   9.000

  alpha     CL        CD       CDp       Cm    Top Xtr Bot Xtr   Cpmin    Chinge    XCp    
 ------- -------- --------- --------- -------- ------- ------- -------- --------- ---------
 -10.000  -0.4953   0.11220   0.10923  -0.0073  1.0000  0.0230  -1.9376   0.0000   0.0000   0.0000   0.2298
  -9.900  -0.4945   0.11040   0.10743  -0.0076  1.0000  0.0233  -1.9339   0.0000   0.0000   0.0000   0.2292
  -9.800  -0.4924   0.10895   0.10598  -0.0077  1.0000  0.0235  -1.9081   0.0000   0.0000   0.0000   0.2291
  -9.700  -0.4901   0.10758   0.10462  -0.0079  1.0000  0.0237  -1.8840   0.0000   0.0000   0.0000   0.2288
  -9.600  -0.4877   0.10626   0.10330  -0.0081  1.0000  0.0240  -1.8604   0.0000   0.0000   0.0000   0.2284
  -9.500  -0.4853   0.10497   0.10202  -0.0083  1.0000  0.0242  -1.8370   0.0000   0.0000   0.0000   0.2279
  -9.400  -0.4830   0.10368   0.10073  -0.0086  1.0000  0.0244  -1.8170   0.0000   0.0000   0.0000   0.2273
  -9.300  -0.4807   0.10239   0.09944  -0.0089  1.0000  0.0247  -1.7992   0.0000   0.0000   0.0000   0.2266
  -9.200  -0.4786   0.10108   0.09814  -0.0093  1.0000  0.0249  -1.7848   0.0000   0.0000   0.0000   0.2258
  -9.100  -0.4766   0.09976   0.09683  -0.0097  1.0000  0.0251  -1.7731   0.0000   0.0000   0.0000   0.2249
  -9.000  -0.4747   0.09842   0.09550  -0.0102  1.0000  0.0254  -1.7640   0.0000   0.0000   0.0000   0.2239
  -8.900  -0.4730   0.09707   0.09416  -0.0107  1.0000  0.0256  -1.7576   0.0000   0.0000   0.0000   0.2227
  -8.800  -0.4715   0.09571   0.09280  -0.0113  1.0000  0.0259  -1.7534   0.0000   0.0000   0.0000   0.2215
  -8.700  -0.4700   0.09432   0.09143  -0.0119  1.0000  0.0261  -1.7512   0.0000   0.0000   0.0000   0.2202
  -8.600  -0.4685   0.09291   0.09003  -0.0125  1.0000  0.0264  -1.7506   0.0000   0.0000   0.0000   0.2188
  -8.500  -0.4672   0.09148   0.08861  -0.0132  1.0000  0.0267  -1.7518   0.0000   0.0000   0.0000   0.2173
  -8.400  -0.4660   0.09004   0.08718  -0.0139  1.0000  0.0269  -1.7547   0.0000   0.0000   0.0000   0.2158
  -8.300  -0.4649   0.08858   0.08573  -0.0147  1.0000  0.0272  -1.7593   0.0000   0.0000   0.0000   0.2142
  -8.200  -0.4640   0.08712   0.08428  -0.0155  1.0000  0.0275  -1.7656   0.0000   0.0000   0.0000   0.2125
  -8.100  -0.4633   0.08563   0.08280  -0.0163  1.0000  0.0278  -1.7734   0.0000   0.0000   0.0000   0.2107
  -8.000  -0.4626   0.08412   0.08131  -0.0172  1.0000  0.0280  -1.7828   0.0000   0.0000   0.0000   0.2088
  -7.900  -0.4621   0.08259   0.07980  -0.0181  1.0000  0.0283  -1.7939   0.0000   0.0000   0.0000   0.2069
  -7.800  -0.4619   0.08105   0.07827  -0.0190  1.0000  0.0286  -1.8069   0.0000   0.0000   0.0000   0.2049
  -7.700  -0.4620   0.07949   0.07673  -0.0200  1.0000  0.0289  -1.8217   0.0000   0.0000   0.0000   0.2028
  -7.600  -0.4624   0.07791   0.07517  -0.0211  1.0000  0.0291  -1.8384   0.0000   0.0000   0.0000   0.2007
  -7.500  -0.4632   0.07631   0.07359  -0.0222  1.0000  0.0293  -1.8574   0.0000   0.0000   0.0000   0.1984
  -7.400  -0.4639   0.07460   0.07190  -0.0237  1.0000  0.0296  -1.8792   0.0000   0.0000   0.0000   0.1954
  -7.300  -0.4631   0.07258   0.06989  -0.0260  1.0000  0.0298  -1.9048   0.0000   0.0000   0.0000   0.1903
  -7.200  -0.4618   0.07032   0.06764  -0.0290  1.0000  0.0301  -1.9358   0.0000   0.0000   0.0000   0.1839
  -7.100  -0.4601   0.06796   0.06527  -0.0319  1.0000  0.0303  -1.9699   0.0000   0.0000   0.0000   0.1774
  -7.000  -0.4582   0.06569   0.06299  -0.0343  1.0000  0.0307  -2.0026   0.0000   0.0000   0.0000   0.1719
  -6.900  -0.4560   0.06346   0.06074  -0.0364  1.0000  0.0310  -2.0359   0.0000   0.0000   0.0000   0.1669
  -6.800  -0.4535   0.06131   0.05855  -0.0383  1.0000  0.0315  -2.0683   0.0000   0.0000   0.0000   0.1623
  -6.700  -0.4504   0.05920   0.05640  -0.0399  1.0000  0.0320  -2.1023   0.0000   0.0000   0.0000   0.1581
  -6.600  -0.4466   0.05717   0.05431  -0.0414  1.0000  0.0327  -2.1407   0.0000   0.0000   0.0000   0.1541
  -6.500  -0.4414   0.05538   0.05241  -0.0428  1.0000  0.0336  -2.1874   0.0000   0.0000   0.0000   0.1499
  -6.400  -0.4328   0.05483   0.05174  -0.0434  1.0000  0.0346  -2.1985   0.0000   0.0000   0.0000   0.1465
  -6.300  -0.4276   0.05394   0.05075  -0.0437  1.0000  0.0349  -2.2047   0.0000   0.0000   0.0000   0.1446
  -6.200  -0.4234   0.05281   0.04953  -0.0439  1.0000  0.0350  -2.2100   0.0000   0.0000   0.0000   0.1431
  -6.100  -0.4193   0.05161   0.04823  -0.0440  1.0000  0.0351  -2.2144   0.0000   0.0000   0.0000   0.1418
  -6.000  -0.4151   0.05037   0.04685  -0.0440  1.0000  0.0352  -2.2214   0.0000   0.0000   0.0000   0.1407
  -5.900  -0.4108   0.04914   0.04553  -0.0440  1.0000  0.0352  -2.2210   0.0000   0.0000   0.0000   0.1398
  -5.800  -0.4215   0.04189   0.03818  -0.0456  1.0000  0.0368  -2.3966   0.0000   0.0000   0.0000   0.1387
  -5.700  -0.4176   0.04028   0.03657  -0.0455  1.0000  0.0375  -2.3667   0.0000   0.0000   0.0000   0.1379
  -5.600  -0.4123   0.03923   0.03549  -0.0452  1.0000  0.0380  -2.3171   0.0000   0.0000   0.0000   0.1373
  -5.500  -0.4068   0.03832   0.03458  -0.0448  1.0000  0.0387  -2.2640   0.0000   0.0000   0.0000   0.1367
  -5.400  -0.4013   0.03745   0.03370  -0.0445  1.0000  0.0394  -2.2149   0.0000   0.0000   0.0000   0.1360
  -5.300  -0.3956   0.03660   0.03282  -0.0442  1.0000  0.0402  -2.1704   0.0000   0.0000   0.0000   0.1353
  -5.200  -0.3898   0.03573   0.03191  -0.0438  1.0000  0.0411  -2.1310   0.0000   0.0000   0.0000   0.1346
  -5.100  -0.3837   0.03486   0.03098  -0.0435  1.0000  0.0422  -2.0967   0.0000   0.0000   0.0000   0.1337
  -5.000  -0.3774   0.03399   0.03004  -0.0431  1.0000  0.0435  -2.0665   0.0000   0.0000   0.0000   0.1328
  -4.900  -0.3707   0.03316   0.02912  -0.0427  1.0000  0.0452  -2.0417   0.0000   0.0000   0.0000   0.1318
  -4.800  -0.3632   0.03260   0.02845  -0.0422  1.0000  0.0473  -2.0184   0.0000   0.0000   0.0000   0.1309
  -4.700  -0.3519   0.03474   0.03046  -0.0407  1.0000  0.0505  -1.9473   0.0000   0.0000   0.0000   0.1313
  -4.600  -0.3446   0.03505   0.03064  -0.0399  1.0000  0.0509  -1.9100   0.0000   0.0000   0.0000   0.1312
  -4.500  -0.3384   0.02851   0.02387  -0.0427  0.9991  0.0545  -1.9829   0.0000   0.0000   0.0000   0.1207
  -4.400  -0.3241   0.02741   0.02280  -0.0439  0.9978  0.0561  -1.9082   0.0000   0.0000   0.0000   0.1114
  -4.300  -0.3091   0.02651   0.02187  -0.0451  0.9963  0.0581  -1.8397   0.0000   0.0000   0.0000   0.1011
  -4.200  -0.2935   0.02569   0.02098  -0.0463  0.9947  0.0607  -1.7798   0.0000   0.0000   0.0000   0.0893
  -4.100  -0.2769   0.02504   0.02022  -0.0473  0.9933  0.0641  -1.7268   0.0000   0.0000   0.0000   0.0758
  -3.900  -0.2407   0.01985   0.01411  -0.0473  0.9908  0.0328  -2.0328   0.0000   0.0000   0.0000   0.0498
  -3.800  -0.2241   0.01746   0.01123  -0.0471  0.9898  0.0235  -2.2240   0.0000   0.0000   0.0000   0.0359
  -3.700  -0.2068   0.01791   0.01170  -0.0480  0.9875  0.0225  -2.1059   0.0000   0.0000   0.0000   0.0137
  -3.600  -0.1925   0.01583   0.00948  -0.0486  0.9865  0.0205  -2.1538   0.0000   0.0000   0.0000  -0.0066
  -3.500  -0.1766   0.01485   0.00840  -0.0494  0.9852  0.0196  -2.1321   0.0000   0.0000   0.0000  -0.0341
  -3.400  -0.1613   0.01407   0.00754  -0.0500  0.9831  0.0188  -2.1014   0.0000   0.0000   0.0000  -0.0649
  -3.300  -0.1463   0.01340   0.00681  -0.0506  0.9804  0.0181  -2.0646   0.0000   0.0000   0.0000  -0.1010
  -3.200  -0.1306   0.01281   0.00616  -0.0514  0.9780  0.0176  -2.0194   0.0000   0.0000   0.0000  -0.1491
  -3.100  -0.1143   0.01228   0.00558  -0.0524  0.9760  0.0171  -1.9645   0.0000   0.0000   0.0000  -0.2142
  -3.000  -0.0975   0.01183   0.00507  -0.0534  0.9742  0.0168  -1.9003   0.0000   0.0000   0.0000  -0.3048
  -2.900  -0.0813   0.01147   0.00465  -0.0544  0.9721  0.0166  -1.8267   0.0000   0.0000   0.0000  -0.4270
  -2.800  -0.0669   0.01121   0.00419  -0.0550  0.9683  0.0158  -1.7237   0.0000   0.0000   0.0000  -0.5799
  -2.700  -0.0513   0.01096   0.00388  -0.0558  0.9654  0.0157  -1.6493   0.0000   0.0000   0.0000  -0.8493
  -2.600  -0.0352   0.01074   0.00360  -0.0567  0.9628  0.0158  -1.5703   0.0000   0.0000   0.0000  -1.3780
  -2.500  -0.0187   0.01054   0.00334  -0.0577  0.9603  0.0162  -1.4878   0.0000   0.0000   0.0000  -2.8547
  -2.400  -0.0029   0.01037   0.00312  -0.0585  0.9572  0.0168  -1.4069   0.0000   0.0000   0.0000  -19.9593
  -2.300   0.0101   0.01023   0.00294  -0.0588  0.9514  0.0177  -1.3361   0.0000   0.0000   0.0000   6.1367
  -2.200   0.0248   0.01009   0.00276  -0.0594  0.9467  0.0197  -1.2617   0.0000   0.0000   0.0000   2.6549
  -2.100   0.0403   0.00971   0.00255  -0.0603  0.9429  0.0595  -1.1912   0.0000   0.0000   0.0000   1.7541
  -2.000   0.0533   0.00916   0.00239  -0.0609  0.9374  0.1589  -1.1221   0.0000   0.0000   0.0000   1.3990
  -1.900   0.0648   0.00855   0.00229  -0.0615  0.9305  0.2898  -1.0464   0.0000   0.0000   0.0000   1.2026
  -1.800   0.0775   0.00797   0.00222  -0.0621  0.9249  0.4219  -0.9602   0.0000   0.0000   0.0000   1.0552
  -1.700   0.0903   0.00767   0.00217  -0.0625  0.9195  0.4967  -0.8693   0.0000   0.0000   0.0000   0.9449
  -1.600   0.1001   0.00743   0.00220  -0.0622  0.9110  0.5672  -0.7944   0.0000   0.0000   0.0000   0.8734
  -1.500   0.1111   0.00728   0.00223  -0.0619  0.9036  0.6235  -0.7285   0.0000   0.0000   0.0000   0.8094
  -1.400   0.1227   0.00721   0.00222  -0.0618  0.8967  0.6576  -0.6640   0.0000   0.0000   0.0000   0.7552
  -1.300   0.1326   0.00716   0.00223  -0.0614  0.8874  0.6821  -0.6071   0.0000   0.0000   0.0000   0.7139
  -1.200   0.1429   0.00711   0.00223  -0.0609  0.8788  0.7048  -0.5508   0.0000   0.0000   0.0000   0.6772
  -1.100   0.1523   0.00705   0.00227  -0.0602  0.8711  0.7421  -0.4981   0.0000   0.0000   0.0000   0.6459
  -1.000   0.1601   0.00700   0.00234  -0.0591  0.8618  0.7775  -0.4508   0.0000   0.0000   0.0000   0.6198
  -0.900   0.1677   0.00698   0.00239  -0.0579  0.8530  0.8083  -0.4271   0.0000   0.0000   0.0000   0.5957
  -0.800   0.1756   0.00698   0.00242  -0.0568  0.8452  0.8331  -0.4345   0.0000   0.0000   0.0000   0.5735
  -0.700   0.1831   0.00696   0.00245  -0.0557  0.8366  0.8493  -0.4416   0.0000   0.0000   0.0000   0.5539
  -0.600   0.1931   0.00698   0.00243  -0.0553  0.8275  0.8576  -0.4499   0.0000   0.0000   0.0000   0.5360
  -0.500   0.2024   0.00698   0.00240  -0.0546  0.8189  0.8648  -0.4582   0.0000   0.0000   0.0000   0.5195
  -0.400   0.2114   0.00698   0.00238  -0.0539  0.8105  0.8727  -0.4669   0.0000   0.0000   0.0000   0.5047
  -0.300   0.2208   0.00698   0.00237  -0.0534  0.8011  0.8809  -0.4758   0.0000   0.0000   0.0000   0.4913
  -0.200   0.2304   0.00700   0.00236  -0.0529  0.7918  0.8885  -0.4849   0.0000   0.0000   0.0000   0.4789
   0.000   0.2479   0.00700   0.00232  -0.0514  0.7748  0.9055  -0.5021   0.0000   0.0000   0.0000   0.4566
   0.100   0.2572   0.00700   0.00229  -0.0509  0.7658  0.9143  -0.5110   0.0000   0.0000   0.0000   0.4469
   0.200   0.2663   0.00700   0.00225  -0.0502  0.7572  0.9232  -0.5198   0.0000   0.0000   0.0000   0.4376
   0.300   0.2758   0.00703   0.00222  -0.0497  0.7491  0.9332  -0.5289   0.0000   0.0000   0.0000   0.4291
   0.400   0.2868   0.00700   0.00220  -0.0495  0.7410  0.9427  -0.5394   0.0000   0.0000   0.0000   0.4215
   0.500   0.2985   0.00700   0.00216  -0.0495  0.7320  0.9536  -0.5508   0.0000   0.0000   0.0000   0.4146
   0.600   0.3126   0.00702   0.00212  -0.0500  0.7230  0.9635  -0.5637   0.0000   0.0000   0.0000   0.4087
   0.700   0.3276   0.00706   0.00209  -0.0508  0.7144  0.9742  -0.5784   0.0000   0.0000   0.0000   0.4036
   0.800   0.3439   0.00705   0.00206  -0.0519  0.7061  0.9855  -0.5941   0.0000   0.0000   0.0000   0.3995
   0.900   0.3602   0.00706   0.00204  -0.0530  0.6971  1.0000  -0.6098   0.0000   0.0000   0.0000   0.3957
   1.000   0.3707   0.00712   0.00203  -0.0530  0.6887  1.0000  -0.6218   0.0000   0.0000   0.0000   0.3914
   1.100   0.3814   0.00720   0.00203  -0.0530  0.6802  1.0000  -0.6339   0.0000   0.0000   0.0000   0.3873
   1.200   0.3925   0.00723   0.00204  -0.0531  0.6731  1.0000  -0.6463   0.0000   0.0000   0.0000   0.3836
   1.300   0.4036   0.00727   0.00205  -0.0532  0.6653  1.0000  -0.6595   0.0000   0.0000   0.0000   0.3800
   1.400   0.4146   0.00733   0.00206  -0.0532  0.6576  1.0000  -0.6735   0.0000   0.0000   0.0000   0.3765
   1.500   0.4256   0.00740   0.00207  -0.0532  0.6501  1.0000  -0.6875   0.0000   0.0000   0.0000   0.3731
   1.600   0.4365   0.00749   0.00209  -0.0532  0.6425  1.0000  -0.7015   0.0000   0.0000   0.0000   0.3699
   1.700   0.4478   0.00752   0.00212  -0.0533  0.6363  1.0000  -0.7158   0.0000   0.0000   0.0000   0.3670
   1.800   0.4589   0.00756   0.00214  -0.0533  0.6291  1.0000  -0.7316   0.0000   0.0000   0.0000   0.3641
   1.900   0.4699   0.00762   0.00216  -0.0533  0.6215  1.0000  -0.7476   0.0000   0.0000   0.0000   0.3613
   2.000   0.4807   0.00770   0.00218  -0.0533  0.6138  1.0000  -0.7636   0.0000   0.0000   0.0000   0.3586
   2.100   0.4914   0.00781   0.00221  -0.0532  0.6059  1.0000  -0.7808   0.0000   0.0000   0.0000   0.3560
   2.200   0.5027   0.00783   0.00224  -0.0533  0.6001  1.0000  -0.7995   0.0000   0.0000   0.0000   0.3536
   2.300   0.5138   0.00788   0.00228  -0.0533  0.5935  1.0000  -0.8181   0.0000   0.0000   0.0000   0.3513
   2.400   0.5248   0.00793   0.00234  -0.0533  0.5871  1.0000  -0.8367   0.0000   0.0000   0.0000   0.3490
   2.500   0.5357   0.00800   0.00237  -0.0532  0.5804  1.0000  -0.8553   0.0000   0.0000   0.0000   0.3468
   2.600   0.5465   0.00809   0.00240  -0.0532  0.5737  1.0000  -0.8739   0.0000   0.0000   0.0000   0.3447
   2.700   0.5573   0.00818   0.00245  -0.0531  0.5670  1.0000  -0.8926   0.0000   0.0000   0.0000   0.3426
   2.800   0.5686   0.00821   0.00249  -0.0532  0.5618  1.0000  -0.9118   0.0000   0.0000   0.0000   0.3408
   2.900   0.5796   0.00825   0.00254  -0.0532  0.5556  1.0000  -0.9332   0.0000   0.0000   0.0000   0.3389
   3.000   0.5905   0.00831   0.00258  -0.0531  0.5490  1.0000  -0.9587   0.0000   0.0000   0.0000   0.3371
   3.100   0.6013   0.00839   0.00261  -0.0531  0.5422  1.0000  -0.9841   0.0000   0.0000   0.0000   0.3353
   3.200   0.6120   0.00849   0.00266  -0.0530  0.5351  1.0000  -1.0096   0.0000   0.0000   0.0000   0.3335
   3.300   0.6228   0.00859   0.00272  -0.0529  0.5286  1.0000  -1.0353   0.0000   0.0000   0.0000   0.3319
   3.400   0.6339   0.00862   0.00277  -0.0530  0.5232  1.0000  -1.0617   0.0000   0.0000   0.0000   0.3303
   3.500   0.6449   0.00866   0.00282  -0.0529  0.5167  1.0000  -1.0880   0.0000   0.0000   0.0000   0.3288
   3.600   0.6557   0.00873   0.00287  -0.0529  0.5096  1.0000  -1.1143   0.0000   0.0000   0.0000   0.3273
   3.700   0.6663   0.00882   0.00292  -0.0528  0.5024  1.0000  -1.1421   0.0000   0.0000   0.0000   0.3258
   3.800   0.6768   0.00894   0.00298  -0.0527  0.4944  1.0000  -1.1790   0.0000   0.0000   0.0000   0.3243
   3.900   0.6877   0.00898   0.00303  -0.0526  0.4861  1.0000  -1.2173   0.0000   0.0000   0.0000   0.3230
   4.000   0.6983   0.00903   0.00305  -0.0525  0.4739  1.0000  -1.2555   0.0000   0.0000   0.0000   0.3216
   4.100   0.7080   0.00917   0.00307  -0.0523  0.4582  1.0000  -1.2957   0.0000   0.0000   0.0000   0.3201
   4.200   0.7185   0.00923   0.00310  -0.0522  0.4428  1.0000  -1.3653   0.0000   0.0000   0.0000   0.3188
   4.300   0.7282   0.00938   0.00313  -0.0520  0.4227  1.0000  -1.4338   0.0000   0.0000   0.0000   0.3174
   4.400   0.7385   0.00949   0.00317  -0.0518  0.4037  1.0000  -1.5286   0.0000   0.0000   0.0000   0.3162
   4.500   0.7481   0.00966   0.00322  -0.0517  0.3835  1.0000  -1.6309   0.0000   0.0000   0.0000   0.3149
   4.600   0.7587   0.00976   0.00330  -0.0516  0.3706  1.0000  -1.7390   0.0000   0.0000   0.0000   0.3138
   4.700   0.7689   0.00990   0.00336  -0.0515  0.3550  1.0000  -1.8469   0.0000   0.0000   0.0000   0.3127
   4.800   0.7790   0.01006   0.00345  -0.0514  0.3406  1.0000  -1.9554   0.0000   0.0000   0.0000   0.3116
   4.900   0.7894   0.01020   0.00354  -0.0513  0.3253  1.0000  -2.0664   0.0000   0.0000   0.0000   0.3105
   5.000   0.8012   0.01019   0.00387  -0.0513  0.3387  1.0000  -2.2359   0.0000   0.0000   0.0000   0.3095
   5.100   0.8123   0.01026   0.00402  -0.0513  0.3396  1.0000  -2.3752   0.0000   0.0000   0.0000   0.3085
   5.200   0.8228   0.01037   0.00413  -0.0513  0.3284  1.0000  -2.5028   0.0000   0.0000   0.0000   0.3076
   5.300   0.8325   0.01058   0.00425  -0.0511  0.3125  1.0000  -2.6248   0.0000   0.0000   0.0000   0.3065
   5.400   0.8429   0.01071   0.00437  -0.0510  0.2993  1.0000  -2.7507   0.0000   0.0000   0.0000   0.3056
   5.500   0.8526   0.01093   0.00449  -0.0509  0.2814  1.0000  -2.8729   0.0000   0.0000   0.0000   0.3046
   5.600   0.8626   0.01111   0.00463  -0.0508  0.2650  1.0000  -2.9968   0.0000   0.0000   0.0000   0.3037
   5.700   0.8720   0.01138   0.00479  -0.0506  0.2453  1.0000  -3.1166   0.0000   0.0000   0.0000   0.3028
   5.800   0.8818   0.01160   0.00494  -0.0505  0.2264  1.0000  -3.2376   0.0000   0.0000   0.0000   0.3019
   5.900   0.8912   0.01188   0.00512  -0.0503  0.2057  1.0000  -3.3521   0.0000   0.0000   0.0000   0.3010
   6.000   0.8996   0.01230   0.00535  -0.0501  0.1730  1.0000  -3.4538   0.0000   0.0000   0.0000   0.3002
   6.100   0.9067   0.01295   0.00568  -0.0498  0.1264  1.0000  -3.5355   0.0000   0.0000   0.0000   0.2993
   6.200   0.9132   0.01373   0.00612  -0.0494  0.0762  1.0000  -3.5933   0.0000   0.0000   0.0000   0.2983
   6.300   0.9176   0.01488   0.00685  -0.0487  0.0216  1.0000  -3.6043   0.0000   0.0000   0.0000   0.2972
   6.400   0.9263   0.01540   0.00737  -0.0482  0.0142  1.0000  -3.6173   0.0000   0.0000   0.0000   0.2961
   6.500   0.9359   0.01572   0.00777  -0.0479  0.0132  1.0000  -3.6817   0.0000   0.0000   0.0000   0.2951
   6.600   0.9455   0.01605   0.00817  -0.0476  0.0125  1.0000  -3.7531   0.0000   0.0000   0.0000   0.2942
   6.700   0.9549   0.01639   0.00859  -0.0472  0.0120  1.0000  -3.8272   0.0000   0.0000   0.0000   0.2932
   6.800   0.9641   0.01676   0.00904  -0.0469  0.0117  1.0000  -3.9022   0.0000   0.0000   0.0000   0.2923
   6.900   0.9731   0.01716   0.00951  -0.0466  0.0115  1.0000  -3.9768   0.0000   0.0000   0.0000   0.2914
   7.000   0.9818   0.01759   0.01001  -0.0462  0.0113  1.0000  -4.0500   0.0000   0.0000   0.0000   0.2904
   7.100   0.9902   0.01805   0.01055  -0.0457  0.0112  1.0000  -4.1213   0.0000   0.0000   0.0000   0.2895
   7.200   0.9983   0.01856   0.01112  -0.0453  0.0112  1.0000  -4.1899   0.0000   0.0000   0.0000   0.2885
   7.300   1.0062   0.01909   0.01172  -0.0448  0.0111  1.0000  -4.2559   0.0000   0.0000   0.0000   0.2876
   7.400   1.0137   0.01967   0.01237  -0.0442  0.0112  1.0000  -4.3186   0.0000   0.0000   0.0000   0.2866
   7.500   1.0210   0.02031   0.01312  -0.0436  0.0111  1.0000  -4.3578   0.0000   0.0000   0.0000   0.2856
   7.600   1.0281   0.02096   0.01385  -0.0430  0.0111  1.0000  -4.4117   0.0000   0.0000   0.0000   0.2846
   7.700   1.0352   0.02166   0.01461  -0.0424  0.0113  1.0000  -4.4638   0.0000   0.0000   0.0000   0.2836
   7.800   1.0422   0.02241   0.01542  -0.0418  0.0114  1.0000  -4.5132   0.0000   0.0000   0.0000   0.2826
   7.900   1.0493   0.02320   0.01629  -0.0411  0.0116  1.0000  -4.5598   0.0000   0.0000   0.0000   0.2816
   8.000   1.0564   0.02405   0.01722  -0.0405  0.0117  1.0000  -4.6032   0.0000   0.0000   0.0000   0.2806
   8.100   1.0636   0.02497   0.01822  -0.0399  0.0120  1.0000  -4.6418   0.0000   0.0000   0.0000   0.2796
   8.200   1.0709   0.02597   0.01931  -0.0392  0.0122  1.0000  -4.6768   0.0000   0.0000   0.0000   0.2787
   8.300   1.0782   0.02704   0.02049  -0.0386  0.0125  1.0000  -4.7078   0.0000   0.0000   0.0000   0.2778
   8.400   1.0854   0.02821   0.02177  -0.0380  0.0128  1.0000  -4.7347   0.0000   0.0000   0.0000   0.2769
   8.500   1.0924   0.02948   0.02316  -0.0374  0.0132  1.0000  -4.7571   0.0000   0.0000   0.0000   0.2760
   8.600   1.0989   0.03088   0.02468  -0.0368  0.0135  1.0000  -4.7734   0.0000   0.0000   0.0000   0.2751
   8.700   1.1048   0.03245   0.02639  -0.0361  0.0139  1.0000  -4.7805   0.0000   0.0000   0.0000   0.2742
   8.800   1.1094   0.03430   0.02841  -0.0354  0.0143  1.0000  -4.7711   0.0000   0.0000   0.0000   0.2733
   8.900   1.1138   0.03754   0.03177  -0.0348  0.0156  1.0000  -4.6941   0.0000   0.0000   0.0000   0.2726
   9.000   1.1245   0.03711   0.03134  -0.0345  0.0160  1.0000  -4.8237   0.0000   0.0000   0.0000   0.2719
  12.800   0.8929   0.14545   0.14292  -0.0676  0.0372  1.0000  -2.4588   0.0000   0.0000   0.0000   0.3141
  12.900   0.8957   0.14815   0.14561  -0.0707  0.0356  1.0000  -2.3978   0.0000   0.0000   0.0000   0.3174
  13.000   0.8943   0.15116   0.14861  -0.0726  0.0347  1.0000  -2.3401   0.0000   0.0000   0.0000   0.3197
  13.100   0.8933   0.15386   0.15130  -0.0742  0.0341  1.0000  -2.2978   0.0000   0.0000   0.0000   0.3215
  13.200   0.8927   0.15638   0.15381  -0.0756  0.0335  1.0000  -2.2637   0.0000   0.0000   0.0000   0.3230
  13.300   0.8923   0.15879   0.15621  -0.0769  0.0330  1.0000  -2.2350   0.0000   0.0000   0.0000   0.3244
  13.400   0.8923   0.16110   0.15852  -0.0781  0.0326  1.0000  -2.2107   0.0000   0.0000   0.0000   0.3257
  13.500   0.8924   0.16333   0.16074  -0.0792  0.0321  1.0000  -2.1898   0.0000   0.0000   0.0000   0.3269
  13.600   0.8927   0.16549   0.16290  -0.0803  0.0317  1.0000  -2.1718   0.0000   0.0000   0.0000   0.3280
  13.700   0.8932   0.16758   0.16499  -0.0813  0.0312  1.0000  -2.1569   0.0000   0.0000   0.0000   0.3290
  13.800   0.8940   0.16961   0.16701  -0.0823  0.0308  1.0000  -2.1451   0.0000   0.0000   0.0000   0.3300
  13.900   0.8949   0.17157   0.16897  -0.0833  0.0304  1.0000  -2.1363   0.0000   0.0000   0.0000   0.3309
  14.000   0.8960   0.17347   0.17087  -0.0842  0.0301  1.0000  -2.1304   0.0000   0.0000   0.0000   0.3317
  14.100   0.8972   0.17531   0.17271  -0.0851  0.0297  1.0000  -2.1276   0.0000   0.0000   0.0000   0.3324
  14.200   0.8986   0.17708   0.17448  -0.0859  0.0293  1.0000  -2.1281   0.0000   0.0000   0.0000   0.3331
  14.300   0.9003   0.17879   0.17619  -0.0867  0.0290  1.0000  -2.1319   0.0000   0.0000   0.0000   0.3336
  14.400   0.9021   0.18044   0.17784  -0.0874  0.0286  1.0000  -2.1394   0.0000   0.0000   0.0000   0.3341
  14.500   0.9040   0.18202   0.17942  -0.0880  0.0283  1.0000  -2.1506   0.0000   0.0000   0.0000   0.3345
  14.600   0.9062   0.18349   0.18089  -0.0886  0.0280  1.0000  -2.1659   0.0000   0.0000   0.0000   0.3348
  14.700   0.9086   0.18486   0.18226  -0.0892  0.0277  1.0000  -2.1860   0.0000   0.0000   0.0000   0.3350
  14.800   0.9112   0.18614   0.18354  -0.0896  0.0274  1.0000  -2.2112   0.0000   0.0000   0.0000   0.3351
  14.900   0.9137   0.18741   0.18482  -0.0901  0.0271  1.0000  -2.2372   0.0000   0.0000   0.0000   0.3352
  15.000   0.9164   0.18864   0.18605  -0.0905  0.0269  1.0000  -2.2677   0.0000   0.0000   0.0000   0.3351
  15.100   0.9191   0.18986   0.18727  -0.0907  0.0266  1.0000  -2.3031   0.0000   0.0000   0.0000   0.3350
  15.200   0.9213   0.19128   0.18870  -0.0910  0.0263  1.0000  -2.3318   0.0000   0.0000   0.0000   0.3349
  15.300   0.9118   0.19718   0.19455  -0.0926  0.0252  1.0000  -2.1733   0.0000   0.0000   0.0000   0.3377
  15.400   0.9135   0.19917   0.19654  -0.0937  0.0252  1.0000  -2.1558   0.0000   0.0000   0.0000   0.3386
  15.500   0.9152   0.20115   0.19852  -0.0947  0.0252  1.0000  -2.1389   0.0000   0.0000   0.0000   0.3394
  15.600   0.9170   0.20313   0.20049  -0.0957  0.0252  1.0000  -2.1225   0.0000   0.0000   0.0000   0.3402
  15.700   0.9188   0.20509   0.20245  -0.0967  0.0252  1.0000  -2.1066   0.0000   0.0000   0.0000   0.3410
  15.800   0.9207   0.20704   0.20440  -0.0978  0.0251  1.0000  -2.0912   0.0000   0.0000   0.0000   0.3418
  15.900   0.9226   0.20897   0.20634  -0.0988  0.0251  1.0000  -2.0763   0.0000   0.0000   0.0000   0.3426
  16.000   0.9246   0.21089   0.20825  -0.0998  0.0251  1.0000  -2.0618   0.0000   0.0000   0.0000   0.3434
  16.100   0.9266   0.21278   0.21014  -0.1008  0.0250  1.0000  -2.0477   0.0000   0.0000   0.0000   0.3441
  16.200   0.9287   0.21464   0.21200  -0.1019  0.0250  1.0000  -2.0339   0.0000   0.0000   0.0000   0.3449
  16.300   0.9308   0.21646   0.21382  -0.1030  0.0249  1.0000  -2.0203   0.0000   0.0000   0.0000   0.3457
  16.400   0.9331   0.21822   0.21557  -0.1041  0.0247  1.0000  -2.0066   0.0000   0.0000   0.0000   0.3465
  16.500   0.9355   0.21991   0.21726  -0.1052  0.0245  1.0000  -1.9905   0.0000   0.0000   0.0000   0.3474
  16.600   0.9373   0.22171   0.21906  -0.1068  0.0242  1.0000  -1.9556   0.0000   0.0000   0.0000   0.3488
  16.700   0.9385   0.22362   0.22096  -0.1085  0.0237  1.0000  -1.9132   0.0000   0.0000   0.0000   0.3503
  16.800   0.9401   0.22561   0.22295  -0.1099  0.0233  1.0000  -1.8797   0.0000   0.0000   0.0000   0.3515
  16.900   0.9420   0.22759   0.22493  -0.1111  0.0228  1.0000  -1.8565   0.0000   0.0000   0.0000   0.3524
  17.000   0.9440   0.22956   0.22690  -0.1121  0.0224  1.0000  -1.8400   0.0000   0.0000   0.0000   0.3532
  17.100   0.9460   0.23151   0.22884  -0.1131  0.0220  1.0000  -1.8277   0.0000   0.0000   0.0000   0.3539
  17.200   0.9481   0.23343   0.23077  -0.1140  0.0216  1.0000  -1.8183   0.0000   0.0000   0.0000   0.3545
  17.300   0.9503   0.23535   0.23269  -0.1150  0.0212  1.0000  -1.8111   0.0000   0.0000   0.0000   0.3550
  17.400   0.9524   0.23725   0.23459  -0.1158  0.0209  1.0000  -1.8055   0.0000   0.0000   0.0000   0.3556
  17.500   0.9546   0.23915   0.23649  -0.1167  0.0206  1.0000  -1.8013   0.0000   0.0000   0.0000   0.3561
  17.600   0.9567   0.24103   0.23838  -0.1175  0.0203  1.0000  -1.7984   0.0000   0.0000   0.0000   0.3565
  17.700   0.9589   0.24291   0.24026  -0.1184  0.0200  1.0000  -1.7965   0.0000   0.0000   0.0000   0.3570
  17.800   0.9611   0.24479   0.24213  -0.1192  0.0197  1.0000  -1.7958   0.0000   0.0000   0.0000   0.3574
  17.900   0.9633   0.24665   0.24400  -0.1200  0.0194  1.0000  -1.7962   0.0000   0.0000   0.0000   0.3579
  18.000   0.9655   0.24851   0.24586  -0.1208  0.0192  1.0000  -1.7976   0.0000   0.0000   0.0000   0.3583
  18.100   0.9677   0.25037   0.24772  -0.1216  0.0189  1.0000  -1.8000   0.0000   0.0000   0.0000   0.3586
  18.200   0.9699   0.25221   0.24957  -0.1224  0.0187  1.0000  -1.8036   0.0000   0.0000   0.0000   0.3590
  18.300   0.9722   0.25405   0.25141  -0.1231  0.0184  1.0000  -1.8083   0.0000   0.0000   0.0000   0.3594
  18.400   0.9744   0.25588   0.25324  -0.1239  0.0182  1.0000  -1.8142   0.0000   0.0000   0.0000   0.3597
  18.500   0.9766   0.25770   0.25506  -0.1246  0.0180  1.0000  -1.8214   0.0000   0.0000   0.0000   0.3600
  18.600   0.9789   0.25951   0.25688  -0.1253  0.0178  1.0000  -1.8300   0.0000   0.0000   0.0000   0.3603
  18.700   0.9811   0.26132   0.25869  -0.1260  0.0176  1.0000  -1.8401   0.0000   0.0000   0.0000   0.3605
  18.800   0.9834   0.26311   0.26049  -0.1267  0.0174  1.0000  -1.8517   0.0000   0.0000   0.0000   0.3608
  18.900   0.9856   0.26490   0.26228  -0.1274  0.0172  1.0000  -1.8653   0.0000   0.0000   0.0000   0.3610
  19.000   0.9879   0.26668   0.26406  -0.1280  0.0171  1.0000  -1.8809   0.0000   0.0000   0.0000   0.3611
  19.100   0.9902   0.26845   0.26583  -0.1286  0.0169  1.0000  -1.8986   0.0000   0.0000   0.0000   0.3613
  19.200   0.9926   0.27021   0.26761  -0.1291  0.0167  1.0000  -1.9187   0.0000   0.0000   0.0000   0.3613
  19.300   0.9949   0.27199   0.26939  -0.1296  0.0166  1.0000  -1.9415   0.0000   0.0000   0.0000   0.3614
  19.400   0.9974   0.27377   0.27118  -0.1300  0.0164  1.0000  -1.9675   0.0000   0.0000   0.0000   0.3613
  19.500   0.9999   0.27559   0.27301  -0.1304  0.0163  1.0000  -1.9972   0.0000   0.0000   0.0000   0.3611
  19.600   1.0025   0.27750   0.27492  -0.1306  0.0161  1.0000  -2.0315   0.0000   0.0000   0.0000   0.3608
  19.700   1.0050   0.27961   0.27705  -0.1307  0.0159  1.0000  -2.0651   0.0000   0.0000   0.0000   0.3605
  19.800   1.0060   0.28262   0.28005  -0.1310  0.0157  1.0000  -2.0668   0.0000   0.0000   0.0000   0.3605
  19.900   1.0031   0.28852   0.28592  -0.1318  0.0153  1.0000  -1.9463   0.0000   0.0000   0.0000   0.3616
  20.000   1.0049   0.29066   0.28807  -0.1326  0.0153  1.0000  -1.9379   0.0000   0.0000   0.0000   0.3620
  20.100   1.0066   0.29280   0.29021  -0.1334  0.0153  1.0000  -1.9295   0.0000   0.0000   0.0000   0.3625
  20.200   1.0083   0.29495   0.29236  -0.1342  0.0153  1.0000  -1.9212   0.0000   0.0000   0.0000   0.3629
  20.300   1.0100   0.29709   0.29450  -0.1350  0.0153  1.0000  -1.9130   0.0000   0.0000   0.0000   0.3633
  20.400   1.0116   0.29925   0.29671  -0.1358  0.0152  1.0000  -1.9061   0.0000   0.0000   0.0000   0.3638
  20.500   1.0132   0.30137   0.29884  -0.1366  0.0152  1.0000  -1.8973   0.0000   0.0000   0.0000   0.3642
  20.600   1.0147   0.30345   0.30092  -0.1375  0.0152  1.0000  -1.8876   0.0000   0.0000   0.0000   0.3647
  20.700   1.0161   0.30548   0.30296  -0.1384  0.0152  1.0000  -1.8772   0.0000   0.0000   0.0000   0.3652
  20.800   1.0176   0.30746   0.30494  -0.1393  0.0152  1.0000  -1.8661   0.0000   0.0000   0.0000   0.3658
  20.900   1.0190   0.30936   0.30683  -0.1402  0.0151  1.0000  -1.8542   0.0000   0.0000   0.0000   0.3664
  21.000   1.0204   0.31115   0.30863  -0.1412  0.0150  1.0000  -1.8415   0.0000   0.0000   0.0000   0.3670
  21.100   1.0217   0.31285   0.31033  -0.1424  0.0149  1.0000  -1.8213   0.0000   0.0000   0.0000   0.3679
  21.200   1.0227   0.31454   0.31202  -0.1440  0.0147  1.0000  -1.7843   0.0000   0.0000   0.0000   0.3691
  21.300   1.0247   0.31630   0.31378  -0.1457  0.0142  1.0000  -1.7335   0.0000   0.0000   0.0000   0.3704
  21.400   1.0269   0.31847   0.31595  -0.1469  0.0134  1.0000  -1.6977   0.0000   0.0000   0.0000   0.3712
  21.500   1.0285   0.32069   0.31816  -0.1478  0.0129  1.0000  -1.6904   0.0000   0.0000   0.0000   0.3716
  21.600   1.0299   0.32287   0.32035  -0.1485  0.0124  1.0000  -1.6948   0.0000   0.0000   0.0000   0.3720
  21.700   1.0312   0.32504   0.32252  -0.1492  0.0119  1.0000  -1.7018   0.0000   0.0000   0.0000   0.3723
  21.800   1.0324   0.32717   0.32466  -0.1499  0.0115  1.0000  -1.7109   0.0000   0.0000   0.0000   0.3726
  21.900   1.0335   0.32927   0.32677  -0.1505  0.0110  1.0000  -1.7219   0.0000   0.0000   0.0000   0.3729
  22.000   1.0346   0.33133   0.32883  -0.1511  0.0106  1.0000  -1.7350   0.0000   0.0000   0.0000   0.3732
  22.100   1.0355   0.33335   0.33086  -0.1517  0.0103  1.0000  -1.7504   0.0000   0.0000   0.0000   0.3735
  22.200   1.0365   0.33532   0.33284  -0.1523  0.0099  1.0000  -1.7686   0.0000   0.0000   0.0000   0.3737
  22.300   1.0373   0.33724   0.33476  -0.1528  0.0096  1.0000  -1.7902   0.0000   0.0000   0.0000   0.3739
  22.400   1.0381   0.33911   0.33664  -0.1533  0.0093  1.0000  -1.8155   0.0000   0.0000   0.0000   0.3741
  22.500   1.0388   0.34092   0.33846  -0.1537  0.0090  1.0000  -1.8450   0.0000   0.0000   0.0000   0.3742
  22.600   1.0394   0.34269   0.34023  -0.1541  0.0088  1.0000  -1.8791   0.0000   0.0000   0.0000   0.3743
  22.700   1.0398   0.34441   0.34196  -0.1544  0.0086  1.0000  -1.9189   0.0000   0.0000   0.0000   0.3743
  22.800   1.0401   0.34612   0.34368  -0.1545  0.0084  1.0000  -1.9647   0.0000   0.0000   0.0000   0.3742
  22.900   1.0402   0.34791   0.34548  -0.1544  0.0082  1.0000  -2.0184   0.0000   0.0000   0.0000   0.3739
  23.000   1.0323   0.35390   0.35145  -0.1534  0.0077  1.0000  -1.9007   0.0000   0.0000   0.0000   0.3740
  23.100   1.0311   0.35612   0.35367  -0.1538  0.0077  1.0000  -1.8767   0.0000   0.0000   0.0000   0.3744
  23.200   1.0295   0.35828   0.35584  -0.1541  0.0077  1.0000  -1.8530   0.0000   0.0000   0.0000   0.3748
  23.300   1.0274   0.36035   0.35792  -0.1544  0.0077  1.0000  -1.8350   0.0000   0.0000   0.0000   0.3753
  23.400   1.0245   0.36230   0.35987  -0.1545  0.0077  1.0000  -1.8159   0.0000   0.0000   0.0000   0.3757
  23.500   1.0204   0.36403   0.36162  -0.1545  0.0077  1.0000  -1.7944   0.0000   0.0000   0.0000   0.3762
  23.700   0.8958   0.33618   0.33397  -0.1364  0.0077  1.0000  -1.4932   0.0000   0.0000   0.0000   0.3788
  23.800   0.8912   0.33597   0.33377  -0.1362  0.0077  1.0000  -1.4720   0.0000   0.0000   0.0000   0.3793
  23.900   0.8871   0.33586   0.33367  -0.1361  0.0077  1.0000  -1.4521   0.0000   0.0000   0.0000   0.3798
  24.000   0.8834   0.33581   0.33363  -0.1359  0.0077  1.0000  -1.4335   0.0000   0.0000   0.0000   0.3802
  24.100   0.8800   0.33582   0.33364  -0.1359  0.0077  1.0000  -1.4155   0.0000   0.0000   0.0000   0.3806
  24.200   0.8769   0.33586   0.33370  -0.1359  0.0077  1.0000  -1.3982   0.0000   0.0000   0.0000   0.3811
  24.300   0.8740   0.33594   0.33379  -0.1359  0.0077  1.0000  -1.3818   0.0000   0.0000   0.0000   0.3815
  24.400   0.8713   0.33606   0.33392  -0.1359  0.0076  1.0000  -1.3660   0.0000   0.0000   0.0000   0.3820
  24.500   0.8688   0.33622   0.33408  -0.1360  0.0076  1.0000  -1.3508   0.0000   0.0000   0.0000   0.3824
  24.600   0.8665   0.33640   0.33427  -0.1360  0.0076  1.0000  -1.3362   0.0000   0.0000   0.0000   0.3828
  24.700   0.8643   0.33661   0.33449  -0.1361  0.0076  1.0000  -1.3220   0.0000   0.0000   0.0000   0.3832
  24.800   0.8622   0.33685   0.33473  -0.1363  0.0076  1.0000  -1.3076   0.0000   0.0000   0.0000   0.3837
  24.900   0.8603   0.33710   0.33500  -0.1364  0.0076  1.0000  -1.2936   0.0000   0.0000   0.0000   0.3841
  25.000   0.8585   0.33738   0.33528  -0.1366  0.0076  1.0000  -1.2799   0.0000   0.0000   0.0000   0.3845
  25.100   0.8568   0.33769   0.33560  -0.1368  0.0075  1.0000  -1.2656   0.0000   0.0000   0.0000   0.3850
  25.200   0.8552   0.33803   0.33594  -0.1371  0.0075  1.0000  -1.2497   0.0000   0.0000   0.0000   0.3854
  25.300   0.8537   0.33840   0.33632  -0.1373  0.0075  1.0000  -1.2339   0.0000   0.0000   0.0000   0.3859
  25.400   0.8523   0.33880   0.33673  -0.1376  0.0075  1.0000  -1.2182   0.0000   0.0000   0.0000   0.3864
  25.500   0.8511   0.33923   0.33717  -0.1379  0.0074  1.0000  -1.2025   0.0000   0.0000   0.0000   0.3869
  25.600   0.8500   0.33971   0.33765  -0.1383  0.0074  1.0000  -1.1865   0.0000   0.0000   0.0000   0.3874
  25.700   0.8491   0.34023   0.33818  -0.1386  0.0073  1.0000  -1.1701   0.0000   0.0000   0.0000   0.3878
  25.800   0.8484   0.34081   0.33876  -0.1390  0.0072  1.0000  -1.1528   0.0000   0.0000   0.0000   0.3883
  25.900   0.8478   0.34146   0.33941  -0.1394  0.0071  1.0000  -1.1344   0.0000   0.0000   0.0000   0.3888
  26.000   0.8474   0.34213   0.34010  -0.1398  0.0070  1.0000  -1.1153   0.0000   0.0000   0.0000   0.3892
  26.100   0.8470   0.34280   0.34076  -0.1401  0.0068  1.0000  -1.0975   0.0000   0.0000   0.0000   0.3895
  26.200   0.8464   0.34338   0.34135  -0.1404  0.0066  1.0000  -1.0825   0.0000   0.0000   0.0000   0.3899
  26.300   0.8456   0.34389   0.34187  -0.1407  0.0064  1.0000  -1.0703   0.0000   0.0000   0.0000   0.3902
  26.400   0.8448   0.34437   0.34235  -0.1409  0.0063  1.0000  -1.0602   0.0000   0.0000   0.0000   0.3905
  26.500   0.8440   0.34481   0.34280  -0.1412  0.0061  1.0000  -1.0514   0.0000   0.0000   0.0000   0.3908
  26.600   0.8431   0.34525   0.34326  -0.1414  0.0060  1.0000  -1.0438   0.0000   0.0000   0.0000   0.3911
  26.700   0.8423   0.34569   0.34370  -0.1416  0.0058  1.0000  -1.0370   0.0000   0.0000   0.0000   0.3914
  26.800   0.8415   0.34613   0.34415  -0.1419  0.0057  1.0000  -1.0308   0.0000   0.0000   0.0000   0.3917
  26.900   0.8407   0.34657   0.34459  -0.1421  0.0056  1.0000  -1.0251   0.0000   0.0000   0.0000   0.3920
  27.000   0.8400   0.34700   0.34503  -0.1424  0.0054  1.0000  -1.0199   0.0000   0.0000   0.0000   0.3923
  27.100   0.8392   0.34744   0.34548  -0.1426  0.0053  1.0000  -1.0151   0.0000   0.0000   0.0000   0.3926
  27.200   0.8385   0.34788   0.34592  -0.1429  0.0052  1.0000  -1.0106   0.0000   0.0000   0.0000   0.3929
  27.300   0.8378   0.34832   0.34640  -0.1431  0.0051  1.0000  -1.0058   0.0000   0.0000   0.0000   0.3932
  27.400   0.8371   0.34876   0.34684  -0.1434  0.0050  1.0000  -1.0018   0.0000   0.0000   0.0000   0.3935
  27.500   0.8365   0.34921   0.34730  -0.1436  0.0049  1.0000  -0.9981   0.0000   0.0000   0.0000   0.3937
  27.600   0.8359   0.34966   0.34775  -0.1439  0.0048  1.0000  -0.9947   0.0000   0.0000   0.0000   0.3940
  27.700   0.8353   0.35011   0.34821  -0.1442  0.0048  1.0000  -0.9916   0.0000   0.0000   0.0000   0.3943
  27.800   0.8347   0.35056   0.34867  -0.1445  0.0047  1.0000  -0.9887   0.0000   0.0000   0.0000   0.3946
  27.900   0.8341   0.35102   0.34913  -0.1448  0.0046  1.0000  -0.9861   0.0000   0.0000   0.0000   0.3949
  28.000   0.8336   0.35147   0.34960  -0.1450  0.0045  1.0000  -0.9838   0.0000   0.0000   0.0000   0.3952
  28.100   0.8331   0.35193   0.35006  -0.1453  0.0044  1.0000  -0.9816   0.0000   0.0000   0.0000   0.3954
  28.200   0.8325   0.35239   0.35053  -0.1456  0.0044  1.0000  -0.9798   0.0000   0.0000   0.0000   0.3957
  28.300   0.8320   0.35286   0.35100  -0.1459  0.0043  1.0000  -0.9781   0.0000   0.0000   0.0000   0.3960
  28.400   0.8316   0.35332   0.35147  -0.1462  0.0042  1.0000  -0.9767   0.0000   0.0000   0.0000   0.3963
  28.500   0.8311   0.35378   0.35194  -0.1465  0.0042  1.0000  -0.9755   0.0000   0.0000   0.0000   0.3965
  28.600   0.8306   0.35425   0.35241  -0.1468  0.0041  1.0000  -0.9746   0.0000   0.0000   0.0000   0.3968
  28.700   0.8302   0.35472   0.35289  -0.1471  0.0040  1.0000  -0.9739   0.0000   0.0000   0.0000   0.3971
  28.800   0.8298   0.35519   0.35336  -0.1474  0.0040  1.0000  -0.9734   0.0000   0.0000   0.0000   0.3974
  28.900   0.8293   0.35565   0.35384  -0.1477  0.0039  1.0000  -0.9732   0.0000   0.0000   0.0000   0.3976
  29.000   0.8289   0.35612   0.35431  -0.1480  0.0039  1.0000  -0.9732   0.0000   0.0000   0.0000   0.3979
  29.100   0.8285   0.35659   0.35479  -0.1484  0.0038  1.0000  -0.9735   0.0000   0.0000   0.0000   0.3982
  29.200   0.8281   0.35706   0.35526  -0.1487  0.0037  1.0000  -0.9740   0.0000   0.0000   0.0000   0.3984
  29.300   0.8277   0.35752   0.35573  -0.1490  0.0037  1.0000  -0.9748   0.0000   0.0000   0.0000   0.3987
  29.400   0.8274   0.35799   0.35620  -0.1493  0.0036  1.0000  -0.9759   0.0000   0.0000   0.0000   0.3990
  29.500   0.8270   0.35845   0.35667  -0.1496  0.0036  1.0000  -0.9773   0.0000   0.0000   0.0000   0.3992
  29.600   0.8266   0.35891   0.35714  -0.1500  0.0035  1.0000  -0.9789   0.0000   0.0000   0.0000   0.3995
  29.700   0.8262   0.35937   0.35760  -0.1503  0.0035  1.0000  -0.9809   0.0000   0.0000   0.0000   0.3998
  29.800   0.8259   0.35983   0.35807  -0.1506  0.0035  1.0000  -0.9831   0.0000   0.0000   0.0000   0.4000
  29.900   0.8255   0.36028   0.35853  -0.1509  0.0034  1.0000  -0.9857   0.0000   0.0000   0.0000   0.4003
  30.000   0.8252   0.36074   0.35899  -0.1512  0.0034  1.0000  -0.9886   0.0000   0.0000   0.0000   0.4005


