xflr5 v6.61

 Calculated polar for: S7012 8.75%

 1 1 Reynolds number fixed          Mach number fixed         

 xtrf =   1.000 (top)        1.000 (bottom)
 Mach =   0.000     Re =     0.400 e 6     Ncrit =   9.000

  alpha     CL        CD       CDp       Cm    Top Xtr Bot Xtr   Cpmin    Chinge    XCp    
 ------- -------- --------- --------- -------- ------- ------- -------- --------- ---------
 -10.000  -0.4849   0.11337   0.11074  -0.0029  1.0000  0.0200  -1.6663   0.0000   0.0000   0.0000   0.2388
  -9.900  -0.4834   0.11190   0.10928  -0.0037  1.0000  0.0202  -1.6839   0.0000   0.0000   0.0000   0.2371
  -9.800  -0.4819   0.11042   0.10780  -0.0046  1.0000  0.0205  -1.7035   0.0000   0.0000   0.0000   0.2353
  -9.700  -0.4801   0.10893   0.10632  -0.0056  1.0000  0.0207  -1.7245   0.0000   0.0000   0.0000   0.2333
  -9.600  -0.4782   0.10746   0.10485  -0.0066  1.0000  0.0210  -1.7459   0.0000   0.0000   0.0000   0.2312
  -9.500  -0.4761   0.10603   0.10343  -0.0076  1.0000  0.0212  -1.7657   0.0000   0.0000   0.0000   0.2290
  -9.400  -0.4739   0.10462   0.10203  -0.0086  1.0000  0.0214  -1.7840   0.0000   0.0000   0.0000   0.2268
  -9.300  -0.4714   0.10328   0.10070  -0.0095  1.0000  0.0216  -1.7940   0.0000   0.0000   0.0000   0.2249
  -9.200  -0.4691   0.10191   0.09934  -0.0104  1.0000  0.0217  -1.8045   0.0000   0.0000   0.0000   0.2230
  -9.100  -0.4671   0.10050   0.09793  -0.0112  1.0000  0.0218  -1.8159   0.0000   0.0000   0.0000   0.2211
  -9.000  -0.4652   0.09906   0.09650  -0.0121  1.0000  0.0219  -1.8281   0.0000   0.0000   0.0000   0.2191
  -8.900  -0.4635   0.09759   0.09504  -0.0130  1.0000  0.0219  -1.8413   0.0000   0.0000   0.0000   0.2172
  -8.800  -0.4619   0.09608   0.09354  -0.0139  1.0000  0.0220  -1.8553   0.0000   0.0000   0.0000   0.2152
  -8.700  -0.4603   0.09454   0.09201  -0.0148  1.0000  0.0220  -1.8702   0.0000   0.0000   0.0000   0.2131
  -8.600  -0.4588   0.09297   0.09045  -0.0158  1.0000  0.0220  -1.8859   0.0000   0.0000   0.0000   0.2110
  -8.500  -0.4574   0.09138   0.08887  -0.0168  1.0000  0.0220  -1.9026   0.0000   0.0000   0.0000   0.2088
  -8.400  -0.4562   0.08978   0.08728  -0.0178  1.0000  0.0221  -1.9203   0.0000   0.0000   0.0000   0.2065
  -8.300  -0.4551   0.08815   0.08566  -0.0188  1.0000  0.0221  -1.9391   0.0000   0.0000   0.0000   0.2042
  -8.200  -0.4540   0.08649   0.08401  -0.0199  1.0000  0.0221  -1.9592   0.0000   0.0000   0.0000   0.2017
  -8.100  -0.4531   0.08480   0.08233  -0.0211  1.0000  0.0221  -1.9806   0.0000   0.0000   0.0000   0.1992
  -8.000  -0.4524   0.08308   0.08062  -0.0223  1.0000  0.0221  -2.0038   0.0000   0.0000   0.0000   0.1965
  -7.900  -0.4520   0.08131   0.07887  -0.0236  1.0000  0.0222  -2.0290   0.0000   0.0000   0.0000   0.1936
  -7.800  -0.4518   0.07950   0.07707  -0.0251  1.0000  0.0222  -2.0569   0.0000   0.0000   0.0000   0.1904
  -7.700  -0.4521   0.07760   0.07519  -0.0268  1.0000  0.0222  -2.0888   0.0000   0.0000   0.0000   0.1868
  -7.600  -0.4519   0.07540   0.07301  -0.0293  1.0000  0.0222  -2.1284   0.0000   0.0000   0.0000   0.1813
  -7.500  -0.4500   0.07262   0.07022  -0.0332  1.0000  0.0222  -2.1811   0.0000   0.0000   0.0000   0.1723
  -7.400  -0.4484   0.07030   0.06787  -0.0355  1.0000  0.0222  -2.2240   0.0000   0.0000   0.0000   0.1669
  -7.300  -0.4470   0.06819   0.06572  -0.0373  1.0000  0.0222  -2.2621   0.0000   0.0000   0.0000   0.1628
  -7.200  -0.4457   0.06619   0.06368  -0.0388  1.0000  0.0222  -2.2965   0.0000   0.0000   0.0000   0.1593
  -7.100  -0.4444   0.06430   0.06175  -0.0400  1.0000  0.0222  -2.3272   0.0000   0.0000   0.0000   0.1563
  -6.900  -0.4591   0.05575   0.05308  -0.0440  1.0000  0.0229  -2.6258   0.0000   0.0000   0.0000   0.1506
  -6.800  -0.4613   0.05303   0.05031  -0.0448  1.0000  0.0233  -2.6716   0.0000   0.0000   0.0000   0.1494
  -6.700  -0.4605   0.05112   0.04837  -0.0451  1.0000  0.0236  -2.6740   0.0000   0.0000   0.0000   0.1484
  -6.600  -0.4584   0.04953   0.04675  -0.0454  1.0000  0.0239  -2.6598   0.0000   0.0000   0.0000   0.1475
  -6.500  -0.4546   0.04842   0.04562  -0.0453  1.0000  0.0242  -2.6136   0.0000   0.0000   0.0000   0.1468
  -6.400  -0.4506   0.04734   0.04453  -0.0453  1.0000  0.0245  -2.5684   0.0000   0.0000   0.0000   0.1461
  -6.300  -0.4464   0.04627   0.04344  -0.0452  1.0000  0.0248  -2.5264   0.0000   0.0000   0.0000   0.1454
  -6.200  -0.4421   0.04519   0.04233  -0.0451  1.0000  0.0251  -2.4879   0.0000   0.0000   0.0000   0.1446
  -6.100  -0.4377   0.04410   0.04120  -0.0451  1.0000  0.0255  -2.4529   0.0000   0.0000   0.0000   0.1438
  -6.000  -0.4332   0.04299   0.04005  -0.0450  1.0000  0.0259  -2.4214   0.0000   0.0000   0.0000   0.1430
  -5.900  -0.4285   0.04186   0.03887  -0.0448  1.0000  0.0263  -2.3933   0.0000   0.0000   0.0000   0.1422
  -5.800  -0.4237   0.04074   0.03770  -0.0446  1.0000  0.0268  -2.3673   0.0000   0.0000   0.0000   0.1415
  -5.700  -0.4188   0.03959   0.03645  -0.0444  1.0000  0.0273  -2.3507   0.0000   0.0000   0.0000   0.1408
  -5.600  -0.4137   0.03846   0.03525  -0.0442  1.0000  0.0279  -2.3292   0.0000   0.0000   0.0000   0.1401
  -5.500  -0.4084   0.03733   0.03405  -0.0439  1.0000  0.0286  -2.3105   0.0000   0.0000   0.0000   0.1395
  -5.400  -0.4029   0.03621   0.03286  -0.0435  1.0000  0.0293  -2.2946   0.0000   0.0000   0.0000   0.1388
  -5.300  -0.3971   0.03512   0.03168  -0.0432  1.0000  0.0302  -2.2810   0.0000   0.0000   0.0000   0.1382
  -5.200  -0.3909   0.03412   0.03058  -0.0427  1.0000  0.0312  -2.2694   0.0000   0.0000   0.0000   0.1376
  -5.100  -0.3839   0.03339   0.02975  -0.0422  1.0000  0.0324  -2.2531   0.0000   0.0000   0.0000   0.1371
  -5.000  -0.3698   0.03403   0.03028  -0.0419  0.9994  0.0343  -2.1902   0.0000   0.0000   0.0000   0.1335
  -4.900  -0.3519   0.03454   0.03062  -0.0428  0.9981  0.0351  -2.1161   0.0000   0.0000   0.0000   0.1251
  -4.800  -0.3429   0.02816   0.02382  -0.0459  0.9964  0.0371  -2.2524   0.0000   0.0000   0.0000   0.1130
  -4.700  -0.3297   0.02660   0.02224  -0.0472  0.9951  0.0384  -2.1841   0.0000   0.0000   0.0000   0.1037
  -4.600  -0.3156   0.02567   0.02131  -0.0483  0.9939  0.0396  -2.1000   0.0000   0.0000   0.0000   0.0936
  -4.500  -0.3010   0.02485   0.02046  -0.0494  0.9926  0.0411  -2.0216   0.0000   0.0000   0.0000   0.0826
  -4.400  -0.2868   0.02411   0.01965  -0.0503  0.9908  0.0430  -1.9537   0.0000   0.0000   0.0000   0.0713
  -4.300  -0.2717   0.02346   0.01891  -0.0511  0.9890  0.0455  -1.8927   0.0000   0.0000   0.0000   0.0583
  -4.200  -0.2552   0.02338   0.01873  -0.0519  0.9874  0.0486  -1.8260   0.0000   0.0000   0.0000   0.0432
  -3.800  -0.1916   0.01575   0.00995  -0.0532  0.9811  0.0238  -2.1264   0.0000   0.0000   0.0000  -0.0320
  -3.700  -0.1765   0.01494   0.00912  -0.0536  0.9790  0.0203  -2.1106   0.0000   0.0000   0.0000  -0.0584
  -3.600  -0.1616   0.01375   0.00783  -0.0541  0.9772  0.0185  -2.1183   0.0000   0.0000   0.0000  -0.0899
  -3.500  -0.1462   0.01283   0.00680  -0.0547  0.9756  0.0170  -2.1174   0.0000   0.0000   0.0000  -0.1295
  -3.400  -0.1305   0.01208   0.00596  -0.0554  0.9742  0.0158  -2.1028   0.0000   0.0000   0.0000  -0.1802
  -3.300  -0.1148   0.01152   0.00532  -0.0562  0.9727  0.0149  -2.0665   0.0000   0.0000   0.0000  -0.2456
  -3.200  -0.1017   0.01116   0.00491  -0.0564  0.9689  0.0144  -2.0111   0.0000   0.0000   0.0000  -0.3118
  -3.100  -0.0874   0.01085   0.00456  -0.0570  0.9657  0.0139  -1.9381   0.0000   0.0000   0.0000  -0.4093
  -3.000  -0.0725   0.01058   0.00425  -0.0577  0.9629  0.0136  -1.8530   0.0000   0.0000   0.0000  -0.5539
  -2.900  -0.0571   0.01044   0.00397  -0.0585  0.9604  0.0130  -1.7362   0.0000   0.0000   0.0000  -0.7845
  -2.800  -0.0419   0.01019   0.00368  -0.0592  0.9574  0.0128  -1.6549   0.0000   0.0000   0.0000  -1.1758
  -2.700  -0.0297   0.00997   0.00343  -0.0593  0.9515  0.0127  -1.5840   0.0000   0.0000   0.0000  -1.7633
  -2.600  -0.0157   0.00974   0.00315  -0.0598  0.9468  0.0126  -1.5087   0.0000   0.0000   0.0000  -3.6052
  -2.500  -0.0007   0.00953   0.00287  -0.0605  0.9427  0.0126  -1.4319   0.0000   0.0000   0.0000  -83.0516
  -2.400   0.0121   0.00936   0.00264  -0.0607  0.9368  0.0127  -1.3614   0.0000   0.0000   0.0000   5.2855
  -2.300   0.0246   0.00923   0.00244  -0.0608  0.9300  0.0130  -1.2914   0.0000   0.0000   0.0000   2.7356
  -2.200   0.0380   0.00911   0.00225  -0.0611  0.9240  0.0137  -1.2181   0.0000   0.0000   0.0000   1.8677
  -2.100   0.0506   0.00901   0.00210  -0.0612  0.9178  0.0151  -1.1463   0.0000   0.0000   0.0000   1.4668
  -2.000   0.0619   0.00892   0.00200  -0.0611  0.9096  0.0187  -1.0747   0.0000   0.0000   0.0000   1.2420
  -1.900   0.0735   0.00856   0.00185  -0.0613  0.9019  0.0734  -1.0031   0.0000   0.0000   0.0000   1.0870
  -1.800   0.0843   0.00803   0.00173  -0.0615  0.8942  0.1828  -0.9307   0.0000   0.0000   0.0000   0.9827
  -1.700   0.0943   0.00758   0.00166  -0.0616  0.8850  0.2891  -0.8556   0.0000   0.0000   0.0000   0.9051
  -1.600   0.1050   0.00733   0.00160  -0.0615  0.8763  0.3539  -0.7789   0.0000   0.0000   0.0000   0.8380
  -1.500   0.1155   0.00709   0.00156  -0.0615  0.8679  0.4180  -0.7128   0.0000   0.0000   0.0000   0.7840
  -1.400   0.1256   0.00686   0.00154  -0.0613  0.8587  0.4844  -0.6516   0.0000   0.0000   0.0000   0.7397
  -1.300   0.1356   0.00665   0.00155  -0.0611  0.8500  0.5502  -0.5934   0.0000   0.0000   0.0000   0.7017
  -1.200   0.1456   0.00653   0.00158  -0.0608  0.8420  0.6067  -0.5375   0.0000   0.0000   0.0000   0.6683
  -1.100   0.1557   0.00646   0.00161  -0.0605  0.8331  0.6420  -0.4835   0.0000   0.0000   0.0000   0.6389
  -1.000   0.1659   0.00643   0.00162  -0.0601  0.8240  0.6654  -0.4311   0.0000   0.0000   0.0000   0.6129
  -0.800   0.1852   0.00636   0.00169  -0.0592  0.8067  0.7324  -0.4395   0.0000   0.0000   0.0000   0.5695
  -0.700   0.1937   0.00631   0.00176  -0.0583  0.7972  0.7701  -0.4472   0.0000   0.0000   0.0000   0.5510
  -0.600   0.2019   0.00631   0.00181  -0.0574  0.7879  0.8008  -0.4548   0.0000   0.0000   0.0000   0.5339
  -0.500   0.2103   0.00631   0.00185  -0.0565  0.7794  0.8223  -0.4629   0.0000   0.0000   0.0000   0.5183
  -0.400   0.2208   0.00633   0.00185  -0.0563  0.7704  0.8299  -0.4724   0.0000   0.0000   0.0000   0.5044
  -0.300   0.2305   0.00633   0.00184  -0.0558  0.7612  0.8367  -0.4815   0.0000   0.0000   0.0000   0.4916
  -0.200   0.2402   0.00637   0.00185  -0.0554  0.7524  0.8437  -0.4906   0.0000   0.0000   0.0000   0.4798
  -0.100   0.2504   0.00638   0.00185  -0.0551  0.7446  0.8512  -0.5000   0.0000   0.0000   0.0000   0.4691
   0.000   0.2609   0.00640   0.00184  -0.0548  0.7360  0.8583  -0.5095   0.0000   0.0000   0.0000   0.4593
   0.100   0.2704   0.00641   0.00183  -0.0544  0.7269  0.8654  -0.5186   0.0000   0.0000   0.0000   0.4500
   0.200   0.2797   0.00644   0.00182  -0.0538  0.7180  0.8732  -0.5275   0.0000   0.0000   0.0000   0.4413
   0.300   0.2896   0.00645   0.00182  -0.0535  0.7103  0.8810  -0.5368   0.0000   0.0000   0.0000   0.4334
   0.400   0.2997   0.00646   0.00182  -0.0531  0.7021  0.8886  -0.5472   0.0000   0.0000   0.0000   0.4261
   0.500   0.3088   0.00647   0.00181  -0.0525  0.6936  0.8966  -0.5571   0.0000   0.0000   0.0000   0.4189
   0.600   0.3180   0.00650   0.00180  -0.0520  0.6852  0.9054  -0.5673   0.0000   0.0000   0.0000   0.4122
   0.700   0.3275   0.00652   0.00179  -0.0515  0.6775  0.9143  -0.5786   0.0000   0.0000   0.0000   0.4060
   0.800   0.3367   0.00650   0.00178  -0.0510  0.6704  0.9243  -0.5898   0.0000   0.0000   0.0000   0.3999
   1.000   0.3569   0.00651   0.00175  -0.0503  0.6544  0.9475  -0.6134   0.0000   0.0000   0.0000   0.3893
   1.100   0.3692   0.00655   0.00173  -0.0505  0.6461  0.9599  -0.6267   0.0000   0.0000   0.0000   0.3850
   1.200   0.3837   0.00656   0.00173  -0.0512  0.6395  0.9726  -0.6414   0.0000   0.0000   0.0000   0.3816
   1.300   0.3996   0.00656   0.00172  -0.0522  0.6326  0.9867  -0.6577   0.0000   0.0000   0.0000   0.3788
   1.400   0.4135   0.00659   0.00171  -0.0529  0.6249  1.0000  -0.6737   0.0000   0.0000   0.0000   0.3759
   1.500   0.4247   0.00665   0.00172  -0.0529  0.6171  1.0000  -0.6879   0.0000   0.0000   0.0000   0.3727
   1.600   0.4357   0.00673   0.00173  -0.0530  0.6089  1.0000  -0.7019   0.0000   0.0000   0.0000   0.3696
   1.700   0.4471   0.00678   0.00175  -0.0531  0.6023  1.0000  -0.7163   0.0000   0.0000   0.0000   0.3667
   1.800   0.4585   0.00682   0.00177  -0.0532  0.5958  1.0000  -0.7323   0.0000   0.0000   0.0000   0.3639
   1.900   0.4697   0.00686   0.00179  -0.0533  0.5888  1.0000  -0.7486   0.0000   0.0000   0.0000   0.3612
   2.000   0.4808   0.00693   0.00181  -0.0533  0.5815  1.0000  -0.7648   0.0000   0.0000   0.0000   0.3586
   2.100   0.4917   0.00701   0.00183  -0.0533  0.5741  1.0000  -0.7825   0.0000   0.0000   0.0000   0.3560
   2.200   0.5027   0.00708   0.00187  -0.0533  0.5671  1.0000  -0.8010   0.0000   0.0000   0.0000   0.3536
   2.300   0.5141   0.00711   0.00190  -0.0534  0.5626  1.0000  -0.8199   0.0000   0.0000   0.0000   0.3514
   2.400   0.5254   0.00715   0.00196  -0.0534  0.5574  1.0000  -0.8388   0.0000   0.0000   0.0000   0.3492
   2.500   0.5366   0.00720   0.00199  -0.0535  0.5512  1.0000  -0.8576   0.0000   0.0000   0.0000   0.3470
   2.600   0.5476   0.00726   0.00201  -0.0534  0.5445  1.0000  -0.8765   0.0000   0.0000   0.0000   0.3450
   2.700   0.5584   0.00734   0.00204  -0.0534  0.5374  1.0000  -0.8952   0.0000   0.0000   0.0000   0.3429
   2.800   0.5692   0.00744   0.00209  -0.0534  0.5298  1.0000  -0.9140   0.0000   0.0000   0.0000   0.3410
   2.900   0.5805   0.00747   0.00212  -0.0534  0.5256  1.0000  -0.9365   0.0000   0.0000   0.0000   0.3392
   3.000   0.5917   0.00750   0.00216  -0.0535  0.5203  1.0000  -0.9624   0.0000   0.0000   0.0000   0.3374
   3.100   0.6028   0.00756   0.00220  -0.0535  0.5141  1.0000  -0.9882   0.0000   0.0000   0.0000   0.3357
   3.200   0.6137   0.00763   0.00223  -0.0534  0.5073  1.0000  -1.0140   0.0000   0.0000   0.0000   0.3340
   3.300   0.6244   0.00771   0.00227  -0.0534  0.4998  1.0000  -1.0398   0.0000   0.0000   0.0000   0.3324
   3.400   0.6351   0.00781   0.00232  -0.0533  0.4908  1.0000  -1.0656   0.0000   0.0000   0.0000   0.3307
   3.500   0.6462   0.00784   0.00235  -0.0533  0.4820  1.0000  -1.0923   0.0000   0.0000   0.0000   0.3292
   3.600   0.6566   0.00793   0.00237  -0.0532  0.4680  1.0000  -1.1184   0.0000   0.0000   0.0000   0.3277
   3.700   0.6668   0.00806   0.00240  -0.0531  0.4518  1.0000  -1.1459   0.0000   0.0000   0.0000   0.3261
   3.800   0.6774   0.00813   0.00243  -0.0530  0.4352  1.0000  -1.1837   0.0000   0.0000   0.0000   0.3247
   3.900   0.6873   0.00830   0.00247  -0.0528  0.4155  1.0000  -1.2205   0.0000   0.0000   0.0000   0.3232
   4.000   0.6979   0.00840   0.00251  -0.0528  0.3976  1.0000  -1.2587   0.0000   0.0000   0.0000   0.3219
   4.100   0.7079   0.00856   0.00256  -0.0526  0.3799  1.0000  -1.2960   0.0000   0.0000   0.0000   0.3206
   4.200   0.7188   0.00864   0.00262  -0.0526  0.3694  1.0000  -1.3621   0.0000   0.0000   0.0000   0.3194
   4.300   0.7291   0.00878   0.00268  -0.0526  0.3543  1.0000  -1.4513   0.0000   0.0000   0.0000   0.3181
   4.400   0.7395   0.00892   0.00275  -0.0525  0.3395  1.0000  -1.5553   0.0000   0.0000   0.0000   0.3169
   4.500   0.7498   0.00906   0.00283  -0.0524  0.3230  1.0000  -1.6611   0.0000   0.0000   0.0000   0.3158
   4.600   0.7599   0.00924   0.00291  -0.0523  0.3071  1.0000  -1.7672   0.0000   0.0000   0.0000   0.3146
   4.700   0.7703   0.00938   0.00300  -0.0523  0.2910  1.0000  -1.8761   0.0000   0.0000   0.0000   0.3135
   4.800   0.7803   0.00958   0.00310  -0.0522  0.2742  1.0000  -1.9840   0.0000   0.0000   0.0000   0.3124
   4.900   0.7906   0.00976   0.00320  -0.0521  0.2565  1.0000  -2.0936   0.0000   0.0000   0.0000   0.3114
   5.000   0.8036   0.00956   0.00346  -0.0522  0.2891  1.0000  -2.2763   0.0000   0.0000   0.0000   0.3104
   5.100   0.8142   0.00967   0.00358  -0.0522  0.2836  1.0000  -2.4098   0.0000   0.0000   0.0000   0.3094
   5.200   0.8246   0.00982   0.00369  -0.0521  0.2723  1.0000  -2.5363   0.0000   0.0000   0.0000   0.3085
   5.300   0.8348   0.00999   0.00381  -0.0520  0.2568  1.0000  -2.6610   0.0000   0.0000   0.0000   0.3075
   5.400   0.8447   0.01021   0.00395  -0.0519  0.2403  1.0000  -2.7837   0.0000   0.0000   0.0000   0.3065
   5.500   0.8545   0.01044   0.00409  -0.0518  0.2209  1.0000  -2.9055   0.0000   0.0000   0.0000   0.3056
   5.600   0.8643   0.01068   0.00424  -0.0517  0.2016  1.0000  -3.0261   0.0000   0.0000   0.0000   0.3047
   5.700   0.8736   0.01098   0.00442  -0.0516  0.1790  1.0000  -3.1405   0.0000   0.0000   0.0000   0.3038
   5.800   0.8823   0.01140   0.00464  -0.0514  0.1462  1.0000  -3.2417   0.0000   0.0000   0.0000   0.3029
   5.900   0.8889   0.01216   0.00503  -0.0510  0.0924  1.0000  -3.3156   0.0000   0.0000   0.0000   0.3019
   6.000   0.8951   0.01300   0.00553  -0.0505  0.0410  1.0000  -3.3673   0.0000   0.0000   0.0000   0.3009
   6.100   0.9024   0.01373   0.00606  -0.0500  0.0133  1.0000  -3.4032   0.0000   0.0000   0.0000   0.2998
   6.200   0.9121   0.01404   0.00639  -0.0497  0.0110  1.0000  -3.4653   0.0000   0.0000   0.0000   0.2988
   6.300   0.9220   0.01431   0.00672  -0.0495  0.0099  1.0000  -3.5348   0.0000   0.0000   0.0000   0.2978
   6.400   0.9319   0.01460   0.00708  -0.0492  0.0094  1.0000  -3.6081   0.0000   0.0000   0.0000   0.2969
   6.500   0.9416   0.01490   0.00747  -0.0489  0.0091  1.0000  -3.6845   0.0000   0.0000   0.0000   0.2959
   6.600   0.9510   0.01524   0.00788  -0.0486  0.0089  1.0000  -3.7624   0.0000   0.0000   0.0000   0.2950
   6.700   0.9603   0.01561   0.00832  -0.0483  0.0088  1.0000  -3.8409   0.0000   0.0000   0.0000   0.2941
   6.800   0.9693   0.01600   0.00878  -0.0480  0.0087  1.0000  -3.9198   0.0000   0.0000   0.0000   0.2931
   6.900   0.9781   0.01641   0.00926  -0.0476  0.0087  1.0000  -3.9989   0.0000   0.0000   0.0000   0.2922
   7.000   0.9868   0.01684   0.00975  -0.0472  0.0087  1.0000  -4.0785   0.0000   0.0000   0.0000   0.2913
   7.100   0.9953   0.01729   0.01026  -0.0468  0.0087  1.0000  -4.1583   0.0000   0.0000   0.0000   0.2903
   7.200   1.0037   0.01775   0.01078  -0.0464  0.0088  1.0000  -4.2382   0.0000   0.0000   0.0000   0.2894
   7.300   1.0119   0.01822   0.01130  -0.0460  0.0088  1.0000  -4.3180   0.0000   0.0000   0.0000   0.2885
   7.400   1.0197   0.01878   0.01197  -0.0454  0.0089  1.0000  -4.3733   0.0000   0.0000   0.0000   0.2875
   7.500   1.0277   0.01929   0.01252  -0.0450  0.0090  1.0000  -4.4467   0.0000   0.0000   0.0000   0.2866
   7.600   1.0357   0.01980   0.01309  -0.0445  0.0091  1.0000  -4.5225   0.0000   0.0000   0.0000   0.2857
   7.700   1.0436   0.02034   0.01368  -0.0440  0.0092  1.0000  -4.5954   0.0000   0.0000   0.0000   0.2848
   7.800   1.0514   0.02092   0.01433  -0.0435  0.0094  1.0000  -4.6618   0.0000   0.0000   0.0000   0.2839
   7.900   1.0589   0.02158   0.01506  -0.0429  0.0097  1.0000  -4.7168   0.0000   0.0000   0.0000   0.2829
   8.000   1.0662   0.02237   0.01594  -0.0422  0.0100  1.0000  -4.7547   0.0000   0.0000   0.0000   0.2819
   8.100   1.0733   0.02333   0.01700  -0.0415  0.0104  1.0000  -4.7730   0.0000   0.0000   0.0000   0.2808
   8.200   1.0803   0.02447   0.01825  -0.0407  0.0109  1.0000  -4.7769   0.0000   0.0000   0.0000   0.2797
   8.300   1.0873   0.02580   0.01972  -0.0399  0.0115  1.0000  -4.7676   0.0000   0.0000   0.0000   0.2786
   8.400   1.0943   0.02728   0.02134  -0.0391  0.0122  1.0000  -4.7534   0.0000   0.0000   0.0000   0.2776
   8.500   1.1008   0.02892   0.02312  -0.0384  0.0129  1.0000  -4.7379   0.0000   0.0000   0.0000   0.2766
   8.600   1.1063   0.03083   0.02520  -0.0376  0.0137  1.0000  -4.7119   0.0000   0.0000   0.0000   0.2756
   8.700   1.1158   0.03279   0.02718  -0.0371  0.0163  1.0000  -4.6795   0.0000   0.0000   0.0000   0.2748
   9.100   1.1251   0.04584   0.04180  -0.0307  0.0327  1.0000  -3.9581   0.0000   0.0000   0.0000   0.2685
   9.200   1.1280   0.04699   0.04306  -0.0301  0.0321  1.0000  -3.9917   0.0000   0.0000   0.0000   0.2678
   9.300   1.1303   0.04817   0.04433  -0.0294  0.0314  1.0000  -4.0253   0.0000   0.0000   0.0000   0.2671
   9.400   1.1321   0.04935   0.04560  -0.0288  0.0309  1.0000  -4.0593   0.0000   0.0000   0.0000   0.2664
   9.500   1.1336   0.05054   0.04687  -0.0282  0.0304  1.0000  -4.0942   0.0000   0.0000   0.0000   0.2657
   9.600   1.1347   0.05173   0.04814  -0.0276  0.0299  1.0000  -4.1296   0.0000   0.0000   0.0000   0.2651
   9.700   1.1355   0.05292   0.04939  -0.0271  0.0295  1.0000  -4.1655   0.0000   0.0000   0.0000   0.2645
   9.800   1.1360   0.05411   0.05064  -0.0265  0.0291  1.0000  -4.2018   0.0000   0.0000   0.0000   0.2639
   9.900   1.1362   0.05530   0.05189  -0.0260  0.0288  1.0000  -4.2382   0.0000   0.0000   0.0000   0.2633
  10.000   1.1361   0.05650   0.05314  -0.0255  0.0285  1.0000  -4.2746   0.0000   0.0000   0.0000   0.2627
  10.100   1.1358   0.05772   0.05440  -0.0249  0.0282  1.0000  -4.3108   0.0000   0.0000   0.0000   0.2622
  10.200   1.1354   0.05896   0.05568  -0.0245  0.0279  1.0000  -4.3471   0.0000   0.0000   0.0000   0.2616
  10.300   1.1347   0.06021   0.05695  -0.0239  0.0277  1.0000  -4.3823   0.0000   0.0000   0.0000   0.2611
  10.400   1.1299   0.06147   0.05826  -0.0231  0.0275  1.0000  -4.3911   0.0000   0.0000   0.0000   0.2603
  10.500   1.1243   0.06276   0.05960  -0.0223  0.0274  1.0000  -4.3947   0.0000   0.0000   0.0000   0.2596
  10.600   1.1181   0.06411   0.06100  -0.0216  0.0272  1.0000  -4.3932   0.0000   0.0000   0.0000   0.2590
  10.700   1.1114   0.06554   0.06249  -0.0212  0.0271  1.0000  -4.3871   0.0000   0.0000   0.0000   0.2586
  10.800   1.1043   0.06708   0.06408  -0.0210  0.0270  1.0000  -4.3768   0.0000   0.0000   0.0000   0.2584
  10.900   1.0968   0.06869   0.06575  -0.0210  0.0270  1.0000  -4.3618   0.0000   0.0000   0.0000   0.2584
  11.000   1.0891   0.07043   0.06754  -0.0213  0.0269  1.0000  -4.3431   0.0000   0.0000   0.0000   0.2587
  11.100   1.0812   0.07229   0.06947  -0.0219  0.0269  1.0000  -4.3207   0.0000   0.0000   0.0000   0.2593
  11.200   1.0731   0.07427   0.07151  -0.0228  0.0269  1.0000  -4.2944   0.0000   0.0000   0.0000   0.2601
  11.300   1.0646   0.07634   0.07363  -0.0238  0.0269  1.0000  -4.2632   0.0000   0.0000   0.0000   0.2611
  11.400   1.0559   0.07856   0.07592  -0.0252  0.0269  1.0000  -4.2272   0.0000   0.0000   0.0000   0.2624
  11.500   1.0470   0.08099   0.07841  -0.0268  0.0269  1.0000  -4.1853   0.0000   0.0000   0.0000   0.2640
  11.600   1.0377   0.08367   0.08115  -0.0288  0.0270  1.0000  -4.1360   0.0000   0.0000   0.0000   0.2660
  11.700   1.0282   0.08662   0.08417  -0.0311  0.0271  1.0000  -4.0783   0.0000   0.0000   0.0000   0.2684
  11.800   1.0180   0.08993   0.08754  -0.0338  0.0272  1.0000  -4.0086   0.0000   0.0000   0.0000   0.2712
  11.900   1.0067   0.09372   0.09140  -0.0369  0.0274  1.0000  -3.9204   0.0000   0.0000   0.0000   0.2746
  13.100   0.9217   0.14162   0.13948  -0.0681  0.0266  1.0000  -2.9338   0.0000   0.0000   0.0000   0.3115
  13.200   0.9187   0.14428   0.14213  -0.0693  0.0263  1.0000  -2.9037   0.0000   0.0000   0.0000   0.3130
  13.300   0.8940   0.15370   0.15148  -0.0736  0.0252  1.0000  -2.5568   0.0000   0.0000   0.0000   0.3201
  13.400   0.8934   0.15646   0.15423  -0.0749  0.0252  1.0000  -2.5143   0.0000   0.0000   0.0000   0.3217
  13.500   0.8931   0.15911   0.15687  -0.0763  0.0252  1.0000  -2.4756   0.0000   0.0000   0.0000   0.3231
  13.600   0.8931   0.16167   0.15943  -0.0776  0.0252  1.0000  -2.4400   0.0000   0.0000   0.0000   0.3245
  13.700   0.8933   0.16416   0.16192  -0.0788  0.0252  1.0000  -2.4070   0.0000   0.0000   0.0000   0.3258
  13.800   0.8937   0.16658   0.16434  -0.0801  0.0251  1.0000  -2.3763   0.0000   0.0000   0.0000   0.3271
  13.900   0.8943   0.16894   0.16669  -0.0813  0.0251  1.0000  -2.3477   0.0000   0.0000   0.0000   0.3284
  14.000   0.8951   0.17123   0.16897  -0.0825  0.0250  1.0000  -2.3212   0.0000   0.0000   0.0000   0.3295
  14.100   0.8962   0.17344   0.17119  -0.0837  0.0250  1.0000  -2.2969   0.0000   0.0000   0.0000   0.3307
  14.200   0.8976   0.17556   0.17330  -0.0849  0.0248  1.0000  -2.2753   0.0000   0.0000   0.0000   0.3318
  14.300   0.8999   0.17751   0.17525  -0.0862  0.0246  1.0000  -2.2579   0.0000   0.0000   0.0000   0.3329
  14.400   0.9030   0.17939   0.17713  -0.0875  0.0239  1.0000  -2.2397   0.0000   0.0000   0.0000   0.3340
  14.500   0.9044   0.18178   0.17951  -0.0891  0.0233  1.0000  -2.1972   0.0000   0.0000   0.0000   0.3355
  14.600   0.9056   0.18399   0.18172  -0.0904  0.0228  1.0000  -2.1639   0.0000   0.0000   0.0000   0.3368
  14.700   0.9068   0.18606   0.18379  -0.0916  0.0223  1.0000  -2.1360   0.0000   0.0000   0.0000   0.3379
  14.800   0.9080   0.18802   0.18574  -0.0927  0.0219  1.0000  -2.1137   0.0000   0.0000   0.0000   0.3389
  14.900   0.9094   0.18991   0.18763  -0.0938  0.0215  1.0000  -2.0952   0.0000   0.0000   0.0000   0.3399
  15.000   0.9108   0.19175   0.18947  -0.0949  0.0211  1.0000  -2.0797   0.0000   0.0000   0.0000   0.3408
  15.100   0.9124   0.19356   0.19128  -0.0959  0.0208  1.0000  -2.0670   0.0000   0.0000   0.0000   0.3416
  15.200   0.9140   0.19535   0.19306  -0.0969  0.0204  1.0000  -2.0569   0.0000   0.0000   0.0000   0.3424
  15.300   0.9157   0.19712   0.19483  -0.0978  0.0201  1.0000  -2.0491   0.0000   0.0000   0.0000   0.3432
  15.400   0.9175   0.19887   0.19658  -0.0988  0.0198  1.0000  -2.0433   0.0000   0.0000   0.0000   0.3439
  15.500   0.9193   0.20060   0.19832  -0.0997  0.0195  1.0000  -2.0396   0.0000   0.0000   0.0000   0.3445
  15.600   0.9213   0.20232   0.20003  -0.1006  0.0192  1.0000  -2.0378   0.0000   0.0000   0.0000   0.3451
  15.700   0.9233   0.20403   0.20174  -0.1014  0.0190  1.0000  -2.0380   0.0000   0.0000   0.0000   0.3457
  15.800   0.9253   0.20571   0.20342  -0.1023  0.0187  1.0000  -2.0401   0.0000   0.0000   0.0000   0.3463
  15.900   0.9275   0.20738   0.20509  -0.1031  0.0185  1.0000  -2.0443   0.0000   0.0000   0.0000   0.3468
  16.000   0.9297   0.20903   0.20675  -0.1039  0.0182  1.0000  -2.0505   0.0000   0.0000   0.0000   0.3472
  16.100   0.9319   0.21066   0.20837  -0.1047  0.0180  1.0000  -2.0592   0.0000   0.0000   0.0000   0.3477
  16.200   0.9342   0.21227   0.20998  -0.1054  0.0178  1.0000  -2.0703   0.0000   0.0000   0.0000   0.3480
  16.300   0.9366   0.21385   0.21156  -0.1061  0.0176  1.0000  -2.0839   0.0000   0.0000   0.0000   0.3484
  16.400   0.9391   0.21541   0.21313  -0.1068  0.0174  1.0000  -2.1003   0.0000   0.0000   0.0000   0.3486
  16.500   0.9417   0.21694   0.21466  -0.1074  0.0172  1.0000  -2.1197   0.0000   0.0000   0.0000   0.3489
  16.600   0.9443   0.21845   0.21617  -0.1080  0.0170  1.0000  -2.1425   0.0000   0.0000   0.0000   0.3490
  16.700   0.9471   0.21993   0.21766  -0.1086  0.0169  1.0000  -2.1692   0.0000   0.0000   0.0000   0.3491
  16.800   0.9498   0.22141   0.21914  -0.1091  0.0167  1.0000  -2.1971   0.0000   0.0000   0.0000   0.3491
  16.900   0.9524   0.22293   0.22066  -0.1096  0.0165  1.0000  -2.2244   0.0000   0.0000   0.0000   0.3492
  17.000   0.9549   0.22446   0.22220  -0.1101  0.0163  1.0000  -2.2529   0.0000   0.0000   0.0000   0.3493
  17.100   0.9574   0.22604   0.22379  -0.1105  0.0162  1.0000  -2.2825   0.0000   0.0000   0.0000   0.3493
  17.200   0.9588   0.22811   0.22585  -0.1112  0.0159  1.0000  -2.2855   0.0000   0.0000   0.0000   0.3497
  17.300   0.9522   0.23446   0.23217  -0.1127  0.0153  1.0000  -2.0892   0.0000   0.0000   0.0000   0.3521
  17.400   0.9543   0.23651   0.23422  -0.1136  0.0153  1.0000  -2.0776   0.0000   0.0000   0.0000   0.3526
  17.500   0.9564   0.23855   0.23626  -0.1145  0.0153  1.0000  -2.0663   0.0000   0.0000   0.0000   0.3532
  17.600   0.9585   0.24060   0.23831  -0.1154  0.0153  1.0000  -2.0552   0.0000   0.0000   0.0000   0.3537
  17.700   0.9606   0.24264   0.24035  -0.1163  0.0152  1.0000  -2.0445   0.0000   0.0000   0.0000   0.3543
  17.800   0.9627   0.24469   0.24240  -0.1172  0.0152  1.0000  -2.0339   0.0000   0.0000   0.0000   0.3548
  17.900   0.9648   0.24673   0.24444  -0.1181  0.0152  1.0000  -2.0237   0.0000   0.0000   0.0000   0.3553
  18.000   0.9669   0.24877   0.24648  -0.1189  0.0152  1.0000  -2.0136   0.0000   0.0000   0.0000   0.3558
  18.100   0.9691   0.25081   0.24852  -0.1198  0.0152  1.0000  -2.0039   0.0000   0.0000   0.0000   0.3564
  18.200   0.9712   0.25285   0.25056  -0.1207  0.0152  1.0000  -1.9943   0.0000   0.0000   0.0000   0.3569
  18.300   0.9733   0.25488   0.25260  -0.1216  0.0152  1.0000  -1.9849   0.0000   0.0000   0.0000   0.3574
  18.400   0.9754   0.25692   0.25463  -0.1224  0.0152  1.0000  -1.9758   0.0000   0.0000   0.0000   0.3579
  18.500   0.9775   0.25895   0.25667  -0.1233  0.0152  1.0000  -1.9669   0.0000   0.0000   0.0000   0.3583
  18.600   0.9795   0.26097   0.25869  -0.1242  0.0151  1.0000  -1.9581   0.0000   0.0000   0.0000   0.3588
  18.700   0.9816   0.26300   0.26072  -0.1251  0.0151  1.0000  -1.9496   0.0000   0.0000   0.0000   0.3593
  18.800   0.9837   0.26501   0.26274  -0.1259  0.0151  1.0000  -1.9413   0.0000   0.0000   0.0000   0.3598
  18.900   0.9858   0.26703   0.26475  -0.1268  0.0151  1.0000  -1.9331   0.0000   0.0000   0.0000   0.3603
  19.000   0.9879   0.26903   0.26676  -0.1277  0.0151  1.0000  -1.9251   0.0000   0.0000   0.0000   0.3608
  19.100   0.9899   0.27102   0.26875  -0.1286  0.0150  1.0000  -1.9173   0.0000   0.0000   0.0000   0.3612
  19.200   0.9920   0.27301   0.27074  -0.1294  0.0150  1.0000  -1.9096   0.0000   0.0000   0.0000   0.3617
  19.300   0.9941   0.27498   0.27271  -0.1303  0.0150  1.0000  -1.9019   0.0000   0.0000   0.0000   0.3622
  19.400   0.9962   0.27693   0.27466  -0.1312  0.0149  1.0000  -1.8943   0.0000   0.0000   0.0000   0.3627
  19.500   0.9982   0.27887   0.27660  -0.1321  0.0148  1.0000  -1.8852   0.0000   0.0000   0.0000   0.3632
  19.600   1.0000   0.28083   0.27857  -0.1332  0.0148  1.0000  -1.8691   0.0000   0.0000   0.0000   0.3639
  19.700   1.0018   0.28280   0.28054  -0.1343  0.0147  1.0000  -1.8499   0.0000   0.0000   0.0000   0.3646
  19.800   1.0037   0.28479   0.28252  -0.1355  0.0145  1.0000  -1.8296   0.0000   0.0000   0.0000   0.3654
  19.900   1.0057   0.28679   0.28453  -0.1366  0.0143  1.0000  -1.8071   0.0000   0.0000   0.0000   0.3661
  20.000   1.0079   0.28885   0.28659  -0.1377  0.0140  1.0000  -1.7837   0.0000   0.0000   0.0000   0.3668
  20.100   1.0101   0.29098   0.28872  -0.1387  0.0137  1.0000  -1.7632   0.0000   0.0000   0.0000   0.3674
  20.200   1.0123   0.29312   0.29086  -0.1396  0.0132  1.0000  -1.7482   0.0000   0.0000   0.0000   0.3679
  20.300   1.0143   0.29524   0.29298  -0.1405  0.0127  1.0000  -1.7393   0.0000   0.0000   0.0000   0.3683
  20.400   1.0162   0.29732   0.29507  -0.1413  0.0122  1.0000  -1.7366   0.0000   0.0000   0.0000   0.3687
  20.500   1.0181   0.29935   0.29710  -0.1421  0.0116  1.0000  -1.7398   0.0000   0.0000   0.0000   0.3690
  20.600   1.0199   0.30132   0.29908  -0.1428  0.0111  1.0000  -1.7491   0.0000   0.0000   0.0000   0.3693
  20.700   1.0219   0.30294   0.30074  -0.1435  0.0102  1.0000  -1.7910   0.0000   0.0000   0.0000   0.3695
  20.800   1.0238   0.30462   0.30243  -0.1441  0.0098  1.0000  -1.8254   0.0000   0.0000   0.0000   0.3697
  20.900   1.0256   0.30631   0.30412  -0.1448  0.0094  1.0000  -1.8593   0.0000   0.0000   0.0000   0.3699
  21.000   1.0273   0.30809   0.30591  -0.1454  0.0092  1.0000  -1.8870   0.0000   0.0000   0.0000   0.3700
  21.100   1.0290   0.30989   0.30772  -0.1460  0.0090  1.0000  -1.9123   0.0000   0.0000   0.0000   0.3702
  21.200   1.0307   0.31167   0.30950  -0.1465  0.0089  1.0000  -1.9418   0.0000   0.0000   0.0000   0.3703
  21.300   1.0323   0.31341   0.31125  -0.1470  0.0087  1.0000  -1.9759   0.0000   0.0000   0.0000   0.3704
  21.400   1.0339   0.31512   0.31297  -0.1475  0.0086  1.0000  -2.0154   0.0000   0.0000   0.0000   0.3704
  21.500   1.0356   0.31682   0.31467  -0.1479  0.0084  1.0000  -2.0612   0.0000   0.0000   0.0000   0.3703
  21.600   1.0372   0.31855   0.31641  -0.1480  0.0083  1.0000  -2.1149   0.0000   0.0000   0.0000   0.3700
  21.700   1.0368   0.32146   0.31933  -0.1481  0.0080  1.0000  -2.1294   0.0000   0.0000   0.0000   0.3700
  22.400   1.0369   0.34104   0.33889  -0.1530  0.0076  1.0000  -1.9057   0.0000   0.0000   0.0000   0.3738
  22.500   1.0373   0.34336   0.34122  -0.1537  0.0076  1.0000  -1.8840   0.0000   0.0000   0.0000   0.3743
  22.600   1.0375   0.34566   0.34352  -0.1543  0.0076  1.0000  -1.8619   0.0000   0.0000   0.0000   0.3747
  22.700   1.0377   0.34793   0.34579  -0.1550  0.0075  1.0000  -1.8452   0.0000   0.0000   0.0000   0.3752
  22.800   1.0378   0.35016   0.34803  -0.1556  0.0075  1.0000  -1.8331   0.0000   0.0000   0.0000   0.3756
  22.900   1.0377   0.35236   0.35023  -0.1562  0.0075  1.0000  -1.8191   0.0000   0.0000   0.0000   0.3761
  23.000   1.0375   0.35455   0.35242  -0.1569  0.0074  1.0000  -1.7993   0.0000   0.0000   0.0000   0.3766
  23.100   1.0373   0.35671   0.35459  -0.1577  0.0073  1.0000  -1.7738   0.0000   0.0000   0.0000   0.3772
  23.200   1.0380   0.35891   0.35678  -0.1585  0.0070  1.0000  -1.7371   0.0000   0.0000   0.0000   0.3779
  23.300   1.0385   0.36126   0.35914  -0.1592  0.0064  1.0000  -1.6973   0.0000   0.0000   0.0000   0.3784
  23.400   1.0373   0.36344   0.36132  -0.1595  0.0060  1.0000  -1.6801   0.0000   0.0000   0.0000   0.3787
  23.500   1.0352   0.36545   0.36335  -0.1597  0.0057  1.0000  -1.6689   0.0000   0.0000   0.0000   0.3791
  23.600   1.0320   0.36730   0.36520  -0.1597  0.0054  1.0000  -1.6582   0.0000   0.0000   0.0000   0.3795
  23.700   1.0272   0.36888   0.36679  -0.1595  0.0052  1.0000  -1.6451   0.0000   0.0000   0.0000   0.3799
  23.800   0.9023   0.33953   0.33761  -0.1410  0.0062  1.0000  -1.3451   0.0000   0.0000   0.0000   0.3827
  23.900   0.8983   0.33945   0.33755  -0.1408  0.0059  1.0000  -1.3266   0.0000   0.0000   0.0000   0.3831
  24.000   0.8945   0.33938   0.33749  -0.1406  0.0057  1.0000  -1.3124   0.0000   0.0000   0.0000   0.3835
  24.100   0.8909   0.33932   0.33744  -0.1405  0.0054  1.0000  -1.3007   0.0000   0.0000   0.0000   0.3839
  24.200   0.8877   0.33932   0.33744  -0.1404  0.0052  1.0000  -1.2909   0.0000   0.0000   0.0000   0.3843
  24.300   0.8847   0.33934   0.33748  -0.1403  0.0051  1.0000  -1.2826   0.0000   0.0000   0.0000   0.3847
  24.400   0.8819   0.33940   0.33755  -0.1403  0.0049  1.0000  -1.2756   0.0000   0.0000   0.0000   0.3850
  24.500   0.8793   0.33949   0.33764  -0.1403  0.0047  1.0000  -1.2696   0.0000   0.0000   0.0000   0.3854
  24.600   0.8769   0.33960   0.33776  -0.1403  0.0046  1.0000  -1.2646   0.0000   0.0000   0.0000   0.3857
  24.700   0.8746   0.33974   0.33791  -0.1403  0.0045  1.0000  -1.2605   0.0000   0.0000   0.0000   0.3861
  24.800   0.8725   0.33989   0.33807  -0.1404  0.0044  1.0000  -1.2571   0.0000   0.0000   0.0000   0.3864
  24.900   0.8705   0.34007   0.33825  -0.1404  0.0043  1.0000  -1.2546   0.0000   0.0000   0.0000   0.3868
  25.000   0.8686   0.34025   0.33844  -0.1405  0.0042  1.0000  -1.2527   0.0000   0.0000   0.0000   0.3871
  25.100   0.8668   0.34045   0.33865  -0.1406  0.0041  1.0000  -1.2516   0.0000   0.0000   0.0000   0.3874
  25.200   0.8651   0.34066   0.33887  -0.1407  0.0040  1.0000  -1.2512   0.0000   0.0000   0.0000   0.3877
  25.300   0.8635   0.34089   0.33910  -0.1409  0.0039  1.0000  -1.2516   0.0000   0.0000   0.0000   0.3881
  25.400   0.8620   0.34112   0.33934  -0.1410  0.0038  1.0000  -1.2526   0.0000   0.0000   0.0000   0.3884
  25.500   0.8605   0.34135   0.33958  -0.1412  0.0037  1.0000  -1.2543   0.0000   0.0000   0.0000   0.3887
  25.600   0.8591   0.34160   0.33983  -0.1413  0.0037  1.0000  -1.2568   0.0000   0.0000   0.0000   0.3890
  25.700   0.8578   0.34184   0.34008  -0.1415  0.0036  1.0000  -1.2599   0.0000   0.0000   0.0000   0.3893
  25.800   0.8565   0.34210   0.34034  -0.1416  0.0035  1.0000  -1.2639   0.0000   0.0000   0.0000   0.3896
  25.900   0.8553   0.34235   0.34060  -0.1418  0.0035  1.0000  -1.2686   0.0000   0.0000   0.0000   0.3899
  26.000   0.8541   0.34260   0.34086  -0.1420  0.0034  1.0000  -1.2740   0.0000   0.0000   0.0000   0.3901
  26.100   0.8530   0.34285   0.34112  -0.1422  0.0033  1.0000  -1.2802   0.0000   0.0000   0.0000   0.3904
  26.200   0.8519   0.34310   0.34137  -0.1423  0.0033  1.0000  -1.2872   0.0000   0.0000   0.0000   0.3907
  26.300   0.8508   0.34334   0.34162  -0.1425  0.0032  1.0000  -1.2951   0.0000   0.0000   0.0000   0.3909
  26.400   0.8497   0.34358   0.34187  -0.1427  0.0032  1.0000  -1.3038   0.0000   0.0000   0.0000   0.3912
  26.500   0.8487   0.34382   0.34211  -0.1429  0.0031  1.0000  -1.3132   0.0000   0.0000   0.0000   0.3914
  26.600   0.8477   0.34403   0.34234  -0.1431  0.0031  1.0000  -1.3232   0.0000   0.0000   0.0000   0.3917
  26.700   0.8466   0.34424   0.34255  -0.1432  0.0031  1.0000  -1.3337   0.0000   0.0000   0.0000   0.3919
  26.800   0.8456   0.34447   0.34281  -0.1434  0.0030  1.0000  -1.3405   0.0000   0.0000   0.0000   0.3921
  26.900   0.8445   0.34468   0.34302  -0.1435  0.0030  1.0000  -1.3491   0.0000   0.0000   0.0000   0.3923
  27.000   0.8434   0.34485   0.34320  -0.1436  0.0029  1.0000  -1.3581   0.0000   0.0000   0.0000   0.3925
  27.100   0.8420   0.34502   0.34338  -0.1437  0.0029  1.0000  -1.3612   0.0000   0.0000   0.0000   0.3927
  27.200   0.8396   0.34526   0.34363  -0.1436  0.0028  1.0000  -1.3342   0.0000   0.0000   0.0000   0.3930


