xflr5 v6.61

 Calculated polar for: S7012 8.75%

 1 1 Reynolds number fixed          Mach number fixed         

 xtrf =   1.000 (top)        1.000 (bottom)
 Mach =   0.000     Re =     1.000 e 6     Ncrit =   9.000

  alpha     CL        CD       CDp       Cm    Top Xtr Bot Xtr   Cpmin    Chinge    XCp    
 ------- -------- --------- --------- -------- ------- ------- -------- --------- ---------
 -10.000  -0.4928   0.10846   0.10677  -0.0037  1.0000  0.0068  -2.1427   0.0000   0.0000   0.0000   0.2370
  -9.900  -0.4913   0.10697   0.10528  -0.0044  1.0000  0.0068  -2.1474   0.0000   0.0000   0.0000   0.2356
  -9.800  -0.4898   0.10547   0.10379  -0.0051  1.0000  0.0069  -2.1529   0.0000   0.0000   0.0000   0.2343
  -9.700  -0.4884   0.10396   0.10229  -0.0058  1.0000  0.0069  -2.1590   0.0000   0.0000   0.0000   0.2329
  -9.600  -0.4870   0.10245   0.10078  -0.0065  1.0000  0.0070  -2.1660   0.0000   0.0000   0.0000   0.2315
  -9.500  -0.4856   0.10094   0.09927  -0.0072  1.0000  0.0070  -2.1737   0.0000   0.0000   0.0000   0.2300
  -9.400  -0.4844   0.09941   0.09775  -0.0079  1.0000  0.0071  -2.1822   0.0000   0.0000   0.0000   0.2285
  -9.300  -0.4832   0.09789   0.09623  -0.0086  1.0000  0.0071  -2.1916   0.0000   0.0000   0.0000   0.2271
  -9.200  -0.4821   0.09636   0.09470  -0.0094  1.0000  0.0072  -2.2019   0.0000   0.0000   0.0000   0.2256
  -9.100  -0.4811   0.09483   0.09318  -0.0101  1.0000  0.0072  -2.2132   0.0000   0.0000   0.0000   0.2240
  -9.000  -0.4803   0.09329   0.09165  -0.0109  1.0000  0.0073  -2.2254   0.0000   0.0000   0.0000   0.2225
  -8.900  -0.4794   0.09174   0.09010  -0.0116  1.0000  0.0073  -2.2386   0.0000   0.0000   0.0000   0.2209
  -8.800  -0.4785   0.09016   0.08853  -0.0125  1.0000  0.0074  -2.2526   0.0000   0.0000   0.0000   0.2192
  -8.700  -0.4777   0.08857   0.08694  -0.0133  1.0000  0.0074  -2.2677   0.0000   0.0000   0.0000   0.2174
  -8.600  -0.4771   0.08696   0.08534  -0.0142  1.0000  0.0075  -2.2841   0.0000   0.0000   0.0000   0.2157
  -8.500  -0.4766   0.08535   0.08374  -0.0151  1.0000  0.0075  -2.3018   0.0000   0.0000   0.0000   0.2139
  -8.400  -0.4763   0.08373   0.08213  -0.0159  1.0000  0.0076  -2.3209   0.0000   0.0000   0.0000   0.2120
  -8.300  -0.4760   0.08209   0.08050  -0.0169  1.0000  0.0076  -2.3416   0.0000   0.0000   0.0000   0.2101
  -8.200  -0.4760   0.08042   0.07884  -0.0179  1.0000  0.0077  -2.3640   0.0000   0.0000   0.0000   0.2081
  -8.100  -0.4762   0.07874   0.07716  -0.0189  1.0000  0.0077  -2.3885   0.0000   0.0000   0.0000   0.2061
  -8.000  -0.4767   0.07704   0.07547  -0.0199  1.0000  0.0077  -2.4152   0.0000   0.0000   0.0000   0.2040
  -7.900  -0.4776   0.07532   0.07376  -0.0210  1.0000  0.0077  -2.4446   0.0000   0.0000   0.0000   0.2019
  -7.800  -0.4792   0.07358   0.07204  -0.0221  1.0000  0.0078  -2.4775   0.0000   0.0000   0.0000   0.1998
  -7.700  -0.4814   0.07181   0.07028  -0.0233  1.0000  0.0078  -2.5152   0.0000   0.0000   0.0000   0.1976
  -7.600  -0.4823   0.06964   0.06813  -0.0257  1.0000  0.0078  -2.5608   0.0000   0.0000   0.0000   0.1930
  -7.500  -0.4819   0.06688   0.06537  -0.0295  1.0000  0.0077  -2.6228   0.0000   0.0000   0.0000   0.1850
  -7.400  -0.4813   0.06380   0.06228  -0.0336  1.0000  0.0077  -2.6976   0.0000   0.0000   0.0000   0.1766
  -7.300  -0.4803   0.06108   0.05954  -0.0363  1.0000  0.0077  -2.7603   0.0000   0.0000   0.0000   0.1708
  -7.200  -0.4792   0.05851   0.05693  -0.0385  1.0000  0.0077  -2.8176   0.0000   0.0000   0.0000   0.1661
  -7.100  -0.4779   0.05607   0.05446  -0.0402  1.0000  0.0077  -2.8699   0.0000   0.0000   0.0000   0.1623
  -7.000  -0.4762   0.05375   0.05210  -0.0416  1.0000  0.0077  -2.9166   0.0000   0.0000   0.0000   0.1591
  -6.900  -0.4743   0.05154   0.04984  -0.0427  1.0000  0.0078  -2.9579   0.0000   0.0000   0.0000   0.1565
  -6.800  -0.4720   0.04943   0.04769  -0.0435  1.0000  0.0079  -2.9940   0.0000   0.0000   0.0000   0.1544
  -6.700  -0.4694   0.04743   0.04563  -0.0440  1.0000  0.0079  -3.0252   0.0000   0.0000   0.0000   0.1527
  -6.600  -0.4666   0.04553   0.04367  -0.0444  1.0000  0.0080  -3.0518   0.0000   0.0000   0.0000   0.1514
  -6.500  -0.4637   0.04373   0.04180  -0.0445  1.0000  0.0081  -3.0741   0.0000   0.0000   0.0000   0.1505
  -6.400  -0.4606   0.04201   0.04002  -0.0445  1.0000  0.0083  -3.0931   0.0000   0.0000   0.0000   0.1499
  -6.300  -0.4575   0.04038   0.03832  -0.0443  1.0000  0.0084  -3.1083   0.0000   0.0000   0.0000   0.1496
  -6.200  -0.4497   0.03843   0.03628  -0.0451  0.9995  0.0086  -3.1199   0.0000   0.0000   0.0000   0.1461
  -6.100  -0.4373   0.03623   0.03396  -0.0469  0.9985  0.0089  -3.1256   0.0000   0.0000   0.0000   0.1392
  -6.000  -0.4248   0.03421   0.03182  -0.0483  0.9974  0.0093  -3.1268   0.0000   0.0000   0.0000   0.1326
  -5.900  -0.4121   0.03244   0.02994  -0.0496  0.9962  0.0097  -3.1162   0.0000   0.0000   0.0000   0.1260
  -5.800  -0.3989   0.03097   0.02837  -0.0506  0.9951  0.0102  -3.0913   0.0000   0.0000   0.0000   0.1194
  -5.700  -0.3850   0.03005   0.02737  -0.0514  0.9941  0.0108  -3.0332   0.0000   0.0000   0.0000   0.1127
  -5.600  -0.3682   0.03173   0.02907  -0.0511  0.9937  0.0118  -2.8126   0.0000   0.0000   0.0000   0.1074
  -5.500  -0.3545   0.03087   0.02812  -0.0521  0.9925  0.0119  -2.7541   0.0000   0.0000   0.0000   0.0993
  -5.400  -0.3420   0.02971   0.02684  -0.0529  0.9905  0.0120  -2.7184   0.0000   0.0000   0.0000   0.0915
  -5.300  -0.3292   0.02848   0.02547  -0.0539  0.9886  0.0120  -2.6843   0.0000   0.0000   0.0000   0.0824
  -5.200  -0.3159   0.02724   0.02410  -0.0549  0.9869  0.0121  -2.6491   0.0000   0.0000   0.0000   0.0723
  -5.100  -0.3074   0.02012   0.01640  -0.0574  0.9848  0.0137  -2.9745   0.0000   0.0000   0.0000   0.0590
  -5.000  -0.2955   0.01946   0.01571  -0.0580  0.9822  0.0143  -2.8619   0.0000   0.0000   0.0000   0.0496
  -4.900  -0.2830   0.01898   0.01521  -0.0586  0.9797  0.0149  -2.7385   0.0000   0.0000   0.0000   0.0387
  -4.800  -0.2699   0.01853   0.01473  -0.0593  0.9774  0.0156  -2.6174   0.0000   0.0000   0.0000   0.0260
  -4.700  -0.2563   0.01808   0.01423  -0.0600  0.9754  0.0166  -2.5057   0.0000   0.0000   0.0000   0.0113
  -4.600  -0.2422   0.01764   0.01373  -0.0608  0.9736  0.0178  -2.4035   0.0000   0.0000   0.0000  -0.0054
  -4.500  -0.2294   0.01733   0.01337  -0.0611  0.9705  0.0192  -2.3117   0.0000   0.0000   0.0000  -0.0210
  -4.400  -0.2159   0.01747   0.01350  -0.0613  0.9670  0.0208  -2.2033   0.0000   0.0000   0.0000  -0.0388
  -4.300  -0.2007   0.01896   0.01504  -0.0616  0.9639  0.0220  -2.0309   0.0000   0.0000   0.0000  -0.0615
  -4.200  -0.1897   0.01502   0.01072  -0.0625  0.9603  0.0246  -2.1299   0.0000   0.0000   0.0000  -0.0847
  -4.100  -0.1773   0.01450   0.01020  -0.0631  0.9563  0.0261  -2.0260   0.0000   0.0000   0.0000  -0.1111
  -4.000  -0.1655   0.01412   0.00982  -0.0633  0.9504  0.0273  -1.9361   0.0000   0.0000   0.0000  -0.1377
  -3.900  -0.1529   0.01376   0.00942  -0.0636  0.9445  0.0288  -1.8530   0.0000   0.0000   0.0000  -0.1713
  -3.800  -0.1407   0.01345   0.00906  -0.0637  0.9383  0.0304  -1.7772   0.0000   0.0000   0.0000  -0.2086
  -3.700  -0.1292   0.01324   0.00882  -0.0636  0.9301  0.0322  -1.7063   0.0000   0.0000   0.0000  -0.2482
  -3.600  -0.1173   0.01328   0.00881  -0.0635  0.9220  0.0338  -1.6287   0.0000   0.0000   0.0000  -0.2976
  -3.500  -0.1053   0.01432   0.00984  -0.0632  0.9133  0.0351  -1.5147   0.0000   0.0000   0.0000  -0.3575
  -3.200  -0.0733   0.00889   0.00380  -0.0610  0.8892  0.0140  -1.8615   0.0000   0.0000   0.0000  -0.5910
  -3.100  -0.0623   0.00893   0.00380  -0.0608  0.8795  0.0129  -1.7747   0.0000   0.0000   0.0000  -0.7352
  -3.000  -0.0517   0.00879   0.00353  -0.0605  0.8703  0.0128  -1.7135   0.0000   0.0000   0.0000  -0.9315
  -2.900  -0.0410   0.00839   0.00305  -0.0603  0.8611  0.0114  -1.6961   0.0000   0.0000   0.0000  -1.2329
  -2.800  -0.0305   0.00802   0.00257  -0.0600  0.8507  0.0107  -1.6738   0.0000   0.0000   0.0000  -1.7354
  -2.700  -0.0197   0.00780   0.00225  -0.0597  0.8416  0.0101  -1.6307   0.0000   0.0000   0.0000  -2.8041
  -2.600  -0.0087   0.00763   0.00200  -0.0596  0.8328  0.0096  -1.5773   0.0000   0.0000   0.0000  -6.6601
  -2.500   0.0022   0.00752   0.00181  -0.0594  0.8235  0.0092  -1.5178   0.0000   0.0000   0.0000  27.6850
  -2.400   0.0129   0.00744   0.00165  -0.0592  0.8144  0.0089  -1.4538   0.0000   0.0000   0.0000   4.8559
  -2.300   0.0242   0.00737   0.00152  -0.0591  0.8072  0.0087  -1.3843   0.0000   0.0000   0.0000   2.7127
  -2.200   0.0352   0.00731   0.00142  -0.0590  0.7987  0.0085  -1.3099   0.0000   0.0000   0.0000   1.9361
  -2.100   0.0460   0.00729   0.00132  -0.0588  0.7895  0.0084  -1.2321   0.0000   0.0000   0.0000   1.5355
  -2.000   0.0569   0.00727   0.00124  -0.0587  0.7811  0.0083  -1.1518   0.0000   0.0000   0.0000   1.2868
  -1.900   0.0681   0.00724   0.00117  -0.0586  0.7735  0.0083  -1.0694   0.0000   0.0000   0.0000   1.1155
  -1.800   0.0790   0.00723   0.00111  -0.0585  0.7643  0.0083  -0.9875   0.0000   0.0000   0.0000   0.9938
  -1.700   0.0897   0.00724   0.00105  -0.0584  0.7540  0.0085  -0.9063   0.0000   0.0000   0.0000   0.9030
  -1.600   0.1008   0.00723   0.00100  -0.0583  0.7458  0.0087  -0.8238   0.0000   0.0000   0.0000   0.8305
  -1.500   0.1119   0.00721   0.00095  -0.0582  0.7376  0.0093  -0.7405   0.0000   0.0000   0.0000   0.7721
  -1.400   0.1228   0.00721   0.00092  -0.0581  0.7283  0.0102  -0.6585   0.0000   0.0000   0.0000   0.7246
  -1.300   0.1336   0.00722   0.00091  -0.0580  0.7186  0.0114  -0.5832   0.0000   0.0000   0.0000   0.6853
  -1.200   0.1445   0.00696   0.00084  -0.0581  0.7118  0.0716  -0.5194   0.0000   0.0000   0.0000   0.6527
  -1.100   0.1555   0.00677   0.00080  -0.0582  0.7047  0.1176  -0.4607   0.0000   0.0000   0.0000   0.6245
  -1.000   0.1663   0.00660   0.00077  -0.0582  0.6962  0.1660  -0.4244   0.0000   0.0000   0.0000   0.6004
  -0.900   0.1769   0.00645   0.00075  -0.0583  0.6865  0.2170  -0.4329   0.0000   0.0000   0.0000   0.5793
  -0.800   0.1877   0.00632   0.00074  -0.0583  0.6778  0.2625  -0.4415   0.0000   0.0000   0.0000   0.5605
  -0.700   0.1987   0.00615   0.00072  -0.0584  0.6713  0.3147  -0.4503   0.0000   0.0000   0.0000   0.5437
  -0.600   0.2096   0.00599   0.00071  -0.0585  0.6634  0.3685  -0.4591   0.0000   0.0000   0.0000   0.5286
  -0.500   0.2202   0.00582   0.00071  -0.0585  0.6549  0.4314  -0.4686   0.0000   0.0000   0.0000   0.5152
  -0.400   0.2307   0.00562   0.00071  -0.0586  0.6452  0.5098  -0.4781   0.0000   0.0000   0.0000   0.5032
  -0.300   0.2393   0.00510   0.00088  -0.0582  0.6394  0.7260  -0.4867   0.0000   0.0000   0.0000   0.4923
  -0.200   0.2504   0.00509   0.00089  -0.0581  0.6329  0.7337  -0.4966   0.0000   0.0000   0.0000   0.4813
  -0.100   0.2613   0.00510   0.00089  -0.0580  0.6252  0.7412  -0.5064   0.0000   0.0000   0.0000   0.4712
   0.000   0.2722   0.00513   0.00090  -0.0580  0.6169  0.7479  -0.5162   0.0000   0.0000   0.0000   0.4619
   0.100   0.2831   0.00517   0.00090  -0.0579  0.6081  0.7537  -0.5260   0.0000   0.0000   0.0000   0.4534
   0.200   0.2943   0.00519   0.00091  -0.0579  0.6029  0.7588  -0.5360   0.0000   0.0000   0.0000   0.4455
   0.400   0.3166   0.00521   0.00092  -0.0578  0.5919  0.7704  -0.5573   0.0000   0.0000   0.0000   0.4313
   0.500   0.3275   0.00523   0.00093  -0.0577  0.5846  0.7769  -0.5683   0.0000   0.0000   0.0000   0.4249
   0.600   0.3383   0.00527   0.00094  -0.0576  0.5760  0.7830  -0.5805   0.0000   0.0000   0.0000   0.4189
   0.700   0.3492   0.00531   0.00096  -0.0576  0.5672  0.7885  -0.5928   0.0000   0.0000   0.0000   0.4134
   0.800   0.3604   0.00532   0.00097  -0.0575  0.5625  0.7936  -0.6053   0.0000   0.0000   0.0000   0.4081
   1.000   0.3823   0.00535   0.00099  -0.0574  0.5497  0.8063  -0.6302   0.0000   0.0000   0.0000   0.3985
   1.100   0.3931   0.00538   0.00101  -0.0573  0.5423  0.8126  -0.6425   0.0000   0.0000   0.0000   0.3941
   1.200   0.4039   0.00543   0.00103  -0.0572  0.5340  0.8188  -0.6549   0.0000   0.0000   0.0000   0.3899
   1.300   0.4150   0.00545   0.00104  -0.0572  0.5287  0.8245  -0.6688   0.0000   0.0000   0.0000   0.3860
   1.400   0.4262   0.00546   0.00106  -0.0572  0.5255  0.8296  -0.6831   0.0000   0.0000   0.0000   0.3822
   1.500   0.4370   0.00546   0.00108  -0.0571  0.5212  0.8372  -0.6971   0.0000   0.0000   0.0000   0.3786
   1.600   0.4477   0.00547   0.00110  -0.0569  0.5159  0.8448  -0.7111   0.0000   0.0000   0.0000   0.3751
   1.700   0.4584   0.00550   0.00112  -0.0568  0.5097  0.8525  -0.7254   0.0000   0.0000   0.0000   0.3719
   1.900   0.4793   0.00557   0.00117  -0.0565  0.4944  0.8689  -0.7568   0.0000   0.0000   0.0000   0.3656
   2.000   0.4899   0.00557   0.00119  -0.0563  0.4904  0.8781  -0.7739   0.0000   0.0000   0.0000   0.3627
   2.100   0.5007   0.00557   0.00121  -0.0562  0.4873  0.8864  -0.7923   0.0000   0.0000   0.0000   0.3599
   2.200   0.5108   0.00557   0.00123  -0.0559  0.4830  0.8957  -0.8101   0.0000   0.0000   0.0000   0.3571
   2.300   0.5208   0.00557   0.00127  -0.0556  0.4779  0.9069  -0.8280   0.0000   0.0000   0.0000   0.3543
   2.400   0.5296   0.00567   0.00129  -0.0551  0.4575  0.9193  -0.8448   0.0000   0.0000   0.0000   0.3515
   2.500   0.5383   0.00574   0.00130  -0.0546  0.4354  0.9352  -0.8616   0.0000   0.0000   0.0000   0.3487
   2.700   0.5595   0.00600   0.00133  -0.0544  0.3768  0.9805  -0.8989   0.0000   0.0000   0.0000   0.3445
   2.800   0.5718   0.00616   0.00136  -0.0548  0.3508  1.0000  -0.9192   0.0000   0.0000   0.0000   0.3430
   2.900   0.5829   0.00624   0.00140  -0.0548  0.3402  1.0000  -0.9430   0.0000   0.0000   0.0000   0.3412
   3.000   0.5940   0.00631   0.00143  -0.0549  0.3312  1.0000  -0.9688   0.0000   0.0000   0.0000   0.3394
   3.100   0.6049   0.00642   0.00148  -0.0549  0.3197  1.0000  -0.9944   0.0000   0.0000   0.0000   0.3377
   3.200   0.6159   0.00652   0.00152  -0.0549  0.3091  1.0000  -1.0204   0.0000   0.0000   0.0000   0.3360
   3.300   0.6270   0.00658   0.00156  -0.0549  0.3013  1.0000  -1.0467   0.0000   0.0000   0.0000   0.3344
   3.400   0.6378   0.00670   0.00161  -0.0549  0.2883  1.0000  -1.0726   0.0000   0.0000   0.0000   0.3329
   3.500   0.6484   0.00684   0.00167  -0.0549  0.2727  1.0000  -1.0986   0.0000   0.0000   0.0000   0.3314
   3.600   0.6588   0.00702   0.00175  -0.0549  0.2531  1.0000  -1.1243   0.0000   0.0000   0.0000   0.3299
   3.700   0.6693   0.00717   0.00181  -0.0548  0.2347  1.0000  -1.1523   0.0000   0.0000   0.0000   0.3285
   3.800   0.6795   0.00738   0.00191  -0.0548  0.2134  1.0000  -1.1890   0.0000   0.0000   0.0000   0.3271
   3.900   0.6901   0.00752   0.00198  -0.0548  0.1984  1.0000  -1.2267   0.0000   0.0000   0.0000   0.3257
   4.000   0.7006   0.00769   0.00207  -0.0547  0.1824  1.0000  -1.2643   0.0000   0.0000   0.0000   0.3244
   4.100   0.7109   0.00787   0.00215  -0.0547  0.1665  1.0000  -1.3019   0.0000   0.0000   0.0000   0.3231
   4.200   0.7214   0.00804   0.00225  -0.0546  0.1511  1.0000  -1.4013   0.0000   0.0000   0.0000   0.3219
   4.300   0.7315   0.00827   0.00236  -0.0546  0.1306  1.0000  -1.5024   0.0000   0.0000   0.0000   0.3207
   4.400   0.7413   0.00853   0.00249  -0.0545  0.1075  1.0000  -1.6034   0.0000   0.0000   0.0000   0.3194
   4.500   0.7510   0.00882   0.00264  -0.0543  0.0827  1.0000  -1.7036   0.0000   0.0000   0.0000   0.3183
   4.600   0.7601   0.00924   0.00286  -0.0542  0.0505  1.0000  -1.7981   0.0000   0.0000   0.0000   0.3171
   4.700   0.7681   0.00986   0.00323  -0.0538  0.0073  1.0000  -1.8815   0.0000   0.0000   0.0000   0.3157
   4.800   0.7790   0.00997   0.00331  -0.0537  0.0063  1.0000  -1.9783   0.0000   0.0000   0.0000   0.3146
   4.900   0.7898   0.01007   0.00342  -0.0537  0.0056  1.0000  -2.0736   0.0000   0.0000   0.0000   0.3135
   5.000   0.8063   0.00912   0.00309  -0.0544  0.0804  1.0000  -2.3290   0.0000   0.0000   0.0000   0.3129
   5.100   0.8172   0.00921   0.00318  -0.0544  0.0777  1.0000  -2.4622   0.0000   0.0000   0.0000   0.3119
   5.200   0.8271   0.00946   0.00334  -0.0543  0.0616  1.0000  -2.5788   0.0000   0.0000   0.0000   0.3109
   5.300   0.8336   0.01032   0.00385  -0.0537  0.0076  1.0000  -2.6426   0.0000   0.0000   0.0000   0.3096
   5.400   0.8442   0.01049   0.00401  -0.0536  0.0062  1.0000  -2.7227   0.0000   0.0000   0.0000   0.3086
   5.500   0.8550   0.01061   0.00416  -0.0535  0.0058  1.0000  -2.8195   0.0000   0.0000   0.0000   0.3076
   5.600   0.8657   0.01073   0.00431  -0.0535  0.0055  1.0000  -2.9219   0.0000   0.0000   0.0000   0.3067
   5.700   0.8764   0.01085   0.00447  -0.0534  0.0054  1.0000  -3.0265   0.0000   0.0000   0.0000   0.3057
   5.800   0.8871   0.01098   0.00464  -0.0533  0.0054  1.0000  -3.1319   0.0000   0.0000   0.0000   0.3048
   5.900   0.8977   0.01113   0.00482  -0.0532  0.0054  1.0000  -3.2367   0.0000   0.0000   0.0000   0.3039
   6.000   0.9082   0.01128   0.00501  -0.0531  0.0054  1.0000  -3.3400   0.0000   0.0000   0.0000   0.3029
   6.100   0.9187   0.01146   0.00523  -0.0529  0.0054  1.0000  -3.4403   0.0000   0.0000   0.0000   0.3020
   6.200   0.9290   0.01165   0.00547  -0.0528  0.0055  1.0000  -3.5365   0.0000   0.0000   0.0000   0.3011
   6.300   0.9392   0.01187   0.00574  -0.0526  0.0056  1.0000  -3.6289   0.0000   0.0000   0.0000   0.3002
   6.400   0.9493   0.01213   0.00604  -0.0524  0.0057  1.0000  -3.7176   0.0000   0.0000   0.0000   0.2992
   6.500   0.9592   0.01241   0.00639  -0.0521  0.0058  1.0000  -3.8023   0.0000   0.0000   0.0000   0.2983
   6.600   0.9688   0.01274   0.00678  -0.0518  0.0060  1.0000  -3.8820   0.0000   0.0000   0.0000   0.2973
   6.700   0.9782   0.01311   0.00722  -0.0514  0.0061  1.0000  -3.9562   0.0000   0.0000   0.0000   0.2963
   6.800   0.9872   0.01354   0.00773  -0.0510  0.0063  1.0000  -4.0231   0.0000   0.0000   0.0000   0.2953
   6.900   0.9957   0.01405   0.00831  -0.0505  0.0066  1.0000  -4.0807   0.0000   0.0000   0.0000   0.2943
   7.000   1.0036   0.01466   0.00901  -0.0500  0.0068  1.0000  -4.1267   0.0000   0.0000   0.0000   0.2932
   7.100   1.0105   0.01543   0.00987  -0.0492  0.0071  1.0000  -4.1536   0.0000   0.0000   0.0000   0.2920
   7.200   1.0126   0.01721   0.01178  -0.0477  0.0080  1.0000  -4.0455   0.0000   0.0000   0.0000   0.2903
   7.300   1.0246   0.01702   0.01157  -0.0478  0.0083  1.0000  -4.1932   0.0000   0.0000   0.0000   0.2897
   7.400   1.0371   0.01681   0.01139  -0.0478  0.0093  1.0000  -4.3150   0.0000   0.0000   0.0000   0.2890
   9.400   1.1628   0.04017   0.03675  -0.0347  0.0133  1.0000  -4.9042   0.0000   0.0000   0.0000   0.2706
   9.500   1.1684   0.04075   0.03739  -0.0342  0.0128  1.0000  -4.9870   0.0000   0.0000   0.0000   0.2699
   9.600   1.1727   0.04153   0.03824  -0.0336  0.0124  1.0000  -5.0579   0.0000   0.0000   0.0000   0.2691
   9.700   1.1759   0.04240   0.03918  -0.0329  0.0120  1.0000  -5.1224   0.0000   0.0000   0.0000   0.2684
   9.800   1.1784   0.04333   0.04019  -0.0323  0.0116  1.0000  -5.1828   0.0000   0.0000   0.0000   0.2677
   9.900   1.1802   0.04429   0.04122  -0.0316  0.0113  1.0000  -5.2402   0.0000   0.0000   0.0000   0.2670
  10.000   1.1813   0.04527   0.04227  -0.0309  0.0111  1.0000  -5.2948   0.0000   0.0000   0.0000   0.2662
  10.100   1.1817   0.04627   0.04334  -0.0302  0.0109  1.0000  -5.3463   0.0000   0.0000   0.0000   0.2655
  10.200   1.1814   0.04727   0.04441  -0.0295  0.0107  1.0000  -5.3945   0.0000   0.0000   0.0000   0.2648
  10.300   1.1804   0.04829   0.04548  -0.0287  0.0105  1.0000  -5.4387   0.0000   0.0000   0.0000   0.2640
  10.400   1.1780   0.04926   0.04652  -0.0277  0.0104  1.0000  -5.4740   0.0000   0.0000   0.0000   0.2631
  10.500   1.1739   0.05020   0.04751  -0.0265  0.0103  1.0000  -5.4992   0.0000   0.0000   0.0000   0.2621
  10.600   1.1690   0.05117   0.04854  -0.0254  0.0102  1.0000  -5.5175   0.0000   0.0000   0.0000   0.2611
  10.700   1.1636   0.05222   0.04964  -0.0245  0.0102  1.0000  -5.5308   0.0000   0.0000   0.0000   0.2603
  10.800   1.1579   0.05337   0.05084  -0.0238  0.0101  1.0000  -5.5401   0.0000   0.0000   0.0000   0.2596
  10.900   1.1521   0.05464   0.05216  -0.0234  0.0101  1.0000  -5.5458   0.0000   0.0000   0.0000   0.2592
  11.000   1.1459   0.05600   0.05358  -0.0231  0.0100  1.0000  -5.5455   0.0000   0.0000   0.0000   0.2590
  11.100   1.1395   0.05750   0.05514  -0.0231  0.0100  1.0000  -5.5412   0.0000   0.0000   0.0000   0.2590
  11.200   1.1330   0.05914   0.05684  -0.0234  0.0100  1.0000  -5.5327   0.0000   0.0000   0.0000   0.2592
  11.300   1.1263   0.06094   0.05870  -0.0240  0.0099  1.0000  -5.5187   0.0000   0.0000   0.0000   0.2596
  11.400   1.1193   0.06291   0.06073  -0.0247  0.0099  1.0000  -5.4981   0.0000   0.0000   0.0000   0.2603
  11.500   1.1116   0.06503   0.06291  -0.0257  0.0099  1.0000  -5.4680   0.0000   0.0000   0.0000   0.2612
  11.600   1.1035   0.06735   0.06529  -0.0269  0.0099  1.0000  -5.4292   0.0000   0.0000   0.0000   0.2623
  11.700   1.0950   0.06991   0.06791  -0.0284  0.0100  1.0000  -5.3819   0.0000   0.0000   0.0000   0.2637
  11.800   1.0861   0.07272   0.07079  -0.0302  0.0100  1.0000  -5.3242   0.0000   0.0000   0.0000   0.2654
  11.900   1.0766   0.07584   0.07398  -0.0323  0.0101  1.0000  -5.2534   0.0000   0.0000   0.0000   0.2675
  12.000   1.0662   0.07933   0.07753  -0.0348  0.0101  1.0000  -5.1660   0.0000   0.0000   0.0000   0.2700
  12.100   1.0548   0.08324   0.08152  -0.0376  0.0102  1.0000  -5.0582   0.0000   0.0000   0.0000   0.2729
  12.200   1.0421   0.08769   0.08604  -0.0409  0.0104  1.0000  -4.9257   0.0000   0.0000   0.0000   0.2764
  12.300   1.0278   0.09278   0.09120  -0.0446  0.0106  1.0000  -4.7636   0.0000   0.0000   0.0000   0.2805
  12.400   1.0129   0.09842   0.09690  -0.0487  0.0109  1.0000  -4.5791   0.0000   0.0000   0.0000   0.2851
  12.500   0.9954   0.10499   0.10354  -0.0532  0.0113  1.0000  -4.3462   0.0000   0.0000   0.0000   0.2906
  12.600   0.9740   0.11347   0.11208  -0.0588  0.0121  1.0000  -4.0282   0.0000   0.0000   0.0000   0.2976
  12.700   0.9506   0.12385   0.12250  -0.0648  0.0131  1.0000  -3.6198   0.0000   0.0000   0.0000   0.3057
  12.800   0.9382   0.13094   0.12958  -0.0682  0.0134  1.0000  -3.3646   0.0000   0.0000   0.0000   0.3103
  12.900   0.9335   0.13506   0.13369  -0.0701  0.0133  1.0000  -3.2572   0.0000   0.0000   0.0000   0.3129
  13.000   0.9300   0.13866   0.13729  -0.0719  0.0132  1.0000  -3.1732   0.0000   0.0000   0.0000   0.3150
  13.100   0.9272   0.14200   0.14063  -0.0735  0.0131  1.0000  -3.1013   0.0000   0.0000   0.0000   0.3170
  13.200   0.9249   0.14516   0.14378  -0.0750  0.0129  1.0000  -3.0373   0.0000   0.0000   0.0000   0.3188
  13.300   0.9231   0.14819   0.14680  -0.0765  0.0128  1.0000  -2.9792   0.0000   0.0000   0.0000   0.3205
  13.400   0.9216   0.15111   0.14971  -0.0779  0.0126  1.0000  -2.9259   0.0000   0.0000   0.0000   0.3222
  13.500   0.9203   0.15392   0.15253  -0.0793  0.0124  1.0000  -2.8769   0.0000   0.0000   0.0000   0.3237
  13.600   0.9193   0.15669   0.15529  -0.0807  0.0123  1.0000  -2.8301   0.0000   0.0000   0.0000   0.3252
  13.700   0.9187   0.15933   0.15793  -0.0820  0.0121  1.0000  -2.7898   0.0000   0.0000   0.0000   0.3267
  13.800   0.9182   0.16188   0.16048  -0.0833  0.0118  1.0000  -2.7544   0.0000   0.0000   0.0000   0.3280
  13.900   0.9181   0.16434   0.16293  -0.0845  0.0116  1.0000  -2.7239   0.0000   0.0000   0.0000   0.3293
  14.000   0.9182   0.16671   0.16530  -0.0857  0.0114  1.0000  -2.6979   0.0000   0.0000   0.0000   0.3305
  14.100   0.9184   0.16899   0.16758  -0.0868  0.0112  1.0000  -2.6762   0.0000   0.0000   0.0000   0.3316
  14.200   0.9189   0.17120   0.16979  -0.0879  0.0110  1.0000  -2.6588   0.0000   0.0000   0.0000   0.3327
  14.300   0.9196   0.17334   0.17192  -0.0890  0.0108  1.0000  -2.6455   0.0000   0.0000   0.0000   0.3337
  14.400   0.9204   0.17541   0.17399  -0.0900  0.0106  1.0000  -2.6362   0.0000   0.0000   0.0000   0.3346
  14.500   0.9214   0.17740   0.17598  -0.0910  0.0104  1.0000  -2.6309   0.0000   0.0000   0.0000   0.3355
  14.600   0.9225   0.17933   0.17791  -0.0920  0.0102  1.0000  -2.6295   0.0000   0.0000   0.0000   0.3364
  14.700   0.9238   0.18120   0.17977  -0.0930  0.0101  1.0000  -2.6321   0.0000   0.0000   0.0000   0.3371
  14.800   0.9253   0.18296   0.18154  -0.0939  0.0099  1.0000  -2.6388   0.0000   0.0000   0.0000   0.3379
  14.900   0.9269   0.18460   0.18318  -0.0948  0.0098  1.0000  -2.6479   0.0000   0.0000   0.0000   0.3386
  15.000   0.9286   0.18613   0.18471  -0.0957  0.0096  1.0000  -2.6609   0.0000   0.0000   0.0000   0.3392
  15.100   0.9305   0.18760   0.18618  -0.0966  0.0095  1.0000  -2.6777   0.0000   0.0000   0.0000   0.3398
  15.200   0.9325   0.18902   0.18760  -0.0974  0.0093  1.0000  -2.6981   0.0000   0.0000   0.0000   0.3404
  15.300   0.9346   0.19040   0.18898  -0.0982  0.0092  1.0000  -2.7220   0.0000   0.0000   0.0000   0.3409
  15.400   0.9367   0.19176   0.19034  -0.0990  0.0091  1.0000  -2.7494   0.0000   0.0000   0.0000   0.3413
  15.500   0.9389   0.19309   0.19167  -0.0998  0.0090  1.0000  -2.7802   0.0000   0.0000   0.0000   0.3418
  15.600   0.9410   0.19449   0.19307  -0.1006  0.0089  1.0000  -2.8070   0.0000   0.0000   0.0000   0.3422
  15.700   0.9427   0.19607   0.19466  -0.1015  0.0087  1.0000  -2.8213   0.0000   0.0000   0.0000   0.3429
  15.800   0.9444   0.19769   0.19628  -0.1024  0.0086  1.0000  -2.8342   0.0000   0.0000   0.0000   0.3435
  15.900   0.9458   0.19939   0.19798  -0.1033  0.0085  1.0000  -2.8417   0.0000   0.0000   0.0000   0.3442
  16.000   0.9465   0.20134   0.19992  -0.1043  0.0083  1.0000  -2.8312   0.0000   0.0000   0.0000   0.3450
  16.100   0.9338   0.20951   0.20806  -0.1075  0.0077  1.0000  -2.3386   0.0000   0.0000   0.0000   0.3501
  16.200   0.9358   0.21154   0.21008  -0.1084  0.0077  1.0000  -2.3205   0.0000   0.0000   0.0000   0.3508
  16.300   0.9378   0.21357   0.21211  -0.1094  0.0077  1.0000  -2.3031   0.0000   0.0000   0.0000   0.3514
  16.400   0.9398   0.21559   0.21413  -0.1103  0.0077  1.0000  -2.2864   0.0000   0.0000   0.0000   0.3520
  16.500   0.9418   0.21761   0.21616  -0.1112  0.0077  1.0000  -2.2704   0.0000   0.0000   0.0000   0.3527
  16.600   0.9439   0.21964   0.21818  -0.1121  0.0077  1.0000  -2.2549   0.0000   0.0000   0.0000   0.3533
  16.700   0.9460   0.22166   0.22020  -0.1131  0.0077  1.0000  -2.2401   0.0000   0.0000   0.0000   0.3539
  16.800   0.9481   0.22368   0.22222  -0.1140  0.0077  1.0000  -2.2258   0.0000   0.0000   0.0000   0.3545
  16.900   0.9502   0.22570   0.22424  -0.1149  0.0077  1.0000  -2.2120   0.0000   0.0000   0.0000   0.3550
  17.000   0.9523   0.22772   0.22626  -0.1158  0.0077  1.0000  -2.1990   0.0000   0.0000   0.0000   0.3556
  17.100   0.9545   0.22974   0.22828  -0.1167  0.0077  1.0000  -2.1865   0.0000   0.0000   0.0000   0.3561
  17.200   0.9566   0.23176   0.23030  -0.1176  0.0077  1.0000  -2.1745   0.0000   0.0000   0.0000   0.3567
  17.300   0.9588   0.23378   0.23233  -0.1185  0.0077  1.0000  -2.1629   0.0000   0.0000   0.0000   0.3572
  17.400   0.9610   0.23581   0.23435  -0.1194  0.0077  1.0000  -2.1517   0.0000   0.0000   0.0000   0.3577
  17.500   0.9632   0.23783   0.23638  -0.1203  0.0077  1.0000  -2.1410   0.0000   0.0000   0.0000   0.3582
  17.600   0.9653   0.23985   0.23840  -0.1211  0.0077  1.0000  -2.1306   0.0000   0.0000   0.0000   0.3588
  17.700   0.9676   0.24188   0.24043  -0.1220  0.0076  1.0000  -2.1207   0.0000   0.0000   0.0000   0.3593
  17.800   0.9698   0.24390   0.24245  -0.1229  0.0076  1.0000  -2.1113   0.0000   0.0000   0.0000   0.3597
  17.900   0.9720   0.24592   0.24447  -0.1238  0.0076  1.0000  -2.1024   0.0000   0.0000   0.0000   0.3602
  18.000   0.9742   0.24794   0.24649  -0.1247  0.0076  1.0000  -2.0940   0.0000   0.0000   0.0000   0.3607
  18.100   0.9765   0.24996   0.24851  -0.1255  0.0076  1.0000  -2.0862   0.0000   0.0000   0.0000   0.3612
  18.200   0.9787   0.25197   0.25052  -0.1264  0.0076  1.0000  -2.0790   0.0000   0.0000   0.0000   0.3616
  18.300   0.9810   0.25397   0.25252  -0.1273  0.0076  1.0000  -2.0726   0.0000   0.0000   0.0000   0.3621
  18.400   0.9833   0.25596   0.25452  -0.1281  0.0076  1.0000  -2.0669   0.0000   0.0000   0.0000   0.3625
  18.500   0.9856   0.25795   0.25650  -0.1290  0.0075  1.0000  -2.0622   0.0000   0.0000   0.0000   0.3630
  18.600   0.9879   0.25992   0.25847  -0.1299  0.0075  1.0000  -2.0588   0.0000   0.0000   0.0000   0.3634
  18.700   0.9903   0.26186   0.26042  -0.1307  0.0075  1.0000  -2.0569   0.0000   0.0000   0.0000   0.3638
  18.800   0.9927   0.26378   0.26234  -0.1316  0.0074  1.0000  -2.0566   0.0000   0.0000   0.0000   0.3642
  18.900   0.9953   0.26565   0.26421  -0.1324  0.0074  1.0000  -2.0590   0.0000   0.0000   0.0000   0.3646
  19.000   0.9980   0.26747   0.26603  -0.1333  0.0073  1.0000  -2.0642   0.0000   0.0000   0.0000   0.3649
  19.100   1.0008   0.26933   0.26789  -0.1342  0.0071  1.0000  -2.0639   0.0000   0.0000   0.0000   0.3653
  19.200   1.0036   0.27133   0.26990  -0.1352  0.0069  1.0000  -2.0527   0.0000   0.0000   0.0000   0.3658
  19.300   1.0061   0.27342   0.27199  -0.1361  0.0067  1.0000  -2.0393   0.0000   0.0000   0.0000   0.3662
  19.400   1.0085   0.27554   0.27411  -0.1370  0.0064  1.0000  -2.0266   0.0000   0.0000   0.0000   0.3666
  19.500   1.0108   0.27766   0.27623  -0.1378  0.0062  1.0000  -2.0161   0.0000   0.0000   0.0000   0.3671
  19.600   1.0130   0.27978   0.27836  -0.1387  0.0060  1.0000  -2.0082   0.0000   0.0000   0.0000   0.3674
  19.700   1.0151   0.28190   0.28047  -0.1395  0.0058  1.0000  -2.0023   0.0000   0.0000   0.0000   0.3678
  19.800   1.0171   0.28400   0.28258  -0.1403  0.0057  1.0000  -1.9984   0.0000   0.0000   0.0000   0.3682
  19.900   1.0191   0.28610   0.28468  -0.1411  0.0055  1.0000  -1.9962   0.0000   0.0000   0.0000   0.3686
  20.000   1.0211   0.28819   0.28677  -0.1420  0.0053  1.0000  -1.9957   0.0000   0.0000   0.0000   0.3690
  20.100   1.0230   0.29027   0.28885  -0.1428  0.0052  1.0000  -1.9968   0.0000   0.0000   0.0000   0.3693
  20.200   1.0250   0.29234   0.29092  -0.1435  0.0050  1.0000  -1.9996   0.0000   0.0000   0.0000   0.3697
  20.300   1.0269   0.29439   0.29298  -0.1443  0.0049  1.0000  -2.0040   0.0000   0.0000   0.0000   0.3700
  20.400   1.0288   0.29630   0.29491  -0.1451  0.0046  1.0000  -2.0283   0.0000   0.0000   0.0000   0.3703
  20.500   1.0307   0.29828   0.29689  -0.1459  0.0044  1.0000  -2.0430   0.0000   0.0000   0.0000   0.3707
  20.600   1.0326   0.30023   0.29886  -0.1466  0.0043  1.0000  -2.0598   0.0000   0.0000   0.0000   0.3710
  20.700   1.0344   0.30217   0.30079  -0.1474  0.0041  1.0000  -2.0794   0.0000   0.0000   0.0000   0.3713
  20.800   1.0362   0.30408   0.30271  -0.1481  0.0040  1.0000  -2.1021   0.0000   0.0000   0.0000   0.3716
  20.900   1.0381   0.30596   0.30459  -0.1489  0.0039  1.0000  -2.1280   0.0000   0.0000   0.0000   0.3718
  21.000   1.0398   0.30781   0.30644  -0.1496  0.0038  1.0000  -2.1575   0.0000   0.0000   0.0000   0.3721
  21.100   1.0416   0.30962   0.30826  -0.1503  0.0037  1.0000  -2.1906   0.0000   0.0000   0.0000   0.3724
  21.200   1.0434   0.31140   0.31005  -0.1510  0.0036  1.0000  -2.2273   0.0000   0.0000   0.0000   0.3726
  21.300   1.0451   0.31315   0.31180  -0.1517  0.0035  1.0000  -2.2678   0.0000   0.0000   0.0000   0.3728
  21.400   1.0468   0.31487   0.31352  -0.1524  0.0034  1.0000  -2.3119   0.0000   0.0000   0.0000   0.3730
  21.500   1.0485   0.31655   0.31520  -0.1530  0.0033  1.0000  -2.3596   0.0000   0.0000   0.0000   0.3732
  21.600   1.0501   0.31820   0.31686  -0.1536  0.0033  1.0000  -2.4110   0.0000   0.0000   0.0000   0.3733
  21.700   1.0517   0.31987   0.31853  -0.1542  0.0032  1.0000  -2.4626   0.0000   0.0000   0.0000   0.3735
  21.800   1.0529   0.32173   0.32040  -0.1549  0.0031  1.0000  -2.5018   0.0000   0.0000   0.0000   0.3737
  22.900   1.0579   0.35208   0.35074  -0.1627  0.0018  1.0000  -2.1327   0.0000   0.0000   0.0000   0.3790
  23.000   1.0577   0.35462   0.35328  -0.1633  0.0018  1.0000  -2.1079   0.0000   0.0000   0.0000   0.3794
  23.100   1.0572   0.35715   0.35582  -0.1637  0.0019  1.0000  -2.0824   0.0000   0.0000   0.0000   0.3798
  23.200   1.0564   0.35966   0.35833  -0.1642  0.0019  1.0000  -2.0559   0.0000   0.0000   0.0000   0.3802
  23.300   1.0552   0.36216   0.36083  -0.1646  0.0020  1.0000  -2.0280   0.0000   0.0000   0.0000   0.3806
  23.400   1.0534   0.36463   0.36330  -0.1649  0.0020  1.0000  -1.9977   0.0000   0.0000   0.0000   0.3811
  23.500   1.0507   0.36708   0.36576  -0.1651  0.0021  1.0000  -1.9626   0.0000   0.0000   0.0000   0.3815
  23.600   1.0469   0.36947   0.36815  -0.1652  0.0022  1.0000  -1.9220   0.0000   0.0000   0.0000   0.3821
  23.700   1.0417   0.37160   0.37029  -0.1650  0.0023  1.0000  -1.8811   0.0000   0.0000   0.0000   0.3826
  24.100   0.8908   0.33857   0.33740  -0.1441  0.0024  1.0000  -1.4499   0.0000   0.0000   0.0000   0.3877
  24.200   0.8874   0.33857   0.33741  -0.1439  0.0024  1.0000  -1.4278   0.0000   0.0000   0.0000   0.3881
  24.300   0.8842   0.33863   0.33747  -0.1439  0.0024  1.0000  -1.4075   0.0000   0.0000   0.0000   0.3885
  24.400   0.8813   0.33873   0.33758  -0.1438  0.0024  1.0000  -1.3884   0.0000   0.0000   0.0000   0.3889
  24.500   0.8787   0.33886   0.33771  -0.1438  0.0024  1.0000  -1.3706   0.0000   0.0000   0.0000   0.3893
  24.600   0.8762   0.33902   0.33788  -0.1438  0.0024  1.0000  -1.3537   0.0000   0.0000   0.0000   0.3897
  24.700   0.8738   0.33921   0.33808  -0.1438  0.0024  1.0000  -1.3377   0.0000   0.0000   0.0000   0.3900
  24.800   0.8716   0.33943   0.33829  -0.1438  0.0025  1.0000  -1.3224   0.0000   0.0000   0.0000   0.3904
  24.900   0.8696   0.33966   0.33853  -0.1439  0.0025  1.0000  -1.3077   0.0000   0.0000   0.0000   0.3907
  25.000   0.8676   0.33991   0.33879  -0.1440  0.0025  1.0000  -1.2937   0.0000   0.0000   0.0000   0.3911
  25.100   0.8658   0.34018   0.33906  -0.1441  0.0025  1.0000  -1.2802   0.0000   0.0000   0.0000   0.3914
  25.200   0.8641   0.34047   0.33935  -0.1442  0.0025  1.0000  -1.2672   0.0000   0.0000   0.0000   0.3918
  25.300   0.8624   0.34077   0.33966  -0.1443  0.0025  1.0000  -1.2546   0.0000   0.0000   0.0000   0.3921
  25.400   0.8609   0.34108   0.33997  -0.1444  0.0025  1.0000  -1.2425   0.0000   0.0000   0.0000   0.3924
  25.500   0.8594   0.34141   0.34030  -0.1446  0.0025  1.0000  -1.2307   0.0000   0.0000   0.0000   0.3927
  25.600   0.8580   0.34175   0.34065  -0.1447  0.0025  1.0000  -1.2193   0.0000   0.0000   0.0000   0.3931
  25.700   0.8566   0.34210   0.34100  -0.1449  0.0025  1.0000  -1.2080   0.0000   0.0000   0.0000   0.3934
  25.800   0.8554   0.34246   0.34137  -0.1450  0.0025  1.0000  -1.1969   0.0000   0.0000   0.0000   0.3937
  25.900   0.8541   0.34283   0.34174  -0.1452  0.0025  1.0000  -1.1862   0.0000   0.0000   0.0000   0.3940
  26.000   0.8529   0.34321   0.34213  -0.1454  0.0025  1.0000  -1.1757   0.0000   0.0000   0.0000   0.3943
  26.100   0.8518   0.34360   0.34252  -0.1456  0.0025  1.0000  -1.1654   0.0000   0.0000   0.0000   0.3947
  26.200   0.8507   0.34400   0.34292  -0.1458  0.0025  1.0000  -1.1554   0.0000   0.0000   0.0000   0.3950
  26.300   0.8497   0.34440   0.34333  -0.1460  0.0025  1.0000  -1.1457   0.0000   0.0000   0.0000   0.3953
  26.400   0.8487   0.34482   0.34374  -0.1462  0.0025  1.0000  -1.1362   0.0000   0.0000   0.0000   0.3956
  26.500   0.8478   0.34523   0.34416  -0.1464  0.0025  1.0000  -1.1269   0.0000   0.0000   0.0000   0.3959
  26.600   0.8469   0.34566   0.34459  -0.1466  0.0025  1.0000  -1.1178   0.0000   0.0000   0.0000   0.3962
  26.700   0.8460   0.34609   0.34503  -0.1469  0.0025  1.0000  -1.1089   0.0000   0.0000   0.0000   0.3965
  26.800   0.8452   0.34653   0.34547  -0.1471  0.0025  1.0000  -1.1003   0.0000   0.0000   0.0000   0.3968
  26.900   0.8443   0.34697   0.34591  -0.1473  0.0025  1.0000  -1.0918   0.0000   0.0000   0.0000   0.3971
  27.000   0.8436   0.34742   0.34637  -0.1476  0.0025  1.0000  -1.0834   0.0000   0.0000   0.0000   0.3973
  27.100   0.8428   0.34787   0.34684  -0.1478  0.0025  1.0000  -1.0752   0.0000   0.0000   0.0000   0.3976


