xflr5 v6.61

 Calculated polar for: S7055 (10.5%) Flat-Bottomed

 1 1 Reynolds number fixed          Mach number fixed         

 xtrf =   1.000 (top)        1.000 (bottom)
 Mach =   0.000     Re =     1.000 e 6     Ncrit =   9.000

  alpha     CL        CD       CDp       Cm    Top Xtr Bot Xtr   Cpmin    Chinge    XCp    
 ------- -------- --------- --------- -------- ------- ------- -------- --------- ---------
  -9.600  -0.6269   0.02466   0.02175  -0.0778  0.9338  0.0033  -10.3575   0.0000   0.0000   0.0000   0.1165
  -9.500  -0.6255   0.02277   0.01962  -0.0772  0.9283  0.0034  -10.3665   0.0000   0.0000   0.0000   0.1171
  -9.400  -0.6213   0.02149   0.01816  -0.0767  0.9235  0.0034  -10.2975   0.0000   0.0000   0.0000   0.1172
  -9.300  -0.6155   0.02055   0.01706  -0.0762  0.9193  0.0035  -10.1855   0.0000   0.0000   0.0000   0.1168
  -9.200  -0.6085   0.01982   0.01621  -0.0758  0.9153  0.0035  -10.0424   0.0000   0.0000   0.0000   0.1161
  -9.100  -0.6004   0.01924   0.01555  -0.0756  0.9126  0.0036  -9.8726   0.0000   0.0000   0.0000   0.1149
  -9.000  -0.5916   0.01880   0.01505  -0.0754  0.9096  0.0037  -9.6850   0.0000   0.0000   0.0000   0.1135
  -8.900  -0.5825   0.01848   0.01467  -0.0752  0.9065  0.0039  -9.4859   0.0000   0.0000   0.0000   0.1119
  -8.800  -0.5731   0.01821   0.01436  -0.0750  0.9034  0.0040  -9.2857   0.0000   0.0000   0.0000   0.1102
  -8.700  -0.5635   0.01800   0.01411  -0.0748  0.9005  0.0041  -9.1024   0.0000   0.0000   0.0000   0.1084
  -8.600  -0.5538   0.01782   0.01390  -0.0746  0.8976  0.0043  -8.9159   0.0000   0.0000   0.0000   0.1064
  -8.500  -0.5440   0.01765   0.01369  -0.0744  0.8948  0.0045  -8.7292   0.0000   0.0000   0.0000   0.1044
  -8.300  -0.5252   0.01698   0.01287  -0.0741  0.8898  0.0047  -8.3889   0.0000   0.0000   0.0000   0.1002
  -8.200  -0.5148   0.01687   0.01275  -0.0740  0.8879  0.0049  -8.1929   0.0000   0.0000   0.0000   0.0975
  -8.100  -0.5043   0.01677   0.01264  -0.0740  0.8858  0.0051  -7.9973   0.0000   0.0000   0.0000   0.0947
  -8.000  -0.4939   0.01667   0.01254  -0.0739  0.8835  0.0053  -7.8024   0.0000   0.0000   0.0000   0.0917
  -7.900  -0.4835   0.01659   0.01244  -0.0738  0.8810  0.0055  -7.6084   0.0000   0.0000   0.0000   0.0887
  -7.800  -0.4731   0.01651   0.01235  -0.0738  0.8784  0.0057  -7.4154   0.0000   0.0000   0.0000   0.0856
  -7.700  -0.4627   0.01644   0.01226  -0.0737  0.8757  0.0059  -7.2237   0.0000   0.0000   0.0000   0.0823
  -7.600  -0.4523   0.01639   0.01219  -0.0736  0.8730  0.0061  -7.0322   0.0000   0.0000   0.0000   0.0789
  -7.500  -0.4419   0.01636   0.01214  -0.0735  0.8700  0.0062  -6.8514   0.0000   0.0000   0.0000   0.0753
  -7.400  -0.4312   0.01637   0.01214  -0.0734  0.8667  0.0064  -6.6697   0.0000   0.0000   0.0000   0.0713
  -7.300  -0.4203   0.01639   0.01216  -0.0734  0.8645  0.0065  -6.4849   0.0000   0.0000   0.0000   0.0669
  -7.200  -0.4093   0.01643   0.01222  -0.0734  0.8628  0.0067  -6.2989   0.0000   0.0000   0.0000   0.0622
  -7.100  -0.3982   0.01651   0.01231  -0.0735  0.8609  0.0068  -6.1116   0.0000   0.0000   0.0000   0.0571
  -7.000  -0.3870   0.01661   0.01244  -0.0735  0.8589  0.0069  -5.9229   0.0000   0.0000   0.0000   0.0517
  -6.900  -0.3758   0.01676   0.01261  -0.0736  0.8567  0.0070  -5.7326   0.0000   0.0000   0.0000   0.0459
  -6.800  -0.3644   0.01694   0.01282  -0.0736  0.8545  0.0071  -5.5404   0.0000   0.0000   0.0000   0.0396
  -6.700  -0.3530   0.01718   0.01309  -0.0737  0.8521  0.0072  -5.3451   0.0000   0.0000   0.0000   0.0329
  -6.600  -0.3414   0.01749   0.01344  -0.0737  0.8497  0.0073  -5.1444   0.0000   0.0000   0.0000   0.0256
  -6.500  -0.3295   0.01792   0.01391  -0.0738  0.8471  0.0074  -4.9337   0.0000   0.0000   0.0000   0.0175
  -6.400  -0.3169   0.01862   0.01470  -0.0740  0.8444  0.0075  -4.6941   0.0000   0.0000   0.0000   0.0080
  -6.300  -0.3030   0.01981   0.01602  -0.0743  0.8413  0.0076  -4.3976   0.0000   0.0000   0.0000  -0.0037
  -6.200  -0.3005   0.01697   0.01275  -0.0734  0.8373  0.0079  -4.5614   0.0000   0.0000   0.0000  -0.0029
  -6.100  -0.2942   0.01529   0.01081  -0.0728  0.8356  0.0081  -4.6101   0.0000   0.0000   0.0000  -0.0063
  -6.000  -0.2870   0.01392   0.00920  -0.0723  0.8336  0.0087  -4.6186   0.0000   0.0000   0.0000  -0.0109
  -5.900  -0.2773   0.01339   0.00859  -0.0721  0.8313  0.0089  -4.5517   0.0000   0.0000   0.0000  -0.0189
  -5.800  -0.2675   0.01294   0.00806  -0.0719  0.8287  0.0090  -4.4791   0.0000   0.0000   0.0000  -0.0277
  -5.700  -0.2576   0.01253   0.00758  -0.0717  0.8259  0.0092  -4.4029   0.0000   0.0000   0.0000  -0.0373
  -5.600  -0.2476   0.01217   0.00715  -0.0714  0.8230  0.0093  -4.3246   0.0000   0.0000   0.0000  -0.0478
  -5.500  -0.2375   0.01184   0.00676  -0.0712  0.8201  0.0094  -4.2451   0.0000   0.0000   0.0000  -0.0593
  -5.400  -0.2274   0.01153   0.00639  -0.0710  0.8172  0.0096  -4.1649   0.0000   0.0000   0.0000  -0.0718
  -5.300  -0.2173   0.01125   0.00604  -0.0708  0.8141  0.0097  -4.0845   0.0000   0.0000   0.0000  -0.0855
  -5.200  -0.2071   0.01099   0.00571  -0.0706  0.8108  0.0098  -4.0039   0.0000   0.0000   0.0000  -0.1007
  -5.100  -0.1968   0.01074   0.00541  -0.0704  0.8073  0.0099  -3.9230   0.0000   0.0000   0.0000  -0.1178
  -5.000  -0.1864   0.01049   0.00511  -0.0703  0.8060  0.0100  -3.8416   0.0000   0.0000   0.0000  -0.1375
  -4.900  -0.1758   0.01024   0.00483  -0.0701  0.8043  0.0101  -3.7606   0.0000   0.0000   0.0000  -0.1596
  -4.800  -0.1653   0.01002   0.00457  -0.0700  0.8024  0.0103  -3.6800   0.0000   0.0000   0.0000  -0.1845
  -4.700  -0.1547   0.00980   0.00432  -0.0698  0.8002  0.0104  -3.5999   0.0000   0.0000   0.0000  -0.2129
  -4.600  -0.1441   0.00960   0.00408  -0.0697  0.7977  0.0105  -3.5203   0.0000   0.0000   0.0000  -0.2455
  -4.500  -0.1335   0.00942   0.00385  -0.0695  0.7950  0.0107  -3.4409   0.0000   0.0000   0.0000  -0.2833
  -4.400  -0.1229   0.00926   0.00366  -0.0694  0.7921  0.0110  -3.3568   0.0000   0.0000   0.0000  -0.3280
  -4.300  -0.1122   0.00913   0.00350  -0.0693  0.7890  0.0114  -3.2685   0.0000   0.0000   0.0000  -0.3814
  -4.200  -0.1016   0.00902   0.00336  -0.0691  0.7857  0.0118  -3.1787   0.0000   0.0000   0.0000  -0.4459
  -4.100  -0.0909   0.00891   0.00322  -0.0690  0.7820  0.0123  -3.0906   0.0000   0.0000   0.0000  -0.5253
  -4.000  -0.0803   0.00882   0.00308  -0.0689  0.7779  0.0129  -3.0070   0.0000   0.0000   0.0000  -0.6258
  -3.900  -0.0695   0.00869   0.00293  -0.0688  0.7751  0.0135  -2.9311   0.0000   0.0000   0.0000  -0.7601
  -3.800  -0.0585   0.00853   0.00287  -0.0686  0.7732  0.0262  -2.9538   0.0000   0.0000   0.0000  -0.9470
  -3.700  -0.0465   0.00867   0.00306  -0.0688  0.7709  0.0269  -2.8353   0.0000   0.0000   0.0000  -1.2567
  -3.600  -0.0358   0.00853   0.00289  -0.0687  0.7683  0.0294  -2.7492   0.0000   0.0000   0.0000  -1.7027
  -3.500  -0.0251   0.00840   0.00276  -0.0687  0.7655  0.0326  -2.6625   0.0000   0.0000   0.0000  -2.5345
  -3.400  -0.0139   0.00839   0.00273  -0.0687  0.7624  0.0344  -2.5656   0.0000   0.0000   0.0000  -4.7630
  -3.300  -0.0029   0.00835   0.00269  -0.0686  0.7590  0.0356  -2.4680   0.0000   0.0000   0.0000  -23.7153
  -3.200   0.0080   0.00831   0.00262  -0.0686  0.7553  0.0365  -2.3737   0.0000   0.0000   0.0000   8.9497
  -3.100   0.0189   0.00828   0.00256  -0.0685  0.7513  0.0374  -2.2804   0.0000   0.0000   0.0000   3.9347
  -3.000   0.0298   0.00827   0.00253  -0.0685  0.7467  0.0385  -2.1863   0.0000   0.0000   0.0000   2.5827
  -2.900   0.0408   0.00824   0.00248  -0.0684  0.7429  0.0392  -2.0945   0.0000   0.0000   0.0000   1.9511
  -2.800   0.0519   0.00816   0.00239  -0.0684  0.7409  0.0397  -2.0065   0.0000   0.0000   0.0000   1.5855
  -2.700   0.0629   0.00809   0.00230  -0.0684  0.7384  0.0400  -1.9200   0.0000   0.0000   0.0000   1.3493
  -2.600   0.0740   0.00802   0.00222  -0.0683  0.7357  0.0404  -1.8346   0.0000   0.0000   0.0000   1.1840
  -2.500   0.0850   0.00796   0.00214  -0.0683  0.7325  0.0407  -1.7504   0.0000   0.0000   0.0000   1.0619
  -2.400   0.0960   0.00791   0.00206  -0.0682  0.7290  0.0410  -1.6673   0.0000   0.0000   0.0000   0.9680
  -2.300   0.1069   0.00786   0.00198  -0.0681  0.7251  0.0412  -1.5852   0.0000   0.0000   0.0000   0.8935
  -2.200   0.1178   0.00783   0.00192  -0.0681  0.7210  0.0415  -1.5044   0.0000   0.0000   0.0000   0.8330
  -2.100   0.1286   0.00780   0.00186  -0.0680  0.7165  0.0417  -1.4245   0.0000   0.0000   0.0000   0.7829
  -2.000   0.1390   0.00765   0.00163  -0.0677  0.7116  0.0461  -1.3594   0.0000   0.0000   0.0000   0.7412
  -1.900   0.1498   0.00754   0.00154  -0.0677  0.7087  0.0528  -1.2859   0.0000   0.0000   0.0000   0.7049
  -1.800   0.1609   0.00747   0.00150  -0.0677  0.7068  0.0570  -1.2082   0.0000   0.0000   0.0000   0.6731
  -1.700   0.1721   0.00744   0.00146  -0.0677  0.7044  0.0597  -1.1308   0.0000   0.0000   0.0000   0.6454
  -1.600   0.1829   0.00731   0.00140  -0.0676  0.7017  0.0751  -1.0593   0.0000   0.0000   0.0000   0.6215
  -1.500   0.1936   0.00721   0.00136  -0.0675  0.6987  0.0927  -0.9864   0.0000   0.0000   0.0000   0.6003
  -1.400   0.2043   0.00710   0.00132  -0.0675  0.6954  0.1161  -0.9142   0.0000   0.0000   0.0000   0.5816
  -1.300   0.2147   0.00699   0.00128  -0.0674  0.6918  0.1441  -0.8420   0.0000   0.0000   0.0000   0.5648
  -1.200   0.2256   0.00695   0.00120  -0.0673  0.6880  0.1562  -0.7728   0.0000   0.0000   0.0000   0.5492
  -1.100   0.2356   0.00681   0.00117  -0.0672  0.6836  0.1978  -0.7287   0.0000   0.0000   0.0000   0.5356
  -1.000   0.2455   0.00666   0.00115  -0.0670  0.6785  0.2480  -0.6884   0.0000   0.0000   0.0000   0.5233
  -0.900   0.2557   0.00653   0.00114  -0.0669  0.6743  0.2918  -0.6559   0.0000   0.0000   0.0000   0.5118
  -0.800   0.2662   0.00640   0.00112  -0.0668  0.6722  0.3305  -0.6230   0.0000   0.0000   0.0000   0.5011
  -0.700   0.2767   0.00628   0.00111  -0.0668  0.6694  0.3674  -0.5910   0.0000   0.0000   0.0000   0.4911
  -0.600   0.2871   0.00617   0.00110  -0.0667  0.6662  0.4056  -0.5992   0.0000   0.0000   0.0000   0.4819
  -0.500   0.2973   0.00605   0.00109  -0.0665  0.6627  0.4466  -0.6073   0.0000   0.0000   0.0000   0.4733
  -0.400   0.3073   0.00593   0.00108  -0.0664  0.6590  0.4920  -0.6153   0.0000   0.0000   0.0000   0.4653
  -0.300   0.3170   0.00579   0.00108  -0.0661  0.6549  0.5428  -0.6232   0.0000   0.0000   0.0000   0.4578
  -0.200   0.3264   0.00566   0.00108  -0.0658  0.6504  0.5958  -0.6309   0.0000   0.0000   0.0000   0.4507
  -0.100   0.3355   0.00554   0.00108  -0.0654  0.6451  0.6490  -0.6391   0.0000   0.0000   0.0000   0.4439
   0.000   0.3443   0.00542   0.00109  -0.0649  0.6394  0.7019  -0.6473   0.0000   0.0000   0.0000   0.4374
   0.100   0.3533   0.00527   0.00111  -0.0645  0.6374  0.7550  -0.6557   0.0000   0.0000   0.0000   0.4311
   0.200   0.3621   0.00514   0.00112  -0.0639  0.6349  0.8025  -0.6640   0.0000   0.0000   0.0000   0.4250
   0.300   0.3711   0.00503   0.00114  -0.0633  0.6319  0.8469  -0.6723   0.0000   0.0000   0.0000   0.4191
   0.400   0.3807   0.00494   0.00117  -0.0628  0.6285  0.8925  -0.6811   0.0000   0.0000   0.0000   0.4134
   0.500   0.3940   0.00491   0.00120  -0.0632  0.6246  0.9319  -0.6921   0.0000   0.0000   0.0000   0.4086
   0.600   0.4127   0.00493   0.00122  -0.0648  0.6199  0.9548  -0.7071   0.0000   0.0000   0.0000   0.4051
   0.700   0.4309   0.00497   0.00124  -0.0663  0.6145  0.9693  -0.7218   0.0000   0.0000   0.0000   0.4019
   0.800   0.4509   0.00503   0.00125  -0.0682  0.6078  0.9776  -0.7376   0.0000   0.0000   0.0000   0.3993
   0.900   0.4687   0.00508   0.00126  -0.0697  0.6027  0.9848  -0.7521   0.0000   0.0000   0.0000   0.3966
   1.000   0.4900   0.00510   0.00128  -0.0719  0.6002  0.9915  -0.7688   0.0000   0.0000   0.0000   0.3946
   1.100   0.5161   0.00511   0.00127  -0.0752  0.5970  0.9968  -0.7885   0.0000   0.0000   0.0000   0.3935
   1.200   0.5392   0.00513   0.00128  -0.0779  0.5931  1.0000  -0.8064   0.0000   0.0000   0.0000   0.3921
   1.300   0.5494   0.00515   0.00128  -0.0777  0.5892  1.0000  -0.8166   0.0000   0.0000   0.0000   0.3890
   1.400   0.5595   0.00518   0.00129  -0.0775  0.5849  1.0000  -0.8267   0.0000   0.0000   0.0000   0.3860
   1.500   0.5695   0.00522   0.00129  -0.0773  0.5801  1.0000  -0.8368   0.0000   0.0000   0.0000   0.3831
   1.600   0.5793   0.00527   0.00130  -0.0771  0.5742  1.0000  -0.8468   0.0000   0.0000   0.0000   0.3803
   1.700   0.5891   0.00532   0.00131  -0.0769  0.5673  1.0000  -0.8590   0.0000   0.0000   0.0000   0.3776
   1.800   0.5995   0.00534   0.00132  -0.0767  0.5644  1.0000  -0.8717   0.0000   0.0000   0.0000   0.3750
   1.900   0.6098   0.00536   0.00133  -0.0765  0.5607  1.0000  -0.8843   0.0000   0.0000   0.0000   0.3725
   2.000   0.6199   0.00539   0.00134  -0.0764  0.5559  1.0000  -0.8970   0.0000   0.0000   0.0000   0.3701
   2.100   0.6300   0.00543   0.00136  -0.0762  0.5506  1.0000  -0.9095   0.0000   0.0000   0.0000   0.3677
   2.200   0.6399   0.00548   0.00137  -0.0759  0.5452  1.0000  -0.9220   0.0000   0.0000   0.0000   0.3654
   2.300   0.6497   0.00554   0.00139  -0.0757  0.5393  1.0000  -0.9345   0.0000   0.0000   0.0000   0.3632
   2.400   0.6595   0.00559   0.00141  -0.0755  0.5332  1.0000  -0.9469   0.0000   0.0000   0.0000   0.3610
   2.500   0.6697   0.00563   0.00144  -0.0753  0.5294  1.0000  -0.9597   0.0000   0.0000   0.0000   0.3589
   2.600   0.6801   0.00565   0.00146  -0.0751  0.5271  1.0000  -0.9726   0.0000   0.0000   0.0000   0.3569
   2.700   0.6904   0.00567   0.00148  -0.0750  0.5240  1.0000  -0.9859   0.0000   0.0000   0.0000   0.3549
   2.800   0.7006   0.00571   0.00150  -0.0748  0.5202  1.0000  -1.0003   0.0000   0.0000   0.0000   0.3530
   2.900   0.7107   0.00575   0.00152  -0.0746  0.5154  1.0000  -1.0146   0.0000   0.0000   0.0000   0.3511
   3.000   0.7206   0.00581   0.00155  -0.0744  0.5099  1.0000  -1.0287   0.0000   0.0000   0.0000   0.3493
   3.100   0.7303   0.00588   0.00158  -0.0741  0.5034  1.0000  -1.0427   0.0000   0.0000   0.0000   0.3475
   3.200   0.7399   0.00595   0.00162  -0.0739  0.4958  1.0000  -1.0568   0.0000   0.0000   0.0000   0.3457
   3.300   0.7501   0.00599   0.00165  -0.0737  0.4921  1.0000  -1.0713   0.0000   0.0000   0.0000   0.3440
   3.400   0.7604   0.00602   0.00167  -0.0736  0.4891  1.0000  -1.0869   0.0000   0.0000   0.0000   0.3424
   3.500   0.7707   0.00605   0.00170  -0.0734  0.4853  1.0000  -1.1033   0.0000   0.0000   0.0000   0.3408
   3.600   0.7808   0.00610   0.00174  -0.0732  0.4807  1.0000  -1.1196   0.0000   0.0000   0.0000   0.3392
   3.700   0.7906   0.00616   0.00177  -0.0730  0.4750  1.0000  -1.1357   0.0000   0.0000   0.0000   0.3377
   3.800   0.8003   0.00624   0.00186  -0.0727  0.4687  1.0000  -1.1525   0.0000   0.0000   0.0000   0.3361
   3.900   0.8098   0.00632   0.00190  -0.0725  0.4609  1.0000  -1.1704   0.0000   0.0000   0.0000   0.3346
   4.000   0.8199   0.00638   0.00194  -0.0723  0.4560  1.0000  -1.1889   0.0000   0.0000   0.0000   0.3332
   4.100   0.8301   0.00641   0.00198  -0.0721  0.4525  1.0000  -1.2076   0.0000   0.0000   0.0000   0.3318
   4.200   0.8397   0.00650   0.00202  -0.0718  0.4423  1.0000  -1.2259   0.0000   0.0000   0.0000   0.3304
   4.300   0.8476   0.00670   0.00209  -0.0713  0.4221  1.0000  -1.2425   0.0000   0.0000   0.0000   0.3289
   4.400   0.8567   0.00681   0.00214  -0.0710  0.4060  1.0000  -1.2605   0.0000   0.0000   0.0000   0.3275
   4.500   0.8644   0.00704   0.00223  -0.0704  0.3820  1.0000  -1.2777   0.0000   0.0000   0.0000   0.3260
   4.600   0.8719   0.00727   0.00232  -0.0698  0.3579  1.0000  -1.2964   0.0000   0.0000   0.0000   0.3245
   4.700   0.8805   0.00744   0.00240  -0.0694  0.3394  1.0000  -1.3162   0.0000   0.0000   0.0000   0.3232
   4.800   0.8885   0.00765   0.00250  -0.0689  0.3217  1.0000  -1.3375   0.0000   0.0000   0.0000   0.3218
   4.900   0.8981   0.00774   0.00256  -0.0687  0.3140  1.0000  -1.3617   0.0000   0.0000   0.0000   0.3206
   5.000   0.9075   0.00784   0.00263  -0.0684  0.3051  1.0000  -1.3859   0.0000   0.0000   0.0000   0.3194
   5.100   0.9160   0.00802   0.00272  -0.0680  0.2917  1.0000  -1.4089   0.0000   0.0000   0.0000   0.3182
   5.200   0.9251   0.00815   0.00280  -0.0677  0.2805  1.0000  -1.4328   0.0000   0.0000   0.0000   0.3170
   5.300   0.9339   0.00831   0.00289  -0.0673  0.2681  1.0000  -1.4582   0.0000   0.0000   0.0000   0.3158
   5.400   0.9422   0.00851   0.00301  -0.0669  0.2525  1.0000  -1.4847   0.0000   0.0000   0.0000   0.3146
   5.500   0.9513   0.00865   0.00309  -0.0666  0.2419  1.0000  -1.5127   0.0000   0.0000   0.0000   0.3135
   5.600   0.9592   0.00888   0.00323  -0.0661  0.2257  1.0000  -1.5390   0.0000   0.0000   0.0000   0.3123
   5.700   0.9682   0.00903   0.00332  -0.0658  0.2148  1.0000  -1.5672   0.0000   0.0000   0.0000   0.3112
   5.800   0.9762   0.00926   0.00346  -0.0653  0.1994  1.0000  -1.5938   0.0000   0.0000   0.0000   0.3101
   5.900   0.9850   0.00943   0.00357  -0.0650  0.1879  1.0000  -1.6245   0.0000   0.0000   0.0000   0.3091
   6.000   0.9928   0.00968   0.00372  -0.0645  0.1728  1.0000  -1.6620   0.0000   0.0000   0.0000   0.3079
   6.100   1.0013   0.00987   0.00384  -0.0641  0.1597  1.0000  -1.7011   0.0000   0.0000   0.0000   0.3069
   6.200   1.0085   0.01017   0.00402  -0.0636  0.1412  1.0000  -1.7375   0.0000   0.0000   0.0000   0.3058
   6.300   1.0161   0.01044   0.00419  -0.0631  0.1250  1.0000  -1.7858   0.0000   0.0000   0.0000   0.3047
   6.400   1.0237   0.01071   0.00437  -0.0626  0.1091  1.0000  -1.8544   0.0000   0.0000   0.0000   0.3036
   6.500   1.0414   0.01014   0.00420  -0.0635  0.1553  1.0000  -1.9361   0.0000   0.0000   0.0000   0.3034
   6.600   1.0498   0.01035   0.00435  -0.0631  0.1459  1.0000  -2.0394   0.0000   0.0000   0.0000   0.3024
   6.700   1.0584   0.01052   0.00448  -0.0628  0.1359  1.0000  -2.1446   0.0000   0.0000   0.0000   0.3015
   6.800   1.0655   0.01083   0.00467  -0.0622  0.1193  1.0000  -2.2417   0.0000   0.0000   0.0000   0.3004
   6.900   1.0728   0.01112   0.00487  -0.0617  0.1041  1.0000  -2.3410   0.0000   0.0000   0.0000   0.2994
   7.000   1.0790   0.01150   0.00512  -0.0610  0.0841  1.0000  -2.4341   0.0000   0.0000   0.0000   0.2983
   7.100   1.0840   0.01198   0.00543  -0.0602  0.0610  1.0000  -2.5204   0.0000   0.0000   0.0000   0.2972
   7.200   1.0896   0.01241   0.00573  -0.0594  0.0409  1.0000  -2.6091   0.0000   0.0000   0.0000   0.2960
   7.300   1.0937   0.01296   0.00612  -0.0584  0.0192  1.0000  -2.6879   0.0000   0.0000   0.0000   0.2948
   7.400   1.0986   0.01345   0.00651  -0.0574  0.0048  1.0000  -2.7690   0.0000   0.0000   0.0000   0.2936
   7.500   1.1072   0.01362   0.00666  -0.0571  0.0041  1.0000  -2.8688   0.0000   0.0000   0.0000   0.2927
   7.600   1.1160   0.01377   0.00681  -0.0567  0.0034  1.0000  -2.9647   0.0000   0.0000   0.0000   0.2919
   7.700   1.1250   0.01392   0.00697  -0.0564  0.0031  1.0000  -3.0625   0.0000   0.0000   0.0000   0.2911
   7.800   1.1339   0.01406   0.00713  -0.0561  0.0029  1.0000  -3.1638   0.0000   0.0000   0.0000   0.2902
   7.900   1.1427   0.01420   0.00730  -0.0558  0.0028  1.0000  -3.2674   0.0000   0.0000   0.0000   0.2894
   8.000   1.1515   0.01435   0.00748  -0.0554  0.0028  1.0000  -3.3729   0.0000   0.0000   0.0000   0.2886
   8.100   1.1601   0.01451   0.00766  -0.0551  0.0027  1.0000  -3.4796   0.0000   0.0000   0.0000   0.2878
   8.200   1.1687   0.01467   0.00784  -0.0547  0.0027  1.0000  -3.5870   0.0000   0.0000   0.0000   0.2870
   8.300   1.1771   0.01483   0.00804  -0.0543  0.0027  1.0000  -3.6988   0.0000   0.0000   0.0000   0.2862
   8.400   1.1853   0.01501   0.00824  -0.0539  0.0027  1.0000  -3.8142   0.0000   0.0000   0.0000   0.2854
   8.500   1.1935   0.01519   0.00845  -0.0535  0.0027  1.0000  -3.9287   0.0000   0.0000   0.0000   0.2846
   8.600   1.2014   0.01539   0.00867  -0.0530  0.0027  1.0000  -4.0421   0.0000   0.0000   0.0000   0.2838
   8.700   1.2091   0.01559   0.00891  -0.0525  0.0027  1.0000  -4.1539   0.0000   0.0000   0.0000   0.2830
   8.800   1.2166   0.01581   0.00916  -0.0520  0.0028  1.0000  -4.2643   0.0000   0.0000   0.0000   0.2821
   8.900   1.2240   0.01603   0.00942  -0.0514  0.0028  1.0000  -4.3730   0.0000   0.0000   0.0000   0.2813
   9.000   1.2311   0.01627   0.00969  -0.0508  0.0028  1.0000  -4.4796   0.0000   0.0000   0.0000   0.2804
   9.100   1.2379   0.01652   0.00997  -0.0502  0.0029  1.0000  -4.5832   0.0000   0.0000   0.0000   0.2795
   9.200   1.2439   0.01681   0.01036  -0.0494  0.0029  1.0000  -4.6899   0.0000   0.0000   0.0000   0.2786
   9.300   1.2493   0.01710   0.01069  -0.0485  0.0030  1.0000  -4.7804   0.0000   0.0000   0.0000   0.2775
   9.400   1.2540   0.01741   0.01105  -0.0475  0.0031  1.0000  -4.8614   0.0000   0.0000   0.0000   0.2764
   9.500   1.2581   0.01775   0.01143  -0.0464  0.0032  1.0000  -4.9347   0.0000   0.0000   0.0000   0.2753
   9.600   1.2616   0.01812   0.01185  -0.0452  0.0033  1.0000  -5.0014   0.0000   0.0000   0.0000   0.2741
   9.700   1.2646   0.01852   0.01232  -0.0440  0.0034  1.0000  -5.0620   0.0000   0.0000   0.0000   0.2729
   9.800   1.2670   0.01897   0.01282  -0.0427  0.0035  1.0000  -5.1169   0.0000   0.0000   0.0000   0.2717
   9.900   1.2689   0.01946   0.01338  -0.0414  0.0036  1.0000  -5.1660   0.0000   0.0000   0.0000   0.2704
  10.000   1.2700   0.02000   0.01398  -0.0401  0.0037  1.0000  -5.2091   0.0000   0.0000   0.0000   0.2692
  10.100   1.2705   0.02059   0.01464  -0.0387  0.0038  1.0000  -5.2469   0.0000   0.0000   0.0000   0.2679
  10.200   1.2704   0.02124   0.01536  -0.0373  0.0040  1.0000  -5.2777   0.0000   0.0000   0.0000   0.2667
  10.300   1.2697   0.02195   0.01613  -0.0359  0.0041  1.0000  -5.3024   0.0000   0.0000   0.0000   0.2654
  10.400   1.2683   0.02273   0.01698  -0.0345  0.0042  1.0000  -5.3207   0.0000   0.0000   0.0000   0.2642
  10.500   1.2662   0.02359   0.01791  -0.0331  0.0044  1.0000  -5.3317   0.0000   0.0000   0.0000   0.2629
  10.600   1.2633   0.02454   0.01894  -0.0316  0.0046  1.0000  -5.3333   0.0000   0.0000   0.0000   0.2617
  10.700   1.2592   0.02562   0.02009  -0.0301  0.0047  1.0000  -5.3212   0.0000   0.0000   0.0000   0.2604
  10.800   1.2530   0.02694   0.02149  -0.0285  0.0049  1.0000  -5.2812   0.0000   0.0000   0.0000   0.2591
  10.900   1.2507   0.02804   0.02262  -0.0271  0.0056  1.0000  -5.2405   0.0000   0.0000   0.0000   0.2579
  11.000   1.2619   0.02789   0.02247  -0.0272  0.0060  1.0000  -5.3963   0.0000   0.0000   0.0000   0.2576
  17.800   0.9445   0.20377   0.20214  -0.0820  0.0114  1.0000  -2.7332   0.0000   0.0000   0.0000   0.3145
  17.900   0.9448   0.20650   0.20487  -0.0832  0.0114  1.0000  -2.6883   0.0000   0.0000   0.0000   0.3156
  18.000   0.9454   0.20914   0.20752  -0.0843  0.0114  1.0000  -2.6487   0.0000   0.0000   0.0000   0.3166
  18.100   0.9461   0.21170   0.21007  -0.0854  0.0113  1.0000  -2.6138   0.0000   0.0000   0.0000   0.3176
  18.200   0.9471   0.21419   0.21256  -0.0865  0.0113  1.0000  -2.5837   0.0000   0.0000   0.0000   0.3186
  18.300   0.9483   0.21658   0.21495  -0.0875  0.0113  1.0000  -2.5589   0.0000   0.0000   0.0000   0.3194
  18.400   0.9498   0.21887   0.21723  -0.0885  0.0112  1.0000  -2.5409   0.0000   0.0000   0.0000   0.3202
  18.500   0.9519   0.22097   0.21934  -0.0894  0.0112  1.0000  -2.5339   0.0000   0.0000   0.0000   0.3209
  18.600   0.9547   0.22279   0.22116  -0.0903  0.0110  1.0000  -2.5440   0.0000   0.0000   0.0000   0.3214
  18.700   0.9579   0.22449   0.22286  -0.0911  0.0107  1.0000  -2.5607   0.0000   0.0000   0.0000   0.3217
  18.800   0.9609   0.22629   0.22466  -0.0919  0.0104  1.0000  -2.5709   0.0000   0.0000   0.0000   0.3221
  18.900   0.9634   0.22838   0.22675  -0.0928  0.0099  1.0000  -2.5642   0.0000   0.0000   0.0000   0.3226
  19.000   0.9649   0.23079   0.22916  -0.0938  0.0095  1.0000  -2.5400   0.0000   0.0000   0.0000   0.3234
  19.100   0.9662   0.23320   0.23157  -0.0948  0.0091  1.0000  -2.5162   0.0000   0.0000   0.0000   0.3242
  19.200   0.9675   0.23554   0.23391  -0.0958  0.0088  1.0000  -2.4979   0.0000   0.0000   0.0000   0.3250
  19.300   0.9689   0.23780   0.23616  -0.0968  0.0085  1.0000  -2.4854   0.0000   0.0000   0.0000   0.3257
  19.400   0.9703   0.23998   0.23834  -0.0977  0.0082  1.0000  -2.4781   0.0000   0.0000   0.0000   0.3264
  19.500   0.9718   0.24210   0.24046  -0.0986  0.0080  1.0000  -2.4754   0.0000   0.0000   0.0000   0.3271
  19.600   0.9734   0.24415   0.24251  -0.0995  0.0077  1.0000  -2.4772   0.0000   0.0000   0.0000   0.3277
  19.700   0.9750   0.24614   0.24450  -0.1004  0.0075  1.0000  -2.4838   0.0000   0.0000   0.0000   0.3282
  19.800   0.9767   0.24807   0.24643  -0.1012  0.0073  1.0000  -2.4949   0.0000   0.0000   0.0000   0.3287
  19.900   0.9785   0.24993   0.24830  -0.1021  0.0071  1.0000  -2.5103   0.0000   0.0000   0.0000   0.3292
  20.000   0.9804   0.25174   0.25011  -0.1029  0.0070  1.0000  -2.5301   0.0000   0.0000   0.0000   0.3297
  20.100   0.9823   0.25349   0.25186  -0.1036  0.0068  1.0000  -2.5544   0.0000   0.0000   0.0000   0.3301
  20.200   0.9842   0.25518   0.25355  -0.1044  0.0067  1.0000  -2.5830   0.0000   0.0000   0.0000   0.3304
  20.300   0.9862   0.25685   0.25522  -0.1052  0.0066  1.0000  -2.6135   0.0000   0.0000   0.0000   0.3308
  20.400   0.9882   0.25847   0.25684  -0.1059  0.0064  1.0000  -2.6479   0.0000   0.0000   0.0000   0.3311
  20.500   0.9903   0.26004   0.25842  -0.1066  0.0063  1.0000  -2.6863   0.0000   0.0000   0.0000   0.3314
  20.600   0.9924   0.26156   0.25994  -0.1073  0.0062  1.0000  -2.7284   0.0000   0.0000   0.0000   0.3317
  20.700   0.9943   0.26317   0.26155  -0.1081  0.0061  1.0000  -2.7657   0.0000   0.0000   0.0000   0.3320
  20.800   0.9960   0.26497   0.26335  -0.1089  0.0060  1.0000  -2.7918   0.0000   0.0000   0.0000   0.3324
  20.900   0.9974   0.26682   0.26521  -0.1097  0.0059  1.0000  -2.8151   0.0000   0.0000   0.0000   0.3329
  21.000   0.9984   0.26888   0.26727  -0.1105  0.0057  1.0000  -2.8255   0.0000   0.0000   0.0000   0.3334
  22.000   1.0012   0.29948   0.29784  -0.1200  0.0051  1.0000  -2.2119   0.0000   0.0000   0.0000   0.3414
  22.100   1.0026   0.30180   0.30016  -0.1208  0.0051  1.0000  -2.2011   0.0000   0.0000   0.0000   0.3419
  22.200   1.0040   0.30411   0.30247  -0.1216  0.0051  1.0000  -2.1909   0.0000   0.0000   0.0000   0.3423
  22.300   1.0054   0.30641   0.30478  -0.1223  0.0051  1.0000  -2.1814   0.0000   0.0000   0.0000   0.3428
  22.400   1.0068   0.30871   0.30708  -0.1231  0.0051  1.0000  -2.1727   0.0000   0.0000   0.0000   0.3432
  22.500   1.0082   0.31100   0.30937  -0.1239  0.0051  1.0000  -2.1646   0.0000   0.0000   0.0000   0.3436
  22.600   1.0096   0.31327   0.31165  -0.1247  0.0051  1.0000  -2.1575   0.0000   0.0000   0.0000   0.3440
  22.700   1.0110   0.31553   0.31391  -0.1254  0.0050  1.0000  -2.1516   0.0000   0.0000   0.0000   0.3444
  22.800   1.0124   0.31777   0.31615  -0.1262  0.0050  1.0000  -2.1473   0.0000   0.0000   0.0000   0.3448
  22.900   1.0138   0.31997   0.31836  -0.1269  0.0050  1.0000  -2.1449   0.0000   0.0000   0.0000   0.3452
  23.000   1.0153   0.32213   0.32052  -0.1277  0.0049  1.0000  -2.1451   0.0000   0.0000   0.0000   0.3456
  23.100   1.0170   0.32423   0.32261  -0.1284  0.0049  1.0000  -2.1490   0.0000   0.0000   0.0000   0.3459
  23.200   1.0187   0.32628   0.32467  -0.1291  0.0048  1.0000  -2.1550   0.0000   0.0000   0.0000   0.3463
  23.300   1.0205   0.32838   0.32678  -0.1299  0.0047  1.0000  -2.1569   0.0000   0.0000   0.0000   0.3466
  23.400   1.0219   0.33076   0.32915  -0.1307  0.0045  1.0000  -2.1419   0.0000   0.0000   0.0000   0.3470
  23.500   1.0231   0.33317   0.33157  -0.1314  0.0044  1.0000  -2.1248   0.0000   0.0000   0.0000   0.3475
  23.600   1.0242   0.33561   0.33401  -0.1322  0.0042  1.0000  -2.1077   0.0000   0.0000   0.0000   0.3479
  23.700   1.0251   0.33803   0.33644  -0.1329  0.0041  1.0000  -2.0920   0.0000   0.0000   0.0000   0.3483
  23.800   1.0259   0.34044   0.33885  -0.1335  0.0040  1.0000  -2.0780   0.0000   0.0000   0.0000   0.3487
  23.900   1.0266   0.34284   0.34125  -0.1342  0.0038  1.0000  -2.0655   0.0000   0.0000   0.0000   0.3491
  24.000   1.0272   0.34522   0.34364  -0.1349  0.0037  1.0000  -2.0543   0.0000   0.0000   0.0000   0.3495
  24.100   1.0276   0.34759   0.34601  -0.1355  0.0036  1.0000  -2.0442   0.0000   0.0000   0.0000   0.3499
  24.200   1.0280   0.34996   0.34841  -0.1362  0.0036  1.0000  -2.0327   0.0000   0.0000   0.0000   0.3503
  24.300   1.0282   0.35231   0.35076  -0.1368  0.0035  1.0000  -2.0233   0.0000   0.0000   0.0000   0.3507
  24.400   1.0284   0.35465   0.35310  -0.1374  0.0034  1.0000  -2.0145   0.0000   0.0000   0.0000   0.3511
  24.500   1.0284   0.35696   0.35542  -0.1380  0.0033  1.0000  -2.0062   0.0000   0.0000   0.0000   0.3515
  24.600   1.0282   0.35927   0.35773  -0.1386  0.0033  1.0000  -1.9981   0.0000   0.0000   0.0000   0.3519
  24.700   1.0279   0.36155   0.36002  -0.1391  0.0032  1.0000  -1.9902   0.0000   0.0000   0.0000   0.3523
  24.800   1.0274   0.36381   0.36229  -0.1396  0.0031  1.0000  -1.9823   0.0000   0.0000   0.0000   0.3527
  24.900   1.0266   0.36605   0.36453  -0.1401  0.0031  1.0000  -1.9741   0.0000   0.0000   0.0000   0.3531
  25.000   1.0255   0.36825   0.36673  -0.1406  0.0030  1.0000  -1.9655   0.0000   0.0000   0.0000   0.3535
  25.100   1.0241   0.37040   0.36890  -0.1410  0.0030  1.0000  -1.9561   0.0000   0.0000   0.0000   0.3540
  25.200   1.0221   0.37250   0.37100  -0.1413  0.0029  1.0000  -1.9455   0.0000   0.0000   0.0000   0.3544
  25.300   1.0194   0.37450   0.37301  -0.1416  0.0029  1.0000  -1.9328   0.0000   0.0000   0.0000   0.3549
  25.400   1.0154   0.37633   0.37485  -0.1416  0.0028  1.0000  -1.9163   0.0000   0.0000   0.0000   0.3554


