xflr5 v6.61

 Calculated polar for: S7055 (10.5%) Flat-Bottomed

 1 1 Reynolds number fixed          Mach number fixed         

 xtrf =   1.000 (top)        1.000 (bottom)
 Mach =   0.000     Re =     0.300 e 6     Ncrit =   9.000

  alpha     CL        CD       CDp       Cm    Top Xtr Bot Xtr   Cpmin    Chinge    XCp    
 ------- -------- --------- --------- -------- ------- ------- -------- --------- ---------
 -10.000  -0.3497   0.10835   0.10540  -0.0290  1.0000  0.0180  -1.7258   0.0000   0.0000   0.0000   0.1574
  -9.900  -0.3475   0.10708   0.10414  -0.0295  1.0000  0.0182  -1.7135   0.0000   0.0000   0.0000   0.1556
  -9.800  -0.3453   0.10580   0.10287  -0.0300  1.0000  0.0184  -1.7031   0.0000   0.0000   0.0000   0.1538
  -9.700  -0.3432   0.10451   0.10159  -0.0304  1.0000  0.0186  -1.6946   0.0000   0.0000   0.0000   0.1520
  -9.600  -0.3413   0.10321   0.10031  -0.0310  1.0000  0.0188  -1.6878   0.0000   0.0000   0.0000   0.1500
  -9.500  -0.3394   0.10191   0.09901  -0.0315  1.0000  0.0190  -1.6825   0.0000   0.0000   0.0000   0.1480
  -9.400  -0.3376   0.10060   0.09772  -0.0320  1.0000  0.0193  -1.6788   0.0000   0.0000   0.0000   0.1460
  -9.300  -0.3359   0.09928   0.09641  -0.0326  1.0000  0.0195  -1.6765   0.0000   0.0000   0.0000   0.1439
  -9.200  -0.3343   0.09796   0.09510  -0.0332  1.0000  0.0198  -1.6755   0.0000   0.0000   0.0000   0.1418
  -9.100  -0.3329   0.09664   0.09379  -0.0338  1.0000  0.0201  -1.6758   0.0000   0.0000   0.0000   0.1397
  -9.000  -0.3315   0.09531   0.09248  -0.0344  1.0000  0.0204  -1.6776   0.0000   0.0000   0.0000   0.1376
  -8.900  -0.3304   0.09398   0.09116  -0.0350  1.0000  0.0207  -1.6812   0.0000   0.0000   0.0000   0.1355
  -8.800  -0.3293   0.09264   0.08984  -0.0356  1.0000  0.0211  -1.6891   0.0000   0.0000   0.0000   0.1333
  -8.700  -0.3283   0.09129   0.08850  -0.0363  1.0000  0.0215  -1.6987   0.0000   0.0000   0.0000   0.1311
  -8.600  -0.3275   0.08993   0.08716  -0.0369  1.0000  0.0220  -1.7104   0.0000   0.0000   0.0000   0.1289
  -8.500  -0.3270   0.08858   0.08583  -0.0376  1.0000  0.0225  -1.7249   0.0000   0.0000   0.0000   0.1267
  -8.400  -0.3269   0.08724   0.08451  -0.0383  1.0000  0.0231  -1.7430   0.0000   0.0000   0.0000   0.1247
  -8.300  -0.3273   0.08593   0.08324  -0.0390  1.0000  0.0237  -1.7662   0.0000   0.0000   0.0000   0.1229
  -8.200  -0.3276   0.08557   0.08292  -0.0411  1.0000  0.0263  -1.8370   0.0000   0.0000   0.0000   0.1167
  -7.900  -0.3389   0.08337   0.08081  -0.0408  0.9970  0.0266  -1.8976   0.0000   0.0000   0.0000   0.1225
  -7.800  -0.3309   0.08103   0.07847  -0.0446  0.9937  0.0267  -1.9312   0.0000   0.0000   0.0000   0.1079
  -7.700  -0.3234   0.07852   0.07596  -0.0488  0.9899  0.0268  -1.9688   0.0000   0.0000   0.0000   0.0919
  -7.600  -0.3143   0.07564   0.07307  -0.0538  0.9862  0.0269  -2.0118   0.0000   0.0000   0.0000   0.0716
  -7.500  -0.3036   0.07249   0.06990  -0.0591  0.9839  0.0269  -2.0592   0.0000   0.0000   0.0000   0.0479
  -7.400  -0.2947   0.06954   0.06692  -0.0636  0.9806  0.0270  -2.1051   0.0000   0.0000   0.0000   0.0267
  -7.300  -0.2859   0.06662   0.06396  -0.0677  0.9771  0.0270  -2.1503   0.0000   0.0000   0.0000   0.0057
  -7.200  -0.2765   0.06366   0.06094  -0.0716  0.9742  0.0270  -2.1939   0.0000   0.0000   0.0000  -0.0168
  -7.100  -0.2670   0.06077   0.05799  -0.0752  0.9719  0.0271  -2.2327   0.0000   0.0000   0.0000  -0.0398
  -7.000  -0.2596   0.05828   0.05542  -0.0778  0.9682  0.0271  -2.2633   0.0000   0.0000   0.0000  -0.0580
  -6.900  -0.2530   0.05598   0.05306  -0.0799  0.9639  0.0271  -2.2874   0.0000   0.0000   0.0000  -0.0740
  -6.800  -0.2456   0.05371   0.05070  -0.0819  0.9604  0.0271  -2.3051   0.0000   0.0000   0.0000  -0.0919
  -6.700  -0.2379   0.05151   0.04840  -0.0837  0.9574  0.0271  -2.3159   0.0000   0.0000   0.0000  -0.1106
  -6.500  -0.2412   0.04475   0.04158  -0.0857  0.9479  0.0251  -2.4092   0.0000   0.0000   0.0000  -0.1138
  -6.400  -0.2367   0.04254   0.03926  -0.0864  0.9435  0.0246  -2.4448   0.0000   0.0000   0.0000  -0.1238
  -6.300  -0.2314   0.04041   0.03701  -0.0871  0.9397  0.0242  -2.4842   0.0000   0.0000   0.0000  -0.1350
  -6.200  -0.2123   0.04171   0.03811  -0.0871  0.9372  0.0273  -2.4210   0.0000   0.0000   0.0000  -0.1696
  -6.100  -0.2109   0.03943   0.03569  -0.0869  0.9320  0.0274  -2.4771   0.0000   0.0000   0.0000  -0.1717
  -6.000  -0.2093   0.03697   0.03307  -0.0868  0.9271  0.0276  -2.5390   0.0000   0.0000   0.0000  -0.1743
  -5.900  -0.2072   0.03447   0.03039  -0.0867  0.9228  0.0279  -2.5980   0.0000   0.0000   0.0000  -0.1779
  -5.600  -0.1781   0.03719   0.03311  -0.0864  0.9145  0.0425  -2.1372   0.0000   0.0000   0.0000  -0.2451
  -5.500  -0.1782   0.03397   0.02979  -0.0865  0.9103  0.0438  -2.1727   0.0000   0.0000   0.0000  -0.2450
  -5.100  -0.1527   0.02490   0.01971  -0.0832  0.8965  0.0283  -2.5851   0.0000   0.0000   0.0000  -0.3071
  -5.000  -0.1420   0.02492   0.01969  -0.0828  0.8938  0.0277  -2.5263   0.0000   0.0000   0.0000  -0.3455
  -4.800  -0.1267   0.02219   0.01669  -0.0817  0.8876  0.0261  -2.5625   0.0000   0.0000   0.0000  -0.4085
  -4.700  -0.1190   0.02090   0.01520  -0.0811  0.8840  0.0258  -2.5841   0.0000   0.0000   0.0000  -0.4461
  -4.600  -0.1106   0.01981   0.01395  -0.0806  0.8806  0.0256  -2.5941   0.0000   0.0000   0.0000  -0.4938
  -4.500  -0.1016   0.01886   0.01284  -0.0800  0.8773  0.0256  -2.5964   0.0000   0.0000   0.0000  -0.5534
  -4.400  -0.0923   0.01802   0.01186  -0.0795  0.8743  0.0256  -2.5927   0.0000   0.0000   0.0000  -0.6283
  -4.300  -0.0828   0.01729   0.01100  -0.0790  0.8716  0.0258  -2.5839   0.0000   0.0000   0.0000  -0.7233
  -4.200  -0.0730   0.01668   0.01027  -0.0785  0.8689  0.0262  -2.5694   0.0000   0.0000   0.0000  -0.8470
  -4.100  -0.0628   0.01625   0.00973  -0.0781  0.8662  0.0266  -2.5459   0.0000   0.0000   0.0000  -1.0171
  -4.000  -0.0535   0.01532   0.00868  -0.0776  0.8633  0.0278  -2.5730   0.0000   0.0000   0.0000  -1.2257
  -3.900  -0.0452   0.01436   0.00770  -0.0770  0.8601  0.0336  -2.6136   0.0000   0.0000   0.0000  -1.4841
  -3.800  -0.0343   0.01453   0.00787  -0.0769  0.8567  0.0397  -2.5657   0.0000   0.0000   0.0000  -2.0304
  -3.700  -0.0238   0.01447   0.00776  -0.0767  0.8534  0.0426  -2.5069   0.0000   0.0000   0.0000  -3.0293
  -3.600  -0.0148   0.01393   0.00718  -0.0764  0.8504  0.0489  -2.4590   0.0000   0.0000   0.0000  -4.9947
  -3.500  -0.0042   0.01397   0.00723  -0.0763  0.8475  0.0526  -2.3639   0.0000   0.0000   0.0000  -18.0542
  -3.400   0.0063   0.01392   0.00714  -0.0761  0.8448  0.0555  -2.2819   0.0000   0.0000   0.0000  12.4309
  -3.300   0.0169   0.01377   0.00695  -0.0758  0.8423  0.0572  -2.2084   0.0000   0.0000   0.0000   4.8070
  -3.200   0.0275   0.01365   0.00677  -0.0756  0.8397  0.0582  -2.1331   0.0000   0.0000   0.0000   3.0356
  -3.100   0.0382   0.01356   0.00663  -0.0754  0.8369  0.0589  -2.0557   0.0000   0.0000   0.0000   2.2502
  -3.000   0.0484   0.01333   0.00638  -0.0752  0.8341  0.0597  -1.9845   0.0000   0.0000   0.0000   1.8232
  -2.900   0.0577   0.01281   0.00582  -0.0748  0.8309  0.0613  -1.9286   0.0000   0.0000   0.0000   1.5626
  -2.800   0.0674   0.01247   0.00546  -0.0745  0.8276  0.0629  -1.8643   0.0000   0.0000   0.0000   1.3694
  -2.700   0.0773   0.01221   0.00518  -0.0742  0.8242  0.0647  -1.7953   0.0000   0.0000   0.0000   1.2219
  -2.600   0.0873   0.01201   0.00498  -0.0739  0.8209  0.0669  -1.7217   0.0000   0.0000   0.0000   1.1062
  -2.500   0.0976   0.01186   0.00483  -0.0737  0.8178  0.0696  -1.6451   0.0000   0.0000   0.0000   1.0130
  -2.400   0.1080   0.01173   0.00467  -0.0734  0.8148  0.0725  -1.5702   0.0000   0.0000   0.0000   0.9371
  -2.300   0.1185   0.01161   0.00451  -0.0732  0.8119  0.0755  -1.4976   0.0000   0.0000   0.0000   0.8739
  -2.200   0.1291   0.01151   0.00437  -0.0730  0.8090  0.0783  -1.4265   0.0000   0.0000   0.0000   0.8206
  -2.100   0.1393   0.01134   0.00417  -0.0727  0.8061  0.0827  -1.3616   0.0000   0.0000   0.0000   0.7767
  -2.000   0.1492   0.01109   0.00398  -0.0725  0.8031  0.0924  -1.2984   0.0000   0.0000   0.0000   0.7399
  -1.900   0.1595   0.01095   0.00385  -0.0723  0.7998  0.1023  -1.2301   0.0000   0.0000   0.0000   0.7067
  -1.800   0.1690   0.01063   0.00369  -0.0720  0.7963  0.1372  -1.1691   0.0000   0.0000   0.0000   0.6791
  -1.700   0.1775   0.01018   0.00359  -0.0717  0.7928  0.2258  -1.1073   0.0000   0.0000   0.0000   0.6566
  -1.600   0.1858   0.00977   0.00353  -0.0713  0.7894  0.3295  -1.0438   0.0000   0.0000   0.0000   0.6362
  -1.500   0.1942   0.00944   0.00347  -0.0709  0.7861  0.4122  -0.9792   0.0000   0.0000   0.0000   0.6170
  -1.400   0.2021   0.00911   0.00341  -0.0703  0.7829  0.4968  -0.9157   0.0000   0.0000   0.0000   0.5993
  -1.300   0.2093   0.00878   0.00338  -0.0694  0.7797  0.5891  -0.8537   0.0000   0.0000   0.0000   0.5831
  -1.200   0.2153   0.00845   0.00331  -0.0681  0.7764  0.6960  -0.8034   0.0000   0.0000   0.0000   0.5676
  -1.100   0.2224   0.00819   0.00335  -0.0670  0.7736  0.7807  -0.7646   0.0000   0.0000   0.0000   0.5521
  -1.000   0.2343   0.00801   0.00340  -0.0667  0.7706  0.8616  -0.7159   0.0000   0.0000   0.0000   0.5352
  -0.900   0.2614   0.00795   0.00339  -0.0696  0.7677  0.9312  -0.6368   0.0000   0.0000   0.0000   0.5166
  -0.800   0.2887   0.00793   0.00334  -0.0727  0.7644  0.9616  -0.5917   0.0000   0.0000   0.0000   0.5022
  -0.700   0.3126   0.00792   0.00328  -0.0753  0.7610  0.9782  -0.6070   0.0000   0.0000   0.0000   0.4909
  -0.600   0.3397   0.00790   0.00319  -0.0786  0.7576  0.9921  -0.6240   0.0000   0.0000   0.0000   0.4812
  -0.500   0.3653   0.00786   0.00308  -0.0817  0.7542  1.0000  -0.6403   0.0000   0.0000   0.0000   0.4732
  -0.400   0.3751   0.00786   0.00303  -0.0814  0.7507  1.0000  -0.6484   0.0000   0.0000   0.0000   0.4665
  -0.300   0.3850   0.00788   0.00298  -0.0811  0.7471  1.0000  -0.6572   0.0000   0.0000   0.0000   0.4601
  -0.200   0.3951   0.00792   0.00295  -0.0809  0.7433  1.0000  -0.6660   0.0000   0.0000   0.0000   0.4540
  -0.100   0.4049   0.00792   0.00294  -0.0807  0.7403  1.0000  -0.6747   0.0000   0.0000   0.0000   0.4484
   0.000   0.4147   0.00793   0.00293  -0.0805  0.7367  1.0000  -0.6834   0.0000   0.0000   0.0000   0.4430
   0.100   0.4245   0.00793   0.00291  -0.0802  0.7329  1.0000  -0.6921   0.0000   0.0000   0.0000   0.4378
   0.200   0.4344   0.00794   0.00289  -0.0800  0.7289  1.0000  -0.7009   0.0000   0.0000   0.0000   0.4328
   0.300   0.4442   0.00795   0.00286  -0.0797  0.7248  1.0000  -0.7098   0.0000   0.0000   0.0000   0.4280
   0.400   0.4541   0.00796   0.00283  -0.0794  0.7207  1.0000  -0.7196   0.0000   0.0000   0.0000   0.4234
   0.500   0.4641   0.00798   0.00279  -0.0791  0.7167  1.0000  -0.7295   0.0000   0.0000   0.0000   0.4190
   0.600   0.4741   0.00802   0.00277  -0.0789  0.7125  1.0000  -0.7395   0.0000   0.0000   0.0000   0.4147
   0.700   0.4842   0.00806   0.00277  -0.0787  0.7085  1.0000  -0.7494   0.0000   0.0000   0.0000   0.4107
   0.800   0.4940   0.00807   0.00278  -0.0784  0.7051  1.0000  -0.7591   0.0000   0.0000   0.0000   0.4069
   0.900   0.5039   0.00809   0.00279  -0.0782  0.7012  1.0000  -0.7690   0.0000   0.0000   0.0000   0.4032
   1.000   0.5139   0.00810   0.00279  -0.0780  0.6970  1.0000  -0.7789   0.0000   0.0000   0.0000   0.3997
   1.100   0.5238   0.00812   0.00279  -0.0777  0.6927  1.0000  -0.7888   0.0000   0.0000   0.0000   0.3962
   1.200   0.5338   0.00814   0.00279  -0.0774  0.6884  1.0000  -0.7988   0.0000   0.0000   0.0000   0.3929
   1.300   0.5437   0.00817   0.00278  -0.0772  0.6841  1.0000  -0.8089   0.0000   0.0000   0.0000   0.3896
   1.400   0.5537   0.00822   0.00276  -0.0769  0.6797  1.0000  -0.8190   0.0000   0.0000   0.0000   0.3865
   1.500   0.5639   0.00829   0.00277  -0.0767  0.6750  1.0000  -0.8291   0.0000   0.0000   0.0000   0.3835
   1.600   0.5738   0.00831   0.00279  -0.0765  0.6716  1.0000  -0.8398   0.0000   0.0000   0.0000   0.3807
   1.700   0.5838   0.00833   0.00281  -0.0763  0.6678  1.0000  -0.8512   0.0000   0.0000   0.0000   0.3779
   1.800   0.5937   0.00835   0.00283  -0.0760  0.6636  1.0000  -0.8636   0.0000   0.0000   0.0000   0.3753
   1.900   0.6037   0.00838   0.00284  -0.0758  0.6591  1.0000  -0.8759   0.0000   0.0000   0.0000   0.3727
   2.000   0.6137   0.00841   0.00284  -0.0755  0.6544  1.0000  -0.8884   0.0000   0.0000   0.0000   0.3701
   2.100   0.6236   0.00845   0.00283  -0.0753  0.6499  1.0000  -0.9009   0.0000   0.0000   0.0000   0.3676
   2.200   0.6336   0.00850   0.00283  -0.0750  0.6452  1.0000  -0.9134   0.0000   0.0000   0.0000   0.3652
   2.300   0.6436   0.00858   0.00285  -0.0748  0.6402  1.0000  -0.9260   0.0000   0.0000   0.0000   0.3629
   2.400   0.6536   0.00862   0.00289  -0.0746  0.6366  1.0000  -0.9384   0.0000   0.0000   0.0000   0.3607
   2.500   0.6636   0.00864   0.00293  -0.0743  0.6328  1.0000  -0.9510   0.0000   0.0000   0.0000   0.3586
   2.600   0.6736   0.00867   0.00296  -0.0741  0.6286  1.0000  -0.9635   0.0000   0.0000   0.0000   0.3565
   2.700   0.6835   0.00871   0.00299  -0.0739  0.6242  1.0000  -0.9762   0.0000   0.0000   0.0000   0.3545
   2.800   0.6935   0.00875   0.00301  -0.0736  0.6195  1.0000  -0.9902   0.0000   0.0000   0.0000   0.3525
   2.900   0.7034   0.00881   0.00303  -0.0734  0.6148  1.0000  -1.0043   0.0000   0.0000   0.0000   0.3505
   3.000   0.7132   0.00887   0.00304  -0.0731  0.6098  1.0000  -1.0185   0.0000   0.0000   0.0000   0.3486
   3.100   0.7231   0.00897   0.00308  -0.0728  0.6042  1.0000  -1.0326   0.0000   0.0000   0.0000   0.3468
   3.200   0.7330   0.00900   0.00312  -0.0726  0.6000  1.0000  -1.0468   0.0000   0.0000   0.0000   0.3450
   3.300   0.7429   0.00903   0.00317  -0.0724  0.5954  1.0000  -1.0610   0.0000   0.0000   0.0000   0.3433
   3.400   0.7528   0.00906   0.00320  -0.0721  0.5903  1.0000  -1.0759   0.0000   0.0000   0.0000   0.3416
   3.500   0.7627   0.00911   0.00324  -0.0719  0.5851  1.0000  -1.0919   0.0000   0.0000   0.0000   0.3399
   3.600   0.7725   0.00917   0.00326  -0.0716  0.5798  1.0000  -1.1079   0.0000   0.0000   0.0000   0.3383
   3.700   0.7823   0.00924   0.00329  -0.0713  0.5747  1.0000  -1.1239   0.0000   0.0000   0.0000   0.3366
   3.800   0.7920   0.00934   0.00333  -0.0711  0.5693  1.0000  -1.1399   0.0000   0.0000   0.0000   0.3351
   3.900   0.8021   0.00940   0.00349  -0.0709  0.5651  1.0000  -1.1576   0.0000   0.0000   0.0000   0.3336
   4.000   0.8121   0.00944   0.00355  -0.0707  0.5612  1.0000  -1.1760   0.0000   0.0000   0.0000   0.3322
   4.100   0.8221   0.00948   0.00360  -0.0705  0.5566  1.0000  -1.1944   0.0000   0.0000   0.0000   0.3308
   4.200   0.8320   0.00953   0.00365  -0.0702  0.5515  1.0000  -1.2127   0.0000   0.0000   0.0000   0.3294
   4.300   0.8418   0.00960   0.00369  -0.0700  0.5461  1.0000  -1.2311   0.0000   0.0000   0.0000   0.3280
   4.400   0.8514   0.00967   0.00373  -0.0697  0.5406  1.0000  -1.2495   0.0000   0.0000   0.0000   0.3266
   4.500   0.8610   0.00977   0.00378  -0.0694  0.5349  1.0000  -1.2685   0.0000   0.0000   0.0000   0.3253
   4.600   0.8707   0.00988   0.00386  -0.0692  0.5293  1.0000  -1.2895   0.0000   0.0000   0.0000   0.3240
   4.700   0.8808   0.00991   0.00393  -0.0690  0.5253  1.0000  -1.3108   0.0000   0.0000   0.0000   0.3228
   4.800   0.8907   0.00996   0.00400  -0.0688  0.5204  1.0000  -1.3338   0.0000   0.0000   0.0000   0.3216
   4.900   0.9006   0.01002   0.00406  -0.0686  0.5150  1.0000  -1.3582   0.0000   0.0000   0.0000   0.3203
   5.000   0.9102   0.01010   0.00412  -0.0683  0.5092  1.0000  -1.3826   0.0000   0.0000   0.0000   0.3191
   5.100   0.9197   0.01019   0.00417  -0.0680  0.5033  1.0000  -1.4069   0.0000   0.0000   0.0000   0.3179
   5.200   0.9290   0.01032   0.00424  -0.0677  0.4970  1.0000  -1.4311   0.0000   0.0000   0.0000   0.3167
   5.300   0.9387   0.01041   0.00433  -0.0674  0.4917  1.0000  -1.4559   0.0000   0.0000   0.0000   0.3156
   5.400   0.9487   0.01045   0.00441  -0.0672  0.4868  1.0000  -1.4850   0.0000   0.0000   0.0000   0.3146
   5.500   0.9585   0.01052   0.00448  -0.0670  0.4812  1.0000  -1.5140   0.0000   0.0000   0.0000   0.3135
   5.600   0.9681   0.01060   0.00456  -0.0668  0.4751  1.0000  -1.5430   0.0000   0.0000   0.0000   0.3124
   5.700   0.9773   0.01070   0.00463  -0.0664  0.4686  1.0000  -1.5716   0.0000   0.0000   0.0000   0.3113
   5.800   0.9858   0.01085   0.00470  -0.0660  0.4594  1.0000  -1.5995   0.0000   0.0000   0.0000   0.3102
   5.900   0.9952   0.01091   0.00476  -0.0657  0.4504  1.0000  -1.6355   0.0000   0.0000   0.0000   0.3091
   6.000   1.0037   0.01100   0.00482  -0.0652  0.4377  1.0000  -1.6750   0.0000   0.0000   0.0000   0.3080
   6.100   1.0107   0.01122   0.00488  -0.0645  0.4222  1.0000  -1.7168   0.0000   0.0000   0.0000   0.3067
   6.200   1.0195   0.01130   0.00495  -0.0642  0.4073  1.0000  -1.7888   0.0000   0.0000   0.0000   0.3057
   6.300   1.0260   0.01154   0.00504  -0.0634  0.3889  1.0000  -1.8541   0.0000   0.0000   0.0000   0.3044
   6.400   1.0342   0.01170   0.00514  -0.0630  0.3720  1.0000  -1.9262   0.0000   0.0000   0.0000   0.3034
   6.500   1.0484   0.01162   0.00543  -0.0635  0.3966  1.0000  -1.9878   0.0000   0.0000   0.0000   0.3029
   6.600   1.0560   0.01182   0.00554  -0.0629  0.3844  1.0000  -2.0552   0.0000   0.0000   0.0000   0.3018
   6.700   1.0645   0.01195   0.00564  -0.0625  0.3697  1.0000  -2.1290   0.0000   0.0000   0.0000   0.3009
   6.800   1.0706   0.01223   0.00578  -0.0618  0.3524  1.0000  -2.1958   0.0000   0.0000   0.0000   0.2997
   6.900   1.0790   0.01239   0.00589  -0.0614  0.3369  1.0000  -2.2945   0.0000   0.0000   0.0000   0.2988
   7.000   1.0859   0.01264   0.00605  -0.0608  0.3222  1.0000  -2.3923   0.0000   0.0000   0.0000   0.2977
   7.100   1.0943   0.01281   0.00619  -0.0604  0.3129  1.0000  -2.4988   0.0000   0.0000   0.0000   0.2968
   7.200   1.1028   0.01297   0.00633  -0.0600  0.3020  1.0000  -2.6076   0.0000   0.0000   0.0000   0.2959
   7.300   1.1100   0.01322   0.00650  -0.0595  0.2898  1.0000  -2.7099   0.0000   0.0000   0.0000   0.2949
   7.400   1.1179   0.01342   0.00666  -0.0590  0.2790  1.0000  -2.8166   0.0000   0.0000   0.0000   0.2940
   7.500   1.1258   0.01363   0.00683  -0.0586  0.2668  1.0000  -2.9245   0.0000   0.0000   0.0000   0.2931
   7.600   1.1323   0.01392   0.00703  -0.0580  0.2543  1.0000  -3.0253   0.0000   0.0000   0.0000   0.2922
   7.700   1.1403   0.01412   0.00720  -0.0576  0.2431  1.0000  -3.1349   0.0000   0.0000   0.0000   0.2913
   7.800   1.1468   0.01442   0.00741  -0.0569  0.2288  1.0000  -3.2360   0.0000   0.0000   0.0000   0.2904
   7.900   1.1537   0.01470   0.00762  -0.0564  0.2155  1.0000  -3.3386   0.0000   0.0000   0.0000   0.2894
   8.000   1.1595   0.01505   0.00787  -0.0557  0.1994  1.0000  -3.4348   0.0000   0.0000   0.0000   0.2885
   8.100   1.1656   0.01538   0.00812  -0.0550  0.1835  1.0000  -3.5308   0.0000   0.0000   0.0000   0.2875
   8.200   1.1690   0.01591   0.00847  -0.0540  0.1593  1.0000  -3.6102   0.0000   0.0000   0.0000   0.2864
   8.300   1.1706   0.01657   0.00889  -0.0528  0.1286  1.0000  -3.6781   0.0000   0.0000   0.0000   0.2852
   8.400   1.1726   0.01719   0.00932  -0.0517  0.1032  1.0000  -3.7457   0.0000   0.0000   0.0000   0.2840
   8.500   1.1751   0.01777   0.00975  -0.0506  0.0831  1.0000  -3.8135   0.0000   0.0000   0.0000   0.2829
   8.600   1.1772   0.01837   0.01021  -0.0494  0.0638  1.0000  -3.8747   0.0000   0.0000   0.0000   0.2817
   8.700   1.1777   0.01905   0.01074  -0.0481  0.0447  1.0000  -3.9238   0.0000   0.0000   0.0000   0.2803
   8.800   1.1745   0.01989   0.01138  -0.0461  0.0219  1.0000  -3.9537   0.0000   0.0000   0.0000   0.2787
   8.900   1.1739   0.02056   0.01197  -0.0445  0.0114  1.0000  -3.9931   0.0000   0.0000   0.0000   0.2772
   9.000   1.1782   0.02093   0.01236  -0.0436  0.0098  1.0000  -4.0538   0.0000   0.0000   0.0000   0.2761
   9.100   1.1824   0.02131   0.01277  -0.0426  0.0088  1.0000  -4.1177   0.0000   0.0000   0.0000   0.2750
   9.200   1.1867   0.02170   0.01319  -0.0417  0.0081  1.0000  -4.1838   0.0000   0.0000   0.0000   0.2740
   9.300   1.1910   0.02208   0.01362  -0.0409  0.0076  1.0000  -4.2510   0.0000   0.0000   0.0000   0.2730
   9.400   1.1953   0.02248   0.01407  -0.0400  0.0072  1.0000  -4.3178   0.0000   0.0000   0.0000   0.2720
   9.500   1.1994   0.02289   0.01454  -0.0391  0.0070  1.0000  -4.3845   0.0000   0.0000   0.0000   0.2710
   9.600   1.2023   0.02341   0.01520  -0.0381  0.0066  1.0000  -4.4183   0.0000   0.0000   0.0000   0.2699
   9.700   1.2054   0.02391   0.01577  -0.0372  0.0064  1.0000  -4.4707   0.0000   0.0000   0.0000   0.2689
   9.800   1.2084   0.02442   0.01635  -0.0363  0.0062  1.0000  -4.5286   0.0000   0.0000   0.0000   0.2680
   9.900   1.2112   0.02495   0.01696  -0.0354  0.0062  1.0000  -4.5872   0.0000   0.0000   0.0000   0.2670
  10.000   1.2137   0.02551   0.01759  -0.0346  0.0061  1.0000  -4.6511   0.0000   0.0000   0.0000   0.2661
  10.100   1.2158   0.02611   0.01825  -0.0337  0.0060  1.0000  -4.7140   0.0000   0.0000   0.0000   0.2652
  10.200   1.2176   0.02674   0.01895  -0.0328  0.0060  1.0000  -4.7750   0.0000   0.0000   0.0000   0.2642
  10.300   1.2192   0.02739   0.01966  -0.0320  0.0060  1.0000  -4.8346   0.0000   0.0000   0.0000   0.2634
  10.400   1.2204   0.02808   0.02041  -0.0311  0.0060  1.0000  -4.8913   0.0000   0.0000   0.0000   0.2625
  10.500   1.2213   0.02881   0.02120  -0.0303  0.0060  1.0000  -4.9464   0.0000   0.0000   0.0000   0.2616
  10.600   1.2222   0.02955   0.02200  -0.0295  0.0059  1.0000  -5.0012   0.0000   0.0000   0.0000   0.2608
  10.700   1.2228   0.03033   0.02284  -0.0288  0.0059  1.0000  -5.0542   0.0000   0.0000   0.0000   0.2600
  10.800   1.2234   0.03114   0.02370  -0.0280  0.0059  1.0000  -5.1063   0.0000   0.0000   0.0000   0.2592
  10.900   1.2238   0.03197   0.02459  -0.0273  0.0060  1.0000  -5.1579   0.0000   0.0000   0.0000   0.2585
  11.000   1.2240   0.03284   0.02551  -0.0267  0.0060  1.0000  -5.2076   0.0000   0.0000   0.0000   0.2577
  11.100   1.2240   0.03372   0.02644  -0.0260  0.0060  1.0000  -5.2563   0.0000   0.0000   0.0000   0.2570
  11.200   1.2241   0.03460   0.02738  -0.0254  0.0060  1.0000  -5.3055   0.0000   0.0000   0.0000   0.2564
  11.300   1.2242   0.03551   0.02834  -0.0248  0.0060  1.0000  -5.3539   0.0000   0.0000   0.0000   0.2557
  11.400   1.2241   0.03646   0.02934  -0.0243  0.0060  1.0000  -5.4010   0.0000   0.0000   0.0000   0.2551
  11.500   1.2241   0.03741   0.03035  -0.0237  0.0061  1.0000  -5.4487   0.0000   0.0000   0.0000   0.2545
  11.600   1.2243   0.03838   0.03136  -0.0232  0.0061  1.0000  -5.4969   0.0000   0.0000   0.0000   0.2539
  11.700   1.2243   0.03937   0.03241  -0.0228  0.0061  1.0000  -5.5435   0.0000   0.0000   0.0000   0.2533
  11.800   1.2242   0.04039   0.03347  -0.0223  0.0061  1.0000  -5.5893   0.0000   0.0000   0.0000   0.2528
  11.900   1.2244   0.04140   0.03454  -0.0219  0.0062  1.0000  -5.6358   0.0000   0.0000   0.0000   0.2523
  12.000   1.2246   0.04241   0.03560  -0.0215  0.0062  1.0000  -5.6824   0.0000   0.0000   0.0000   0.2517
  12.100   1.2248   0.04344   0.03668  -0.0211  0.0063  1.0000  -5.7279   0.0000   0.0000   0.0000   0.2512
  12.200   1.2249   0.04450   0.03779  -0.0208  0.0063  1.0000  -5.7714   0.0000   0.0000   0.0000   0.2508
  12.300   1.2250   0.04556   0.03890  -0.0204  0.0064  1.0000  -5.8144   0.0000   0.0000   0.0000   0.2503
  12.400   1.2253   0.04662   0.04001  -0.0200  0.0064  1.0000  -5.8570   0.0000   0.0000   0.0000   0.2498
  12.500   1.2256   0.04766   0.04111  -0.0196  0.0065  1.0000  -5.8977   0.0000   0.0000   0.0000   0.2493
  12.600   1.2258   0.04872   0.04223  -0.0192  0.0065  1.0000  -5.9357   0.0000   0.0000   0.0000   0.2488
  12.700   1.2258   0.04982   0.04339  -0.0188  0.0066  1.0000  -5.9702   0.0000   0.0000   0.0000   0.2483
  12.800   1.2259   0.05095   0.04458  -0.0184  0.0067  1.0000  -6.0014   0.0000   0.0000   0.0000   0.2478
  12.900   1.2260   0.05209   0.04579  -0.0180  0.0068  1.0000  -6.0291   0.0000   0.0000   0.0000   0.2473
  13.000   1.2263   0.05326   0.04704  -0.0176  0.0069  1.0000  -6.0523   0.0000   0.0000   0.0000   0.2467
  13.100   1.2266   0.05447   0.04833  -0.0171  0.0070  1.0000  -6.0700   0.0000   0.0000   0.0000   0.2462
  13.200   1.2268   0.05572   0.04967  -0.0166  0.0072  1.0000  -6.0816   0.0000   0.0000   0.0000   0.2456
  13.300   1.2269   0.05704   0.05109  -0.0161  0.0074  1.0000  -6.0874   0.0000   0.0000   0.0000   0.2450
  13.400   1.2266   0.05844   0.05258  -0.0157  0.0075  1.0000  -6.0880   0.0000   0.0000   0.0000   0.2445
  13.500   1.2260   0.05991   0.05416  -0.0152  0.0077  1.0000  -6.0845   0.0000   0.0000   0.0000   0.2439
  13.600   1.2247   0.06149   0.05584  -0.0149  0.0079  1.0000  -6.0769   0.0000   0.0000   0.0000   0.2435
  13.700   1.2222   0.06321   0.05768  -0.0147  0.0081  1.0000  -6.0609   0.0000   0.0000   0.0000   0.2432
  13.800   1.2193   0.06500   0.05958  -0.0146  0.0083  1.0000  -6.0432   0.0000   0.0000   0.0000   0.2429
  13.900   1.2160   0.06684   0.06153  -0.0145  0.0084  1.0000  -6.0246   0.0000   0.0000   0.0000   0.2428
  14.000   1.2125   0.06873   0.06353  -0.0145  0.0086  1.0000  -6.0053   0.0000   0.0000   0.0000   0.2426
  14.100   1.2084   0.07069   0.06559  -0.0147  0.0087  1.0000  -5.9848   0.0000   0.0000   0.0000   0.2426
  14.200   1.2036   0.07274   0.06773  -0.0150  0.0089  1.0000  -5.9628   0.0000   0.0000   0.0000   0.2427
  14.300   1.1985   0.07481   0.06989  -0.0153  0.0090  1.0000  -5.9399   0.0000   0.0000   0.0000   0.2429
  14.400   1.1932   0.07691   0.07209  -0.0157  0.0091  1.0000  -5.9159   0.0000   0.0000   0.0000   0.2431
  14.500   1.1875   0.07912   0.07439  -0.0163  0.0092  1.0000  -5.8904   0.0000   0.0000   0.0000   0.2434
  14.600   1.1815   0.08142   0.07678  -0.0170  0.0093  1.0000  -5.8635   0.0000   0.0000   0.0000   0.2439
  14.700   1.1755   0.08377   0.07921  -0.0177  0.0094  1.0000  -5.8356   0.0000   0.0000   0.0000   0.2444
  14.800   1.1693   0.08620   0.08173  -0.0186  0.0095  1.0000  -5.8063   0.0000   0.0000   0.0000   0.2451
  14.900   1.1628   0.08873   0.08435  -0.0196  0.0096  1.0000  -5.7754   0.0000   0.0000   0.0000   0.2458
  15.000   1.1564   0.09130   0.08700  -0.0207  0.0097  1.0000  -5.7434   0.0000   0.0000   0.0000   0.2467
  15.100   1.1499   0.09394   0.08972  -0.0218  0.0097  1.0000  -5.7099   0.0000   0.0000   0.0000   0.2476
  15.200   1.1431   0.09668   0.09254  -0.0231  0.0098  1.0000  -5.6748   0.0000   0.0000   0.0000   0.2487
  15.300   1.1365   0.09945   0.09538  -0.0245  0.0099  1.0000  -5.6384   0.0000   0.0000   0.0000   0.2498
  15.400   1.1298   0.10229   0.09830  -0.0259  0.0099  1.0000  -5.6004   0.0000   0.0000   0.0000   0.2511
  15.500   1.1229   0.10521   0.10129  -0.0275  0.0100  1.0000  -5.5608   0.0000   0.0000   0.0000   0.2525
  15.600   1.1162   0.10814   0.10430  -0.0291  0.0100  1.0000  -5.5198   0.0000   0.0000   0.0000   0.2539
  15.700   1.1093   0.11119   0.10742  -0.0309  0.0100  1.0000  -5.4768   0.0000   0.0000   0.0000   0.2554
  15.800   1.1025   0.11427   0.11056  -0.0326  0.0101  1.0000  -5.4322   0.0000   0.0000   0.0000   0.2571
  15.900   1.0958   0.11739   0.11375  -0.0345  0.0101  1.0000  -5.3857   0.0000   0.0000   0.0000   0.2588
  16.000   1.0889   0.12063   0.11705  -0.0365  0.0101  1.0000  -5.3369   0.0000   0.0000   0.0000   0.2607
  16.100   1.0823   0.12387   0.12036  -0.0384  0.0101  1.0000  -5.2861   0.0000   0.0000   0.0000   0.2626
  16.200   1.0755   0.12723   0.12378  -0.0405  0.0101  1.0000  -5.2325   0.0000   0.0000   0.0000   0.2646
  16.300   1.0688   0.13063   0.12723  -0.0427  0.0102  1.0000  -5.1763   0.0000   0.0000   0.0000   0.2667
  16.400   1.0621   0.13409   0.13075  -0.0448  0.0102  1.0000  -5.1169   0.0000   0.0000   0.0000   0.2689
  16.500   1.0554   0.13767   0.13439  -0.0471  0.0102  1.0000  -5.0536   0.0000   0.0000   0.0000   0.2713
  16.600   1.0488   0.14127   0.13804  -0.0494  0.0102  1.0000  -4.9864   0.0000   0.0000   0.0000   0.2736
  16.700   1.0420   0.14505   0.14187  -0.0518  0.0101  1.0000  -4.9135   0.0000   0.0000   0.0000   0.2762
  16.800   1.0353   0.14885   0.14573  -0.0542  0.0101  1.0000  -4.8353   0.0000   0.0000   0.0000   0.2788
  16.900   1.0284   0.15276   0.14968  -0.0567  0.0101  1.0000  -4.7490   0.0000   0.0000   0.0000   0.2815
  17.000   1.0216   0.15667   0.15363  -0.0592  0.0101  1.0000  -4.6544   0.0000   0.0000   0.0000   0.2843
  17.100   1.0145   0.16080   0.15780  -0.0618  0.0101  1.0000  -4.5468   0.0000   0.0000   0.0000   0.2873
  17.200   1.0071   0.16523   0.16227  -0.0645  0.0101  1.0000  -4.4218   0.0000   0.0000   0.0000   0.2904
  17.300   0.9993   0.16997   0.16704  -0.0672  0.0101  1.0000  -4.2758   0.0000   0.0000   0.0000   0.2937
  17.400   0.9910   0.17516   0.17226  -0.0700  0.0101  1.0000  -4.0998   0.0000   0.0000   0.0000   0.2972
  17.500   0.9824   0.18069   0.17780  -0.0727  0.0102  1.0000  -3.8940   0.0000   0.0000   0.0000   0.3007
  17.600   0.9747   0.18611   0.18323  -0.0751  0.0104  1.0000  -3.6803   0.0000   0.0000   0.0000   0.3040
  17.700   0.9682   0.19114   0.18824  -0.0772  0.0107  1.0000  -3.4808   0.0000   0.0000   0.0000   0.3068
  18.000   0.9465   0.21569   0.21276  -0.0847  0.0243  1.0000  -2.2145   0.0000   0.0000   0.0000   0.3175
  18.100   0.9474   0.21796   0.21503  -0.0857  0.0241  1.0000  -2.1954   0.0000   0.0000   0.0000   0.3183
  18.200   0.9484   0.22017   0.21723  -0.0866  0.0240  1.0000  -2.1796   0.0000   0.0000   0.0000   0.3191
  18.300   0.9496   0.22232   0.21938  -0.0876  0.0239  1.0000  -2.1669   0.0000   0.0000   0.0000   0.3199
  18.400   0.9509   0.22443   0.22149  -0.0885  0.0237  1.0000  -2.1569   0.0000   0.0000   0.0000   0.3206
  18.500   0.9522   0.22649   0.22355  -0.0893  0.0235  1.0000  -2.1496   0.0000   0.0000   0.0000   0.3212
  18.600   0.9537   0.22851   0.22557  -0.0902  0.0233  1.0000  -2.1447   0.0000   0.0000   0.0000   0.3218
  18.700   0.9553   0.23049   0.22755  -0.0910  0.0231  1.0000  -2.1422   0.0000   0.0000   0.0000   0.3223
  18.800   0.9569   0.23243   0.22949  -0.0918  0.0229  1.0000  -2.1424   0.0000   0.0000   0.0000   0.3228
  18.900   0.9587   0.23433   0.23139  -0.0925  0.0228  1.0000  -2.1452   0.0000   0.0000   0.0000   0.3233
  19.000   0.9606   0.23618   0.23324  -0.0933  0.0226  1.0000  -2.1509   0.0000   0.0000   0.0000   0.3237
  19.100   0.9625   0.23799   0.23506  -0.0939  0.0224  1.0000  -2.1594   0.0000   0.0000   0.0000   0.3240
  19.200   0.9645   0.23976   0.23682  -0.0946  0.0222  1.0000  -2.1708   0.0000   0.0000   0.0000   0.3243
  19.300   0.9666   0.24148   0.23854  -0.0952  0.0220  1.0000  -2.1856   0.0000   0.0000   0.0000   0.3246
  19.400   0.9688   0.24316   0.24023  -0.0958  0.0218  1.0000  -2.2034   0.0000   0.0000   0.0000   0.3247
  19.500   0.9710   0.24483   0.24190  -0.0963  0.0216  1.0000  -2.2226   0.0000   0.0000   0.0000   0.3249
  19.600   0.9732   0.24647   0.24355  -0.0968  0.0214  1.0000  -2.2452   0.0000   0.0000   0.0000   0.3250
  19.700   0.9755   0.24809   0.24517  -0.0973  0.0212  1.0000  -2.2711   0.0000   0.0000   0.0000   0.3250
  19.800   0.9777   0.24977   0.24686  -0.0977  0.0210  1.0000  -2.2978   0.0000   0.0000   0.0000   0.3250
  19.900   0.9778   0.25228   0.24937  -0.0983  0.0206  1.0000  -2.2930   0.0000   0.0000   0.0000   0.3255
  20.000   0.9712   0.25874   0.25579  -0.0998  0.0200  1.0000  -2.1320   0.0000   0.0000   0.0000   0.3277
  20.100   0.9726   0.26106   0.25811  -0.1006  0.0200  1.0000  -2.1172   0.0000   0.0000   0.0000   0.3283
  20.200   0.9741   0.26337   0.26042  -0.1015  0.0200  1.0000  -2.1028   0.0000   0.0000   0.0000   0.3289
  20.300   0.9755   0.26567   0.26272  -0.1024  0.0200  1.0000  -2.0887   0.0000   0.0000   0.0000   0.3295
  20.400   0.9770   0.26796   0.26501  -0.1033  0.0200  1.0000  -2.0750   0.0000   0.0000   0.0000   0.3301
  20.500   0.9784   0.27024   0.26729  -0.1042  0.0199  1.0000  -2.0615   0.0000   0.0000   0.0000   0.3307
  20.600   0.9799   0.27250   0.26955  -0.1051  0.0199  1.0000  -2.0483   0.0000   0.0000   0.0000   0.3313
  20.700   0.9814   0.27474   0.27179  -0.1059  0.0199  1.0000  -2.0354   0.0000   0.0000   0.0000   0.3319
  20.800   0.9829   0.27695   0.27401  -0.1068  0.0198  1.0000  -2.0227   0.0000   0.0000   0.0000   0.3325
  20.900   0.9844   0.27915   0.27620  -0.1077  0.0198  1.0000  -2.0101   0.0000   0.0000   0.0000   0.3331
  21.000   0.9860   0.28130   0.27836  -0.1087  0.0197  1.0000  -1.9977   0.0000   0.0000   0.0000   0.3337
  21.100   0.9876   0.28341   0.28046  -0.1096  0.0196  1.0000  -1.9850   0.0000   0.0000   0.0000   0.3344
  21.200   0.9893   0.28545   0.28251  -0.1106  0.0195  1.0000  -1.9712   0.0000   0.0000   0.0000   0.3350
  21.300   0.9904   0.28766   0.28472  -0.1120  0.0192  1.0000  -1.9382   0.0000   0.0000   0.0000   0.3361
  21.400   0.9911   0.29010   0.28715  -0.1135  0.0188  1.0000  -1.8918   0.0000   0.0000   0.0000   0.3375
  21.500   0.9922   0.29257   0.28962  -0.1147  0.0183  1.0000  -1.8567   0.0000   0.0000   0.0000   0.3385
  21.600   0.9935   0.29496   0.29202  -0.1157  0.0179  1.0000  -1.8337   0.0000   0.0000   0.0000   0.3392
  21.700   0.9948   0.29730   0.29435  -0.1166  0.0175  1.0000  -1.8178   0.0000   0.0000   0.0000   0.3398
  21.800   0.9962   0.29959   0.29664  -0.1174  0.0171  1.0000  -1.8060   0.0000   0.0000   0.0000   0.3403
  21.900   0.9975   0.30185   0.29891  -0.1182  0.0168  1.0000  -1.7970   0.0000   0.0000   0.0000   0.3408
  22.000   0.9988   0.30408   0.30114  -0.1190  0.0165  1.0000  -1.7900   0.0000   0.0000   0.0000   0.3412
  22.100   1.0001   0.30630   0.30336  -0.1198  0.0162  1.0000  -1.7845   0.0000   0.0000   0.0000   0.3417
  22.200   1.0013   0.30850   0.30557  -0.1205  0.0159  1.0000  -1.7802   0.0000   0.0000   0.0000   0.3421
  22.300   1.0026   0.31069   0.30776  -0.1212  0.0157  1.0000  -1.7770   0.0000   0.0000   0.0000   0.3425
  22.400   1.0038   0.31286   0.30994  -0.1219  0.0154  1.0000  -1.7749   0.0000   0.0000   0.0000   0.3429
  22.500   1.0050   0.31502   0.31210  -0.1226  0.0152  1.0000  -1.7736   0.0000   0.0000   0.0000   0.3432
  22.600   1.0061   0.31717   0.31426  -0.1233  0.0150  1.0000  -1.7733   0.0000   0.0000   0.0000   0.3436
  22.700   1.0073   0.31931   0.31640  -0.1240  0.0147  1.0000  -1.7739   0.0000   0.0000   0.0000   0.3440
  22.800   1.0084   0.32143   0.31852  -0.1247  0.0145  1.0000  -1.7753   0.0000   0.0000   0.0000   0.3443
  22.900   1.0094   0.32354   0.32064  -0.1253  0.0143  1.0000  -1.7777   0.0000   0.0000   0.0000   0.3446
  23.000   1.0104   0.32563   0.32274  -0.1259  0.0141  1.0000  -1.7810   0.0000   0.0000   0.0000   0.3449
  23.100   1.0114   0.32771   0.32482  -0.1266  0.0140  1.0000  -1.7854   0.0000   0.0000   0.0000   0.3452
  23.200   1.0123   0.32978   0.32689  -0.1272  0.0138  1.0000  -1.7907   0.0000   0.0000   0.0000   0.3455
  23.300   1.0132   0.33182   0.32894  -0.1277  0.0136  1.0000  -1.7972   0.0000   0.0000   0.0000   0.3458
  23.400   1.0141   0.33385   0.33097  -0.1283  0.0134  1.0000  -1.8048   0.0000   0.0000   0.0000   0.3461
  23.500   1.0149   0.33585   0.33299  -0.1289  0.0133  1.0000  -1.8137   0.0000   0.0000   0.0000   0.3463
  23.600   1.0156   0.33784   0.33498  -0.1294  0.0131  1.0000  -1.8238   0.0000   0.0000   0.0000   0.3465
  23.700   1.0163   0.33980   0.33694  -0.1299  0.0130  1.0000  -1.8355   0.0000   0.0000   0.0000   0.3467
  23.800   1.0169   0.34173   0.33889  -0.1303  0.0129  1.0000  -1.8488   0.0000   0.0000   0.0000   0.3469
  23.900   1.0174   0.34364   0.34081  -0.1308  0.0127  1.0000  -1.8636   0.0000   0.0000   0.0000   0.3471
  24.000   1.0179   0.34553   0.34270  -0.1312  0.0126  1.0000  -1.8802   0.0000   0.0000   0.0000   0.3472
  24.100   1.0182   0.34741   0.34458  -0.1315  0.0125  1.0000  -1.8986   0.0000   0.0000   0.0000   0.3473
  24.200   1.0185   0.34926   0.34649  -0.1318  0.0124  1.0000  -1.9186   0.0000   0.0000   0.0000   0.3473
  24.300   1.0187   0.35111   0.34836  -0.1320  0.0122  1.0000  -1.9408   0.0000   0.0000   0.0000   0.3473
  24.400   1.0187   0.35298   0.35024  -0.1321  0.0121  1.0000  -1.9652   0.0000   0.0000   0.0000   0.3472
  24.500   1.0185   0.35494   0.35221  -0.1321  0.0120  1.0000  -1.9903   0.0000   0.0000   0.0000   0.3470
  24.600   1.0162   0.35756   0.35484  -0.1320  0.0118  1.0000  -1.9881   0.0000   0.0000   0.0000   0.3471
  24.700   1.0052   0.36311   0.36038  -0.1316  0.0114  1.0000  -1.8471   0.0000   0.0000   0.0000   0.3482
  24.800   1.0021   0.36500   0.36227  -0.1317  0.0114  1.0000  -1.8288   0.0000   0.0000   0.0000   0.3486
  24.900   0.9976   0.36665   0.36394  -0.1317  0.0114  1.0000  -1.8071   0.0000   0.0000   0.0000   0.3491
  28.300   0.8218   0.35014   0.34797  -0.1255  0.0108  1.0000  -1.0607   0.0000   0.0000   0.0000   0.3688
  28.400   0.8213   0.35081   0.34865  -0.1260  0.0107  1.0000  -1.0474   0.0000   0.0000   0.0000   0.3693
  28.500   0.8210   0.35148   0.34933  -0.1265  0.0106  1.0000  -1.0343   0.0000   0.0000   0.0000   0.3697
  28.600   0.8206   0.35215   0.35001  -0.1269  0.0105  1.0000  -1.0219   0.0000   0.0000   0.0000   0.3702
  28.700   0.8202   0.35280   0.35066  -0.1273  0.0104  1.0000  -1.0104   0.0000   0.0000   0.0000   0.3706
  28.800   0.8198   0.35341   0.35128  -0.1277  0.0102  1.0000  -1.0000   0.0000   0.0000   0.0000   0.3710
  28.900   0.8194   0.35399   0.35188  -0.1281  0.0101  1.0000  -0.9906   0.0000   0.0000   0.0000   0.3714
  29.000   0.8189   0.35456   0.35245  -0.1285  0.0100  1.0000  -0.9821   0.0000   0.0000   0.0000   0.3717
  29.100   0.8184   0.35510   0.35300  -0.1288  0.0098  1.0000  -0.9744   0.0000   0.0000   0.0000   0.3721
  29.200   0.8179   0.35563   0.35354  -0.1292  0.0097  1.0000  -0.9674   0.0000   0.0000   0.0000   0.3725
  29.300   0.8174   0.35616   0.35408  -0.1296  0.0096  1.0000  -0.9608   0.0000   0.0000   0.0000   0.3728
  29.400   0.8169   0.35668   0.35461  -0.1299  0.0095  1.0000  -0.9547   0.0000   0.0000   0.0000   0.3732
  29.500   0.8164   0.35720   0.35513  -0.1303  0.0093  1.0000  -0.9490   0.0000   0.0000   0.0000   0.3735
  29.600   0.8160   0.35771   0.35565  -0.1306  0.0092  1.0000  -0.9437   0.0000   0.0000   0.0000   0.3739
  29.700   0.8155   0.35822   0.35617  -0.1310  0.0091  1.0000  -0.9386   0.0000   0.0000   0.0000   0.3742
  29.800   0.8150   0.35873   0.35669  -0.1314  0.0090  1.0000  -0.9337   0.0000   0.0000   0.0000   0.3745
  29.900   0.8145   0.35924   0.35721  -0.1317  0.0089  1.0000  -0.9291   0.0000   0.0000   0.0000   0.3749
  30.000   0.8141   0.35975   0.35773  -0.1321  0.0088  1.0000  -0.9247   0.0000   0.0000   0.0000   0.3752


