xflr5 v6.61

 Calculated polar for: S7055 (10.5%) Flat-Bottomed

 1 1 Reynolds number fixed          Mach number fixed         

 xtrf =   1.000 (top)        1.000 (bottom)
 Mach =   0.000     Re =     0.688 e 6     Ncrit =   9.000

  alpha     CL        CD       CDp       Cm    Top Xtr Bot Xtr   Cpmin    Chinge    XCp    
 ------- -------- --------- --------- -------- ------- ------- -------- --------- ---------
 -10.000  -0.3596   0.10305   0.10109  -0.0289  1.0000  0.0065  -2.2938   0.0000   0.0000   0.0000   0.1599
  -9.900  -0.3594   0.10127   0.09931  -0.0296  1.0000  0.0064  -2.3410   0.0000   0.0000   0.0000   0.1579
  -9.800  -0.3593   0.09949   0.09754  -0.0304  1.0000  0.0063  -2.3885   0.0000   0.0000   0.0000   0.1558
  -9.700  -0.3593   0.09770   0.09576  -0.0311  1.0000  0.0063  -2.4374   0.0000   0.0000   0.0000   0.1538
  -9.600  -0.3594   0.09590   0.09397  -0.0319  1.0000  0.0062  -2.4881   0.0000   0.0000   0.0000   0.1517
  -9.500  -0.3597   0.09409   0.09217  -0.0327  1.0000  0.0061  -2.5411   0.0000   0.0000   0.0000   0.1496
  -9.400  -0.3602   0.09227   0.09036  -0.0336  1.0000  0.0061  -2.5966   0.0000   0.0000   0.0000   0.1476
  -9.300  -0.3609   0.09043   0.08853  -0.0344  1.0000  0.0061  -2.6550   0.0000   0.0000   0.0000   0.1455
  -9.200  -0.3618   0.08855   0.08667  -0.0353  1.0000  0.0060  -2.7166   0.0000   0.0000   0.0000   0.1434
  -9.100  -0.3628   0.08661   0.08475  -0.0362  1.0000  0.0060  -2.7819   0.0000   0.0000   0.0000   0.1412
  -9.000  -0.3642   0.08466   0.08281  -0.0372  1.0000  0.0060  -2.8505   0.0000   0.0000   0.0000   0.1390
  -8.900  -0.3659   0.08268   0.08085  -0.0382  1.0000  0.0060  -2.9223   0.0000   0.0000   0.0000   0.1369
  -8.800  -0.3681   0.08070   0.07889  -0.0392  1.0000  0.0060  -2.9970   0.0000   0.0000   0.0000   0.1349
  -8.500  -0.3680   0.07263   0.07085  -0.0471  0.9829  0.0061  -3.2936   0.0000   0.0000   0.0000   0.1136
  -8.400  -0.3649   0.06889   0.06710  -0.0523  0.9728  0.0062  -3.4246   0.0000   0.0000   0.0000   0.0982
  -8.300  -0.3636   0.06510   0.06331  -0.0581  0.9604  0.0063  -3.5610   0.0000   0.0000   0.0000   0.0821
  -8.200  -0.3643   0.06128   0.05945  -0.0633  0.9492  0.0063  -3.7131   0.0000   0.0000   0.0000   0.0682
  -8.100  -0.3671   0.05746   0.05556  -0.0674  0.9389  0.0063  -3.8813   0.0000   0.0000   0.0000   0.0585
  -8.000  -0.3711   0.05338   0.05141  -0.0709  0.9304  0.0064  -4.0765   0.0000   0.0000   0.0000   0.0512
  -7.700  -0.3882   0.03815   0.03569  -0.0778  0.9103  0.0066  -4.9307   0.0000   0.0000   0.0000   0.0415
  -7.600  -0.4035   0.02935   0.02642  -0.0783  0.9039  0.0068  -5.5750   0.0000   0.0000   0.0000   0.0477
  -7.500  -0.3951   0.02891   0.02593  -0.0782  0.9008  0.0069  -5.4410   0.0000   0.0000   0.0000   0.0439
  -7.000  -0.3276   0.03518   0.03251  -0.0774  0.8882  0.0076  -4.0261   0.0000   0.0000   0.0000   0.0056
  -6.900  -0.3462   0.02511   0.02167  -0.0773  0.8829  0.0078  -4.7605   0.0000   0.0000   0.0000   0.0183
  -6.800  -0.3501   0.02063   0.01661  -0.0764  0.8789  0.0083  -5.0484   0.0000   0.0000   0.0000   0.0234
  -6.700  -0.3444   0.01914   0.01489  -0.0759  0.8758  0.0087  -5.0585   0.0000   0.0000   0.0000   0.0212
  -6.600  -0.3363   0.01839   0.01401  -0.0755  0.8730  0.0091  -4.9932   0.0000   0.0000   0.0000   0.0168
  -6.500  -0.3271   0.01798   0.01352  -0.0753  0.8704  0.0094  -4.8924   0.0000   0.0000   0.0000   0.0111
  -6.400  -0.3173   0.01777   0.01326  -0.0752  0.8675  0.0097  -4.7707   0.0000   0.0000   0.0000   0.0044
  -6.300  -0.3071   0.01768   0.01315  -0.0751  0.8649  0.0100  -4.6352   0.0000   0.0000   0.0000  -0.0033
  -6.200  -0.2964   0.01770   0.01318  -0.0751  0.8631  0.0103  -4.4844   0.0000   0.0000   0.0000  -0.0122
  -6.100  -0.2839   0.01855   0.01411  -0.0754  0.8609  0.0110  -4.2264   0.0000   0.0000   0.0000  -0.0244
  -6.000  -0.2746   0.01798   0.01345  -0.0752  0.8584  0.0112  -4.1606   0.0000   0.0000   0.0000  -0.0327
  -5.900  -0.2653   0.01739   0.01277  -0.0749  0.8558  0.0114  -4.0992   0.0000   0.0000   0.0000  -0.0415
  -5.800  -0.2559   0.01681   0.01209  -0.0747  0.8530  0.0115  -4.0407   0.0000   0.0000   0.0000  -0.0509
  -5.700  -0.2465   0.01624   0.01142  -0.0744  0.8501  0.0116  -3.9838   0.0000   0.0000   0.0000  -0.0610
  -5.600  -0.2370   0.01568   0.01076  -0.0741  0.8472  0.0118  -3.9278   0.0000   0.0000   0.0000  -0.0719
  -5.500  -0.2275   0.01515   0.01012  -0.0738  0.8442  0.0119  -3.8720   0.0000   0.0000   0.0000  -0.0838
  -5.400  -0.2179   0.01465   0.00952  -0.0735  0.8409  0.0120  -3.8160   0.0000   0.0000   0.0000  -0.0969
  -5.200  -0.1981   0.01369   0.00838  -0.0730  0.8354  0.0123  -3.7015   0.0000   0.0000   0.0000  -0.1286
  -5.100  -0.1880   0.01324   0.00786  -0.0727  0.8331  0.0124  -3.6431   0.0000   0.0000   0.0000  -0.1473
  -5.000  -0.1779   0.01281   0.00737  -0.0725  0.8306  0.0125  -3.5831   0.0000   0.0000   0.0000  -0.1683
  -4.900  -0.1676   0.01253   0.00704  -0.0723  0.8279  0.0128  -3.5041   0.0000   0.0000   0.0000  -0.1928
  -4.800  -0.1570   0.01234   0.00682  -0.0722  0.8252  0.0132  -3.4130   0.0000   0.0000   0.0000  -0.2214
  -4.700  -0.1464   0.01219   0.00664  -0.0721  0.8224  0.0136  -3.3185   0.0000   0.0000   0.0000  -0.2545
  -4.600  -0.1358   0.01205   0.00647  -0.0720  0.8197  0.0140  -3.2243   0.0000   0.0000   0.0000  -0.2928
  -4.500  -0.1252   0.01191   0.00629  -0.0718  0.8170  0.0145  -3.1337   0.0000   0.0000   0.0000  -0.3374
  -4.400  -0.1146   0.01175   0.00609  -0.0717  0.8142  0.0148  -3.0489   0.0000   0.0000   0.0000  -0.3897
  -4.300  -0.1041   0.01157   0.00585  -0.0715  0.8112  0.0151  -2.9716   0.0000   0.0000   0.0000  -0.4519
  -4.200  -0.0937   0.01134   0.00557  -0.0713  0.8078  0.0153  -2.9035   0.0000   0.0000   0.0000  -0.5275
  -4.100  -0.0833   0.01104   0.00522  -0.0711  0.8059  0.0154  -2.8454   0.0000   0.0000   0.0000  -0.6214
  -4.000  -0.0731   0.01070   0.00484  -0.0709  0.8039  0.0155  -2.7965   0.0000   0.0000   0.0000  -0.7396
  -3.900  -0.0628   0.01041   0.00450  -0.0707  0.8014  0.0157  -2.7457   0.0000   0.0000   0.0000  -0.8981
  -3.700  -0.0429   0.00959   0.00366  -0.0700  0.7957  0.0320  -2.7932   0.0000   0.0000   0.0000  -1.4097
  -3.600  -0.0319   0.00958   0.00367  -0.0700  0.7925  0.0344  -2.6931   0.0000   0.0000   0.0000  -1.9857
  -3.500  -0.0204   0.00969   0.00376  -0.0701  0.7893  0.0371  -2.5920   0.0000   0.0000   0.0000  -3.2452
  -3.400  -0.0095   0.00966   0.00370  -0.0700  0.7860  0.0385  -2.4975   0.0000   0.0000   0.0000  -7.2710
  -3.300   0.0014   0.00963   0.00365  -0.0699  0.7826  0.0396  -2.4038   0.0000   0.0000   0.0000  49.2405
  -3.200   0.0125   0.00967   0.00366  -0.0699  0.7791  0.0405  -2.3057   0.0000   0.0000   0.0000   5.9038
  -3.100   0.0239   0.00974   0.00372  -0.0699  0.7757  0.0412  -2.2060   0.0000   0.0000   0.0000   3.2196
  -3.000   0.0353   0.00975   0.00374  -0.0699  0.7737  0.0416  -2.1102   0.0000   0.0000   0.0000   2.2614
  -2.900   0.0458   0.00955   0.00351  -0.0698  0.7713  0.0422  -2.0316   0.0000   0.0000   0.0000   1.7953
  -2.800   0.0559   0.00927   0.00319  -0.0696  0.7684  0.0431  -1.9600   0.0000   0.0000   0.0000   1.5099
  -2.700   0.0664   0.00908   0.00295  -0.0694  0.7652  0.0440  -1.8848   0.0000   0.0000   0.0000   1.3088
  -2.600   0.0769   0.00892   0.00276  -0.0693  0.7617  0.0450  -1.8083   0.0000   0.0000   0.0000   1.1610
  -2.500   0.0875   0.00879   0.00259  -0.0691  0.7582  0.0462  -1.7313   0.0000   0.0000   0.0000   1.0484
  -2.400   0.0981   0.00868   0.00244  -0.0690  0.7545  0.0476  -1.6542   0.0000   0.0000   0.0000   0.9599
  -2.300   0.1088   0.00859   0.00232  -0.0688  0.7509  0.0494  -1.5770   0.0000   0.0000   0.0000   0.8888
  -2.200   0.1195   0.00852   0.00223  -0.0687  0.7469  0.0515  -1.4995   0.0000   0.0000   0.0000   0.8302
  -2.100   0.1303   0.00846   0.00215  -0.0686  0.7430  0.0540  -1.4217   0.0000   0.0000   0.0000   0.7811
  -2.000   0.1413   0.00839   0.00208  -0.0686  0.7408  0.0569  -1.3431   0.0000   0.0000   0.0000   0.7390
  -1.900   0.1524   0.00835   0.00203  -0.0685  0.7381  0.0590  -1.2646   0.0000   0.0000   0.0000   0.7030
  -1.800   0.1631   0.00819   0.00190  -0.0684  0.7349  0.0697  -1.1964   0.0000   0.0000   0.0000   0.6723
  -1.700   0.1738   0.00809   0.00184  -0.0683  0.7313  0.0789  -1.1231   0.0000   0.0000   0.0000   0.6455
  -1.600   0.1842   0.00795   0.00177  -0.0682  0.7276  0.1013  -1.0521   0.0000   0.0000   0.0000   0.6222
  -1.500   0.1945   0.00780   0.00171  -0.0681  0.7239  0.1351  -0.9815   0.0000   0.0000   0.0000   0.6017
  -1.400   0.2044   0.00762   0.00166  -0.0679  0.7201  0.1779  -0.9118   0.0000   0.0000   0.0000   0.5836
  -1.300   0.2143   0.00744   0.00162  -0.0678  0.7162  0.2280  -0.8416   0.0000   0.0000   0.0000   0.5673
  -1.200   0.2239   0.00725   0.00154  -0.0676  0.7120  0.2889  -0.7792   0.0000   0.0000   0.0000   0.5526
  -1.100   0.2342   0.00712   0.00152  -0.0675  0.7088  0.3315  -0.7347   0.0000   0.0000   0.0000   0.5387
  -1.000   0.2444   0.00696   0.00150  -0.0674  0.7066  0.3756  -0.6907   0.0000   0.0000   0.0000   0.5260
  -0.900   0.2545   0.00679   0.00149  -0.0672  0.7041  0.4221  -0.6548   0.0000   0.0000   0.0000   0.5144
  -0.800   0.2643   0.00663   0.00148  -0.0670  0.7011  0.4736  -0.6231   0.0000   0.0000   0.0000   0.5036
  -0.700   0.2740   0.00646   0.00146  -0.0668  0.6977  0.5298  -0.5918   0.0000   0.0000   0.0000   0.4936
  -0.600   0.2830   0.00627   0.00146  -0.0664  0.6940  0.5910  -0.5966   0.0000   0.0000   0.0000   0.4843
  -0.500   0.2917   0.00609   0.00145  -0.0659  0.6901  0.6539  -0.6040   0.0000   0.0000   0.0000   0.4754
  -0.400   0.2999   0.00592   0.00145  -0.0652  0.6860  0.7168  -0.6111   0.0000   0.0000   0.0000   0.4669
  -0.300   0.3078   0.00577   0.00147  -0.0644  0.6815  0.7756  -0.6181   0.0000   0.0000   0.0000   0.4586
  -0.200   0.3161   0.00566   0.00149  -0.0637  0.6765  0.8291  -0.6253   0.0000   0.0000   0.0000   0.4506
  -0.100   0.3259   0.00556   0.00151  -0.0632  0.6735  0.8762  -0.6338   0.0000   0.0000   0.0000   0.4430
   0.000   0.3392   0.00551   0.00154  -0.0635  0.6710  0.9133  -0.6445   0.0000   0.0000   0.0000   0.4361
   0.100   0.3571   0.00550   0.00155  -0.0649  0.6679  0.9392  -0.6578   0.0000   0.0000   0.0000   0.4304
   0.200   0.3793   0.00551   0.00156  -0.0672  0.6641  0.9610  -0.6734   0.0000   0.0000   0.0000   0.4258
   0.300   0.4015   0.00554   0.00156  -0.0696  0.6598  0.9760  -0.6891   0.0000   0.0000   0.0000   0.4217
   0.400   0.4225   0.00558   0.00156  -0.0717  0.6550  0.9857  -0.7044   0.0000   0.0000   0.0000   0.4180
   0.500   0.4446   0.00562   0.00155  -0.0740  0.6500  0.9929  -0.7214   0.0000   0.0000   0.0000   0.4148
   0.600   0.4700   0.00566   0.00153  -0.0772  0.6444  0.9985  -0.7404   0.0000   0.0000   0.0000   0.4124
   0.700   0.4854   0.00570   0.00152  -0.0782  0.6391  1.0000  -0.7535   0.0000   0.0000   0.0000   0.4091
   0.800   0.4957   0.00570   0.00152  -0.0780  0.6367  1.0000  -0.7636   0.0000   0.0000   0.0000   0.4054
   0.900   0.5060   0.00571   0.00152  -0.0779  0.6336  1.0000  -0.7738   0.0000   0.0000   0.0000   0.4018
   1.000   0.5162   0.00572   0.00152  -0.0777  0.6298  1.0000  -0.7839   0.0000   0.0000   0.0000   0.3983
   1.100   0.5263   0.00574   0.00154  -0.0775  0.6255  1.0000  -0.7940   0.0000   0.0000   0.0000   0.3950
   1.200   0.5364   0.00577   0.00154  -0.0773  0.6209  1.0000  -0.8041   0.0000   0.0000   0.0000   0.3918
   1.300   0.5463   0.00581   0.00154  -0.0771  0.6162  1.0000  -0.8141   0.0000   0.0000   0.0000   0.3886
   1.400   0.5562   0.00586   0.00154  -0.0768  0.6113  1.0000  -0.8241   0.0000   0.0000   0.0000   0.3856
   1.500   0.5661   0.00591   0.00155  -0.0766  0.6060  1.0000  -0.8341   0.0000   0.0000   0.0000   0.3827
   1.600   0.5762   0.00594   0.00156  -0.0764  0.6023  1.0000  -0.8443   0.0000   0.0000   0.0000   0.3799
   1.700   0.5866   0.00595   0.00158  -0.0763  0.5998  1.0000  -0.8567   0.0000   0.0000   0.0000   0.3772
   1.800   0.5969   0.00597   0.00159  -0.0761  0.5967  1.0000  -0.8693   0.0000   0.0000   0.0000   0.3746
   1.900   0.6072   0.00600   0.00160  -0.0759  0.5929  1.0000  -0.8819   0.0000   0.0000   0.0000   0.3721
   2.000   0.6173   0.00603   0.00161  -0.0758  0.5885  1.0000  -0.8945   0.0000   0.0000   0.0000   0.3697
   2.100   0.6273   0.00607   0.00162  -0.0755  0.5835  1.0000  -0.9070   0.0000   0.0000   0.0000   0.3673
   2.200   0.6371   0.00612   0.00164  -0.0753  0.5778  1.0000  -0.9194   0.0000   0.0000   0.0000   0.3649
   2.300   0.6467   0.00619   0.00166  -0.0750  0.5711  1.0000  -0.9317   0.0000   0.0000   0.0000   0.3626
   2.400   0.6566   0.00624   0.00168  -0.0748  0.5657  1.0000  -0.9443   0.0000   0.0000   0.0000   0.3605
   2.500   0.6670   0.00626   0.00170  -0.0746  0.5623  1.0000  -0.9571   0.0000   0.0000   0.0000   0.3584
   2.600   0.6772   0.00629   0.00172  -0.0745  0.5582  1.0000  -0.9700   0.0000   0.0000   0.0000   0.3563
   2.700   0.6873   0.00633   0.00174  -0.0743  0.5536  1.0000  -0.9830   0.0000   0.0000   0.0000   0.3544
   2.800   0.6974   0.00637   0.00176  -0.0741  0.5489  1.0000  -0.9971   0.0000   0.0000   0.0000   0.3524
   2.900   0.7073   0.00643   0.00179  -0.0738  0.5441  1.0000  -1.0113   0.0000   0.0000   0.0000   0.3505
   3.000   0.7170   0.00649   0.00182  -0.0736  0.5388  1.0000  -1.0253   0.0000   0.0000   0.0000   0.3486
   3.100   0.7266   0.00657   0.00186  -0.0733  0.5328  1.0000  -1.0392   0.0000   0.0000   0.0000   0.3468
   3.200   0.7368   0.00661   0.00189  -0.0731  0.5289  1.0000  -1.0536   0.0000   0.0000   0.0000   0.3451
   3.300   0.7472   0.00664   0.00192  -0.0730  0.5258  1.0000  -1.0683   0.0000   0.0000   0.0000   0.3434
   3.400   0.7574   0.00667   0.00195  -0.0728  0.5217  1.0000  -1.0837   0.0000   0.0000   0.0000   0.3418
   3.500   0.7675   0.00672   0.00199  -0.0726  0.5167  1.0000  -1.0999   0.0000   0.0000   0.0000   0.3402
   3.600   0.7774   0.00678   0.00202  -0.0724  0.5111  1.0000  -1.1160   0.0000   0.0000   0.0000   0.3386
   3.700   0.7870   0.00685   0.00206  -0.0721  0.5053  1.0000  -1.1319   0.0000   0.0000   0.0000   0.3370
   3.800   0.7966   0.00693   0.00216  -0.0719  0.4992  1.0000  -1.1481   0.0000   0.0000   0.0000   0.3355
   3.900   0.8063   0.00700   0.00221  -0.0716  0.4934  1.0000  -1.1661   0.0000   0.0000   0.0000   0.3340
   4.000   0.8167   0.00703   0.00225  -0.0715  0.4905  1.0000  -1.1849   0.0000   0.0000   0.0000   0.3326
   4.100   0.8269   0.00707   0.00228  -0.0713  0.4865  1.0000  -1.2036   0.0000   0.0000   0.0000   0.3312
   4.200   0.8369   0.00712   0.00232  -0.0711  0.4814  1.0000  -1.2223   0.0000   0.0000   0.0000   0.3299
   4.300   0.8467   0.00719   0.00237  -0.0709  0.4757  1.0000  -1.2407   0.0000   0.0000   0.0000   0.3285
   4.400   0.8563   0.00727   0.00242  -0.0706  0.4695  1.0000  -1.2590   0.0000   0.0000   0.0000   0.3271
   4.500   0.8655   0.00737   0.00247  -0.0703  0.4620  1.0000  -1.2780   0.0000   0.0000   0.0000   0.3258
   4.600   0.8752   0.00745   0.00252  -0.0700  0.4540  1.0000  -1.2990   0.0000   0.0000   0.0000   0.3245
   4.700   0.8847   0.00753   0.00256  -0.0698  0.4423  1.0000  -1.3200   0.0000   0.0000   0.0000   0.3232
   4.800   0.8924   0.00773   0.00264  -0.0692  0.4240  1.0000  -1.3415   0.0000   0.0000   0.0000   0.3218
   4.900   0.9016   0.00785   0.00270  -0.0689  0.4085  1.0000  -1.3654   0.0000   0.0000   0.0000   0.3205
   5.000   0.9088   0.00809   0.00279  -0.0682  0.3859  1.0000  -1.3869   0.0000   0.0000   0.0000   0.3191
   5.100   0.9176   0.00824   0.00286  -0.0679  0.3684  1.0000  -1.4105   0.0000   0.0000   0.0000   0.3179
   5.200   0.9254   0.00847   0.00297  -0.0674  0.3491  1.0000  -1.4327   0.0000   0.0000   0.0000   0.3166
   5.300   0.9345   0.00860   0.00305  -0.0670  0.3366  1.0000  -1.4581   0.0000   0.0000   0.0000   0.3155
   5.400   0.9432   0.00876   0.00314  -0.0667  0.3253  1.0000  -1.4854   0.0000   0.0000   0.0000   0.3143
   5.500   0.9523   0.00890   0.00323  -0.0664  0.3150  1.0000  -1.5134   0.0000   0.0000   0.0000   0.3132
   5.600   0.9616   0.00902   0.00331  -0.0661  0.3052  1.0000  -1.5420   0.0000   0.0000   0.0000   0.3121
   5.700   0.9700   0.00922   0.00342  -0.0657  0.2912  1.0000  -1.5692   0.0000   0.0000   0.0000   0.3110
   5.800   0.9789   0.00937   0.00353  -0.0654  0.2799  1.0000  -1.5973   0.0000   0.0000   0.0000   0.3100
   5.900   0.9876   0.00954   0.00363  -0.0650  0.2675  1.0000  -1.6297   0.0000   0.0000   0.0000   0.3089
   6.000   0.9957   0.00976   0.00376  -0.0646  0.2529  1.0000  -1.6678   0.0000   0.0000   0.0000   0.3078
   6.100   1.0048   0.00991   0.00386  -0.0643  0.2428  1.0000  -1.7082   0.0000   0.0000   0.0000   0.3068
   6.200   1.0129   0.01013   0.00400  -0.0639  0.2292  1.0000  -1.7470   0.0000   0.0000   0.0000   0.3058
   6.300   1.0215   0.01031   0.00412  -0.0636  0.2173  1.0000  -1.8186   0.0000   0.0000   0.0000   0.3048
   6.400   1.0293   0.01057   0.00427  -0.0631  0.2016  1.0000  -1.8884   0.0000   0.0000   0.0000   0.3038
   6.500   1.0432   0.01032   0.00432  -0.0635  0.2276  1.0000  -1.9527   0.0000   0.0000   0.0000   0.3032
   6.600   1.0523   0.01047   0.00444  -0.0632  0.2190  1.0000  -2.0364   0.0000   0.0000   0.0000   0.3023
   6.700   1.0608   0.01065   0.00457  -0.0628  0.2078  1.0000  -2.1409   0.0000   0.0000   0.0000   0.3013
   6.800   1.0686   0.01091   0.00473  -0.0624  0.1940  1.0000  -2.2418   0.0000   0.0000   0.0000   0.3004
   6.900   1.0771   0.01109   0.00487  -0.0620  0.1833  1.0000  -2.3483   0.0000   0.0000   0.0000   0.2995
   7.000   1.0843   0.01139   0.00506  -0.0615  0.1678  1.0000  -2.4480   0.0000   0.0000   0.0000   0.2985
   7.100   1.0921   0.01163   0.00523  -0.0611  0.1540  1.0000  -2.5522   0.0000   0.0000   0.0000   0.2975
   7.200   1.0985   0.01199   0.00546  -0.0604  0.1346  1.0000  -2.6485   0.0000   0.0000   0.0000   0.2965
   7.300   1.1040   0.01242   0.00573  -0.0597  0.1119  1.0000  -2.7394   0.0000   0.0000   0.0000   0.2954
   7.400   1.1088   0.01290   0.00604  -0.0588  0.0881  1.0000  -2.8257   0.0000   0.0000   0.0000   0.2943
   7.500   1.1128   0.01345   0.00640  -0.0578  0.0639  1.0000  -2.9057   0.0000   0.0000   0.0000   0.2931
   7.600   1.1167   0.01400   0.00679  -0.0568  0.0411  1.0000  -2.9822   0.0000   0.0000   0.0000   0.2919
   7.700   1.1175   0.01479   0.00737  -0.0554  0.0123  1.0000  -3.0384   0.0000   0.0000   0.0000   0.2905
   7.800   1.1236   0.01515   0.00769  -0.0546  0.0051  1.0000  -3.1219   0.0000   0.0000   0.0000   0.2894
   7.900   1.1319   0.01532   0.00788  -0.0542  0.0046  1.0000  -3.2197   0.0000   0.0000   0.0000   0.2886
   8.000   1.1402   0.01550   0.00807  -0.0538  0.0043  1.0000  -3.3185   0.0000   0.0000   0.0000   0.2877
   8.100   1.1485   0.01568   0.00827  -0.0534  0.0041  1.0000  -3.4185   0.0000   0.0000   0.0000   0.2869
   8.200   1.1567   0.01585   0.00847  -0.0530  0.0039  1.0000  -3.5196   0.0000   0.0000   0.0000   0.2861
   8.300   1.1649   0.01603   0.00868  -0.0526  0.0038  1.0000  -3.6212   0.0000   0.0000   0.0000   0.2852
   8.400   1.1728   0.01622   0.00890  -0.0521  0.0037  1.0000  -3.7228   0.0000   0.0000   0.0000   0.2844
   8.500   1.1807   0.01641   0.00913  -0.0517  0.0037  1.0000  -3.8238   0.0000   0.0000   0.0000   0.2836
   8.600   1.1883   0.01662   0.00936  -0.0512  0.0036  1.0000  -3.9241   0.0000   0.0000   0.0000   0.2827
   8.700   1.1957   0.01683   0.00962  -0.0506  0.0036  1.0000  -4.0233   0.0000   0.0000   0.0000   0.2819
   8.800   1.2030   0.01706   0.00988  -0.0501  0.0036  1.0000  -4.1209   0.0000   0.0000   0.0000   0.2810
   8.900   1.2099   0.01730   0.01015  -0.0494  0.0036  1.0000  -4.2172   0.0000   0.0000   0.0000   0.2801
   9.000   1.2163   0.01754   0.01044  -0.0487  0.0036  1.0000  -4.3151   0.0000   0.0000   0.0000   0.2792
   9.100   1.2220   0.01780   0.01074  -0.0479  0.0036  1.0000  -4.4083   0.0000   0.0000   0.0000   0.2782
   9.200   1.2272   0.01809   0.01106  -0.0470  0.0036  1.0000  -4.4980   0.0000   0.0000   0.0000   0.2771
   9.300   1.2316   0.01842   0.01149  -0.0460  0.0036  1.0000  -4.5940   0.0000   0.0000   0.0000   0.2760
   9.400   1.2360   0.01876   0.01188  -0.0450  0.0036  1.0000  -4.6791   0.0000   0.0000   0.0000   0.2749
   9.500   1.2402   0.01911   0.01228  -0.0440  0.0036  1.0000  -4.7594   0.0000   0.0000   0.0000   0.2738
   9.600   1.2438   0.01950   0.01272  -0.0429  0.0037  1.0000  -4.8352   0.0000   0.0000   0.0000   0.2727
   9.700   1.2472   0.01991   0.01318  -0.0419  0.0037  1.0000  -4.9079   0.0000   0.0000   0.0000   0.2717
   9.800   1.2502   0.02035   0.01368  -0.0408  0.0037  1.0000  -4.9767   0.0000   0.0000   0.0000   0.2706
   9.900   1.2528   0.02083   0.01421  -0.0397  0.0038  1.0000  -5.0421   0.0000   0.0000   0.0000   0.2695
  10.000   1.2550   0.02134   0.01478  -0.0386  0.0038  1.0000  -5.1037   0.0000   0.0000   0.0000   0.2684
  10.100   1.2567   0.02188   0.01538  -0.0375  0.0039  1.0000  -5.1619   0.0000   0.0000   0.0000   0.2673
  10.200   1.2581   0.02246   0.01601  -0.0364  0.0039  1.0000  -5.2165   0.0000   0.0000   0.0000   0.2662
  10.300   1.2591   0.02308   0.01669  -0.0353  0.0040  1.0000  -5.2674   0.0000   0.0000   0.0000   0.2652
  10.400   1.2598   0.02374   0.01741  -0.0342  0.0041  1.0000  -5.3152   0.0000   0.0000   0.0000   0.2641
  10.500   1.2600   0.02445   0.01819  -0.0331  0.0041  1.0000  -5.3590   0.0000   0.0000   0.0000   0.2631
  10.600   1.2600   0.02520   0.01899  -0.0320  0.0042  1.0000  -5.4000   0.0000   0.0000   0.0000   0.2621
  10.700   1.2595   0.02599   0.01984  -0.0309  0.0042  1.0000  -5.4369   0.0000   0.0000   0.0000   0.2611
  10.800   1.2587   0.02683   0.02074  -0.0299  0.0043  1.0000  -5.4707   0.0000   0.0000   0.0000   0.2601
  10.900   1.2578   0.02771   0.02168  -0.0289  0.0044  1.0000  -5.5020   0.0000   0.0000   0.0000   0.2591
  11.000   1.2565   0.02865   0.02268  -0.0279  0.0045  1.0000  -5.5288   0.0000   0.0000   0.0000   0.2582
  11.100   1.2550   0.02963   0.02373  -0.0270  0.0045  1.0000  -5.5525   0.0000   0.0000   0.0000   0.2573
  11.200   1.2534   0.03066   0.02482  -0.0260  0.0046  1.0000  -5.5723   0.0000   0.0000   0.0000   0.2564
  11.300   1.2512   0.03176   0.02598  -0.0251  0.0047  1.0000  -5.5857   0.0000   0.0000   0.0000   0.2555
  11.400   1.2486   0.03290   0.02719  -0.0241  0.0048  1.0000  -5.5920   0.0000   0.0000   0.0000   0.2546
  11.500   1.2456   0.03415   0.02850  -0.0231  0.0049  1.0000  -5.5868   0.0000   0.0000   0.0000   0.2537
  11.600   1.2410   0.03566   0.03009  -0.0219  0.0050  1.0000  -5.5487   0.0000   0.0000   0.0000   0.2526
  11.700   1.2393   0.03703   0.03151  -0.0207  0.0054  1.0000  -5.5113   0.0000   0.0000   0.0000   0.2515
  11.800   1.2447   0.03739   0.03188  -0.0206  0.0055  1.0000  -5.6232   0.0000   0.0000   0.0000   0.2512
  11.900   1.2501   0.03777   0.03227  -0.0204  0.0057  1.0000  -5.7333   0.0000   0.0000   0.0000   0.2508
  12.000   1.2556   0.03817   0.03269  -0.0202  0.0059  1.0000  -5.8389   0.0000   0.0000   0.0000   0.2504
  12.100   1.2609   0.03864   0.03319  -0.0200  0.0062  1.0000  -5.9302   0.0000   0.0000   0.0000   0.2499
  17.300   0.9558   0.19151   0.18960  -0.0753  0.0152  1.0000  -2.8467   0.0000   0.0000   0.0000   0.3071
  17.400   0.9557   0.19396   0.19204  -0.0765  0.0149  1.0000  -2.8193   0.0000   0.0000   0.0000   0.3082
  17.500   0.9557   0.19631   0.19439  -0.0777  0.0147  1.0000  -2.7968   0.0000   0.0000   0.0000   0.3093
  17.600   0.9561   0.19858   0.19666  -0.0788  0.0145  1.0000  -2.7790   0.0000   0.0000   0.0000   0.3103
  17.700   0.9566   0.20078   0.19885  -0.0799  0.0143  1.0000  -2.7654   0.0000   0.0000   0.0000   0.3113
  17.800   0.9573   0.20291   0.20098  -0.0809  0.0141  1.0000  -2.7557   0.0000   0.0000   0.0000   0.3122
  17.900   0.9581   0.20497   0.20304  -0.0819  0.0140  1.0000  -2.7499   0.0000   0.0000   0.0000   0.3130
  18.000   0.9591   0.20697   0.20504  -0.0828  0.0138  1.0000  -2.7477   0.0000   0.0000   0.0000   0.3138
  18.100   0.9603   0.20891   0.20698  -0.0837  0.0136  1.0000  -2.7491   0.0000   0.0000   0.0000   0.3145
  18.200   0.9616   0.21080   0.20887  -0.0846  0.0135  1.0000  -2.7539   0.0000   0.0000   0.0000   0.3151
  18.300   0.9630   0.21263   0.21070  -0.0855  0.0133  1.0000  -2.7621   0.0000   0.0000   0.0000   0.3157
  18.400   0.9645   0.21440   0.21247  -0.0863  0.0132  1.0000  -2.7737   0.0000   0.0000   0.0000   0.3163
  18.500   0.9661   0.21612   0.21419  -0.0871  0.0131  1.0000  -2.7886   0.0000   0.0000   0.0000   0.3168
  18.600   0.9678   0.21779   0.21586  -0.0879  0.0129  1.0000  -2.8068   0.0000   0.0000   0.0000   0.3172
  18.700   0.9692   0.21961   0.21769  -0.0887  0.0128  1.0000  -2.8173   0.0000   0.0000   0.0000   0.3178
  18.800   0.9703   0.22154   0.21961  -0.0896  0.0126  1.0000  -2.8230   0.0000   0.0000   0.0000   0.3184
  18.900   0.9713   0.22349   0.22156  -0.0905  0.0124  1.0000  -2.8273   0.0000   0.0000   0.0000   0.3191
  19.000   0.9719   0.22560   0.22367  -0.0914  0.0122  1.0000  -2.8235   0.0000   0.0000   0.0000   0.3198
  19.100   0.9570   0.23512   0.23314  -0.0944  0.0114  1.0000  -2.4049   0.0000   0.0000   0.0000   0.3248
  19.200   0.9583   0.23752   0.23555  -0.0954  0.0114  1.0000  -2.3818   0.0000   0.0000   0.0000   0.3255
  19.300   0.9596   0.23991   0.23793  -0.0963  0.0114  1.0000  -2.3598   0.0000   0.0000   0.0000   0.3262
  19.400   0.9610   0.24228   0.24030  -0.0972  0.0114  1.0000  -2.3389   0.0000   0.0000   0.0000   0.3269
  19.500   0.9624   0.24464   0.24266  -0.0982  0.0114  1.0000  -2.3191   0.0000   0.0000   0.0000   0.3276
  19.600   0.9639   0.24698   0.24500  -0.0991  0.0114  1.0000  -2.3003   0.0000   0.0000   0.0000   0.3282
  19.700   0.9654   0.24931   0.24733  -0.1000  0.0114  1.0000  -2.2825   0.0000   0.0000   0.0000   0.3289
  19.800   0.9670   0.25162   0.24964  -0.1009  0.0114  1.0000  -2.2657   0.0000   0.0000   0.0000   0.3295
  19.900   0.9685   0.25391   0.25194  -0.1018  0.0113  1.0000  -2.2499   0.0000   0.0000   0.0000   0.3301
  20.000   0.9702   0.25619   0.25422  -0.1027  0.0113  1.0000  -2.2353   0.0000   0.0000   0.0000   0.3307
  20.100   0.9718   0.25845   0.25647  -0.1036  0.0113  1.0000  -2.2219   0.0000   0.0000   0.0000   0.3313
  20.200   0.9736   0.26067   0.25870  -0.1044  0.0113  1.0000  -2.2099   0.0000   0.0000   0.0000   0.3319
  20.300   0.9754   0.26287   0.26089  -0.1053  0.0112  1.0000  -2.1997   0.0000   0.0000   0.0000   0.3324
  20.400   0.9773   0.26500   0.26303  -0.1062  0.0112  1.0000  -2.1920   0.0000   0.0000   0.0000   0.3330
  20.500   0.9794   0.26707   0.26509  -0.1071  0.0111  1.0000  -2.1876   0.0000   0.0000   0.0000   0.3335
  20.600   0.9818   0.26903   0.26706  -0.1079  0.0109  1.0000  -2.1872   0.0000   0.0000   0.0000   0.3339
  20.700   0.9844   0.27098   0.26901  -0.1088  0.0107  1.0000  -2.1865   0.0000   0.0000   0.0000   0.3344
  20.800   0.9866   0.27323   0.27126  -0.1098  0.0104  1.0000  -2.1689   0.0000   0.0000   0.0000   0.3350
  20.900   0.9882   0.27568   0.27372  -0.1108  0.0101  1.0000  -2.1412   0.0000   0.0000   0.0000   0.3357
  21.000   0.9898   0.27813   0.27616  -0.1118  0.0098  1.0000  -2.1165   0.0000   0.0000   0.0000   0.3364
  21.100   0.9913   0.28053   0.27856  -0.1127  0.0096  1.0000  -2.0963   0.0000   0.0000   0.0000   0.3370
  21.200   0.9928   0.28289   0.28092  -0.1136  0.0094  1.0000  -2.0797   0.0000   0.0000   0.0000   0.3375
  21.300   0.9943   0.28521   0.28325  -0.1144  0.0091  1.0000  -2.0659   0.0000   0.0000   0.0000   0.3381
  21.400   0.9958   0.28751   0.28555  -0.1152  0.0089  1.0000  -2.0544   0.0000   0.0000   0.0000   0.3386
  21.500   0.9973   0.28979   0.28783  -0.1161  0.0088  1.0000  -2.0447   0.0000   0.0000   0.0000   0.3391
  21.600   0.9987   0.29203   0.29007  -0.1169  0.0085  1.0000  -2.0382   0.0000   0.0000   0.0000   0.3395
  21.700   1.0002   0.29423   0.29227  -0.1177  0.0083  1.0000  -2.0353   0.0000   0.0000   0.0000   0.3400
  21.800   1.0017   0.29640   0.29444  -0.1185  0.0081  1.0000  -2.0347   0.0000   0.0000   0.0000   0.3404
  21.900   1.0032   0.29855   0.29659  -0.1192  0.0079  1.0000  -2.0362   0.0000   0.0000   0.0000   0.3409
  22.000   1.0047   0.30067   0.29872  -0.1200  0.0077  1.0000  -2.0396   0.0000   0.0000   0.0000   0.3413
  22.100   1.0061   0.30277   0.30081  -0.1207  0.0075  1.0000  -2.0450   0.0000   0.0000   0.0000   0.3416
  22.200   1.0076   0.30483   0.30288  -0.1215  0.0073  1.0000  -2.0524   0.0000   0.0000   0.0000   0.3420
  22.300   1.0090   0.30688   0.30493  -0.1222  0.0071  1.0000  -2.0618   0.0000   0.0000   0.0000   0.3424
  22.400   1.0105   0.30890   0.30696  -0.1229  0.0070  1.0000  -2.0730   0.0000   0.0000   0.0000   0.3427
  22.500   1.0119   0.31090   0.30895  -0.1236  0.0069  1.0000  -2.0863   0.0000   0.0000   0.0000   0.3430
  22.600   1.0133   0.31286   0.31093  -0.1243  0.0067  1.0000  -2.1015   0.0000   0.0000   0.0000   0.3434
  22.700   1.0147   0.31481   0.31287  -0.1250  0.0066  1.0000  -2.1189   0.0000   0.0000   0.0000   0.3437
  22.800   1.0161   0.31672   0.31479  -0.1257  0.0065  1.0000  -2.1384   0.0000   0.0000   0.0000   0.3439
  22.900   1.0175   0.31860   0.31667  -0.1263  0.0064  1.0000  -2.1601   0.0000   0.0000   0.0000   0.3442
  23.000   1.0189   0.32046   0.31853  -0.1270  0.0063  1.0000  -2.1842   0.0000   0.0000   0.0000   0.3444
  23.100   1.0203   0.32228   0.32036  -0.1276  0.0062  1.0000  -2.2107   0.0000   0.0000   0.0000   0.3447
  23.200   1.0216   0.32407   0.32215  -0.1282  0.0061  1.0000  -2.2396   0.0000   0.0000   0.0000   0.3448
  23.300   1.0230   0.32583   0.32392  -0.1287  0.0060  1.0000  -2.2711   0.0000   0.0000   0.0000   0.3450
  23.400   1.0243   0.32756   0.32565  -0.1293  0.0059  1.0000  -2.3052   0.0000   0.0000   0.0000   0.3451
  23.500   1.0255   0.32931   0.32740  -0.1298  0.0058  1.0000  -2.3391   0.0000   0.0000   0.0000   0.3453
  23.600   1.0264   0.33121   0.32931  -0.1304  0.0058  1.0000  -2.3647   0.0000   0.0000   0.0000   0.3455
  23.700   1.0269   0.33340   0.33154  -0.1310  0.0057  1.0000  -2.3722   0.0000   0.0000   0.0000   0.3458
  23.800   1.0261   0.33613   0.33427  -0.1316  0.0055  1.0000  -2.3537   0.0000   0.0000   0.0000   0.3463
  23.900   1.0179   0.34368   0.34177  -0.1323  0.0052  1.0000  -2.0483   0.0000   0.0000   0.0000   0.3482
  24.000   1.0182   0.34605   0.34414  -0.1329  0.0052  1.0000  -2.0358   0.0000   0.0000   0.0000   0.3486
  24.100   1.0183   0.34841   0.34654  -0.1335  0.0052  1.0000  -2.0233   0.0000   0.0000   0.0000   0.3490
  24.200   1.0183   0.35075   0.34889  -0.1341  0.0052  1.0000  -2.0106   0.0000   0.0000   0.0000   0.3495
  24.300   1.0182   0.35309   0.35123  -0.1347  0.0052  1.0000  -1.9979   0.0000   0.0000   0.0000   0.3499
  24.400   1.0179   0.35541   0.35355  -0.1352  0.0052  1.0000  -1.9849   0.0000   0.0000   0.0000   0.3503
  24.500   1.0174   0.35771   0.35586  -0.1357  0.0052  1.0000  -1.9716   0.0000   0.0000   0.0000   0.3507
  24.600   1.0167   0.35999   0.35814  -0.1362  0.0052  1.0000  -1.9580   0.0000   0.0000   0.0000   0.3511
  24.700   1.0157   0.36223   0.36040  -0.1367  0.0052  1.0000  -1.9439   0.0000   0.0000   0.0000   0.3516
  24.800   1.0143   0.36444   0.36261  -0.1371  0.0052  1.0000  -1.9291   0.0000   0.0000   0.0000   0.3520
  24.900   1.0125   0.36658   0.36476  -0.1374  0.0052  1.0000  -1.9133   0.0000   0.0000   0.0000   0.3524
  25.000   1.0100   0.36864   0.36682  -0.1377  0.0052  1.0000  -1.8959   0.0000   0.0000   0.0000   0.3529
  25.100   1.0065   0.37055   0.36874  -0.1378  0.0052  1.0000  -1.8761   0.0000   0.0000   0.0000   0.3534
  25.200   1.0004   0.37209   0.37030  -0.1376  0.0052  1.0000  -1.8498   0.0000   0.0000   0.0000   0.3540


