xflr5 v6.61

 Calculated polar for: S7055 (10.5%) Flat-Bottomed

 1 1 Reynolds number fixed          Mach number fixed         

 xtrf =   1.000 (top)        1.000 (bottom)
 Mach =   0.000     Re =     0.625 e 6     Ncrit =   9.000

  alpha     CL        CD       CDp       Cm    Top Xtr Bot Xtr   Cpmin    Chinge    XCp    
 ------- -------- --------- --------- -------- ------- ------- -------- --------- ---------
 -10.000  -0.3551   0.10395   0.10186  -0.0287  1.0000  0.0071  -2.2018   0.0000   0.0000   0.0000   0.1592
  -9.900  -0.3560   0.10193   0.09985  -0.0295  1.0000  0.0069  -2.2714   0.0000   0.0000   0.0000   0.1573
  -9.800  -0.3565   0.10005   0.09801  -0.0303  1.0000  0.0068  -2.3307   0.0000   0.0000   0.0000   0.1554
  -9.700  -0.3566   0.09823   0.09620  -0.0310  1.0000  0.0067  -2.3823   0.0000   0.0000   0.0000   0.1534
  -9.600  -0.3568   0.09642   0.09440  -0.0318  1.0000  0.0066  -2.4327   0.0000   0.0000   0.0000   0.1513
  -9.500  -0.3570   0.09462   0.09261  -0.0326  1.0000  0.0066  -2.4833   0.0000   0.0000   0.0000   0.1493
  -9.400  -0.3574   0.09281   0.09082  -0.0334  1.0000  0.0066  -2.5348   0.0000   0.0000   0.0000   0.1472
  -9.300  -0.3579   0.09101   0.08903  -0.0342  1.0000  0.0065  -2.5876   0.0000   0.0000   0.0000   0.1452
  -9.200  -0.3586   0.08919   0.08722  -0.0351  1.0000  0.0065  -2.6419   0.0000   0.0000   0.0000   0.1431
  -9.100  -0.3593   0.08733   0.08537  -0.0359  1.0000  0.0065  -2.6981   0.0000   0.0000   0.0000   0.1409
  -9.000  -0.3602   0.08546   0.08351  -0.0369  1.0000  0.0065  -2.7559   0.0000   0.0000   0.0000   0.1388
  -8.900  -0.3614   0.08358   0.08165  -0.0378  1.0000  0.0065  -2.8150   0.0000   0.0000   0.0000   0.1366
  -8.800  -0.3630   0.08171   0.07980  -0.0388  1.0000  0.0065  -2.8750   0.0000   0.0000   0.0000   0.1346
  -8.700  -0.3649   0.07986   0.07797  -0.0397  1.0000  0.0065  -2.9356   0.0000   0.0000   0.0000   0.1327
  -8.600  -0.3673   0.07806   0.07619  -0.0406  1.0000  0.0066  -2.9960   0.0000   0.0000   0.0000   0.1312
  -8.400  -0.3619   0.07259   0.07073  -0.0470  0.9846  0.0067  -3.1435   0.0000   0.0000   0.0000   0.1117
  -8.300  -0.3572   0.06954   0.06768  -0.0514  0.9762  0.0068  -3.2131   0.0000   0.0000   0.0000   0.0978
  -8.200  -0.3526   0.06638   0.06452  -0.0564  0.9672  0.0069  -3.2832   0.0000   0.0000   0.0000   0.0819
  -8.100  -0.3494   0.06314   0.06125  -0.0614  0.9577  0.0070  -3.3671   0.0000   0.0000   0.0000   0.0661
  -8.000  -0.3481   0.06009   0.05817  -0.0652  0.9485  0.0070  -3.4582   0.0000   0.0000   0.0000   0.0546
  -7.900  -0.3478   0.05714   0.05516  -0.0683  0.9401  0.0070  -3.5511   0.0000   0.0000   0.0000   0.0457
  -7.800  -0.3477   0.05429   0.05225  -0.0708  0.9333  0.0071  -3.6394   0.0000   0.0000   0.0000   0.0386
  -7.700  -0.3469   0.05163   0.04954  -0.0727  0.9267  0.0072  -3.7113   0.0000   0.0000   0.0000   0.0327
  -7.600  -0.3446   0.04936   0.04721  -0.0740  0.9212  0.0072  -3.7487   0.0000   0.0000   0.0000   0.0275
  -7.500  -0.3401   0.04777   0.04555  -0.0748  0.9167  0.0073  -3.7284   0.0000   0.0000   0.0000   0.0224
  -7.100  -0.3485   0.03033   0.02734  -0.0785  0.8971  0.0078  -4.5827   0.0000   0.0000   0.0000   0.0165
  -7.000  -0.3609   0.02341   0.01965  -0.0777  0.8915  0.0083  -5.0729   0.0000   0.0000   0.0000   0.0262
  -6.900  -0.3570   0.02143   0.01741  -0.0773  0.8887  0.0087  -5.1093   0.0000   0.0000   0.0000   0.0251
  -6.800  -0.3490   0.02071   0.01659  -0.0770  0.8859  0.0091  -5.0287   0.0000   0.0000   0.0000   0.0208
  -6.700  -0.3395   0.02049   0.01633  -0.0769  0.8830  0.0094  -4.8972   0.0000   0.0000   0.0000   0.0149
  -6.600  -0.3293   0.02051   0.01635  -0.0768  0.8803  0.0098  -4.7426   0.0000   0.0000   0.0000   0.0081
  -6.500  -0.3190   0.02059   0.01643  -0.0768  0.8776  0.0101  -4.5837   0.0000   0.0000   0.0000   0.0007
  -6.400  -0.3088   0.02062   0.01644  -0.0767  0.8750  0.0104  -4.4346   0.0000   0.0000   0.0000  -0.0071
  -6.300  -0.2947   0.02226   0.01823  -0.0771  0.8727  0.0114  -4.0927   0.0000   0.0000   0.0000  -0.0202
  -6.200  -0.2865   0.02145   0.01729  -0.0768  0.8699  0.0116  -4.0495   0.0000   0.0000   0.0000  -0.0266
  -6.100  -0.2782   0.02064   0.01634  -0.0765  0.8669  0.0118  -4.0098   0.0000   0.0000   0.0000  -0.0336
  -6.000  -0.2695   0.01983   0.01541  -0.0762  0.8644  0.0119  -3.9708   0.0000   0.0000   0.0000  -0.0414
  -5.900  -0.2607   0.01904   0.01450  -0.0759  0.8621  0.0121  -3.9314   0.0000   0.0000   0.0000  -0.0501
  -5.800  -0.2517   0.01828   0.01363  -0.0756  0.8596  0.0122  -3.8908   0.0000   0.0000   0.0000  -0.0594
  -5.700  -0.2426   0.01757   0.01280  -0.0753  0.8568  0.0124  -3.8486   0.0000   0.0000   0.0000  -0.0696
  -5.600  -0.2334   0.01689   0.01202  -0.0750  0.8540  0.0125  -3.8048   0.0000   0.0000   0.0000  -0.0807
  -5.500  -0.2240   0.01625   0.01127  -0.0746  0.8511  0.0126  -3.7596   0.0000   0.0000   0.0000  -0.0929
  -5.400  -0.2146   0.01565   0.01056  -0.0743  0.8481  0.0127  -3.7131   0.0000   0.0000   0.0000  -0.1062
  -5.300  -0.2051   0.01508   0.00988  -0.0740  0.8451  0.0128  -3.6652   0.0000   0.0000   0.0000  -0.1209
  -5.200  -0.1954   0.01455   0.00924  -0.0737  0.8421  0.0129  -3.6157   0.0000   0.0000   0.0000  -0.1373
  -5.100  -0.1856   0.01409   0.00868  -0.0734  0.8387  0.0131  -3.5607   0.0000   0.0000   0.0000  -0.1560
  -5.000  -0.1752   0.01380   0.00834  -0.0732  0.8361  0.0134  -3.4808   0.0000   0.0000   0.0000  -0.1788
  -4.900  -0.1647   0.01361   0.00812  -0.0731  0.8339  0.0138  -3.3878   0.0000   0.0000   0.0000  -0.2054
  -4.800  -0.1540   0.01348   0.00797  -0.0730  0.8314  0.0143  -3.2895   0.0000   0.0000   0.0000  -0.2361
  -4.700  -0.1432   0.01338   0.00785  -0.0730  0.8287  0.0147  -3.1897   0.0000   0.0000   0.0000  -0.2717
  -4.600  -0.1324   0.01330   0.00775  -0.0729  0.8260  0.0151  -3.0908   0.0000   0.0000   0.0000  -0.3134
  -4.500  -0.1216   0.01321   0.00763  -0.0728  0.8233  0.0153  -2.9961   0.0000   0.0000   0.0000  -0.3624
  -4.400  -0.1109   0.01307   0.00746  -0.0727  0.8206  0.0155  -2.9106   0.0000   0.0000   0.0000  -0.4199
  -4.300  -0.1004   0.01282   0.00715  -0.0725  0.8179  0.0157  -2.8405   0.0000   0.0000   0.0000  -0.4875
  -4.200  -0.0902   0.01243   0.00669  -0.0722  0.8152  0.0157  -2.7899   0.0000   0.0000   0.0000  -0.5670
  -4.100  -0.0804   0.01194   0.00611  -0.0719  0.8123  0.0158  -2.7548   0.0000   0.0000   0.0000  -0.6624
  -3.900  -0.0639   0.01008   0.00393  -0.0705  0.8064  0.0183  -2.8586   0.0000   0.0000   0.0000  -0.8744
  -3.800  -0.0517   0.01025   0.00422  -0.0706  0.8044  0.0266  -2.8262   0.0000   0.0000   0.0000  -1.1411
  -3.700  -0.0416   0.00996   0.00395  -0.0704  0.8019  0.0330  -2.7701   0.0000   0.0000   0.0000  -1.4723
  -3.600  -0.0304   0.00998   0.00399  -0.0704  0.7991  0.0354  -2.6694   0.0000   0.0000   0.0000  -2.1082
  -3.500  -0.0188   0.01009   0.00409  -0.0705  0.7960  0.0381  -2.5698   0.0000   0.0000   0.0000  -3.5594
  -3.400  -0.0078   0.01006   0.00404  -0.0705  0.7928  0.0395  -2.4756   0.0000   0.0000   0.0000  -8.9322
  -3.300   0.0033   0.01007   0.00402  -0.0704  0.7896  0.0405  -2.3792   0.0000   0.0000   0.0000  22.0340
  -3.200   0.0146   0.01015   0.00409  -0.0705  0.7863  0.0413  -2.2774   0.0000   0.0000   0.0000   5.1444
  -3.100   0.0259   0.01022   0.00415  -0.0704  0.7832  0.0418  -2.1790   0.0000   0.0000   0.0000   3.0125
  -3.000   0.0352   0.00979   0.00363  -0.0701  0.7799  0.0435  -2.1181   0.0000   0.0000   0.0000   2.2685
  -2.900   0.0454   0.00959   0.00337  -0.0699  0.7761  0.0445  -2.0435   0.0000   0.0000   0.0000   1.8086
  -2.800   0.0560   0.00941   0.00317  -0.0697  0.7740  0.0456  -1.9655   0.0000   0.0000   0.0000   1.5112
  -2.700   0.0667   0.00925   0.00301  -0.0696  0.7715  0.0466  -1.8863   0.0000   0.0000   0.0000   1.3068
  -2.600   0.0774   0.00912   0.00286  -0.0695  0.7686  0.0477  -1.8068   0.0000   0.0000   0.0000   1.1582
  -2.500   0.0882   0.00901   0.00273  -0.0694  0.7653  0.0488  -1.7272   0.0000   0.0000   0.0000   1.0456
  -2.400   0.0989   0.00891   0.00261  -0.0693  0.7618  0.0502  -1.6479   0.0000   0.0000   0.0000   0.9575
  -2.300   0.1097   0.00882   0.00250  -0.0692  0.7582  0.0517  -1.5693   0.0000   0.0000   0.0000   0.8866
  -2.200   0.1205   0.00875   0.00240  -0.0690  0.7547  0.0537  -1.4913   0.0000   0.0000   0.0000   0.8284
  -2.100   0.1312   0.00869   0.00232  -0.0689  0.7512  0.0561  -1.4135   0.0000   0.0000   0.0000   0.7798
  -2.000   0.1420   0.00866   0.00225  -0.0688  0.7474  0.0583  -1.3358   0.0000   0.0000   0.0000   0.7385
  -1.900   0.1527   0.00857   0.00212  -0.0687  0.7432  0.0633  -1.2644   0.0000   0.0000   0.0000   0.7032
  -1.800   0.1634   0.00842   0.00203  -0.0686  0.7409  0.0736  -1.1939   0.0000   0.0000   0.0000   0.6727
  -1.700   0.1742   0.00831   0.00196  -0.0685  0.7381  0.0860  -1.1214   0.0000   0.0000   0.0000   0.6458
  -1.600   0.1845   0.00813   0.00189  -0.0684  0.7349  0.1133  -1.0506   0.0000   0.0000   0.0000   0.6227
  -1.500   0.1947   0.00794   0.00184  -0.0683  0.7313  0.1526  -0.9803   0.0000   0.0000   0.0000   0.6024
  -1.400   0.2046   0.00773   0.00178  -0.0682  0.7276  0.2025  -0.9109   0.0000   0.0000   0.0000   0.5845
  -1.300   0.2144   0.00753   0.00174  -0.0680  0.7239  0.2603  -0.8408   0.0000   0.0000   0.0000   0.5682
  -1.200   0.2240   0.00732   0.00165  -0.0678  0.7203  0.3209  -0.7797   0.0000   0.0000   0.0000   0.5534
  -1.100   0.2340   0.00719   0.00163  -0.0676  0.7166  0.3653  -0.7357   0.0000   0.0000   0.0000   0.5396
  -1.000   0.2438   0.00706   0.00161  -0.0674  0.7125  0.4111  -0.6925   0.0000   0.0000   0.0000   0.5269
  -0.900   0.2535   0.00690   0.00160  -0.0672  0.7089  0.4636  -0.6555   0.0000   0.0000   0.0000   0.5153
  -0.800   0.2631   0.00670   0.00159  -0.0669  0.7068  0.5228  -0.6242   0.0000   0.0000   0.0000   0.5045
  -0.700   0.2722   0.00650   0.00158  -0.0666  0.7041  0.5852  -0.5938   0.0000   0.0000   0.0000   0.4945
  -0.600   0.2809   0.00630   0.00158  -0.0661  0.7010  0.6514  -0.5954   0.0000   0.0000   0.0000   0.4850
  -0.500   0.2890   0.00609   0.00159  -0.0654  0.6976  0.7168  -0.6025   0.0000   0.0000   0.0000   0.4759
  -0.400   0.2970   0.00592   0.00160  -0.0646  0.6939  0.7784  -0.6095   0.0000   0.0000   0.0000   0.4670
  -0.300   0.3055   0.00578   0.00162  -0.0639  0.6900  0.8335  -0.6168   0.0000   0.0000   0.0000   0.4583
  -0.200   0.3156   0.00570   0.00164  -0.0634  0.6858  0.8816  -0.6251   0.0000   0.0000   0.0000   0.4501
  -0.100   0.3303   0.00569   0.00165  -0.0640  0.6813  0.9183  -0.6362   0.0000   0.0000   0.0000   0.4428
   0.000   0.3487   0.00572   0.00166  -0.0655  0.6762  0.9421  -0.6497   0.0000   0.0000   0.0000   0.4367
   0.100   0.3707   0.00574   0.00167  -0.0678  0.6732  0.9626  -0.6651   0.0000   0.0000   0.0000   0.4316
   0.200   0.3939   0.00575   0.00167  -0.0703  0.6703  0.9784  -0.6814   0.0000   0.0000   0.0000   0.4272
   0.300   0.4174   0.00577   0.00167  -0.0730  0.6667  0.9883  -0.6978   0.0000   0.0000   0.0000   0.4233
   0.400   0.4414   0.00579   0.00165  -0.0758  0.6623  0.9951  -0.7153   0.0000   0.0000   0.0000   0.4201
   0.500   0.4653   0.00580   0.00162  -0.0786  0.6576  1.0000  -0.7334   0.0000   0.0000   0.0000   0.4172
   0.600   0.4753   0.00582   0.00161  -0.0784  0.6531  1.0000  -0.7433   0.0000   0.0000   0.0000   0.4131
   0.700   0.4852   0.00585   0.00160  -0.0781  0.6486  1.0000  -0.7532   0.0000   0.0000   0.0000   0.4092
   0.800   0.4951   0.00590   0.00160  -0.0779  0.6436  1.0000  -0.7631   0.0000   0.0000   0.0000   0.4054
   0.900   0.5051   0.00594   0.00160  -0.0777  0.6388  1.0000  -0.7730   0.0000   0.0000   0.0000   0.4017
   1.000   0.5154   0.00594   0.00160  -0.0775  0.6362  1.0000  -0.7832   0.0000   0.0000   0.0000   0.3983
   1.100   0.5257   0.00595   0.00163  -0.0774  0.6328  1.0000  -0.7934   0.0000   0.0000   0.0000   0.3949
   1.200   0.5358   0.00597   0.00163  -0.0772  0.6288  1.0000  -0.8035   0.0000   0.0000   0.0000   0.3917
   1.300   0.5460   0.00600   0.00163  -0.0770  0.6244  1.0000  -0.8136   0.0000   0.0000   0.0000   0.3886
   1.400   0.5560   0.00603   0.00163  -0.0768  0.6198  1.0000  -0.8237   0.0000   0.0000   0.0000   0.3856
   1.500   0.5659   0.00607   0.00163  -0.0766  0.6153  1.0000  -0.8338   0.0000   0.0000   0.0000   0.3827
   1.600   0.5758   0.00612   0.00164  -0.0763  0.6105  1.0000  -0.8439   0.0000   0.0000   0.0000   0.3798
   1.700   0.5856   0.00618   0.00166  -0.0761  0.6052  1.0000  -0.8558   0.0000   0.0000   0.0000   0.3771
   1.800   0.5959   0.00620   0.00167  -0.0759  0.6019  1.0000  -0.8684   0.0000   0.0000   0.0000   0.3745
   1.900   0.6062   0.00622   0.00169  -0.0758  0.5991  1.0000  -0.8810   0.0000   0.0000   0.0000   0.3720
   2.000   0.6165   0.00624   0.00170  -0.0756  0.5957  1.0000  -0.8937   0.0000   0.0000   0.0000   0.3696
   2.100   0.6267   0.00627   0.00171  -0.0754  0.5916  1.0000  -0.9064   0.0000   0.0000   0.0000   0.3672
   2.200   0.6368   0.00630   0.00173  -0.0752  0.5868  1.0000  -0.9190   0.0000   0.0000   0.0000   0.3649
   2.300   0.6467   0.00635   0.00174  -0.0750  0.5814  1.0000  -0.9315   0.0000   0.0000   0.0000   0.3626
   2.400   0.6563   0.00641   0.00176  -0.0747  0.5754  1.0000  -0.9439   0.0000   0.0000   0.0000   0.3604
   2.500   0.6659   0.00649   0.00178  -0.0744  0.5685  1.0000  -0.9562   0.0000   0.0000   0.0000   0.3582
   2.600   0.6761   0.00652   0.00181  -0.0742  0.5646  1.0000  -0.9690   0.0000   0.0000   0.0000   0.3562
   2.700   0.6864   0.00654   0.00183  -0.0741  0.5610  1.0000  -0.9820   0.0000   0.0000   0.0000   0.3542
   2.800   0.6966   0.00658   0.00186  -0.0739  0.5567  1.0000  -0.9963   0.0000   0.0000   0.0000   0.3523
   2.900   0.7067   0.00662   0.00188  -0.0737  0.5521  1.0000  -1.0106   0.0000   0.0000   0.0000   0.3504
   3.000   0.7167   0.00667   0.00191  -0.0735  0.5475  1.0000  -1.0248   0.0000   0.0000   0.0000   0.3486
   3.100   0.7265   0.00673   0.00194  -0.0733  0.5426  1.0000  -1.0390   0.0000   0.0000   0.0000   0.3468
   3.200   0.7362   0.00680   0.00197  -0.0730  0.5372  1.0000  -1.0530   0.0000   0.0000   0.0000   0.3450
   3.300   0.7458   0.00688   0.00202  -0.0727  0.5308  1.0000  -1.0670   0.0000   0.0000   0.0000   0.3432
   3.400   0.7562   0.00691   0.00205  -0.0726  0.5279  1.0000  -1.0824   0.0000   0.0000   0.0000   0.3416
   3.500   0.7665   0.00694   0.00208  -0.0724  0.5242  1.0000  -1.0988   0.0000   0.0000   0.0000   0.3401
   3.600   0.7766   0.00698   0.00212  -0.0722  0.5195  1.0000  -1.1151   0.0000   0.0000   0.0000   0.3385
   3.700   0.7866   0.00703   0.00215  -0.0720  0.5143  1.0000  -1.1313   0.0000   0.0000   0.0000   0.3369
   3.800   0.7964   0.00709   0.00225  -0.0718  0.5089  1.0000  -1.1476   0.0000   0.0000   0.0000   0.3354
   3.900   0.8060   0.00717   0.00229  -0.0715  0.5033  1.0000  -1.1656   0.0000   0.0000   0.0000   0.3339
   4.000   0.8155   0.00726   0.00234  -0.0712  0.4970  1.0000  -1.1835   0.0000   0.0000   0.0000   0.3324
   4.100   0.8254   0.00731   0.00239  -0.0710  0.4924  1.0000  -1.2019   0.0000   0.0000   0.0000   0.3310
   4.200   0.8357   0.00735   0.00243  -0.0709  0.4888  1.0000  -1.2208   0.0000   0.0000   0.0000   0.3297
   4.300   0.8459   0.00739   0.00247  -0.0707  0.4842  1.0000  -1.2395   0.0000   0.0000   0.0000   0.3284
   4.400   0.8558   0.00745   0.00251  -0.0705  0.4787  1.0000  -1.2582   0.0000   0.0000   0.0000   0.3270
   4.500   0.8655   0.00753   0.00256  -0.0702  0.4728  1.0000  -1.2776   0.0000   0.0000   0.0000   0.3257
   4.600   0.8749   0.00762   0.00262  -0.0699  0.4662  1.0000  -1.2983   0.0000   0.0000   0.0000   0.3244
   4.700   0.8839   0.00774   0.00268  -0.0696  0.4566  1.0000  -1.3187   0.0000   0.0000   0.0000   0.3231
   4.800   0.8938   0.00779   0.00272  -0.0694  0.4474  1.0000  -1.3428   0.0000   0.0000   0.0000   0.3219
   4.900   0.9022   0.00795   0.00278  -0.0689  0.4318  1.0000  -1.3657   0.0000   0.0000   0.0000   0.3205
   5.000   0.9107   0.00810   0.00285  -0.0685  0.4155  1.0000  -1.3888   0.0000   0.0000   0.0000   0.3192
   5.100   0.9188   0.00829   0.00293  -0.0680  0.3959  1.0000  -1.4116   0.0000   0.0000   0.0000   0.3179
   5.200   0.9270   0.00847   0.00301  -0.0675  0.3775  1.0000  -1.4345   0.0000   0.0000   0.0000   0.3167
   5.300   0.9347   0.00870   0.00311  -0.0670  0.3572  1.0000  -1.4579   0.0000   0.0000   0.0000   0.3154
   5.400   0.9435   0.00885   0.00320  -0.0666  0.3431  1.0000  -1.4855   0.0000   0.0000   0.0000   0.3142
   5.500   0.9526   0.00899   0.00328  -0.0663  0.3321  1.0000  -1.5135   0.0000   0.0000   0.0000   0.3131
   5.600   0.9610   0.00917   0.00339  -0.0659  0.3199  1.0000  -1.5407   0.0000   0.0000   0.0000   0.3120
   5.700   0.9705   0.00929   0.00348  -0.0657  0.3110  1.0000  -1.5695   0.0000   0.0000   0.0000   0.3110
   5.800   0.9793   0.00944   0.00357  -0.0654  0.2989  1.0000  -1.5977   0.0000   0.0000   0.0000   0.3099
   5.900   0.9875   0.00966   0.00370  -0.0649  0.2848  1.0000  -1.6290   0.0000   0.0000   0.0000   0.3088
   6.000   0.9967   0.00979   0.00379  -0.0647  0.2749  1.0000  -1.6695   0.0000   0.0000   0.0000   0.3078
   6.100   1.0049   0.01000   0.00391  -0.0642  0.2612  1.0000  -1.7082   0.0000   0.0000   0.0000   0.3068
   6.200   1.0135   0.01018   0.00404  -0.0639  0.2494  1.0000  -1.7521   0.0000   0.0000   0.0000   0.3057
   6.300   1.0222   0.01036   0.00415  -0.0636  0.2379  1.0000  -1.8241   0.0000   0.0000   0.0000   0.3048
   6.400   1.0300   0.01061   0.00431  -0.0631  0.2230  1.0000  -1.8938   0.0000   0.0000   0.0000   0.3037
   6.500   1.0440   0.01036   0.00437  -0.0635  0.2478  1.0000  -1.9581   0.0000   0.0000   0.0000   0.3032
   6.600   1.0528   0.01052   0.00449  -0.0632  0.2380  1.0000  -2.0342   0.0000   0.0000   0.0000   0.3022
   6.700   1.0606   0.01077   0.00464  -0.0627  0.2244  1.0000  -2.1344   0.0000   0.0000   0.0000   0.3012
   6.800   1.0695   0.01093   0.00477  -0.0624  0.2146  1.0000  -2.2416   0.0000   0.0000   0.0000   0.3003
   6.900   1.0772   0.01118   0.00493  -0.0619  0.2010  1.0000  -2.3435   0.0000   0.0000   0.0000   0.2994
   7.000   1.0854   0.01140   0.00509  -0.0615  0.1886  1.0000  -2.4485   0.0000   0.0000   0.0000   0.2984
   7.100   1.0926   0.01169   0.00527  -0.0610  0.1736  1.0000  -2.5496   0.0000   0.0000   0.0000   0.2975
   7.200   1.1001   0.01195   0.00546  -0.0605  0.1584  1.0000  -2.6526   0.0000   0.0000   0.0000   0.2965
   7.300   1.1061   0.01234   0.00570  -0.0599  0.1379  1.0000  -2.7469   0.0000   0.0000   0.0000   0.2955
   7.400   1.1114   0.01279   0.00598  -0.0591  0.1150  1.0000  -2.8367   0.0000   0.0000   0.0000   0.2944
   7.500   1.1162   0.01326   0.00630  -0.0582  0.0917  1.0000  -2.9231   0.0000   0.0000   0.0000   0.2933
   7.600   1.1205   0.01378   0.00665  -0.0573  0.0683  1.0000  -3.0040   0.0000   0.0000   0.0000   0.2922
   7.700   1.1227   0.01445   0.00710  -0.0561  0.0409  1.0000  -3.0710   0.0000   0.0000   0.0000   0.2909
   7.800   1.1227   0.01529   0.00773  -0.0545  0.0114  1.0000  -3.1230   0.0000   0.0000   0.0000   0.2893
   7.900   1.1292   0.01562   0.00803  -0.0539  0.0058  1.0000  -3.2073   0.0000   0.0000   0.0000   0.2883
   8.000   1.1374   0.01580   0.00822  -0.0534  0.0049  1.0000  -3.3028   0.0000   0.0000   0.0000   0.2875
   8.100   1.1456   0.01598   0.00842  -0.0530  0.0046  1.0000  -3.4004   0.0000   0.0000   0.0000   0.2867
   8.200   1.1537   0.01616   0.00864  -0.0526  0.0043  1.0000  -3.4986   0.0000   0.0000   0.0000   0.2858
   8.300   1.1617   0.01635   0.00885  -0.0521  0.0042  1.0000  -3.5973   0.0000   0.0000   0.0000   0.2850
   8.400   1.1695   0.01655   0.00908  -0.0517  0.0041  1.0000  -3.6962   0.0000   0.0000   0.0000   0.2841
   8.500   1.1772   0.01675   0.00931  -0.0512  0.0040  1.0000  -3.7948   0.0000   0.0000   0.0000   0.2833
   8.600   1.1848   0.01696   0.00956  -0.0506  0.0039  1.0000  -3.8923   0.0000   0.0000   0.0000   0.2824
   8.700   1.1921   0.01718   0.00981  -0.0501  0.0039  1.0000  -3.9888   0.0000   0.0000   0.0000   0.2816
   8.800   1.1991   0.01741   0.01008  -0.0495  0.0038  1.0000  -4.0837   0.0000   0.0000   0.0000   0.2807
   8.900   1.2057   0.01765   0.01036  -0.0488  0.0038  1.0000  -4.1757   0.0000   0.0000   0.0000   0.2798
   9.000   1.2117   0.01791   0.01066  -0.0480  0.0038  1.0000  -4.2647   0.0000   0.0000   0.0000   0.2788
   9.100   1.2172   0.01817   0.01097  -0.0472  0.0038  1.0000  -4.3534   0.0000   0.0000   0.0000   0.2777
   9.200   1.2225   0.01846   0.01129  -0.0463  0.0038  1.0000  -4.4432   0.0000   0.0000   0.0000   0.2767
   9.300   1.2270   0.01879   0.01172  -0.0453  0.0038  1.0000  -4.5363   0.0000   0.0000   0.0000   0.2756
   9.400   1.2311   0.01915   0.01214  -0.0443  0.0038  1.0000  -4.6241   0.0000   0.0000   0.0000   0.2745
   9.500   1.2351   0.01952   0.01255  -0.0433  0.0038  1.0000  -4.7049   0.0000   0.0000   0.0000   0.2734
   9.600   1.2389   0.01991   0.01299  -0.0423  0.0038  1.0000  -4.7822   0.0000   0.0000   0.0000   0.2724
   9.700   1.2423   0.02033   0.01346  -0.0413  0.0039  1.0000  -4.8561   0.0000   0.0000   0.0000   0.2713
   9.800   1.2453   0.02077   0.01396  -0.0402  0.0039  1.0000  -4.9262   0.0000   0.0000   0.0000   0.2702
   9.900   1.2479   0.02126   0.01450  -0.0392  0.0039  1.0000  -4.9928   0.0000   0.0000   0.0000   0.2692
  10.000   1.2501   0.02177   0.01507  -0.0381  0.0040  1.0000  -5.0561   0.0000   0.0000   0.0000   0.2681
  10.100   1.2520   0.02232   0.01568  -0.0370  0.0040  1.0000  -5.1161   0.0000   0.0000   0.0000   0.2670
  10.200   1.2534   0.02290   0.01632  -0.0359  0.0041  1.0000  -5.1723   0.0000   0.0000   0.0000   0.2660
  10.300   1.2545   0.02353   0.01700  -0.0349  0.0041  1.0000  -5.2256   0.0000   0.0000   0.0000   0.2650
  10.400   1.2553   0.02419   0.01772  -0.0338  0.0041  1.0000  -5.2757   0.0000   0.0000   0.0000   0.2639
  10.500   1.2557   0.02490   0.01849  -0.0328  0.0042  1.0000  -5.3225   0.0000   0.0000   0.0000   0.2629
  10.600   1.2558   0.02563   0.01928  -0.0317  0.0042  1.0000  -5.3664   0.0000   0.0000   0.0000   0.2619
  10.700   1.2555   0.02642   0.02013  -0.0307  0.0043  1.0000  -5.4063   0.0000   0.0000   0.0000   0.2610
  10.800   1.2550   0.02724   0.02101  -0.0297  0.0044  1.0000  -5.4442   0.0000   0.0000   0.0000   0.2600
  10.900   1.2543   0.02811   0.02194  -0.0288  0.0044  1.0000  -5.4794   0.0000   0.0000   0.0000   0.2591
  11.000   1.2533   0.02904   0.02292  -0.0278  0.0045  1.0000  -5.5109   0.0000   0.0000   0.0000   0.2582
  11.100   1.2522   0.02999   0.02394  -0.0269  0.0045  1.0000  -5.5402   0.0000   0.0000   0.0000   0.2573
  11.200   1.2509   0.03099   0.02500  -0.0261  0.0046  1.0000  -5.5662   0.0000   0.0000   0.0000   0.2565
  11.300   1.2492   0.03204   0.02611  -0.0252  0.0047  1.0000  -5.5873   0.0000   0.0000   0.0000   0.2556
  11.400   1.2472   0.03312   0.02725  -0.0243  0.0047  1.0000  -5.6045   0.0000   0.0000   0.0000   0.2548
  11.500   1.2452   0.03425   0.02845  -0.0234  0.0048  1.0000  -5.6163   0.0000   0.0000   0.0000   0.2539
  11.600   1.2426   0.03549   0.02974  -0.0225  0.0049  1.0000  -5.6189   0.0000   0.0000   0.0000   0.2530
  11.700   1.2392   0.03687   0.03120  -0.0215  0.0050  1.0000  -5.6039   0.0000   0.0000   0.0000   0.2521
  11.900   1.2381   0.03928   0.03371  -0.0197  0.0054  1.0000  -5.6021   0.0000   0.0000   0.0000   0.2504
  12.000   1.2431   0.03971   0.03415  -0.0196  0.0055  1.0000  -5.7083   0.0000   0.0000   0.0000   0.2500
  12.100   1.2480   0.04017   0.03463  -0.0194  0.0057  1.0000  -5.8116   0.0000   0.0000   0.0000   0.2496
  12.200   1.2523   0.04070   0.03519  -0.0192  0.0058  1.0000  -5.9070   0.0000   0.0000   0.0000   0.2492
  12.300   1.2564   0.04129   0.03581  -0.0190  0.0061  1.0000  -5.9936   0.0000   0.0000   0.0000   0.2488
  12.400   1.2605   0.04195   0.03654  -0.0186  0.0065  1.0000  -6.0518   0.0000   0.0000   0.0000   0.2483
  17.800   0.9534   0.20518   0.20315  -0.0816  0.0150  1.0000  -2.6163   0.0000   0.0000   0.0000   0.3135
  17.900   0.9542   0.20739   0.20536  -0.0827  0.0147  1.0000  -2.6019   0.0000   0.0000   0.0000   0.3144
  18.000   0.9550   0.20954   0.20751  -0.0837  0.0145  1.0000  -2.5910   0.0000   0.0000   0.0000   0.3152
  18.100   0.9560   0.21164   0.20961  -0.0846  0.0143  1.0000  -2.5833   0.0000   0.0000   0.0000   0.3160
  18.200   0.9571   0.21368   0.21165  -0.0856  0.0141  1.0000  -2.5787   0.0000   0.0000   0.0000   0.3167
  18.300   0.9584   0.21568   0.21364  -0.0865  0.0140  1.0000  -2.5772   0.0000   0.0000   0.0000   0.3174
  18.400   0.9597   0.21762   0.21559  -0.0874  0.0138  1.0000  -2.5786   0.0000   0.0000   0.0000   0.3181
  18.500   0.9612   0.21952   0.21748  -0.0883  0.0136  1.0000  -2.5830   0.0000   0.0000   0.0000   0.3187
  18.600   0.9627   0.22137   0.21934  -0.0891  0.0135  1.0000  -2.5903   0.0000   0.0000   0.0000   0.3193
  18.700   0.9643   0.22318   0.22114  -0.0899  0.0133  1.0000  -2.6004   0.0000   0.0000   0.0000   0.3198
  18.800   0.9660   0.22494   0.22291  -0.0907  0.0132  1.0000  -2.6134   0.0000   0.0000   0.0000   0.3203
  18.900   0.9678   0.22666   0.22462  -0.0915  0.0130  1.0000  -2.6293   0.0000   0.0000   0.0000   0.3207
  19.000   0.9697   0.22833   0.22630  -0.0922  0.0129  1.0000  -2.6480   0.0000   0.0000   0.0000   0.3211
  19.100   0.9716   0.22997   0.22794  -0.0929  0.0128  1.0000  -2.6695   0.0000   0.0000   0.0000   0.3215
  19.200   0.9732   0.23174   0.22971  -0.0937  0.0126  1.0000  -2.6847   0.0000   0.0000   0.0000   0.3219
  19.300   0.9745   0.23365   0.23162  -0.0945  0.0125  1.0000  -2.6926   0.0000   0.0000   0.0000   0.3224
  19.400   0.9755   0.23565   0.23362  -0.0953  0.0123  1.0000  -2.6966   0.0000   0.0000   0.0000   0.3230
  19.500   0.9754   0.23805   0.23602  -0.0962  0.0120  1.0000  -2.6796   0.0000   0.0000   0.0000   0.3238
  19.700   0.9655   0.24903   0.24696  -0.0996  0.0114  1.0000  -2.3032   0.0000   0.0000   0.0000   0.3285
  19.800   0.9669   0.25139   0.24932  -0.1005  0.0114  1.0000  -2.2848   0.0000   0.0000   0.0000   0.3291
  19.900   0.9684   0.25373   0.25166  -0.1014  0.0114  1.0000  -2.2671   0.0000   0.0000   0.0000   0.3297
  20.000   0.9699   0.25606   0.25399  -0.1023  0.0114  1.0000  -2.2502   0.0000   0.0000   0.0000   0.3303
  20.100   0.9715   0.25838   0.25631  -0.1032  0.0114  1.0000  -2.2340   0.0000   0.0000   0.0000   0.3309
  20.200   0.9730   0.26069   0.25862  -0.1041  0.0114  1.0000  -2.2186   0.0000   0.0000   0.0000   0.3315
  20.300   0.9746   0.26299   0.26092  -0.1049  0.0114  1.0000  -2.2038   0.0000   0.0000   0.0000   0.3321
  20.400   0.9762   0.26528   0.26321  -0.1058  0.0113  1.0000  -2.1899   0.0000   0.0000   0.0000   0.3327
  20.500   0.9778   0.26756   0.26549  -0.1067  0.0113  1.0000  -2.1767   0.0000   0.0000   0.0000   0.3332
  20.600   0.9794   0.26981   0.26775  -0.1075  0.0113  1.0000  -2.1644   0.0000   0.0000   0.0000   0.3338
  20.700   0.9811   0.27205   0.26998  -0.1084  0.0113  1.0000  -2.1530   0.0000   0.0000   0.0000   0.3343
  20.800   0.9828   0.27427   0.27220  -0.1093  0.0112  1.0000  -2.1429   0.0000   0.0000   0.0000   0.3348
  20.900   0.9846   0.27644   0.27438  -0.1101  0.0112  1.0000  -2.1341   0.0000   0.0000   0.0000   0.3354
  21.000   0.9865   0.27857   0.27651  -0.1110  0.0111  1.0000  -2.1273   0.0000   0.0000   0.0000   0.3359
  21.100   0.9886   0.28064   0.27857  -0.1118  0.0110  1.0000  -2.1228   0.0000   0.0000   0.0000   0.3363
  21.200   0.9909   0.28263   0.28057  -0.1127  0.0109  1.0000  -2.1203   0.0000   0.0000   0.0000   0.3368
  21.300   0.9931   0.28474   0.28268  -0.1136  0.0106  1.0000  -2.1102   0.0000   0.0000   0.0000   0.3373
  21.400   0.9948   0.28716   0.28510  -0.1147  0.0104  1.0000  -2.0827   0.0000   0.0000   0.0000   0.3381
  21.500   0.9963   0.28962   0.28756  -0.1157  0.0101  1.0000  -2.0562   0.0000   0.0000   0.0000   0.3388
  21.600   0.9979   0.29205   0.28999  -0.1166  0.0098  1.0000  -2.0345   0.0000   0.0000   0.0000   0.3393
  21.700   0.9993   0.29443   0.29238  -0.1175  0.0096  1.0000  -2.0170   0.0000   0.0000   0.0000   0.3399
  21.800   1.0008   0.29678   0.29473  -0.1183  0.0094  1.0000  -2.0026   0.0000   0.0000   0.0000   0.3404
  21.900   1.0022   0.29911   0.29705  -0.1191  0.0091  1.0000  -1.9907   0.0000   0.0000   0.0000   0.3409
  22.000   1.0036   0.30141   0.29936  -0.1199  0.0090  1.0000  -1.9807   0.0000   0.0000   0.0000   0.3413
  22.100   1.0050   0.30370   0.30165  -0.1207  0.0088  1.0000  -1.9722   0.0000   0.0000   0.0000   0.3418
  22.200   1.0063   0.30597   0.30393  -0.1215  0.0086  1.0000  -1.9649   0.0000   0.0000   0.0000   0.3422
  22.300   1.0076   0.30824   0.30619  -0.1222  0.0084  1.0000  -1.9588   0.0000   0.0000   0.0000   0.3427
  22.400   1.0089   0.31046   0.30842  -0.1230  0.0082  1.0000  -1.9560   0.0000   0.0000   0.0000   0.3431
  22.500   1.0102   0.31266   0.31062  -0.1237  0.0080  1.0000  -1.9556   0.0000   0.0000   0.0000   0.3435
  22.600   1.0115   0.31483   0.31279  -0.1244  0.0078  1.0000  -1.9567   0.0000   0.0000   0.0000   0.3439
  22.700   1.0127   0.31699   0.31495  -0.1252  0.0076  1.0000  -1.9593   0.0000   0.0000   0.0000   0.3442
  22.800   1.0139   0.31912   0.31709  -0.1259  0.0075  1.0000  -1.9634   0.0000   0.0000   0.0000   0.3446
  22.900   1.0151   0.32124   0.31921  -0.1266  0.0073  1.0000  -1.9690   0.0000   0.0000   0.0000   0.3450
  23.000   1.0163   0.32334   0.32131  -0.1273  0.0072  1.0000  -1.9762   0.0000   0.0000   0.0000   0.3453
  23.100   1.0174   0.32541   0.32339  -0.1280  0.0070  1.0000  -1.9849   0.0000   0.0000   0.0000   0.3456
  23.200   1.0185   0.32747   0.32545  -0.1286  0.0069  1.0000  -1.9951   0.0000   0.0000   0.0000   0.3460
  23.300   1.0196   0.32950   0.32749  -0.1293  0.0068  1.0000  -2.0068   0.0000   0.0000   0.0000   0.3463
  23.400   1.0206   0.33151   0.32951  -0.1299  0.0066  1.0000  -2.0201   0.0000   0.0000   0.0000   0.3466
  23.500   1.0216   0.33350   0.33150  -0.1306  0.0065  1.0000  -2.0350   0.0000   0.0000   0.0000   0.3469
  23.600   1.0226   0.33547   0.33347  -0.1312  0.0064  1.0000  -2.0516   0.0000   0.0000   0.0000   0.3471
  23.700   1.0235   0.33741   0.33541  -0.1318  0.0063  1.0000  -2.0700   0.0000   0.0000   0.0000   0.3474
  23.800   1.0244   0.33932   0.33733  -0.1323  0.0062  1.0000  -2.0900   0.0000   0.0000   0.0000   0.3477
  23.900   1.0252   0.34121   0.33922  -0.1329  0.0062  1.0000  -2.1119   0.0000   0.0000   0.0000   0.3479
  24.000   1.0259   0.34312   0.34117  -0.1335  0.0061  1.0000  -2.1316   0.0000   0.0000   0.0000   0.3481
  24.100   1.0266   0.34497   0.34303  -0.1340  0.0060  1.0000  -2.1556   0.0000   0.0000   0.0000   0.3483
  24.200   1.0272   0.34679   0.34486  -0.1345  0.0059  1.0000  -2.1817   0.0000   0.0000   0.0000   0.3485
  24.300   1.0277   0.34859   0.34666  -0.1349  0.0058  1.0000  -2.2098   0.0000   0.0000   0.0000   0.3486
  24.400   1.0282   0.35038   0.34846  -0.1353  0.0058  1.0000  -2.2386   0.0000   0.0000   0.0000   0.3487
  24.500   1.0281   0.35234   0.35042  -0.1357  0.0057  1.0000  -2.2581   0.0000   0.0000   0.0000   0.3489
  24.600   1.0272   0.35463   0.35272  -0.1362  0.0056  1.0000  -2.2580   0.0000   0.0000   0.0000   0.3493
  24.700   1.0148   0.36189   0.35997  -0.1361  0.0052  1.0000  -1.9660   0.0000   0.0000   0.0000   0.3511
  24.800   1.0133   0.36409   0.36217  -0.1365  0.0052  1.0000  -1.9502   0.0000   0.0000   0.0000   0.3516
  24.900   1.0113   0.36622   0.36431  -0.1369  0.0052  1.0000  -1.9333   0.0000   0.0000   0.0000   0.3520
  25.000   1.0086   0.36825   0.36635  -0.1371  0.0052  1.0000  -1.9148   0.0000   0.0000   0.0000   0.3525
  25.100   1.0046   0.37011   0.36821  -0.1372  0.0052  1.0000  -1.8933   0.0000   0.0000   0.0000   0.3530


