xflr5 v6.61

 Calculated polar for: S7055 (10.5%) Flat-Bottomed

 1 1 Reynolds number fixed          Mach number fixed         

 xtrf =   1.000 (top)        1.000 (bottom)
 Mach =   0.000     Re =     0.450 e 6     Ncrit =   9.000

  alpha     CL        CD       CDp       Cm    Top Xtr Bot Xtr   Cpmin    Chinge    XCp    
 ------- -------- --------- --------- -------- ------- ------- -------- --------- ---------
 -10.000  -0.3423   0.10932   0.10688  -0.0298  1.0000  0.0155  -1.7427   0.0000   0.0000   0.0000   0.1532
  -9.900  -0.3404   0.10784   0.10542  -0.0304  1.0000  0.0155  -1.7536   0.0000   0.0000   0.0000   0.1509
  -9.800  -0.3386   0.10635   0.10394  -0.0311  1.0000  0.0156  -1.7651   0.0000   0.0000   0.0000   0.1485
  -9.700  -0.3368   0.10485   0.10245  -0.0317  1.0000  0.0156  -1.7771   0.0000   0.0000   0.0000   0.1462
  -9.600  -0.3351   0.10335   0.10096  -0.0324  1.0000  0.0156  -1.7897   0.0000   0.0000   0.0000   0.1438
  -8.800  -0.3358   0.08955   0.08725  -0.0364  1.0000  0.0133  -1.9531   0.0000   0.0000   0.0000   0.1329
  -8.700  -0.3362   0.08790   0.08562  -0.0371  1.0000  0.0127  -1.9831   0.0000   0.0000   0.0000   0.1312
  -8.600  -0.3369   0.08621   0.08395  -0.0378  1.0000  0.0122  -2.0226   0.0000   0.0000   0.0000   0.1293
  -8.500  -0.3381   0.08451   0.08227  -0.0386  1.0000  0.0119  -2.0670   0.0000   0.0000   0.0000   0.1277
  -8.400  -0.3399   0.08285   0.08063  -0.0393  1.0000  0.0116  -2.1135   0.0000   0.0000   0.0000   0.1264
  -8.300  -0.3428   0.08135   0.07916  -0.0397  1.0000  0.0114  -2.1588   0.0000   0.0000   0.0000   0.1264
  -8.200  -0.3463   0.07991   0.07775  -0.0401  0.9973  0.0113  -2.2038   0.0000   0.0000   0.0000   0.1265
  -8.000  -0.3368   0.07431   0.07215  -0.0474  0.9873  0.0111  -2.3418   0.0000   0.0000   0.0000   0.1014
  -7.900  -0.3312   0.07136   0.06920  -0.0519  0.9820  0.0112  -2.4099   0.0000   0.0000   0.0000   0.0856
  -7.800  -0.3257   0.06826   0.06610  -0.0569  0.9751  0.0113  -2.4814   0.0000   0.0000   0.0000   0.0676
  -7.700  -0.3185   0.06483   0.06265  -0.0626  0.9701  0.0115  -2.5590   0.0000   0.0000   0.0000   0.0457
  -7.600  -0.3134   0.06166   0.05946  -0.0671  0.9632  0.0116  -2.6356   0.0000   0.0000   0.0000   0.0281
  -7.500  -0.3079   0.05837   0.05612  -0.0715  0.9574  0.0119  -2.7175   0.0000   0.0000   0.0000   0.0101
  -7.400  -0.3047   0.05545   0.05314  -0.0744  0.9509  0.0121  -2.7944   0.0000   0.0000   0.0000  -0.0021
  -7.300  -0.3023   0.05270   0.05033  -0.0766  0.9443  0.0123  -2.8689   0.0000   0.0000   0.0000  -0.0113
  -7.200  -0.2997   0.04993   0.04747  -0.0785  0.9388  0.0125  -2.9450   0.0000   0.0000   0.0000  -0.0197
  -7.100  -0.2975   0.04728   0.04473  -0.0798  0.9335  0.0128  -3.0193   0.0000   0.0000   0.0000  -0.0262
  -7.000  -0.2953   0.04472   0.04208  -0.0807  0.9279  0.0131  -3.0907   0.0000   0.0000   0.0000  -0.0312
  -6.900  -0.2928   0.04222   0.03946  -0.0813  0.9229  0.0133  -3.1586   0.0000   0.0000   0.0000  -0.0357
  -6.800  -0.2898   0.03980   0.03690  -0.0816  0.9185  0.0135  -3.2209   0.0000   0.0000   0.0000  -0.0398
  -6.700  -0.2862   0.03747   0.03444  -0.0818  0.9145  0.0138  -3.2760   0.0000   0.0000   0.0000  -0.0439
  -6.600  -0.2822   0.03525   0.03208  -0.0818  0.9105  0.0140  -3.3219   0.0000   0.0000   0.0000  -0.0482
  -6.500  -0.2779   0.03319   0.02987  -0.0817  0.9064  0.0141  -3.3564   0.0000   0.0000   0.0000  -0.0524
  -6.400  -0.2732   0.03132   0.02784  -0.0814  0.9025  0.0143  -3.3868   0.0000   0.0000   0.0000  -0.0566
  -6.300  -0.2679   0.02965   0.02600  -0.0811  0.8990  0.0144  -3.4204   0.0000   0.0000   0.0000  -0.0612
  -6.200  -0.2621   0.02814   0.02433  -0.0807  0.8958  0.0145  -3.4425   0.0000   0.0000   0.0000  -0.0666
  -6.100  -0.2557   0.02682   0.02284  -0.0803  0.8928  0.0146  -3.4517   0.0000   0.0000   0.0000  -0.0729
  -6.000  -0.2486   0.02560   0.02147  -0.0799  0.8900  0.0147  -3.4518   0.0000   0.0000   0.0000  -0.0807
  -5.900  -0.2412   0.02447   0.02020  -0.0796  0.8871  0.0148  -3.4445   0.0000   0.0000   0.0000  -0.0894
  -5.800  -0.2334   0.02344   0.01903  -0.0793  0.8841  0.0149  -3.4303   0.0000   0.0000   0.0000  -0.0990
  -5.700  -0.2255   0.02249   0.01793  -0.0789  0.8810  0.0150  -3.4107   0.0000   0.0000   0.0000  -0.1095
  -5.600  -0.2173   0.02161   0.01691  -0.0785  0.8780  0.0151  -3.3868   0.0000   0.0000   0.0000  -0.1210
  -5.500  -0.2081   0.02111   0.01631  -0.0782  0.8751  0.0153  -3.3285   0.0000   0.0000   0.0000  -0.1355
  -5.400  -0.1958   0.02200   0.01725  -0.0781  0.8723  0.0157  -3.1494   0.0000   0.0000   0.0000  -0.1594
  -5.300  -0.1896   0.02033   0.01531  -0.0776  0.8693  0.0161  -3.1854   0.0000   0.0000   0.0000  -0.1696
  -5.200  -0.1837   0.01829   0.01296  -0.0769  0.8661  0.0167  -3.2530   0.0000   0.0000   0.0000  -0.1793
  -5.100  -0.1756   0.01713   0.01165  -0.0765  0.8635  0.0174  -3.2412   0.0000   0.0000   0.0000  -0.1966
  -5.000  -0.1661   0.01673   0.01121  -0.0763  0.8607  0.0181  -3.1595   0.0000   0.0000   0.0000  -0.2209
  -4.900  -0.1560   0.01662   0.01110  -0.0762  0.8576  0.0188  -3.0552   0.0000   0.0000   0.0000  -0.2504
  -4.800  -0.1460   0.01632   0.01076  -0.0760  0.8545  0.0193  -2.9803   0.0000   0.0000   0.0000  -0.2830
  -4.700  -0.1362   0.01573   0.01007  -0.0757  0.8516  0.0195  -2.9438   0.0000   0.0000   0.0000  -0.3184
  -4.600  -0.1266   0.01496   0.00917  -0.0752  0.8486  0.0194  -2.9342   0.0000   0.0000   0.0000  -0.3577
  -4.500  -0.1170   0.01424   0.00832  -0.0748  0.8458  0.0193  -2.9239   0.0000   0.0000   0.0000  -0.4036
  -4.400  -0.1072   0.01366   0.00764  -0.0744  0.8429  0.0194  -2.9013   0.0000   0.0000   0.0000  -0.4588
  -4.300  -0.0973   0.01318   0.00706  -0.0740  0.8400  0.0196  -2.8709   0.0000   0.0000   0.0000  -0.5263
  -4.200  -0.0873   0.01278   0.00659  -0.0736  0.8370  0.0199  -2.8352   0.0000   0.0000   0.0000  -0.6114
  -4.100  -0.0772   0.01240   0.00617  -0.0734  0.8347  0.0205  -2.7976   0.0000   0.0000   0.0000  -0.7201
  -4.000  -0.0670   0.01206   0.00580  -0.0731  0.8322  0.0215  -2.7628   0.0000   0.0000   0.0000  -0.8628
  -3.900  -0.0566   0.01178   0.00548  -0.0728  0.8295  0.0239  -2.7439   0.0000   0.0000   0.0000  -1.0607
  -3.800  -0.0463   0.01151   0.00523  -0.0726  0.8267  0.0328  -2.7549   0.0000   0.0000   0.0000  -1.3459
  -3.700  -0.0351   0.01159   0.00533  -0.0726  0.8238  0.0365  -2.6617   0.0000   0.0000   0.0000  -1.8572
  -3.600  -0.0238   0.01167   0.00539  -0.0726  0.8211  0.0394  -2.5711   0.0000   0.0000   0.0000  -2.8493
  -3.500  -0.0121   0.01192   0.00559  -0.0726  0.8182  0.0412  -2.4708   0.0000   0.0000   0.0000  -5.8340
  -3.400  -0.0025   0.01151   0.00511  -0.0723  0.8153  0.0437  -2.4065   0.0000   0.0000   0.0000  -29.2415
  -3.300   0.0072   0.01117   0.00476  -0.0720  0.8123  0.0471  -2.3332   0.0000   0.0000   0.0000  10.4150
  -3.200   0.0178   0.01109   0.00465  -0.0719  0.8090  0.0490  -2.2453   0.0000   0.0000   0.0000   4.3576
  -3.100   0.0284   0.01097   0.00451  -0.0718  0.8061  0.0503  -2.1624   0.0000   0.0000   0.0000   2.8154
  -3.000   0.0390   0.01082   0.00436  -0.0716  0.8035  0.0514  -2.0812   0.0000   0.0000   0.0000   2.1141
  -2.900   0.0495   0.01068   0.00420  -0.0715  0.8005  0.0523  -2.0010   0.0000   0.0000   0.0000   1.7124
  -2.800   0.0601   0.01055   0.00404  -0.0713  0.7974  0.0533  -1.9216   0.0000   0.0000   0.0000   1.4518
  -2.700   0.0707   0.01041   0.00389  -0.0712  0.7943  0.0542  -1.8431   0.0000   0.0000   0.0000   1.2690
  -2.600   0.0813   0.01029   0.00373  -0.0710  0.7912  0.0552  -1.7652   0.0000   0.0000   0.0000   1.1336
  -2.500   0.0919   0.01017   0.00358  -0.0709  0.7881  0.0562  -1.6880   0.0000   0.0000   0.0000   1.0294
  -2.400   0.1026   0.01007   0.00344  -0.0707  0.7850  0.0573  -1.6112   0.0000   0.0000   0.0000   0.9465
  -2.300   0.1133   0.01000   0.00333  -0.0706  0.7818  0.0584  -1.5330   0.0000   0.0000   0.0000   0.8789
  -2.200   0.1241   0.00997   0.00326  -0.0704  0.7782  0.0595  -1.4546   0.0000   0.0000   0.0000   0.8228
  -2.100   0.1340   0.00968   0.00294  -0.0702  0.7750  0.0667  -1.3950   0.0000   0.0000   0.0000   0.7778
  -2.000   0.1446   0.00953   0.00283  -0.0700  0.7722  0.0724  -1.3228   0.0000   0.0000   0.0000   0.7381
  -1.900   0.1553   0.00943   0.00273  -0.0699  0.7691  0.0778  -1.2497   0.0000   0.0000   0.0000   0.7034
  -1.800   0.1658   0.00926   0.00260  -0.0697  0.7658  0.0915  -1.1820   0.0000   0.0000   0.0000   0.6736
  -1.700   0.1759   0.00905   0.00251  -0.0696  0.7624  0.1194  -1.1134   0.0000   0.0000   0.0000   0.6480
  -1.600   0.1856   0.00878   0.00243  -0.0694  0.7591  0.1738  -1.0456   0.0000   0.0000   0.0000   0.6261
  -1.500   0.1949   0.00849   0.00237  -0.0692  0.7556  0.2468  -0.9783   0.0000   0.0000   0.0000   0.6068
  -1.400   0.2043   0.00823   0.00232  -0.0690  0.7521  0.3165  -0.9105   0.0000   0.0000   0.0000   0.5891
  -1.300   0.2137   0.00803   0.00228  -0.0687  0.7485  0.3768  -0.8412   0.0000   0.0000   0.0000   0.5726
  -1.200   0.2228   0.00781   0.00218  -0.0684  0.7444  0.4469  -0.7848   0.0000   0.0000   0.0000   0.5578
  -1.100   0.2317   0.00757   0.00216  -0.0680  0.7414  0.5125  -0.7430   0.0000   0.0000   0.0000   0.5441
  -1.000   0.2402   0.00732   0.00216  -0.0675  0.7383  0.5831  -0.7024   0.0000   0.0000   0.0000   0.5315
  -0.900   0.2481   0.00707   0.00216  -0.0668  0.7350  0.6577  -0.6633   0.0000   0.0000   0.0000   0.5195
  -0.800   0.2557   0.00684   0.00216  -0.0659  0.7316  0.7312  -0.6323   0.0000   0.0000   0.0000   0.5080
  -0.700   0.2634   0.00664   0.00218  -0.0650  0.7282  0.8001  -0.6035   0.0000   0.0000   0.0000   0.4967
  -0.600   0.2733   0.00651   0.00220  -0.0644  0.7249  0.8607  -0.5910   0.0000   0.0000   0.0000   0.4855
  -0.500   0.2889   0.00646   0.00221  -0.0651  0.7215  0.9096  -0.6021   0.0000   0.0000   0.0000   0.4749
  -0.400   0.3121   0.00647   0.00220  -0.0675  0.7181  0.9427  -0.6170   0.0000   0.0000   0.0000   0.4656
  -0.300   0.3338   0.00650   0.00218  -0.0696  0.7144  0.9627  -0.6311   0.0000   0.0000   0.0000   0.4579
  -0.100   0.3850   0.00655   0.00216  -0.0757  0.7070  0.9920  -0.6657   0.0000   0.0000   0.0000   0.4456
   0.000   0.4142   0.00653   0.00210  -0.0796  0.7036  1.0000  -0.6852   0.0000   0.0000   0.0000   0.4411
   0.100   0.4242   0.00653   0.00208  -0.0794  0.6998  1.0000  -0.6941   0.0000   0.0000   0.0000   0.4360
   0.200   0.4342   0.00654   0.00206  -0.0792  0.6957  1.0000  -0.7030   0.0000   0.0000   0.0000   0.4311
   0.300   0.4442   0.00655   0.00204  -0.0790  0.6916  1.0000  -0.7120   0.0000   0.0000   0.0000   0.4264
   0.400   0.4542   0.00657   0.00202  -0.0788  0.6875  1.0000  -0.7219   0.0000   0.0000   0.0000   0.4219
   0.500   0.4641   0.00660   0.00200  -0.0785  0.6833  1.0000  -0.7317   0.0000   0.0000   0.0000   0.4175
   0.600   0.4740   0.00664   0.00199  -0.0783  0.6787  1.0000  -0.7416   0.0000   0.0000   0.0000   0.4134
   0.700   0.4840   0.00669   0.00199  -0.0781  0.6742  1.0000  -0.7515   0.0000   0.0000   0.0000   0.4094
   0.800   0.4942   0.00669   0.00199  -0.0779  0.6711  1.0000  -0.7615   0.0000   0.0000   0.0000   0.4056
   0.900   0.5043   0.00670   0.00199  -0.0777  0.6674  1.0000  -0.7715   0.0000   0.0000   0.0000   0.4020
   1.000   0.5144   0.00672   0.00199  -0.0775  0.6633  1.0000  -0.7816   0.0000   0.0000   0.0000   0.3985
   1.100   0.5245   0.00674   0.00200  -0.0773  0.6591  1.0000  -0.7916   0.0000   0.0000   0.0000   0.3951
   1.200   0.5345   0.00677   0.00201  -0.0771  0.6548  1.0000  -0.8017   0.0000   0.0000   0.0000   0.3918
   1.300   0.5445   0.00680   0.00200  -0.0768  0.6504  1.0000  -0.8117   0.0000   0.0000   0.0000   0.3887
   1.400   0.5543   0.00685   0.00200  -0.0765  0.6457  1.0000  -0.8217   0.0000   0.0000   0.0000   0.3856
   1.500   0.5642   0.00691   0.00201  -0.0763  0.6403  1.0000  -0.8316   0.0000   0.0000   0.0000   0.3827
   1.600   0.5744   0.00693   0.00203  -0.0761  0.6370  1.0000  -0.8422   0.0000   0.0000   0.0000   0.3799
   1.700   0.5846   0.00695   0.00204  -0.0759  0.6334  1.0000  -0.8541   0.0000   0.0000   0.0000   0.3772
   1.800   0.5947   0.00697   0.00205  -0.0758  0.6293  1.0000  -0.8666   0.0000   0.0000   0.0000   0.3745
   1.900   0.6048   0.00700   0.00206  -0.0755  0.6250  1.0000  -0.8791   0.0000   0.0000   0.0000   0.3720
   2.000   0.6149   0.00704   0.00207  -0.0753  0.6208  1.0000  -0.8916   0.0000   0.0000   0.0000   0.3695
   2.100   0.6248   0.00708   0.00208  -0.0751  0.6164  1.0000  -0.9040   0.0000   0.0000   0.0000   0.3671
   2.200   0.6347   0.00713   0.00210  -0.0749  0.6119  1.0000  -0.9165   0.0000   0.0000   0.0000   0.3647
   2.300   0.6445   0.00720   0.00212  -0.0746  0.6069  1.0000  -0.9289   0.0000   0.0000   0.0000   0.3624
   2.400   0.6545   0.00726   0.00215  -0.0744  0.6023  1.0000  -0.9414   0.0000   0.0000   0.0000   0.3603
   2.500   0.6648   0.00727   0.00218  -0.0742  0.5991  1.0000  -0.9542   0.0000   0.0000   0.0000   0.3582
   2.600   0.6750   0.00730   0.00220  -0.0740  0.5949  1.0000  -0.9670   0.0000   0.0000   0.0000   0.3561
   2.700   0.6850   0.00733   0.00222  -0.0738  0.5900  1.0000  -0.9798   0.0000   0.0000   0.0000   0.3541
   2.800   0.6950   0.00738   0.00224  -0.0736  0.5846  1.0000  -0.9939   0.0000   0.0000   0.0000   0.3521
   2.900   0.7047   0.00743   0.00226  -0.0733  0.5791  1.0000  -1.0079   0.0000   0.0000   0.0000   0.3502
   3.000   0.7143   0.00750   0.00229  -0.0730  0.5734  1.0000  -1.0219   0.0000   0.0000   0.0000   0.3483
   3.100   0.7239   0.00759   0.00233  -0.0727  0.5672  1.0000  -1.0358   0.0000   0.0000   0.0000   0.3464
   3.200   0.7342   0.00762   0.00236  -0.0726  0.5639  1.0000  -1.0502   0.0000   0.0000   0.0000   0.3447
   3.300   0.7444   0.00765   0.00240  -0.0724  0.5600  1.0000  -1.0647   0.0000   0.0000   0.0000   0.3431
   3.400   0.7545   0.00769   0.00244  -0.0722  0.5558  1.0000  -1.0798   0.0000   0.0000   0.0000   0.3414
   3.500   0.7645   0.00774   0.00247  -0.0720  0.5512  1.0000  -1.0959   0.0000   0.0000   0.0000   0.3398
   3.600   0.7744   0.00779   0.00251  -0.0718  0.5463  1.0000  -1.1120   0.0000   0.0000   0.0000   0.3382
   3.700   0.7840   0.00787   0.00255  -0.0715  0.5410  1.0000  -1.1279   0.0000   0.0000   0.0000   0.3366
   3.800   0.7935   0.00795   0.00266  -0.0712  0.5352  1.0000  -1.1437   0.0000   0.0000   0.0000   0.3350
   3.900   0.8032   0.00803   0.00271  -0.0709  0.5296  1.0000  -1.1615   0.0000   0.0000   0.0000   0.3335
   4.000   0.8135   0.00806   0.00276  -0.0708  0.5261  1.0000  -1.1802   0.0000   0.0000   0.0000   0.3321
   4.100   0.8237   0.00810   0.00280  -0.0706  0.5217  1.0000  -1.1988   0.0000   0.0000   0.0000   0.3307
   4.200   0.8337   0.00815   0.00285  -0.0704  0.5167  1.0000  -1.2174   0.0000   0.0000   0.0000   0.3294
   4.300   0.8435   0.00821   0.00289  -0.0702  0.5116  1.0000  -1.2359   0.0000   0.0000   0.0000   0.3280
   4.400   0.8532   0.00829   0.00294  -0.0699  0.5061  1.0000  -1.2542   0.0000   0.0000   0.0000   0.3267
   4.500   0.8626   0.00839   0.00300  -0.0696  0.5001  1.0000  -1.2731   0.0000   0.0000   0.0000   0.3253
   4.600   0.8720   0.00849   0.00307  -0.0693  0.4935  1.0000  -1.2937   0.0000   0.0000   0.0000   0.3240
   4.700   0.8823   0.00853   0.00312  -0.0692  0.4898  1.0000  -1.3155   0.0000   0.0000   0.0000   0.3228
   4.800   0.8924   0.00857   0.00317  -0.0690  0.4851  1.0000  -1.3393   0.0000   0.0000   0.0000   0.3216
   4.900   0.9024   0.00864   0.00323  -0.0688  0.4796  1.0000  -1.3639   0.0000   0.0000   0.0000   0.3204
   5.000   0.9121   0.00871   0.00328  -0.0686  0.4738  1.0000  -1.3884   0.0000   0.0000   0.0000   0.3192
   5.100   0.9213   0.00882   0.00334  -0.0682  0.4666  1.0000  -1.4125   0.0000   0.0000   0.0000   0.3180
   5.200   0.9300   0.00895   0.00342  -0.0678  0.4563  1.0000  -1.4360   0.0000   0.0000   0.0000   0.3168
   5.300   0.9397   0.00901   0.00346  -0.0676  0.4461  1.0000  -1.4622   0.0000   0.0000   0.0000   0.3157
   5.400   0.9479   0.00917   0.00352  -0.0671  0.4310  1.0000  -1.4891   0.0000   0.0000   0.0000   0.3144
   5.500   0.9562   0.00932   0.00360  -0.0666  0.4158  1.0000  -1.5163   0.0000   0.0000   0.0000   0.3132
   5.600   0.9644   0.00949   0.00367  -0.0662  0.3977  1.0000  -1.5435   0.0000   0.0000   0.0000   0.3120
   5.700   0.9722   0.00969   0.00377  -0.0656  0.3798  1.0000  -1.5701   0.0000   0.0000   0.0000   0.3108
   5.800   0.9800   0.00990   0.00387  -0.0652  0.3611  1.0000  -1.5969   0.0000   0.0000   0.0000   0.3096
   5.900   0.9882   0.01009   0.00398  -0.0647  0.3468  1.0000  -1.6285   0.0000   0.0000   0.0000   0.3085
   6.000   0.9974   0.01022   0.00407  -0.0644  0.3366  1.0000  -1.6690   0.0000   0.0000   0.0000   0.3075
   6.100   1.0057   0.01041   0.00418  -0.0640  0.3248  1.0000  -1.7079   0.0000   0.0000   0.0000   0.3065
   6.200   1.0144   0.01057   0.00430  -0.0637  0.3144  1.0000  -1.7641   0.0000   0.0000   0.0000   0.3055
   6.300   1.0235   0.01071   0.00440  -0.0634  0.3040  1.0000  -1.8376   0.0000   0.0000   0.0000   0.3045
   6.400   1.0316   0.01092   0.00453  -0.0630  0.2913  1.0000  -1.9086   0.0000   0.0000   0.0000   0.3035
   6.500   1.0442   0.01081   0.00469  -0.0632  0.3064  1.0000  -1.9674   0.0000   0.0000   0.0000   0.3028
   6.600   1.0531   0.01096   0.00481  -0.0628  0.2978  1.0000  -2.0389   0.0000   0.0000   0.0000   0.3019
   6.700   1.0611   0.01118   0.00495  -0.0624  0.2864  1.0000  -2.1156   0.0000   0.0000   0.0000   0.3009
   6.800   1.0701   0.01132   0.00507  -0.0621  0.2768  1.0000  -2.2228   0.0000   0.0000   0.0000   0.3000
   6.900   1.0782   0.01153   0.00522  -0.0617  0.2641  1.0000  -2.3265   0.0000   0.0000   0.0000   0.2991
   7.000   1.0858   0.01177   0.00538  -0.0612  0.2513  1.0000  -2.4288   0.0000   0.0000   0.0000   0.2981
   7.100   1.0943   0.01195   0.00552  -0.0609  0.2398  1.0000  -2.5367   0.0000   0.0000   0.0000   0.2972
   7.200   1.1015   0.01223   0.00570  -0.0603  0.2263  1.0000  -2.6385   0.0000   0.0000   0.0000   0.2963
   7.300   1.1098   0.01243   0.00586  -0.0600  0.2146  1.0000  -2.7467   0.0000   0.0000   0.0000   0.2954
   7.400   1.1165   0.01275   0.00607  -0.0594  0.1986  1.0000  -2.8470   0.0000   0.0000   0.0000   0.2944
   7.500   1.1237   0.01303   0.00626  -0.0589  0.1830  1.0000  -2.9499   0.0000   0.0000   0.0000   0.2935
   7.600   1.1296   0.01341   0.00651  -0.0582  0.1646  1.0000  -3.0447   0.0000   0.0000   0.0000   0.2925
   7.700   1.1351   0.01382   0.00678  -0.0574  0.1441  1.0000  -3.1368   0.0000   0.0000   0.0000   0.2915
   7.800   1.1402   0.01426   0.00707  -0.0567  0.1231  1.0000  -3.2249   0.0000   0.0000   0.0000   0.2904
   7.900   1.1427   0.01490   0.00749  -0.0555  0.0938  1.0000  -3.2962   0.0000   0.0000   0.0000   0.2892
   8.000   1.1432   0.01567   0.00800  -0.0542  0.0612  1.0000  -3.3547   0.0000   0.0000   0.0000   0.2879
   8.100   1.1456   0.01630   0.00846  -0.0530  0.0388  1.0000  -3.4208   0.0000   0.0000   0.0000   0.2866
   8.300   1.1506   0.01749   0.00944  -0.0506  0.0090  1.0000  -3.5471   0.0000   0.0000   0.0000   0.2841
   8.400   1.1570   0.01778   0.00974  -0.0499  0.0067  1.0000  -3.6258   0.0000   0.0000   0.0000   0.2831
   8.500   1.1640   0.01803   0.01002  -0.0493  0.0055  1.0000  -3.6976   0.0000   0.0000   0.0000   0.2822
   8.600   1.1707   0.01829   0.01031  -0.0486  0.0051  1.0000  -3.7717   0.0000   0.0000   0.0000   0.2812
   8.700   1.1770   0.01853   0.01060  -0.0479  0.0050  1.0000  -3.8570   0.0000   0.0000   0.0000   0.2803
   8.800   1.1830   0.01878   0.01089  -0.0471  0.0049  1.0000  -3.9416   0.0000   0.0000   0.0000   0.2793
   8.900   1.1887   0.01905   0.01121  -0.0463  0.0049  1.0000  -4.0254   0.0000   0.0000   0.0000   0.2782
   9.000   1.1942   0.01933   0.01153  -0.0455  0.0048  1.0000  -4.1083   0.0000   0.0000   0.0000   0.2772
   9.100   1.1995   0.01962   0.01188  -0.0447  0.0047  1.0000  -4.1901   0.0000   0.0000   0.0000   0.2762
   9.200   1.2045   0.01994   0.01225  -0.0438  0.0047  1.0000  -4.2703   0.0000   0.0000   0.0000   0.2752
   9.300   1.2092   0.02028   0.01264  -0.0429  0.0047  1.0000  -4.3488   0.0000   0.0000   0.0000   0.2742
   9.400   1.2136   0.02064   0.01306  -0.0420  0.0047  1.0000  -4.4256   0.0000   0.0000   0.0000   0.2732
   9.500   1.2170   0.02108   0.01361  -0.0410  0.0046  1.0000  -4.4971   0.0000   0.0000   0.0000   0.2721
   9.600   1.2205   0.02151   0.01410  -0.0400  0.0046  1.0000  -4.5754   0.0000   0.0000   0.0000   0.2711
   9.700   1.2237   0.02197   0.01462  -0.0391  0.0046  1.0000  -4.6492   0.0000   0.0000   0.0000   0.2700
   9.800   1.2265   0.02246   0.01517  -0.0381  0.0046  1.0000  -4.7196   0.0000   0.0000   0.0000   0.2690
   9.900   1.2291   0.02298   0.01574  -0.0371  0.0046  1.0000  -4.7869   0.0000   0.0000   0.0000   0.2680
  10.000   1.2311   0.02353   0.01635  -0.0361  0.0046  1.0000  -4.8503   0.0000   0.0000   0.0000   0.2670
  10.100   1.2328   0.02412   0.01700  -0.0352  0.0046  1.0000  -4.9106   0.0000   0.0000   0.0000   0.2660
  10.200   1.2342   0.02475   0.01769  -0.0342  0.0046  1.0000  -4.9680   0.0000   0.0000   0.0000   0.2650
  10.300   1.2352   0.02542   0.01841  -0.0332  0.0047  1.0000  -5.0224   0.0000   0.0000   0.0000   0.2640
  10.400   1.2360   0.02611   0.01916  -0.0322  0.0047  1.0000  -5.0742   0.0000   0.0000   0.0000   0.2631
  10.500   1.2363   0.02685   0.01996  -0.0313  0.0047  1.0000  -5.1224   0.0000   0.0000   0.0000   0.2621
  10.600   1.2363   0.02763   0.02080  -0.0304  0.0047  1.0000  -5.1681   0.0000   0.0000   0.0000   0.2612
  10.700   1.2362   0.02845   0.02167  -0.0295  0.0048  1.0000  -5.2121   0.0000   0.0000   0.0000   0.2603
  10.800   1.2358   0.02931   0.02259  -0.0286  0.0048  1.0000  -5.2528   0.0000   0.0000   0.0000   0.2595
  10.900   1.2352   0.03022   0.02355  -0.0278  0.0048  1.0000  -5.2914   0.0000   0.0000   0.0000   0.2586
  11.000   1.2345   0.03115   0.02454  -0.0269  0.0048  1.0000  -5.3281   0.0000   0.0000   0.0000   0.2578
  11.100   1.2334   0.03213   0.02559  -0.0261  0.0049  1.0000  -5.3613   0.0000   0.0000   0.0000   0.2570
  11.200   1.2321   0.03314   0.02665  -0.0254  0.0049  1.0000  -5.3922   0.0000   0.0000   0.0000   0.2562
  11.300   1.2308   0.03416   0.02773  -0.0246  0.0049  1.0000  -5.4210   0.0000   0.0000   0.0000   0.2554
  11.400   1.2292   0.03525   0.02888  -0.0238  0.0049  1.0000  -5.4463   0.0000   0.0000   0.0000   0.2547
  11.500   1.2275   0.03638   0.03007  -0.0231  0.0050  1.0000  -5.4681   0.0000   0.0000   0.0000   0.2539
  11.600   1.2258   0.03754   0.03129  -0.0224  0.0050  1.0000  -5.4863   0.0000   0.0000   0.0000   0.2532
  11.700   1.2240   0.03876   0.03257  -0.0216  0.0051  1.0000  -5.4980   0.0000   0.0000   0.0000   0.2524
  11.800   1.2215   0.04011   0.03398  -0.0208  0.0051  1.0000  -5.4955   0.0000   0.0000   0.0000   0.2516
  11.900   1.2172   0.04179   0.03577  -0.0196  0.0052  1.0000  -5.4460   0.0000   0.0000   0.0000   0.2506
  12.000   1.2201   0.04251   0.03652  -0.0194  0.0053  1.0000  -5.5240   0.0000   0.0000   0.0000   0.2501
  12.100   1.2231   0.04323   0.03727  -0.0191  0.0053  1.0000  -5.6029   0.0000   0.0000   0.0000   0.2497
  12.200   1.2262   0.04395   0.03802  -0.0189  0.0054  1.0000  -5.6823   0.0000   0.0000   0.0000   0.2493
  12.300   1.2292   0.04467   0.03878  -0.0186  0.0055  1.0000  -5.7617   0.0000   0.0000   0.0000   0.2488
  12.400   1.2320   0.04542   0.03956  -0.0184  0.0056  1.0000  -5.8391   0.0000   0.0000   0.0000   0.2484
  12.500   1.2344   0.04622   0.04040  -0.0182  0.0056  1.0000  -5.9126   0.0000   0.0000   0.0000   0.2480
  12.600   1.2365   0.04703   0.04125  -0.0179  0.0057  1.0000  -5.9835   0.0000   0.0000   0.0000   0.2477
  12.700   1.2387   0.04785   0.04211  -0.0177  0.0058  1.0000  -6.0532   0.0000   0.0000   0.0000   0.2473
  12.800   1.2409   0.04869   0.04299  -0.0175  0.0059  1.0000  -6.1205   0.0000   0.0000   0.0000   0.2469
  12.900   1.2430   0.04956   0.04391  -0.0172  0.0061  1.0000  -6.1830   0.0000   0.0000   0.0000   0.2464
  13.000   1.2449   0.05049   0.04490  -0.0169  0.0062  1.0000  -6.2352   0.0000   0.0000   0.0000   0.2460
  13.100   1.2464   0.05153   0.04603  -0.0165  0.0065  1.0000  -6.2641   0.0000   0.0000   0.0000   0.2455
  13.200   1.2477   0.05326   0.04799  -0.0148  0.0075  1.0000  -6.1205   0.0000   0.0000   0.0000   0.2439
  13.300   1.2444   0.05595   0.05093  -0.0132  0.0087  1.0000  -5.9313   0.0000   0.0000   0.0000   0.2426
  13.400   1.2399   0.05823   0.05336  -0.0126  0.0093  1.0000  -5.8534   0.0000   0.0000   0.0000   0.2420
  13.500   1.2343   0.06050   0.05576  -0.0122  0.0098  1.0000  -5.7942   0.0000   0.0000   0.0000   0.2416
  13.600   1.2275   0.06285   0.05822  -0.0121  0.0101  1.0000  -5.7392   0.0000   0.0000   0.0000   0.2413
  13.700   1.2195   0.06535   0.06084  -0.0121  0.0104  1.0000  -5.6779   0.0000   0.0000   0.0000   0.2412
  13.800   1.2095   0.06823   0.06384  -0.0122  0.0107  1.0000  -5.5937   0.0000   0.0000   0.0000   0.2412
  17.800   0.9423   0.20762   0.20523  -0.0811  0.0200  1.0000  -2.4621   0.0000   0.0000   0.0000   0.3139
  17.900   0.9430   0.21016   0.20776  -0.0822  0.0199  1.0000  -2.4316   0.0000   0.0000   0.0000   0.3149
  18.000   0.9438   0.21265   0.21025  -0.0833  0.0199  1.0000  -2.4033   0.0000   0.0000   0.0000   0.3159
  18.100   0.9448   0.21510   0.21269  -0.0843  0.0199  1.0000  -2.3771   0.0000   0.0000   0.0000   0.3168
  18.200   0.9459   0.21749   0.21508  -0.0854  0.0198  1.0000  -2.3531   0.0000   0.0000   0.0000   0.3178
  18.300   0.9473   0.21982   0.21741  -0.0865  0.0198  1.0000  -2.3320   0.0000   0.0000   0.0000   0.3187
  18.400   0.9492   0.22201   0.21959  -0.0876  0.0196  1.0000  -2.3163   0.0000   0.0000   0.0000   0.3195
  18.500   0.9527   0.22387   0.22145  -0.0887  0.0190  1.0000  -2.3121   0.0000   0.0000   0.0000   0.3203
  18.600   0.9548   0.22627   0.22386  -0.0900  0.0183  1.0000  -2.2832   0.0000   0.0000   0.0000   0.3213
  18.700   0.9559   0.22885   0.22644  -0.0912  0.0178  1.0000  -2.2478   0.0000   0.0000   0.0000   0.3223
  18.800   0.9570   0.23131   0.22889  -0.0923  0.0174  1.0000  -2.2200   0.0000   0.0000   0.0000   0.3233
  18.900   0.9581   0.23370   0.23128  -0.0933  0.0170  1.0000  -2.1961   0.0000   0.0000   0.0000   0.3241
  19.000   0.9593   0.23603   0.23360  -0.0943  0.0167  1.0000  -2.1766   0.0000   0.0000   0.0000   0.3250
  19.100   0.9605   0.23829   0.23587  -0.0953  0.0163  1.0000  -2.1603   0.0000   0.0000   0.0000   0.3257
  19.200   0.9618   0.24051   0.23808  -0.0963  0.0160  1.0000  -2.1472   0.0000   0.0000   0.0000   0.3264
  19.300   0.9632   0.24268   0.24025  -0.0972  0.0157  1.0000  -2.1370   0.0000   0.0000   0.0000   0.3271
  19.400   0.9647   0.24481   0.24239  -0.0981  0.0155  1.0000  -2.1292   0.0000   0.0000   0.0000   0.3278
  19.500   0.9662   0.24691   0.24449  -0.0990  0.0152  1.0000  -2.1236   0.0000   0.0000   0.0000   0.3283
  19.600   0.9677   0.24898   0.24656  -0.0998  0.0150  1.0000  -2.1202   0.0000   0.0000   0.0000   0.3289
  19.700   0.9694   0.25102   0.24859  -0.1007  0.0147  1.0000  -2.1187   0.0000   0.0000   0.0000   0.3294
  19.800   0.9710   0.25303   0.25061  -0.1015  0.0145  1.0000  -2.1193   0.0000   0.0000   0.0000   0.3299
  19.900   0.9727   0.25501   0.25259  -0.1023  0.0143  1.0000  -2.1218   0.0000   0.0000   0.0000   0.3304
  20.000   0.9745   0.25696   0.25454  -0.1031  0.0141  1.0000  -2.1264   0.0000   0.0000   0.0000   0.3309
  20.100   0.9763   0.25888   0.25646  -0.1038  0.0139  1.0000  -2.1332   0.0000   0.0000   0.0000   0.3313
  20.200   0.9781   0.26077   0.25835  -0.1046  0.0137  1.0000  -2.1421   0.0000   0.0000   0.0000   0.3317
  20.300   0.9800   0.26263   0.26022  -0.1053  0.0136  1.0000  -2.1532   0.0000   0.0000   0.0000   0.3320
  20.400   0.9819   0.26446   0.26205  -0.1060  0.0134  1.0000  -2.1667   0.0000   0.0000   0.0000   0.3323
  20.500   0.9838   0.26625   0.26384  -0.1067  0.0133  1.0000  -2.1826   0.0000   0.0000   0.0000   0.3326
  20.600   0.9858   0.26801   0.26560  -0.1073  0.0131  1.0000  -2.2012   0.0000   0.0000   0.0000   0.3328
  20.700   0.9879   0.26973   0.26733  -0.1079  0.0130  1.0000  -2.2227   0.0000   0.0000   0.0000   0.3330
  20.800   0.9900   0.27142   0.26902  -0.1085  0.0128  1.0000  -2.2468   0.0000   0.0000   0.0000   0.3332
  20.900   0.9920   0.27312   0.27072  -0.1091  0.0127  1.0000  -2.2714   0.0000   0.0000   0.0000   0.3333
  21.000   0.9940   0.27483   0.27244  -0.1096  0.0126  1.0000  -2.2963   0.0000   0.0000   0.0000   0.3335
  21.100   0.9960   0.27653   0.27414  -0.1102  0.0124  1.0000  -2.3230   0.0000   0.0000   0.0000   0.3336
  21.200   0.9979   0.27825   0.27586  -0.1107  0.0123  1.0000  -2.3509   0.0000   0.0000   0.0000   0.3337
  21.300   0.9989   0.28041   0.27803  -0.1114  0.0121  1.0000  -2.3570   0.0000   0.0000   0.0000   0.3341
  21.400   0.9910   0.28780   0.28539  -0.1127  0.0114  1.0000  -2.1296   0.0000   0.0000   0.0000   0.3363
  21.500   0.9924   0.29015   0.28773  -0.1134  0.0114  1.0000  -2.1168   0.0000   0.0000   0.0000   0.3368
  21.600   0.9938   0.29248   0.29007  -0.1142  0.0114  1.0000  -2.1043   0.0000   0.0000   0.0000   0.3373
  21.700   0.9951   0.29482   0.29241  -0.1150  0.0114  1.0000  -2.0921   0.0000   0.0000   0.0000   0.3378
  21.800   0.9964   0.29715   0.29474  -0.1158  0.0114  1.0000  -2.0801   0.0000   0.0000   0.0000   0.3383
  21.900   0.9977   0.29949   0.29708  -0.1166  0.0114  1.0000  -2.0683   0.0000   0.0000   0.0000   0.3387
  22.000   0.9990   0.30181   0.29941  -0.1174  0.0114  1.0000  -2.0568   0.0000   0.0000   0.0000   0.3392
  22.100   1.0003   0.30414   0.30173  -0.1182  0.0114  1.0000  -2.0455   0.0000   0.0000   0.0000   0.3397
  22.200   1.0015   0.30645   0.30405  -0.1189  0.0114  1.0000  -2.0343   0.0000   0.0000   0.0000   0.3401
  22.300   1.0027   0.30877   0.30637  -0.1197  0.0114  1.0000  -2.0234   0.0000   0.0000   0.0000   0.3406
  22.400   1.0039   0.31108   0.30868  -0.1205  0.0113  1.0000  -2.0128   0.0000   0.0000   0.0000   0.3410
  22.500   1.0051   0.31338   0.31098  -0.1212  0.0113  1.0000  -2.0023   0.0000   0.0000   0.0000   0.3415
  22.600   1.0062   0.31567   0.31328  -0.1220  0.0113  1.0000  -1.9920   0.0000   0.0000   0.0000   0.3419
  22.700   1.0073   0.31796   0.31557  -0.1227  0.0113  1.0000  -1.9819   0.0000   0.0000   0.0000   0.3424
  22.800   1.0084   0.32023   0.31785  -0.1235  0.0113  1.0000  -1.9721   0.0000   0.0000   0.0000   0.3428
  22.900   1.0094   0.32249   0.32011  -0.1242  0.0113  1.0000  -1.9625   0.0000   0.0000   0.0000   0.3433
  23.000   1.0104   0.32474   0.32236  -0.1250  0.0112  1.0000  -1.9530   0.0000   0.0000   0.0000   0.3437
  23.100   1.0114   0.32697   0.32460  -0.1258  0.0112  1.0000  -1.9438   0.0000   0.0000   0.0000   0.3442
  23.200   1.0125   0.32918   0.32681  -0.1265  0.0111  1.0000  -1.9348   0.0000   0.0000   0.0000   0.3446
  23.300   1.0135   0.33136   0.32899  -0.1273  0.0111  1.0000  -1.9257   0.0000   0.0000   0.0000   0.3451
  23.400   1.0145   0.33352   0.33116  -0.1281  0.0110  1.0000  -1.9163   0.0000   0.0000   0.0000   0.3456
  23.500   1.0152   0.33581   0.33345  -0.1290  0.0109  1.0000  -1.8948   0.0000   0.0000   0.0000   0.3463
  23.600   1.0159   0.33816   0.33580  -0.1300  0.0107  1.0000  -1.8696   0.0000   0.0000   0.0000   0.3470
  23.700   1.0167   0.34055   0.33819  -0.1309  0.0105  1.0000  -1.8439   0.0000   0.0000   0.0000   0.3476
  23.800   1.0175   0.34296   0.34061  -0.1317  0.0103  1.0000  -1.8202   0.0000   0.0000   0.0000   0.3482
  23.900   1.0180   0.34536   0.34301  -0.1324  0.0101  1.0000  -1.8001   0.0000   0.0000   0.0000   0.3487
  24.000   1.0184   0.34773   0.34539  -0.1331  0.0099  1.0000  -1.7835   0.0000   0.0000   0.0000   0.3491
  24.100   1.0187   0.35007   0.34773  -0.1337  0.0097  1.0000  -1.7693   0.0000   0.0000   0.0000   0.3495
  24.200   1.0187   0.35238   0.35005  -0.1343  0.0095  1.0000  -1.7569   0.0000   0.0000   0.0000   0.3500
  24.300   1.0186   0.35467   0.35234  -0.1349  0.0093  1.0000  -1.7457   0.0000   0.0000   0.0000   0.3504
  24.400   1.0183   0.35693   0.35461  -0.1354  0.0091  1.0000  -1.7352   0.0000   0.0000   0.0000   0.3508
  24.500   1.0179   0.35916   0.35688  -0.1359  0.0090  1.0000  -1.7252   0.0000   0.0000   0.0000   0.3511
  24.600   1.0171   0.36136   0.35909  -0.1363  0.0088  1.0000  -1.7154   0.0000   0.0000   0.0000   0.3515
  24.700   1.0161   0.36351   0.36125  -0.1368  0.0087  1.0000  -1.7056   0.0000   0.0000   0.0000   0.3519
  24.800   1.0147   0.36562   0.36337  -0.1371  0.0086  1.0000  -1.6955   0.0000   0.0000   0.0000   0.3523
  24.900   1.0128   0.36767   0.36542  -0.1374  0.0084  1.0000  -1.6847   0.0000   0.0000   0.0000   0.3528
  25.000   1.0102   0.36961   0.36738  -0.1377  0.0083  1.0000  -1.6726   0.0000   0.0000   0.0000   0.3532
  25.100   1.0066   0.37140   0.36918  -0.1377  0.0082  1.0000  -1.6582   0.0000   0.0000   0.0000   0.3537
  25.300   0.8817   0.34400   0.34198  -0.1223  0.0085  1.0000  -1.3351   0.0000   0.0000   0.0000   0.3582
  25.400   0.8778   0.34391   0.34190  -0.1222  0.0084  1.0000  -1.3204   0.0000   0.0000   0.0000   0.3587
  25.500   0.8743   0.34389   0.34189  -0.1222  0.0083  1.0000  -1.3069   0.0000   0.0000   0.0000   0.3592
  25.600   0.8711   0.34392   0.34193  -0.1222  0.0082  1.0000  -1.2945   0.0000   0.0000   0.0000   0.3596
  25.700   0.8681   0.34399   0.34201  -0.1223  0.0081  1.0000  -1.2831   0.0000   0.0000   0.0000   0.3601
  25.800   0.8654   0.34409   0.34213  -0.1224  0.0080  1.0000  -1.2726   0.0000   0.0000   0.0000   0.3606
  25.900   0.8628   0.34423   0.34227  -0.1225  0.0079  1.0000  -1.2628   0.0000   0.0000   0.0000   0.3610
  26.000   0.8605   0.34439   0.34245  -0.1226  0.0078  1.0000  -1.2538   0.0000   0.0000   0.0000   0.3615
  26.100   0.8582   0.34458   0.34264  -0.1228  0.0077  1.0000  -1.2454   0.0000   0.0000   0.0000   0.3619
  26.200   0.8561   0.34478   0.34286  -0.1229  0.0076  1.0000  -1.2377   0.0000   0.0000   0.0000   0.3623
  26.300   0.8542   0.34500   0.34309  -0.1231  0.0075  1.0000  -1.2306   0.0000   0.0000   0.0000   0.3627
  26.400   0.8523   0.34524   0.34333  -0.1233  0.0074  1.0000  -1.2240   0.0000   0.0000   0.0000   0.3632
  26.500   0.8506   0.34549   0.34359  -0.1235  0.0073  1.0000  -1.2180   0.0000   0.0000   0.0000   0.3636
  26.600   0.8489   0.34576   0.34387  -0.1237  0.0072  1.0000  -1.2125   0.0000   0.0000   0.0000   0.3640
  26.700   0.8473   0.34603   0.34415  -0.1239  0.0071  1.0000  -1.2077   0.0000   0.0000   0.0000   0.3644
  26.800   0.8459   0.34630   0.34443  -0.1241  0.0070  1.0000  -1.2050   0.0000   0.0000   0.0000   0.3648
  26.900   0.8445   0.34658   0.34472  -0.1244  0.0069  1.0000  -1.2029   0.0000   0.0000   0.0000   0.3651
  27.000   0.8431   0.34687   0.34502  -0.1246  0.0068  1.0000  -1.2016   0.0000   0.0000   0.0000   0.3655
  27.100   0.8419   0.34716   0.34532  -0.1249  0.0067  1.0000  -1.2008   0.0000   0.0000   0.0000   0.3659
  27.200   0.8407   0.34746   0.34562  -0.1251  0.0066  1.0000  -1.2008   0.0000   0.0000   0.0000   0.3663
  27.300   0.8395   0.34775   0.34592  -0.1254  0.0066  1.0000  -1.2014   0.0000   0.0000   0.0000   0.3666
  27.400   0.8384   0.34805   0.34623  -0.1256  0.0065  1.0000  -1.2027   0.0000   0.0000   0.0000   0.3670
  27.500   0.8374   0.34834   0.34653  -0.1259  0.0064  1.0000  -1.2049   0.0000   0.0000   0.0000   0.3673
  27.600   0.8364   0.34864   0.34683  -0.1262  0.0063  1.0000  -1.2077   0.0000   0.0000   0.0000   0.3676
  27.700   0.8354   0.34893   0.34713  -0.1265  0.0062  1.0000  -1.2112   0.0000   0.0000   0.0000   0.3680
  27.800   0.8345   0.34922   0.34743  -0.1267  0.0062  1.0000  -1.2155   0.0000   0.0000   0.0000   0.3683
  27.900   0.8336   0.34950   0.34772  -0.1270  0.0061  1.0000  -1.2206   0.0000   0.0000   0.0000   0.3686
  28.000   0.8328   0.34978   0.34800  -0.1273  0.0060  1.0000  -1.2265   0.0000   0.0000   0.0000   0.3689
  28.100   0.8319   0.35004   0.34828  -0.1276  0.0060  1.0000  -1.2331   0.0000   0.0000   0.0000   0.3692
  28.200   0.8311   0.35030   0.34854  -0.1278  0.0059  1.0000  -1.2405   0.0000   0.0000   0.0000   0.3695
  28.300   0.8303   0.35055   0.34880  -0.1281  0.0059  1.0000  -1.2487   0.0000   0.0000   0.0000   0.3698
  28.400   0.8296   0.35079   0.34905  -0.1283  0.0058  1.0000  -1.2577   0.0000   0.0000   0.0000   0.3700
  28.500   0.8288   0.35101   0.34927  -0.1286  0.0057  1.0000  -1.2674   0.0000   0.0000   0.0000   0.3703
  28.600   0.8280   0.35121   0.34948  -0.1288  0.0057  1.0000  -1.2777   0.0000   0.0000   0.0000   0.3705
  28.700   0.8272   0.35139   0.34967  -0.1290  0.0056  1.0000  -1.2885   0.0000   0.0000   0.0000   0.3707
  28.800   0.8264   0.35154   0.34984  -0.1292  0.0056  1.0000  -1.2994   0.0000   0.0000   0.0000   0.3708
  28.900   0.8255   0.35167   0.34997  -0.1293  0.0055  1.0000  -1.3097   0.0000   0.0000   0.0000   0.3710
  29.000   0.8241   0.35183   0.35014  -0.1294  0.0054  1.0000  -1.3087   0.0000   0.0000   0.0000   0.3711


