xflr5 v6.61

 Calculated polar for: S7055 (10.5%) Flat-Bottomed

 1 1 Reynolds number fixed          Mach number fixed         

 xtrf =   1.000 (top)        1.000 (bottom)
 Mach =   0.000     Re =     0.719 e 6     Ncrit =   9.000

  alpha     CL        CD       CDp       Cm    Top Xtr Bot Xtr   Cpmin    Chinge    XCp    
 ------- -------- --------- --------- -------- ------- ------- -------- --------- ---------
 -10.000  -0.3604   0.10287   0.10095  -0.0289  1.0000  0.0063  -2.3097   0.0000   0.0000   0.0000   0.1600
  -9.900  -0.3602   0.10110   0.09919  -0.0296  1.0000  0.0062  -2.3561   0.0000   0.0000   0.0000   0.1580
  -9.800  -0.3601   0.09932   0.09742  -0.0304  1.0000  0.0062  -2.4038   0.0000   0.0000   0.0000   0.1559
  -9.700  -0.3601   0.09753   0.09564  -0.0312  1.0000  0.0061  -2.4535   0.0000   0.0000   0.0000   0.1539
  -9.600  -0.3602   0.09573   0.09385  -0.0320  1.0000  0.0060  -2.5057   0.0000   0.0000   0.0000   0.1518
  -9.500  -0.3606   0.09391   0.09204  -0.0328  1.0000  0.0060  -2.5606   0.0000   0.0000   0.0000   0.1497
  -9.400  -0.3611   0.09207   0.09021  -0.0336  1.0000  0.0059  -2.6187   0.0000   0.0000   0.0000   0.1477
  -9.300  -0.3619   0.09021   0.08836  -0.0345  1.0000  0.0059  -2.6801   0.0000   0.0000   0.0000   0.1457
  -9.200  -0.3629   0.08829   0.08646  -0.0354  1.0000  0.0058  -2.7457   0.0000   0.0000   0.0000   0.1435
  -9.100  -0.3641   0.08633   0.08451  -0.0363  1.0000  0.0058  -2.8154   0.0000   0.0000   0.0000   0.1413
  -9.000  -0.3657   0.08434   0.08253  -0.0373  1.0000  0.0058  -2.8892   0.0000   0.0000   0.0000   0.1391
  -8.900  -0.3677   0.08232   0.08052  -0.0384  1.0000  0.0058  -2.9670   0.0000   0.0000   0.0000   0.1370
  -8.800  -0.3702   0.08029   0.07851  -0.0394  1.0000  0.0058  -3.0483   0.0000   0.0000   0.0000   0.1350
  -8.700  -0.3732   0.07825   0.07650  -0.0405  1.0000  0.0058  -3.1326   0.0000   0.0000   0.0000   0.1332
  -8.600  -0.3714   0.07495   0.07320  -0.0443  0.9874  0.0059  -3.2598   0.0000   0.0000   0.0000   0.1225
  -8.500  -0.3689   0.07116   0.06941  -0.0492  0.9773  0.0059  -3.4070   0.0000   0.0000   0.0000   0.1083
  -8.400  -0.3670   0.06708   0.06532  -0.0550  0.9656  0.0060  -3.5663   0.0000   0.0000   0.0000   0.0917
  -8.300  -0.3681   0.06311   0.06133  -0.0609  0.9526  0.0060  -3.7316   0.0000   0.0000   0.0000   0.0765
  -8.200  -0.3715   0.05917   0.05733  -0.0654  0.9409  0.0060  -3.9138   0.0000   0.0000   0.0000   0.0659
  -8.100  -0.3766   0.05484   0.05293  -0.0694  0.9315  0.0060  -4.1337   0.0000   0.0000   0.0000   0.0578
  -7.900  -0.4407   0.02736   0.02433  -0.0782  0.9081  0.0061  -6.3321   0.0000   0.0000   0.0000   0.0643
  -7.800  -0.4343   0.02631   0.02316  -0.0780  0.9048  0.0063  -6.2573   0.0000   0.0000   0.0000   0.0621
  -7.700  -0.4260   0.02581   0.02260  -0.0778  0.9017  0.0065  -6.1251   0.0000   0.0000   0.0000   0.0591
  -7.600  -0.4168   0.02558   0.02234  -0.0776  0.8989  0.0067  -5.9661   0.0000   0.0000   0.0000   0.0554
  -7.500  -0.4070   0.02555   0.02228  -0.0775  0.8960  0.0068  -5.7899   0.0000   0.0000   0.0000   0.0513
  -7.400  -0.3966   0.02566   0.02238  -0.0774  0.8930  0.0070  -5.5999   0.0000   0.0000   0.0000   0.0467
  -7.300  -0.3856   0.02592   0.02266  -0.0773  0.8905  0.0071  -5.3956   0.0000   0.0000   0.0000   0.0412
  -7.200  -0.3740   0.02633   0.02310  -0.0773  0.8882  0.0072  -5.1782   0.0000   0.0000   0.0000   0.0349
  -7.100  -0.3618   0.02694   0.02377  -0.0773  0.8857  0.0073  -4.9445   0.0000   0.0000   0.0000   0.0280
  -7.000  -0.3486   0.02792   0.02482  -0.0774  0.8832  0.0074  -4.6820   0.0000   0.0000   0.0000   0.0198
  -6.900  -0.3319   0.03001   0.02707  -0.0774  0.8810  0.0075  -4.3229   0.0000   0.0000   0.0000   0.0087
  -6.800  -0.3443   0.02266   0.01897  -0.0765  0.8762  0.0079  -4.8422   0.0000   0.0000   0.0000   0.0193
  -6.700  -0.3438   0.01951   0.01536  -0.0757  0.8727  0.0084  -5.0209   0.0000   0.0000   0.0000   0.0214
  -6.600  -0.3373   0.01822   0.01386  -0.0752  0.8698  0.0087  -5.0159   0.0000   0.0000   0.0000   0.0185
  -6.500  -0.3290   0.01750   0.01300  -0.0749  0.8668  0.0090  -4.9528   0.0000   0.0000   0.0000   0.0137
  -6.400  -0.3196   0.01704   0.01247  -0.0747  0.8645  0.0093  -4.8592   0.0000   0.0000   0.0000   0.0075
  -6.300  -0.3096   0.01675   0.01214  -0.0746  0.8626  0.0096  -4.7458   0.0000   0.0000   0.0000   0.0002
  -6.200  -0.2993   0.01661   0.01198  -0.0746  0.8604  0.0099  -4.6150   0.0000   0.0000   0.0000  -0.0079
  -6.100  -0.2865   0.01758   0.01307  -0.0749  0.8581  0.0107  -4.3328   0.0000   0.0000   0.0000  -0.0203
  -6.000  -0.2769   0.01712   0.01253  -0.0747  0.8555  0.0109  -4.2546   0.0000   0.0000   0.0000  -0.0287
  -5.900  -0.2674   0.01662   0.01195  -0.0745  0.8527  0.0110  -4.1828   0.0000   0.0000   0.0000  -0.0375
  -5.800  -0.2579   0.01612   0.01136  -0.0742  0.8499  0.0112  -4.1154   0.0000   0.0000   0.0000  -0.0469
  -5.700  -0.2483   0.01562   0.01076  -0.0739  0.8470  0.0113  -4.0511   0.0000   0.0000   0.0000  -0.0570
  -5.600  -0.2388   0.01513   0.01017  -0.0736  0.8439  0.0115  -3.9886   0.0000   0.0000   0.0000  -0.0678
  -5.500  -0.2291   0.01465   0.00959  -0.0734  0.8406  0.0116  -3.9271   0.0000   0.0000   0.0000  -0.0797
  -5.400  -0.2193   0.01420   0.00904  -0.0731  0.8371  0.0117  -3.8658   0.0000   0.0000   0.0000  -0.0932
  -5.300  -0.2093   0.01373   0.00850  -0.0729  0.8352  0.0118  -3.8044   0.0000   0.0000   0.0000  -0.1083
  -5.200  -0.1992   0.01328   0.00798  -0.0727  0.8330  0.0119  -3.7428   0.0000   0.0000   0.0000  -0.1250
  -5.100  -0.1891   0.01286   0.00749  -0.0724  0.8304  0.0121  -3.6810   0.0000   0.0000   0.0000  -0.1435
  -5.000  -0.1790   0.01245   0.00703  -0.0722  0.8278  0.0122  -3.6189   0.0000   0.0000   0.0000  -0.1641
  -4.900  -0.1688   0.01212   0.00663  -0.0720  0.8250  0.0123  -3.5497   0.0000   0.0000   0.0000  -0.1875
  -4.800  -0.1584   0.01191   0.00638  -0.0718  0.8222  0.0127  -3.4627   0.0000   0.0000   0.0000  -0.2151
  -4.700  -0.1478   0.01175   0.00619  -0.0717  0.8195  0.0131  -3.3690   0.0000   0.0000   0.0000  -0.2472
  -4.600  -0.1372   0.01162   0.00602  -0.0716  0.8168  0.0135  -3.2753   0.0000   0.0000   0.0000  -0.2843
  -4.500  -0.1266   0.01148   0.00584  -0.0714  0.8140  0.0140  -3.1845   0.0000   0.0000   0.0000  -0.3275
  -4.400  -0.1161   0.01133   0.00565  -0.0713  0.8109  0.0144  -3.0983   0.0000   0.0000   0.0000  -0.3783
  -4.300  -0.1055   0.01117   0.00544  -0.0712  0.8075  0.0147  -3.0184   0.0000   0.0000   0.0000  -0.4393
  -4.200  -0.0949   0.01093   0.00518  -0.0710  0.8058  0.0150  -2.9460   0.0000   0.0000   0.0000  -0.5142
  -4.100  -0.0845   0.01067   0.00488  -0.0708  0.8038  0.0152  -2.8822   0.0000   0.0000   0.0000  -0.6063
  -4.000  -0.0741   0.01038   0.00455  -0.0706  0.8014  0.0154  -2.8268   0.0000   0.0000   0.0000  -0.7224
  -3.900  -0.0638   0.01011   0.00423  -0.0704  0.7987  0.0156  -2.7755   0.0000   0.0000   0.0000  -0.8758
  -3.800  -0.0538   0.00964   0.00375  -0.0699  0.7958  0.0265  -2.8707   0.0000   0.0000   0.0000  -1.0743
  -3.700  -0.0435   0.00944   0.00354  -0.0698  0.7926  0.0314  -2.8019   0.0000   0.0000   0.0000  -1.3839
  -3.600  -0.0325   0.00941   0.00353  -0.0698  0.7894  0.0340  -2.7038   0.0000   0.0000   0.0000  -1.9319
  -3.500  -0.0211   0.00952   0.00362  -0.0698  0.7861  0.0366  -2.6020   0.0000   0.0000   0.0000  -3.1129
  -3.400  -0.0102   0.00949   0.00356  -0.0698  0.7827  0.0380  -2.5072   0.0000   0.0000   0.0000  -6.6786
  -3.300   0.0006   0.00947   0.00351  -0.0697  0.7790  0.0391  -2.4138   0.0000   0.0000   0.0000  109.7966
  -3.200   0.0118   0.00948   0.00350  -0.0697  0.7756  0.0401  -2.3169   0.0000   0.0000   0.0000   6.2517
  -3.100   0.0232   0.00950   0.00353  -0.0697  0.7737  0.0409  -2.2174   0.0000   0.0000   0.0000   3.3002
  -3.000   0.0345   0.00951   0.00354  -0.0698  0.7713  0.0414  -2.1215   0.0000   0.0000   0.0000   2.2983
  -2.900   0.0456   0.00945   0.00348  -0.0697  0.7686  0.0416  -2.0326   0.0000   0.0000   0.0000   1.7992
  -2.800   0.0562   0.00929   0.00329  -0.0696  0.7654  0.0420  -1.9530   0.0000   0.0000   0.0000   1.5044
  -2.700   0.0664   0.00904   0.00299  -0.0694  0.7619  0.0429  -1.8810   0.0000   0.0000   0.0000   1.3081
  -2.600   0.0767   0.00886   0.00275  -0.0692  0.7584  0.0438  -1.8065   0.0000   0.0000   0.0000   1.1618
  -2.500   0.0872   0.00872   0.00256  -0.0690  0.7547  0.0449  -1.7309   0.0000   0.0000   0.0000   1.0496
  -2.400   0.0978   0.00860   0.00240  -0.0688  0.7510  0.0463  -1.6553   0.0000   0.0000   0.0000   0.9613
  -2.300   0.1084   0.00851   0.00226  -0.0687  0.7470  0.0481  -1.5794   0.0000   0.0000   0.0000   0.8899
  -2.200   0.1191   0.00843   0.00216  -0.0686  0.7431  0.0503  -1.5025   0.0000   0.0000   0.0000   0.8309
  -2.100   0.1301   0.00834   0.00208  -0.0685  0.7410  0.0530  -1.4243   0.0000   0.0000   0.0000   0.7812
  -2.000   0.1411   0.00826   0.00202  -0.0685  0.7383  0.0562  -1.3458   0.0000   0.0000   0.0000   0.7391
  -1.900   0.1522   0.00822   0.00196  -0.0684  0.7351  0.0586  -1.2676   0.0000   0.0000   0.0000   0.7031
  -1.800   0.1629   0.00810   0.00184  -0.0683  0.7316  0.0673  -1.1974   0.0000   0.0000   0.0000   0.6722
  -1.700   0.1735   0.00799   0.00178  -0.0682  0.7279  0.0775  -1.1246   0.0000   0.0000   0.0000   0.6454
  -1.600   0.1840   0.00787   0.00172  -0.0681  0.7242  0.0979  -1.0532   0.0000   0.0000   0.0000   0.6221
  -1.500   0.1943   0.00773   0.00166  -0.0680  0.7203  0.1276  -0.9823   0.0000   0.0000   0.0000   0.6015
  -1.400   0.2043   0.00757   0.00161  -0.0678  0.7164  0.1671  -0.9124   0.0000   0.0000   0.0000   0.5833
  -1.300   0.2142   0.00741   0.00157  -0.0677  0.7121  0.2147  -0.8422   0.0000   0.0000   0.0000   0.5670
  -1.200   0.2240   0.00720   0.00149  -0.0675  0.7088  0.2756  -0.7788   0.0000   0.0000   0.0000   0.5523
  -1.100   0.2343   0.00704   0.00147  -0.0674  0.7068  0.3196  -0.7341   0.0000   0.0000   0.0000   0.5384
  -1.000   0.2446   0.00689   0.00146  -0.0673  0.7042  0.3617  -0.6899   0.0000   0.0000   0.0000   0.5257
  -0.900   0.2549   0.00675   0.00144  -0.0672  0.7013  0.4046  -0.6546   0.0000   0.0000   0.0000   0.5140
  -0.800   0.2649   0.00661   0.00142  -0.0671  0.6980  0.4512  -0.6226   0.0000   0.0000   0.0000   0.5032
  -0.700   0.2744   0.00643   0.00141  -0.0668  0.6944  0.5059  -0.5915   0.0000   0.0000   0.0000   0.4933
  -0.600   0.2838   0.00627   0.00140  -0.0665  0.6905  0.5646  -0.5971   0.0000   0.0000   0.0000   0.4839
  -0.500   0.2926   0.00609   0.00140  -0.0660  0.6864  0.6252  -0.6045   0.0000   0.0000   0.0000   0.4752
  -0.400   0.3011   0.00594   0.00140  -0.0655  0.6819  0.6873  -0.6118   0.0000   0.0000   0.0000   0.4668
  -0.300   0.3090   0.00578   0.00141  -0.0647  0.6769  0.7472  -0.6188   0.0000   0.0000   0.0000   0.4587
  -0.200   0.3173   0.00564   0.00143  -0.0640  0.6736  0.8028  -0.6260   0.0000   0.0000   0.0000   0.4508
  -0.100   0.3264   0.00551   0.00145  -0.0634  0.6712  0.8530  -0.6341   0.0000   0.0000   0.0000   0.4432
   0.000   0.3375   0.00543   0.00148  -0.0632  0.6683  0.8946  -0.6436   0.0000   0.0000   0.0000   0.4361
   0.100   0.3525   0.00541   0.00150  -0.0639  0.6649  0.9266  -0.6553   0.0000   0.0000   0.0000   0.4300
   0.200   0.3718   0.00542   0.00151  -0.0656  0.6609  0.9506  -0.6693   0.0000   0.0000   0.0000   0.4250
   0.300   0.3925   0.00545   0.00151  -0.0676  0.6564  0.9695  -0.6842   0.0000   0.0000   0.0000   0.4207
   0.400   0.4147   0.00549   0.00151  -0.0700  0.6514  0.9809  -0.6999   0.0000   0.0000   0.0000   0.4171
   0.500   0.4368   0.00554   0.00151  -0.0723  0.6459  0.9886  -0.7169   0.0000   0.0000   0.0000   0.4139
   0.600   0.4596   0.00559   0.00150  -0.0749  0.6400  0.9948  -0.7343   0.0000   0.0000   0.0000   0.4112
   0.700   0.4858   0.00559   0.00149  -0.0782  0.6372  1.0000  -0.7539   0.0000   0.0000   0.0000   0.4092
   0.800   0.4961   0.00560   0.00148  -0.0781  0.6342  1.0000  -0.7640   0.0000   0.0000   0.0000   0.4054
   0.900   0.5063   0.00561   0.00148  -0.0779  0.6305  1.0000  -0.7741   0.0000   0.0000   0.0000   0.4018
   1.000   0.5165   0.00563   0.00148  -0.0777  0.6263  1.0000  -0.7842   0.0000   0.0000   0.0000   0.3984
   1.100   0.5266   0.00566   0.00150  -0.0775  0.6217  1.0000  -0.7943   0.0000   0.0000   0.0000   0.3950
   1.200   0.5365   0.00569   0.00150  -0.0773  0.6170  1.0000  -0.8043   0.0000   0.0000   0.0000   0.3918
   1.300   0.5464   0.00574   0.00150  -0.0771  0.6121  1.0000  -0.8143   0.0000   0.0000   0.0000   0.3886
   1.400   0.5563   0.00579   0.00151  -0.0768  0.6068  1.0000  -0.8242   0.0000   0.0000   0.0000   0.3856
   1.500   0.5664   0.00583   0.00152  -0.0767  0.6026  1.0000  -0.8343   0.0000   0.0000   0.0000   0.3827
   1.600   0.5768   0.00584   0.00153  -0.0765  0.6002  1.0000  -0.8447   0.0000   0.0000   0.0000   0.3800
   1.700   0.5871   0.00585   0.00154  -0.0764  0.5973  1.0000  -0.8571   0.0000   0.0000   0.0000   0.3773
   1.800   0.5973   0.00587   0.00155  -0.0762  0.5937  1.0000  -0.8697   0.0000   0.0000   0.0000   0.3747
   1.900   0.6075   0.00590   0.00156  -0.0760  0.5895  1.0000  -0.8823   0.0000   0.0000   0.0000   0.3722
   2.000   0.6176   0.00594   0.00157  -0.0758  0.5847  1.0000  -0.8948   0.0000   0.0000   0.0000   0.3697
   2.100   0.6274   0.00599   0.00158  -0.0756  0.5792  1.0000  -0.9072   0.0000   0.0000   0.0000   0.3673
   2.200   0.6371   0.00606   0.00160  -0.0753  0.5728  1.0000  -0.9195   0.0000   0.0000   0.0000   0.3649
   2.300   0.6468   0.00612   0.00162  -0.0750  0.5664  1.0000  -0.9319   0.0000   0.0000   0.0000   0.3627
   2.400   0.6572   0.00613   0.00164  -0.0749  0.5632  1.0000  -0.9448   0.0000   0.0000   0.0000   0.3605
   2.500   0.6675   0.00616   0.00166  -0.0747  0.5592  1.0000  -0.9576   0.0000   0.0000   0.0000   0.3584
   2.600   0.6776   0.00620   0.00168  -0.0745  0.5546  1.0000  -0.9704   0.0000   0.0000   0.0000   0.3564
   2.700   0.6877   0.00624   0.00170  -0.0743  0.5499  1.0000  -0.9833   0.0000   0.0000   0.0000   0.3544
   2.800   0.6976   0.00629   0.00173  -0.0741  0.5451  1.0000  -0.9974   0.0000   0.0000   0.0000   0.3525
   2.900   0.7074   0.00635   0.00176  -0.0739  0.5399  1.0000  -1.0114   0.0000   0.0000   0.0000   0.3505
   3.000   0.7170   0.00642   0.00179  -0.0736  0.5340  1.0000  -1.0254   0.0000   0.0000   0.0000   0.3487
   3.100   0.7271   0.00648   0.00182  -0.0734  0.5295  1.0000  -1.0396   0.0000   0.0000   0.0000   0.3469
   3.200   0.7375   0.00650   0.00185  -0.0733  0.5267  1.0000  -1.0543   0.0000   0.0000   0.0000   0.3452
   3.300   0.7477   0.00653   0.00188  -0.0731  0.5228  1.0000  -1.0689   0.0000   0.0000   0.0000   0.3435
   3.400   0.7579   0.00657   0.00191  -0.0729  0.5181  1.0000  -1.0842   0.0000   0.0000   0.0000   0.3419
   3.500   0.7678   0.00663   0.00195  -0.0727  0.5127  1.0000  -1.1003   0.0000   0.0000   0.0000   0.3403
   3.600   0.7775   0.00670   0.00198  -0.0725  0.5069  1.0000  -1.1162   0.0000   0.0000   0.0000   0.3387
   3.700   0.7871   0.00678   0.00203  -0.0722  0.5006  1.0000  -1.1321   0.0000   0.0000   0.0000   0.3371
   3.800   0.7967   0.00686   0.00213  -0.0719  0.4941  1.0000  -1.1483   0.0000   0.0000   0.0000   0.3355
   3.900   0.8071   0.00689   0.00216  -0.0718  0.4914  1.0000  -1.1670   0.0000   0.0000   0.0000   0.3341
   4.000   0.8173   0.00692   0.00220  -0.0716  0.4877  1.0000  -1.1857   0.0000   0.0000   0.0000   0.3327
   4.100   0.8274   0.00697   0.00224  -0.0714  0.4830  1.0000  -1.2043   0.0000   0.0000   0.0000   0.3313
   4.200   0.8373   0.00703   0.00228  -0.0712  0.4774  1.0000  -1.2228   0.0000   0.0000   0.0000   0.3299
   4.300   0.8470   0.00711   0.00233  -0.0710  0.4713  1.0000  -1.2411   0.0000   0.0000   0.0000   0.3286
   4.400   0.8563   0.00720   0.00238  -0.0706  0.4645  1.0000  -1.2592   0.0000   0.0000   0.0000   0.3272
   4.500   0.8658   0.00729   0.00243  -0.0704  0.4563  1.0000  -1.2783   0.0000   0.0000   0.0000   0.3258
   4.600   0.8756   0.00735   0.00247  -0.0701  0.4475  1.0000  -1.2997   0.0000   0.0000   0.0000   0.3246
   4.700   0.8840   0.00751   0.00253  -0.0697  0.4316  1.0000  -1.3194   0.0000   0.0000   0.0000   0.3232
   4.800   0.8926   0.00766   0.00260  -0.0693  0.4150  1.0000  -1.3420   0.0000   0.0000   0.0000   0.3219
   4.900   0.9005   0.00786   0.00268  -0.0687  0.3943  1.0000  -1.3643   0.0000   0.0000   0.0000   0.3205
   5.000   0.9089   0.00803   0.00276  -0.0683  0.3753  1.0000  -1.3872   0.0000   0.0000   0.0000   0.3192
   5.100   0.9164   0.00828   0.00286  -0.0677  0.3535  1.0000  -1.4090   0.0000   0.0000   0.0000   0.3178
   5.200   0.9255   0.00841   0.00294  -0.0674  0.3401  1.0000  -1.4330   0.0000   0.0000   0.0000   0.3167
   5.300   0.9343   0.00856   0.00303  -0.0671  0.3285  1.0000  -1.4580   0.0000   0.0000   0.0000   0.3155
   5.400   0.9431   0.00873   0.00312  -0.0667  0.3169  1.0000  -1.4853   0.0000   0.0000   0.0000   0.3143
   5.500   0.9526   0.00883   0.00320  -0.0665  0.3085  1.0000  -1.5141   0.0000   0.0000   0.0000   0.3133
   5.600   0.9613   0.00900   0.00329  -0.0661  0.2956  1.0000  -1.5417   0.0000   0.0000   0.0000   0.3122
   5.700   0.9698   0.00918   0.00341  -0.0657  0.2825  1.0000  -1.5691   0.0000   0.0000   0.0000   0.3111
   5.800   0.9789   0.00933   0.00350  -0.0654  0.2714  1.0000  -1.5975   0.0000   0.0000   0.0000   0.3100
   5.900   0.9869   0.00955   0.00363  -0.0650  0.2565  1.0000  -1.6283   0.0000   0.0000   0.0000   0.3089
   6.000   0.9959   0.00970   0.00373  -0.0647  0.2458  1.0000  -1.6684   0.0000   0.0000   0.0000   0.3079
   6.100   1.0043   0.00990   0.00385  -0.0643  0.2327  1.0000  -1.7074   0.0000   0.0000   0.0000   0.3069
   6.200   1.0128   0.01010   0.00398  -0.0639  0.2202  1.0000  -1.7465   0.0000   0.0000   0.0000   0.3058
   6.300   1.0211   0.01030   0.00411  -0.0635  0.2067  1.0000  -1.8157   0.0000   0.0000   0.0000   0.3048
   6.400   1.0288   0.01056   0.00427  -0.0631  0.1909  1.0000  -1.8851   0.0000   0.0000   0.0000   0.3038
   6.500   1.0433   0.01027   0.00429  -0.0635  0.2196  1.0000  -1.9516   0.0000   0.0000   0.0000   0.3032
   6.600   1.0523   0.01042   0.00441  -0.0632  0.2107  1.0000  -2.0387   0.0000   0.0000   0.0000   0.3023
   6.700   1.0601   0.01067   0.00457  -0.0628  0.1975  1.0000  -2.1393   0.0000   0.0000   0.0000   0.3013
   6.800   1.0688   0.01084   0.00470  -0.0625  0.1873  1.0000  -2.2456   0.0000   0.0000   0.0000   0.3004
   6.900   1.0765   0.01110   0.00486  -0.0620  0.1737  1.0000  -2.3471   0.0000   0.0000   0.0000   0.2995
   7.000   1.0845   0.01133   0.00503  -0.0616  0.1607  1.0000  -2.4516   0.0000   0.0000   0.0000   0.2985
   7.100   1.0910   0.01168   0.00524  -0.0609  0.1420  1.0000  -2.5481   0.0000   0.0000   0.0000   0.2975
   7.200   1.0972   0.01206   0.00549  -0.0603  0.1220  1.0000  -2.6426   0.0000   0.0000   0.0000   0.2964
   7.300   1.1024   0.01251   0.00578  -0.0595  0.0989  1.0000  -2.7317   0.0000   0.0000   0.0000   0.2953
   7.400   1.1072   0.01300   0.00610  -0.0586  0.0750  1.0000  -2.8172   0.0000   0.0000   0.0000   0.2942
   7.500   1.1117   0.01350   0.00644  -0.0577  0.0527  1.0000  -2.8994   0.0000   0.0000   0.0000   0.2931
   7.600   1.1146   0.01412   0.00688  -0.0566  0.0284  1.0000  -2.9697   0.0000   0.0000   0.0000   0.2918
   7.700   1.1166   0.01482   0.00743  -0.0552  0.0065  1.0000  -3.0313   0.0000   0.0000   0.0000   0.2904
   7.800   1.1248   0.01502   0.00762  -0.0548  0.0048  1.0000  -3.1278   0.0000   0.0000   0.0000   0.2895
   7.900   1.1331   0.01519   0.00781  -0.0544  0.0044  1.0000  -3.2261   0.0000   0.0000   0.0000   0.2887
   8.000   1.1415   0.01537   0.00800  -0.0540  0.0041  1.0000  -3.3257   0.0000   0.0000   0.0000   0.2878
   8.100   1.1498   0.01554   0.00819  -0.0536  0.0039  1.0000  -3.4268   0.0000   0.0000   0.0000   0.2870
   8.200   1.1581   0.01571   0.00839  -0.0532  0.0038  1.0000  -3.5290   0.0000   0.0000   0.0000   0.2862
   8.300   1.1663   0.01589   0.00860  -0.0528  0.0037  1.0000  -3.6316   0.0000   0.0000   0.0000   0.2854
   8.400   1.1743   0.01607   0.00882  -0.0523  0.0036  1.0000  -3.7341   0.0000   0.0000   0.0000   0.2845
   8.500   1.1822   0.01627   0.00904  -0.0519  0.0035  1.0000  -3.8363   0.0000   0.0000   0.0000   0.2837
   8.600   1.1899   0.01647   0.00928  -0.0514  0.0035  1.0000  -3.9378   0.0000   0.0000   0.0000   0.2829
   8.700   1.1974   0.01668   0.00953  -0.0509  0.0035  1.0000  -4.0383   0.0000   0.0000   0.0000   0.2820
   8.800   1.2047   0.01690   0.00978  -0.0503  0.0035  1.0000  -4.1373   0.0000   0.0000   0.0000   0.2812
   8.900   1.2118   0.01713   0.01005  -0.0497  0.0034  1.0000  -4.2400   0.0000   0.0000   0.0000   0.2803
   9.000   1.2182   0.01738   0.01034  -0.0490  0.0034  1.0000  -4.3389   0.0000   0.0000   0.0000   0.2794
   9.100   1.2241   0.01764   0.01064  -0.0482  0.0035  1.0000  -4.4329   0.0000   0.0000   0.0000   0.2784
   9.200   1.2294   0.01792   0.01096  -0.0473  0.0035  1.0000  -4.5232   0.0000   0.0000   0.0000   0.2773
   9.300   1.2339   0.01825   0.01138  -0.0463  0.0035  1.0000  -4.6195   0.0000   0.0000   0.0000   0.2762
   9.400   1.2383   0.01858   0.01176  -0.0453  0.0035  1.0000  -4.7039   0.0000   0.0000   0.0000   0.2751
   9.500   1.2424   0.01894   0.01217  -0.0442  0.0035  1.0000  -4.7833   0.0000   0.0000   0.0000   0.2740
   9.600   1.2461   0.01932   0.01260  -0.0432  0.0036  1.0000  -4.8587   0.0000   0.0000   0.0000   0.2729
   9.700   1.2494   0.01973   0.01306  -0.0421  0.0036  1.0000  -4.9307   0.0000   0.0000   0.0000   0.2718
   9.800   1.2524   0.02017   0.01356  -0.0410  0.0037  1.0000  -4.9988   0.0000   0.0000   0.0000   0.2707
   9.900   1.2549   0.02064   0.01408  -0.0399  0.0037  1.0000  -5.0631   0.0000   0.0000   0.0000   0.2696
  10.000   1.2571   0.02115   0.01465  -0.0388  0.0038  1.0000  -5.1239   0.0000   0.0000   0.0000   0.2685
  10.100   1.2589   0.02169   0.01525  -0.0377  0.0038  1.0000  -5.1810   0.0000   0.0000   0.0000   0.2674
  10.200   1.2602   0.02227   0.01588  -0.0366  0.0039  1.0000  -5.2344   0.0000   0.0000   0.0000   0.2663
  10.300   1.2610   0.02289   0.01657  -0.0354  0.0040  1.0000  -5.2838   0.0000   0.0000   0.0000   0.2653
  10.400   1.2617   0.02355   0.01729  -0.0343  0.0040  1.0000  -5.3301   0.0000   0.0000   0.0000   0.2642
  10.500   1.2618   0.02427   0.01807  -0.0332  0.0041  1.0000  -5.3722   0.0000   0.0000   0.0000   0.2632
  10.600   1.2616   0.02502   0.01888  -0.0321  0.0042  1.0000  -5.4112   0.0000   0.0000   0.0000   0.2621
  10.700   1.2610   0.02581   0.01973  -0.0310  0.0042  1.0000  -5.4461   0.0000   0.0000   0.0000   0.2611
  10.800   1.2601   0.02666   0.02064  -0.0300  0.0043  1.0000  -5.4774   0.0000   0.0000   0.0000   0.2601
  10.900   1.2590   0.02755   0.02160  -0.0289  0.0044  1.0000  -5.5061   0.0000   0.0000   0.0000   0.2591
  11.000   1.2575   0.02851   0.02261  -0.0279  0.0045  1.0000  -5.5299   0.0000   0.0000   0.0000   0.2582
  11.100   1.2558   0.02951   0.02368  -0.0269  0.0046  1.0000  -5.5499   0.0000   0.0000   0.0000   0.2573
  11.200   1.2540   0.03057   0.02480  -0.0259  0.0046  1.0000  -5.5651   0.0000   0.0000   0.0000   0.2563
  11.300   1.2514   0.03170   0.02600  -0.0249  0.0047  1.0000  -5.5725   0.0000   0.0000   0.0000   0.2554
  11.400   1.2482   0.03291   0.02727  -0.0239  0.0048  1.0000  -5.5695   0.0000   0.0000   0.0000   0.2545
  11.500   1.2440   0.03431   0.02874  -0.0227  0.0050  1.0000  -5.5431   0.0000   0.0000   0.0000   0.2534
  11.600   1.2395   0.03597   0.03047  -0.0213  0.0054  1.0000  -5.4633   0.0000   0.0000   0.0000   0.2521
  11.700   1.2456   0.03625   0.03075  -0.0211  0.0056  1.0000  -5.5824   0.0000   0.0000   0.0000   0.2518
  11.800   1.2513   0.03658   0.03110  -0.0210  0.0057  1.0000  -5.6956   0.0000   0.0000   0.0000   0.2514
  11.900   1.2570   0.03696   0.03149  -0.0208  0.0059  1.0000  -5.8026   0.0000   0.0000   0.0000   0.2510
  12.000   1.2624   0.03741   0.03198  -0.0205  0.0063  1.0000  -5.8913   0.0000   0.0000   0.0000   0.2505
  17.100   0.9591   0.18535   0.18348  -0.0724  0.0152  1.0000  -2.9778   0.0000   0.0000   0.0000   0.3038
  17.200   0.9584   0.18796   0.18609  -0.0737  0.0150  1.0000  -2.9413   0.0000   0.0000   0.0000   0.3052
  17.300   0.9579   0.19045   0.18858  -0.0749  0.0148  1.0000  -2.9114   0.0000   0.0000   0.0000   0.3064
  17.400   0.9578   0.19284   0.19097  -0.0761  0.0146  1.0000  -2.8873   0.0000   0.0000   0.0000   0.3076
  17.500   0.9579   0.19514   0.19326  -0.0773  0.0144  1.0000  -2.8682   0.0000   0.0000   0.0000   0.3086
  17.600   0.9583   0.19735   0.19547  -0.0784  0.0142  1.0000  -2.8540   0.0000   0.0000   0.0000   0.3096
  17.700   0.9588   0.19948   0.19760  -0.0794  0.0140  1.0000  -2.8442   0.0000   0.0000   0.0000   0.3105
  17.800   0.9596   0.20154   0.19966  -0.0804  0.0138  1.0000  -2.8385   0.0000   0.0000   0.0000   0.3114
  17.900   0.9605   0.20353   0.20165  -0.0814  0.0137  1.0000  -2.8369   0.0000   0.0000   0.0000   0.3121
  18.000   0.9616   0.20546   0.20358  -0.0823  0.0135  1.0000  -2.8392   0.0000   0.0000   0.0000   0.3129
  18.100   0.9628   0.20732   0.20544  -0.0832  0.0134  1.0000  -2.8452   0.0000   0.0000   0.0000   0.3135
  18.200   0.9642   0.20912   0.20724  -0.0840  0.0132  1.0000  -2.8550   0.0000   0.0000   0.0000   0.3141
  18.300   0.9657   0.21086   0.20898  -0.0849  0.0131  1.0000  -2.8684   0.0000   0.0000   0.0000   0.3147
  18.400   0.9673   0.21254   0.21066  -0.0857  0.0130  1.0000  -2.8854   0.0000   0.0000   0.0000   0.3152
  18.500   0.9684   0.21447   0.21259  -0.0866  0.0128  1.0000  -2.8900   0.0000   0.0000   0.0000   0.3159
  18.600   0.9694   0.21642   0.21453  -0.0875  0.0126  1.0000  -2.8941   0.0000   0.0000   0.0000   0.3166
  18.700   0.9703   0.21839   0.21651  -0.0884  0.0125  1.0000  -2.8968   0.0000   0.0000   0.0000   0.3173
  18.800   0.9707   0.22050   0.21861  -0.0893  0.0123  1.0000  -2.8923   0.0000   0.0000   0.0000   0.3180
  19.400   0.9610   0.24241   0.24047  -0.0974  0.0114  1.0000  -2.3297   0.0000   0.0000   0.0000   0.3271
  19.500   0.9625   0.24475   0.24281  -0.0983  0.0114  1.0000  -2.3108   0.0000   0.0000   0.0000   0.3278
  19.600   0.9640   0.24706   0.24513  -0.0992  0.0114  1.0000  -2.2931   0.0000   0.0000   0.0000   0.3284
  19.700   0.9656   0.24936   0.24743  -0.1001  0.0113  1.0000  -2.2766   0.0000   0.0000   0.0000   0.3290
  19.800   0.9672   0.25164   0.24970  -0.1010  0.0113  1.0000  -2.2615   0.0000   0.0000   0.0000   0.3297
  19.900   0.9689   0.25389   0.25195  -0.1019  0.0113  1.0000  -2.2478   0.0000   0.0000   0.0000   0.3303
  20.000   0.9706   0.25610   0.25417  -0.1028  0.0112  1.0000  -2.2360   0.0000   0.0000   0.0000   0.3309
  20.100   0.9725   0.25827   0.25633  -0.1037  0.0112  1.0000  -2.2266   0.0000   0.0000   0.0000   0.3314
  20.200   0.9746   0.26036   0.25843  -0.1046  0.0111  1.0000  -2.2206   0.0000   0.0000   0.0000   0.3319
  20.300   0.9769   0.26235   0.26042  -0.1055  0.0110  1.0000  -2.2194   0.0000   0.0000   0.0000   0.3324
  20.400   0.9795   0.26426   0.26233  -0.1063  0.0108  1.0000  -2.2214   0.0000   0.0000   0.0000   0.3329
  20.500   0.9821   0.26627   0.26434  -0.1072  0.0105  1.0000  -2.2173   0.0000   0.0000   0.0000   0.3333
  20.600   0.9840   0.26864   0.26672  -0.1082  0.0102  1.0000  -2.1936   0.0000   0.0000   0.0000   0.3340
  20.700   0.9856   0.27112   0.26919  -0.1092  0.0100  1.0000  -2.1660   0.0000   0.0000   0.0000   0.3347
  20.800   0.9871   0.27354   0.27161  -0.1102  0.0097  1.0000  -2.1428   0.0000   0.0000   0.0000   0.3354
  20.900   0.9886   0.27592   0.27399  -0.1111  0.0094  1.0000  -2.1238   0.0000   0.0000   0.0000   0.3360
  21.000   0.9901   0.27826   0.27634  -0.1120  0.0092  1.0000  -2.1080   0.0000   0.0000   0.0000   0.3365
  21.100   0.9916   0.28057   0.27865  -0.1128  0.0090  1.0000  -2.0948   0.0000   0.0000   0.0000   0.3371
  21.200   0.9931   0.28286   0.28093  -0.1137  0.0088  1.0000  -2.0839   0.0000   0.0000   0.0000   0.3376
  21.300   0.9947   0.28508   0.28316  -0.1145  0.0085  1.0000  -2.0778   0.0000   0.0000   0.0000   0.3381
  21.400   0.9962   0.28727   0.28535  -0.1153  0.0083  1.0000  -2.0746   0.0000   0.0000   0.0000   0.3386
  21.500   0.9978   0.28943   0.28751  -0.1161  0.0081  1.0000  -2.0739   0.0000   0.0000   0.0000   0.3390
  21.600   0.9993   0.29156   0.28964  -0.1169  0.0078  1.0000  -2.0756   0.0000   0.0000   0.0000   0.3395
  21.700   1.0009   0.29366   0.29175  -0.1177  0.0076  1.0000  -2.0795   0.0000   0.0000   0.0000   0.3399
  21.800   1.0024   0.29574   0.29382  -0.1184  0.0075  1.0000  -2.0858   0.0000   0.0000   0.0000   0.3403
  21.900   1.0039   0.29778   0.29587  -0.1192  0.0073  1.0000  -2.0941   0.0000   0.0000   0.0000   0.3407
  22.000   1.0055   0.29980   0.29789  -0.1199  0.0071  1.0000  -2.1046   0.0000   0.0000   0.0000   0.3410
  22.100   1.0070   0.30179   0.29988  -0.1207  0.0070  1.0000  -2.1173   0.0000   0.0000   0.0000   0.3414
  22.200   1.0086   0.30375   0.30184  -0.1214  0.0068  1.0000  -2.1321   0.0000   0.0000   0.0000   0.3417
  22.300   1.0101   0.30568   0.30378  -0.1221  0.0067  1.0000  -2.1493   0.0000   0.0000   0.0000   0.3420
  22.400   1.0117   0.30758   0.30568  -0.1228  0.0066  1.0000  -2.1688   0.0000   0.0000   0.0000   0.3423
  22.500   1.0132   0.30945   0.30755  -0.1234  0.0065  1.0000  -2.1907   0.0000   0.0000   0.0000   0.3426
  22.600   1.0147   0.31129   0.30939  -0.1241  0.0064  1.0000  -2.2151   0.0000   0.0000   0.0000   0.3428
  22.700   1.0163   0.31309   0.31120  -0.1247  0.0063  1.0000  -2.2422   0.0000   0.0000   0.0000   0.3431
  22.800   1.0178   0.31486   0.31297  -0.1254  0.0062  1.0000  -2.2720   0.0000   0.0000   0.0000   0.3433
  22.900   1.0193   0.31659   0.31471  -0.1260  0.0061  1.0000  -2.3046   0.0000   0.0000   0.0000   0.3434
  23.000   1.0209   0.31829   0.31641  -0.1265  0.0060  1.0000  -2.3401   0.0000   0.0000   0.0000   0.3436
  23.100   1.0223   0.32000   0.31813  -0.1271  0.0059  1.0000  -2.3754   0.0000   0.0000   0.0000   0.3437
  23.200   1.0236   0.32182   0.31995  -0.1277  0.0058  1.0000  -2.4059   0.0000   0.0000   0.0000   0.3439
  23.300   1.0243   0.32391   0.32205  -0.1283  0.0057  1.0000  -2.4204   0.0000   0.0000   0.0000   0.3442
  23.400   1.0243   0.32637   0.32451  -0.1289  0.0056  1.0000  -2.4161   0.0000   0.0000   0.0000   0.3447
  23.500   1.0161   0.33432   0.33244  -0.1299  0.0052  1.0000  -2.0861   0.0000   0.0000   0.0000   0.3468
  23.600   1.0167   0.33670   0.33482  -0.1306  0.0052  1.0000  -2.0739   0.0000   0.0000   0.0000   0.3472
  23.700   1.0173   0.33908   0.33720  -0.1312  0.0052  1.0000  -2.0618   0.0000   0.0000   0.0000   0.3476
  23.800   1.0178   0.34145   0.33958  -0.1319  0.0052  1.0000  -2.0497   0.0000   0.0000   0.0000   0.3480
  23.900   1.0181   0.34382   0.34195  -0.1325  0.0052  1.0000  -2.0377   0.0000   0.0000   0.0000   0.3484
  24.000   1.0184   0.34618   0.34431  -0.1331  0.0052  1.0000  -2.0255   0.0000   0.0000   0.0000   0.3488
  24.100   1.0186   0.34853   0.34670  -0.1337  0.0052  1.0000  -2.0132   0.0000   0.0000   0.0000   0.3492
  24.200   1.0186   0.35088   0.34905  -0.1343  0.0052  1.0000  -2.0010   0.0000   0.0000   0.0000   0.3496
  24.300   1.0185   0.35321   0.35139  -0.1349  0.0052  1.0000  -1.9886   0.0000   0.0000   0.0000   0.3501
  24.400   1.0183   0.35553   0.35371  -0.1355  0.0052  1.0000  -1.9761   0.0000   0.0000   0.0000   0.3505
  24.500   1.0178   0.35783   0.35602  -0.1360  0.0052  1.0000  -1.9633   0.0000   0.0000   0.0000   0.3509
  24.600   1.0172   0.36011   0.35830  -0.1365  0.0052  1.0000  -1.9501   0.0000   0.0000   0.0000   0.3513
  24.700   1.0162   0.36235   0.36055  -0.1369  0.0052  1.0000  -1.9364   0.0000   0.0000   0.0000   0.3517
  24.800   1.0149   0.36456   0.36277  -0.1374  0.0051  1.0000  -1.9221   0.0000   0.0000   0.0000   0.3522
  24.900   1.0132   0.36671   0.36493  -0.1377  0.0051  1.0000  -1.9069   0.0000   0.0000   0.0000   0.3526
  25.000   1.0108   0.36878   0.36700  -0.1380  0.0051  1.0000  -1.8900   0.0000   0.0000   0.0000   0.3531
  25.100   1.0075   0.37071   0.36895  -0.1382  0.0051  1.0000  -1.8708   0.0000   0.0000   0.0000   0.3536
  25.200   1.0022   0.37237   0.37061  -0.1381  0.0051  1.0000  -1.8467   0.0000   0.0000   0.0000   0.3542


