xflr5 v6.61

 Calculated polar for: S7055 (10.5%) Flat-Bottomed

 1 1 Reynolds number fixed          Mach number fixed         

 xtrf =   1.000 (top)        1.000 (bottom)
 Mach =   0.000     Re =     0.563 e 6     Ncrit =   9.000

  alpha     CL        CD       CDp       Cm    Top Xtr Bot Xtr   Cpmin    Chinge    XCp    
 ------- -------- --------- --------- -------- ------- ------- -------- --------- ---------
  -9.300  -0.3489   0.09278   0.09065  -0.0337  1.0000  0.0072  -2.3866   0.0000   0.0000   0.0000   0.1440
  -9.200  -0.3496   0.09093   0.08882  -0.0345  1.0000  0.0072  -2.4405   0.0000   0.0000   0.0000   0.1421
  -9.100  -0.3501   0.08916   0.08705  -0.0353  1.0000  0.0072  -2.4867   0.0000   0.0000   0.0000   0.1400
  -9.000  -0.3504   0.08741   0.08532  -0.0361  1.0000  0.0072  -2.5278   0.0000   0.0000   0.0000   0.1378
  -8.900  -0.3505   0.08570   0.08363  -0.0370  1.0000  0.0072  -2.5641   0.0000   0.0000   0.0000   0.1356
  -8.800  -0.3507   0.08405   0.08199  -0.0378  1.0000  0.0072  -2.5954   0.0000   0.0000   0.0000   0.1334
  -8.700  -0.3508   0.08247   0.08042  -0.0386  1.0000  0.0073  -2.6212   0.0000   0.0000   0.0000   0.1313
  -8.600  -0.3509   0.08097   0.07894  -0.0393  1.0000  0.0073  -2.6408   0.0000   0.0000   0.0000   0.1293
  -8.500  -0.3512   0.07958   0.07757  -0.0400  1.0000  0.0074  -2.6538   0.0000   0.0000   0.0000   0.1277
  -8.400  -0.3508   0.07828   0.07630  -0.0407  0.9990  0.0074  -2.6548   0.0000   0.0000   0.0000   0.1257
  -7.900  -0.3330   0.06124   0.05927  -0.0647  0.9571  0.0077  -3.1660   0.0000   0.0000   0.0000   0.0474
  -7.800  -0.3320   0.05804   0.05603  -0.0684  0.9486  0.0077  -3.2672   0.0000   0.0000   0.0000   0.0359
  -7.700  -0.3324   0.05466   0.05259  -0.0715  0.9406  0.0078  -3.3908   0.0000   0.0000   0.0000   0.0268
  -7.600  -0.3340   0.05099   0.04884  -0.0743  0.9336  0.0078  -3.5431   0.0000   0.0000   0.0000   0.0197
  -7.500  -0.3371   0.04682   0.04455  -0.0766  0.9264  0.0078  -3.7405   0.0000   0.0000   0.0000   0.0148
  -7.400  -0.3427   0.04160   0.03915  -0.0785  0.9199  0.0079  -4.0296   0.0000   0.0000   0.0000   0.0129
  -7.300  -0.3572   0.03294   0.03007  -0.0798  0.9132  0.0080  -4.6309   0.0000   0.0000   0.0000   0.0183
  -7.200  -0.3679   0.02657   0.02313  -0.0796  0.9074  0.0084  -5.0650   0.0000   0.0000   0.0000   0.0252
  -7.100  -0.3646   0.02469   0.02103  -0.0792  0.9035  0.0088  -5.0788   0.0000   0.0000   0.0000   0.0243
  -7.000  -0.3563   0.02436   0.02064  -0.0790  0.9004  0.0092  -4.9429   0.0000   0.0000   0.0000   0.0198
  -6.900  -0.3460   0.02466   0.02095  -0.0789  0.8974  0.0095  -4.7476   0.0000   0.0000   0.0000   0.0135
  -6.600  -0.3026   0.03054   0.02724  -0.0794  0.8900  0.0116  -3.7450   0.0000   0.0000   0.0000  -0.0207
  -6.500  -0.2972   0.02866   0.02520  -0.0792  0.8871  0.0119  -3.7592   0.0000   0.0000   0.0000  -0.0249
  -6.400  -0.2914   0.02692   0.02329  -0.0789  0.8840  0.0121  -3.7645   0.0000   0.0000   0.0000  -0.0292
  -6.300  -0.2851   0.02536   0.02156  -0.0786  0.8809  0.0123  -3.7876   0.0000   0.0000   0.0000  -0.0341
  -6.200  -0.2783   0.02400   0.02004  -0.0782  0.8780  0.0125  -3.7966   0.0000   0.0000   0.0000  -0.0395
  -6.100  -0.2711   0.02278   0.01866  -0.0778  0.8751  0.0127  -3.7954   0.0000   0.0000   0.0000  -0.0456
  -6.000  -0.2634   0.02170   0.01742  -0.0773  0.8723  0.0128  -3.7847   0.0000   0.0000   0.0000  -0.0525
  -5.900  -0.2554   0.02073   0.01629  -0.0769  0.8695  0.0129  -3.7666   0.0000   0.0000   0.0000  -0.0602
  -5.800  -0.2471   0.01985   0.01526  -0.0766  0.8664  0.0131  -3.7425   0.0000   0.0000   0.0000  -0.0690
  -5.700  -0.2383   0.01901   0.01429  -0.0762  0.8639  0.0132  -3.7134   0.0000   0.0000   0.0000  -0.0792
  -5.600  -0.2293   0.01822   0.01338  -0.0759  0.8614  0.0133  -3.6805   0.0000   0.0000   0.0000  -0.0906
  -5.500  -0.2202   0.01749   0.01253  -0.0756  0.8587  0.0134  -3.6441   0.0000   0.0000   0.0000  -0.1031
  -5.400  -0.2109   0.01680   0.01173  -0.0753  0.8558  0.0135  -3.6049   0.0000   0.0000   0.0000  -0.1170
  -5.300  -0.2014   0.01616   0.01098  -0.0750  0.8528  0.0136  -3.5634   0.0000   0.0000   0.0000  -0.1323
  -5.200  -0.1917   0.01566   0.01039  -0.0747  0.8498  0.0138  -3.5065   0.0000   0.0000   0.0000  -0.1498
  -5.100  -0.1816   0.01541   0.01008  -0.0744  0.8468  0.0142  -3.4217   0.0000   0.0000   0.0000  -0.1708
  -5.000  -0.1711   0.01531   0.00994  -0.0743  0.8439  0.0146  -3.3216   0.0000   0.0000   0.0000  -0.1952
  -4.900  -0.1604   0.01535   0.00994  -0.0742  0.8409  0.0151  -3.2101   0.0000   0.0000   0.0000  -0.2239
  -4.700  -0.1372   0.01618   0.01083  -0.0743  0.8352  0.0158  -2.9225   0.0000   0.0000   0.0000  -0.3038
  -4.600  -0.1283   0.01511   0.00961  -0.0739  0.8329  0.0160  -2.9186   0.0000   0.0000   0.0000  -0.3393
  -4.500  -0.1193   0.01403   0.00838  -0.0735  0.8303  0.0163  -2.9234   0.0000   0.0000   0.0000  -0.3799
  -4.400  -0.1098   0.01323   0.00747  -0.0731  0.8277  0.0164  -2.9085   0.0000   0.0000   0.0000  -0.4305
  -4.300  -0.1001   0.01259   0.00674  -0.0728  0.8250  0.0165  -2.8849   0.0000   0.0000   0.0000  -0.4923
  -4.200  -0.0906   0.01199   0.00605  -0.0724  0.8223  0.0167  -2.8649   0.0000   0.0000   0.0000  -0.5657
  -4.100  -0.0814   0.01136   0.00532  -0.0719  0.8195  0.0171  -2.8569   0.0000   0.0000   0.0000  -0.6519
  -4.000  -0.0722   0.01076   0.00462  -0.0714  0.8168  0.0182  -2.8617   0.0000   0.0000   0.0000  -0.7580
  -3.900  -0.0622   0.01044   0.00427  -0.0710  0.8140  0.0207  -2.8450   0.0000   0.0000   0.0000  -0.9143
  -3.800  -0.0498   0.01074   0.00462  -0.0711  0.8110  0.0267  -2.7866   0.0000   0.0000   0.0000  -1.2049
  -3.700  -0.0400   0.01045   0.00433  -0.0709  0.8075  0.0339  -2.7393   0.0000   0.0000   0.0000  -1.5579
  -3.600  -0.0287   0.01048   0.00438  -0.0710  0.8055  0.0366  -2.6413   0.0000   0.0000   0.0000  -2.2681
  -3.500  -0.0170   0.01061   0.00449  -0.0711  0.8030  0.0392  -2.5430   0.0000   0.0000   0.0000  -3.9906
  -3.400  -0.0059   0.01060   0.00447  -0.0711  0.8001  0.0404  -2.4483   0.0000   0.0000   0.0000  -11.9468
  -3.300   0.0055   0.01068   0.00454  -0.0711  0.7971  0.0413  -2.3465   0.0000   0.0000   0.0000  13.4435
  -3.200   0.0160   0.01052   0.00435  -0.0710  0.7939  0.0427  -2.2623   0.0000   0.0000   0.0000   4.7564
  -3.100   0.0255   0.01011   0.00389  -0.0706  0.7907  0.0450  -2.1977   0.0000   0.0000   0.0000   3.0588
  -3.000   0.0358   0.00991   0.00366  -0.0704  0.7876  0.0462  -2.1197   0.0000   0.0000   0.0000   2.2428
  -2.900   0.0463   0.00977   0.00348  -0.0703  0.7846  0.0473  -2.0394   0.0000   0.0000   0.0000   1.7872
  -2.800   0.0569   0.00965   0.00333  -0.0701  0.7814  0.0483  -1.9585   0.0000   0.0000   0.0000   1.4984
  -2.700   0.0675   0.00956   0.00320  -0.0699  0.7778  0.0492  -1.8777   0.0000   0.0000   0.0000   1.2994
  -2.600   0.0782   0.00946   0.00308  -0.0698  0.7749  0.0502  -1.7969   0.0000   0.0000   0.0000   1.1532
  -2.500   0.0890   0.00935   0.00296  -0.0698  0.7724  0.0513  -1.7168   0.0000   0.0000   0.0000   1.0420
  -2.400   0.0999   0.00925   0.00285  -0.0697  0.7694  0.0525  -1.6376   0.0000   0.0000   0.0000   0.9548
  -2.300   0.1107   0.00915   0.00273  -0.0696  0.7662  0.0540  -1.5595   0.0000   0.0000   0.0000   0.8846
  -2.200   0.1215   0.00907   0.00263  -0.0695  0.7627  0.0559  -1.4816   0.0000   0.0000   0.0000   0.8269
  -2.100   0.1324   0.00901   0.00255  -0.0694  0.7592  0.0579  -1.4033   0.0000   0.0000   0.0000   0.7785
  -2.000   0.1433   0.00898   0.00249  -0.0693  0.7557  0.0593  -1.3248   0.0000   0.0000   0.0000   0.7373
  -1.900   0.1535   0.00876   0.00227  -0.0690  0.7523  0.0699  -1.2621   0.0000   0.0000   0.0000   0.7030
  -1.800   0.1641   0.00867   0.00218  -0.0689  0.7487  0.0773  -1.1894   0.0000   0.0000   0.0000   0.6727
  -1.700   0.1745   0.00855   0.00210  -0.0687  0.7445  0.0948  -1.1196   0.0000   0.0000   0.0000   0.6464
  -1.600   0.1848   0.00837   0.00203  -0.0686  0.7416  0.1267  -1.0492   0.0000   0.0000   0.0000   0.6235
  -1.500   0.1947   0.00813   0.00198  -0.0685  0.7389  0.1760  -0.9798   0.0000   0.0000   0.0000   0.6036
  -1.400   0.2045   0.00789   0.00194  -0.0684  0.7357  0.2357  -0.9109   0.0000   0.0000   0.0000   0.5858
  -1.300   0.2143   0.00767   0.00190  -0.0682  0.7321  0.2963  -0.8406   0.0000   0.0000   0.0000   0.5695
  -1.200   0.2239   0.00745   0.00181  -0.0680  0.7285  0.3573  -0.7808   0.0000   0.0000   0.0000   0.5546
  -1.100   0.2338   0.00729   0.00178  -0.0678  0.7249  0.4054  -0.7370   0.0000   0.0000   0.0000   0.5407
  -1.000   0.2433   0.00712   0.00176  -0.0676  0.7214  0.4583  -0.6943   0.0000   0.0000   0.0000   0.5281
  -0.900   0.2525   0.00693   0.00174  -0.0672  0.7178  0.5195  -0.6561   0.0000   0.0000   0.0000   0.5164
  -0.800   0.2612   0.00675   0.00172  -0.0668  0.7139  0.5836  -0.6260   0.0000   0.0000   0.0000   0.5056
  -0.700   0.2697   0.00657   0.00173  -0.0662  0.7096  0.6522  -0.5966   0.0000   0.0000   0.0000   0.4954
  -0.600   0.2777   0.00634   0.00174  -0.0655  0.7075  0.7205  -0.5936   0.0000   0.0000   0.0000   0.4856
  -0.500   0.2856   0.00615   0.00176  -0.0647  0.7049  0.7849  -0.6006   0.0000   0.0000   0.0000   0.4760
  -0.400   0.2943   0.00600   0.00179  -0.0639  0.7019  0.8417  -0.6081   0.0000   0.0000   0.0000   0.4667
  -0.300   0.3059   0.00591   0.00181  -0.0638  0.6984  0.8900  -0.6170   0.0000   0.0000   0.0000   0.4578
  -0.200   0.3230   0.00589   0.00182  -0.0649  0.6945  0.9260  -0.6288   0.0000   0.0000   0.0000   0.4500
  -0.100   0.3428   0.00590   0.00182  -0.0667  0.6903  0.9488  -0.6429   0.0000   0.0000   0.0000   0.4435
   0.000   0.3638   0.00593   0.00181  -0.0687  0.6859  0.9672  -0.6579   0.0000   0.0000   0.0000   0.4377
   0.100   0.3870   0.00598   0.00181  -0.0712  0.6814  0.9824  -0.6741   0.0000   0.0000   0.0000   0.4328
   0.200   0.4132   0.00603   0.00179  -0.0745  0.6764  0.9922  -0.6920   0.0000   0.0000   0.0000   0.4289
   0.300   0.4398   0.00603   0.00176  -0.0778  0.6730  0.9984  -0.7101   0.0000   0.0000   0.0000   0.4256
   0.400   0.4547   0.00603   0.00174  -0.0787  0.6698  1.0000  -0.7229   0.0000   0.0000   0.0000   0.4215
   0.500   0.4648   0.00604   0.00173  -0.0785  0.6661  1.0000  -0.7329   0.0000   0.0000   0.0000   0.4173
   0.600   0.4749   0.00605   0.00173  -0.0783  0.6619  1.0000  -0.7428   0.0000   0.0000   0.0000   0.4132
   0.700   0.4850   0.00607   0.00172  -0.0781  0.6576  1.0000  -0.7528   0.0000   0.0000   0.0000   0.4092
   0.800   0.4950   0.00610   0.00171  -0.0779  0.6533  1.0000  -0.7628   0.0000   0.0000   0.0000   0.4054
   0.900   0.5049   0.00613   0.00170  -0.0777  0.6489  1.0000  -0.7727   0.0000   0.0000   0.0000   0.4018
   1.000   0.5148   0.00618   0.00170  -0.0774  0.6439  1.0000  -0.7826   0.0000   0.0000   0.0000   0.3983
   1.100   0.5247   0.00623   0.00173  -0.0772  0.6389  1.0000  -0.7925   0.0000   0.0000   0.0000   0.3949
   1.200   0.5350   0.00623   0.00173  -0.0771  0.6362  1.0000  -0.8027   0.0000   0.0000   0.0000   0.3917
   1.300   0.5453   0.00625   0.00174  -0.0769  0.6326  1.0000  -0.8129   0.0000   0.0000   0.0000   0.3886
   1.400   0.5555   0.00627   0.00174  -0.0767  0.6285  1.0000  -0.8231   0.0000   0.0000   0.0000   0.3856
   1.500   0.5656   0.00629   0.00174  -0.0765  0.6242  1.0000  -0.8333   0.0000   0.0000   0.0000   0.3827
   1.600   0.5756   0.00633   0.00175  -0.0763  0.6197  1.0000  -0.8436   0.0000   0.0000   0.0000   0.3798
   1.700   0.5855   0.00637   0.00176  -0.0761  0.6153  1.0000  -0.8555   0.0000   0.0000   0.0000   0.3771
   1.800   0.5954   0.00642   0.00177  -0.0758  0.6106  1.0000  -0.8678   0.0000   0.0000   0.0000   0.3745
   1.900   0.6052   0.00648   0.00178  -0.0756  0.6054  1.0000  -0.8801   0.0000   0.0000   0.0000   0.3719
   2.000   0.6154   0.00652   0.00180  -0.0754  0.6019  1.0000  -0.8927   0.0000   0.0000   0.0000   0.3694
   2.100   0.6258   0.00653   0.00182  -0.0752  0.5989  1.0000  -0.9054   0.0000   0.0000   0.0000   0.3671
   2.200   0.6360   0.00655   0.00184  -0.0751  0.5952  1.0000  -0.9181   0.0000   0.0000   0.0000   0.3648
   2.300   0.6462   0.00658   0.00186  -0.0749  0.5908  1.0000  -0.9308   0.0000   0.0000   0.0000   0.3626
   2.400   0.6562   0.00662   0.00187  -0.0747  0.5857  1.0000  -0.9434   0.0000   0.0000   0.0000   0.3604
   2.500   0.6660   0.00667   0.00189  -0.0744  0.5802  1.0000  -0.9560   0.0000   0.0000   0.0000   0.3582
   2.600   0.6756   0.00674   0.00191  -0.0741  0.5741  1.0000  -0.9684   0.0000   0.0000   0.0000   0.3561
   2.700   0.6852   0.00682   0.00194  -0.0738  0.5674  1.0000  -0.9808   0.0000   0.0000   0.0000   0.3541
   2.800   0.6955   0.00684   0.00197  -0.0737  0.5641  1.0000  -0.9952   0.0000   0.0000   0.0000   0.3522
   2.900   0.7058   0.00687   0.00199  -0.0735  0.5603  1.0000  -1.0096   0.0000   0.0000   0.0000   0.3503
   3.000   0.7160   0.00691   0.00202  -0.0733  0.5560  1.0000  -1.0239   0.0000   0.0000   0.0000   0.3485
   3.100   0.7261   0.00695   0.00205  -0.0731  0.5516  1.0000  -1.0383   0.0000   0.0000   0.0000   0.3467
   3.200   0.7360   0.00700   0.00208  -0.0729  0.5469  1.0000  -1.0525   0.0000   0.0000   0.0000   0.3449
   3.300   0.7458   0.00707   0.00211  -0.0727  0.5419  1.0000  -1.0667   0.0000   0.0000   0.0000   0.3432
   3.400   0.7554   0.00714   0.00215  -0.0724  0.5362  1.0000  -1.0814   0.0000   0.0000   0.0000   0.3415
   3.500   0.7650   0.00723   0.00220  -0.0721  0.5301  1.0000  -1.0972   0.0000   0.0000   0.0000   0.3398
   3.600   0.7754   0.00725   0.00223  -0.0720  0.5271  1.0000  -1.1137   0.0000   0.0000   0.0000   0.3383
   3.700   0.7856   0.00729   0.00227  -0.0718  0.5230  1.0000  -1.1301   0.0000   0.0000   0.0000   0.3368
   3.800   0.7957   0.00733   0.00237  -0.0716  0.5182  1.0000  -1.1465   0.0000   0.0000   0.0000   0.3353
   3.900   0.8056   0.00738   0.00241  -0.0714  0.5131  1.0000  -1.1648   0.0000   0.0000   0.0000   0.3338
   4.000   0.8153   0.00745   0.00245  -0.0711  0.5077  1.0000  -1.1830   0.0000   0.0000   0.0000   0.3324
   4.100   0.8249   0.00753   0.00250  -0.0709  0.5021  1.0000  -1.2011   0.0000   0.0000   0.0000   0.3309
   4.200   0.8343   0.00763   0.00255  -0.0706  0.4955  1.0000  -1.2190   0.0000   0.0000   0.0000   0.3295
   4.300   0.8444   0.00768   0.00260  -0.0704  0.4915  1.0000  -1.2377   0.0000   0.0000   0.0000   0.3282
   4.400   0.8547   0.00771   0.00265  -0.0702  0.4874  1.0000  -1.2566   0.0000   0.0000   0.0000   0.3269
   4.500   0.8647   0.00777   0.00269  -0.0701  0.4824  1.0000  -1.2764   0.0000   0.0000   0.0000   0.3256
   4.600   0.8746   0.00783   0.00274  -0.0698  0.4768  1.0000  -1.2976   0.0000   0.0000   0.0000   0.3243
   4.700   0.8842   0.00791   0.00279  -0.0696  0.4708  1.0000  -1.3186   0.0000   0.0000   0.0000   0.3231
   4.800   0.8932   0.00803   0.00285  -0.0692  0.4626  1.0000  -1.3415   0.0000   0.0000   0.0000   0.3218
   4.900   0.9027   0.00811   0.00291  -0.0689  0.4534  1.0000  -1.3657   0.0000   0.0000   0.0000   0.3205
   5.000   0.9120   0.00821   0.00295  -0.0686  0.4409  1.0000  -1.3898   0.0000   0.0000   0.0000   0.3193
   5.100   0.9196   0.00841   0.00304  -0.0680  0.4232  1.0000  -1.4119   0.0000   0.0000   0.0000   0.3179
   5.200   0.9288   0.00852   0.00309  -0.0677  0.4082  1.0000  -1.4362   0.0000   0.0000   0.0000   0.3168
   5.300   0.9360   0.00876   0.00319  -0.0671  0.3873  1.0000  -1.4592   0.0000   0.0000   0.0000   0.3154
   5.400   0.9448   0.00891   0.00327  -0.0667  0.3704  1.0000  -1.4868   0.0000   0.0000   0.0000   0.3143
   5.500   0.9523   0.00916   0.00338  -0.0662  0.3509  1.0000  -1.5125   0.0000   0.0000   0.0000   0.3130
   5.600   0.9616   0.00927   0.00346  -0.0659  0.3400  1.0000  -1.5411   0.0000   0.0000   0.0000   0.3119
   5.700   0.9705   0.00942   0.00355  -0.0656  0.3291  1.0000  -1.5691   0.0000   0.0000   0.0000   0.3109
   5.800   0.9789   0.00961   0.00367  -0.0652  0.3170  1.0000  -1.5966   0.0000   0.0000   0.0000   0.3098
   5.900   0.9883   0.00973   0.00375  -0.0649  0.3078  1.0000  -1.6303   0.0000   0.0000   0.0000   0.3088
   6.000   0.9969   0.00990   0.00386  -0.0646  0.2951  1.0000  -1.6695   0.0000   0.0000   0.0000   0.3077
   6.100   1.0053   0.01010   0.00398  -0.0642  0.2826  1.0000  -1.7084   0.0000   0.0000   0.0000   0.3067
   6.200   1.0142   0.01025   0.00409  -0.0639  0.2716  1.0000  -1.7576   0.0000   0.0000   0.0000   0.3057
   6.300   1.0222   0.01048   0.00422  -0.0635  0.2580  1.0000  -1.8271   0.0000   0.0000   0.0000   0.3047
   6.400   1.0311   0.01064   0.00434  -0.0631  0.2475  1.0000  -1.9008   0.0000   0.0000   0.0000   0.3037
   6.500   1.0443   0.01046   0.00444  -0.0634  0.2678  1.0000  -1.9621   0.0000   0.0000   0.0000   0.3031
   6.600   1.0525   0.01067   0.00458  -0.0630  0.2566  1.0000  -2.0312   0.0000   0.0000   0.0000   0.3021
   6.700   1.0614   0.01083   0.00471  -0.0627  0.2467  1.0000  -2.1325   0.0000   0.0000   0.0000   0.3012
   6.800   1.0696   0.01104   0.00485  -0.0623  0.2340  1.0000  -2.2358   0.0000   0.0000   0.0000   0.3002
   6.900   1.0775   0.01128   0.00501  -0.0619  0.2212  1.0000  -2.3384   0.0000   0.0000   0.0000   0.2993
   7.000   1.0860   0.01146   0.00515  -0.0615  0.2099  1.0000  -2.4457   0.0000   0.0000   0.0000   0.2984
   7.200   1.1011   0.01199   0.00550  -0.0606  0.1815  1.0000  -2.6519   0.0000   0.0000   0.0000   0.2965
   7.300   1.1077   0.01232   0.00571  -0.0600  0.1645  1.0000  -2.7504   0.0000   0.0000   0.0000   0.2955
   7.400   1.1136   0.01271   0.00597  -0.0593  0.1441  1.0000  -2.8447   0.0000   0.0000   0.0000   0.2945
   7.500   1.1191   0.01314   0.00624  -0.0585  0.1220  1.0000  -2.9358   0.0000   0.0000   0.0000   0.2934
   7.600   1.1238   0.01362   0.00655  -0.0577  0.0989  1.0000  -3.0213   0.0000   0.0000   0.0000   0.2923
   7.700   1.1278   0.01415   0.00691  -0.0567  0.0749  1.0000  -3.1007   0.0000   0.0000   0.0000   0.2912
   7.800   1.1290   0.01490   0.00742  -0.0554  0.0442  1.0000  -3.1618   0.0000   0.0000   0.0000   0.2898
   7.900   1.1300   0.01565   0.00797  -0.0540  0.0178  1.0000  -3.2195   0.0000   0.0000   0.0000   0.2884
   8.000   1.1345   0.01611   0.00838  -0.0530  0.0078  1.0000  -3.2938   0.0000   0.0000   0.0000   0.2873
   8.100   1.1421   0.01634   0.00861  -0.0525  0.0052  1.0000  -3.3810   0.0000   0.0000   0.0000   0.2864
   8.200   1.1501   0.01653   0.00882  -0.0521  0.0049  1.0000  -3.4754   0.0000   0.0000   0.0000   0.2855
   8.300   1.1580   0.01672   0.00905  -0.0516  0.0047  1.0000  -3.5704   0.0000   0.0000   0.0000   0.2847
   8.400   1.1657   0.01693   0.00928  -0.0511  0.0045  1.0000  -3.6654   0.0000   0.0000   0.0000   0.2838
   8.500   1.1732   0.01714   0.00952  -0.0506  0.0044  1.0000  -3.7602   0.0000   0.0000   0.0000   0.2829
   8.600   1.1805   0.01736   0.00978  -0.0500  0.0043  1.0000  -3.8545   0.0000   0.0000   0.0000   0.2821
   8.700   1.1877   0.01759   0.01005  -0.0495  0.0042  1.0000  -3.9482   0.0000   0.0000   0.0000   0.2812
   8.800   1.1944   0.01783   0.01033  -0.0488  0.0041  1.0000  -4.0401   0.0000   0.0000   0.0000   0.2803
   8.900   1.2006   0.01807   0.01061  -0.0481  0.0041  1.0000  -4.1293   0.0000   0.0000   0.0000   0.2793
   9.000   1.2064   0.01833   0.01091  -0.0473  0.0041  1.0000  -4.2164   0.0000   0.0000   0.0000   0.2783
   9.100   1.2118   0.01861   0.01123  -0.0464  0.0041  1.0000  -4.3012   0.0000   0.0000   0.0000   0.2773
   9.200   1.2169   0.01890   0.01158  -0.0455  0.0041  1.0000  -4.3840   0.0000   0.0000   0.0000   0.2762
   9.300   1.2217   0.01922   0.01194  -0.0446  0.0041  1.0000  -4.4658   0.0000   0.0000   0.0000   0.2752
   9.400   1.2256   0.01960   0.01243  -0.0436  0.0040  1.0000  -4.5610   0.0000   0.0000   0.0000   0.2741
   9.500   1.2296   0.01999   0.01286  -0.0426  0.0040  1.0000  -4.6428   0.0000   0.0000   0.0000   0.2730
   9.600   1.2332   0.02039   0.01332  -0.0416  0.0040  1.0000  -4.7203   0.0000   0.0000   0.0000   0.2720
   9.700   1.2365   0.02082   0.01381  -0.0406  0.0041  1.0000  -4.7942   0.0000   0.0000   0.0000   0.2709
   9.800   1.2395   0.02128   0.01432  -0.0396  0.0041  1.0000  -4.8652   0.0000   0.0000   0.0000   0.2699
   9.900   1.2422   0.02177   0.01486  -0.0385  0.0041  1.0000  -4.9328   0.0000   0.0000   0.0000   0.2688
  10.000   1.2445   0.02229   0.01543  -0.0375  0.0041  1.0000  -4.9973   0.0000   0.0000   0.0000   0.2678
  10.100   1.2463   0.02284   0.01605  -0.0365  0.0042  1.0000  -5.0581   0.0000   0.0000   0.0000   0.2667
  10.200   1.2478   0.02344   0.01670  -0.0354  0.0042  1.0000  -5.1156   0.0000   0.0000   0.0000   0.2657
  10.300   1.2490   0.02407   0.01738  -0.0344  0.0042  1.0000  -5.1705   0.0000   0.0000   0.0000   0.2647
  10.400   1.2498   0.02474   0.01812  -0.0334  0.0043  1.0000  -5.2217   0.0000   0.0000   0.0000   0.2637
  10.500   1.2503   0.02545   0.01888  -0.0324  0.0043  1.0000  -5.2704   0.0000   0.0000   0.0000   0.2627
  10.600   1.2504   0.02619   0.01968  -0.0314  0.0044  1.0000  -5.3159   0.0000   0.0000   0.0000   0.2618
  10.700   1.2502   0.02698   0.02053  -0.0304  0.0044  1.0000  -5.3585   0.0000   0.0000   0.0000   0.2608
  10.800   1.2500   0.02780   0.02141  -0.0295  0.0045  1.0000  -5.3993   0.0000   0.0000   0.0000   0.2599
  10.900   1.2494   0.02867   0.02234  -0.0285  0.0045  1.0000  -5.4366   0.0000   0.0000   0.0000   0.2590
  11.000   1.2485   0.02959   0.02332  -0.0277  0.0045  1.0000  -5.4715   0.0000   0.0000   0.0000   0.2581
  11.100   1.2477   0.03053   0.02432  -0.0268  0.0046  1.0000  -5.5046   0.0000   0.0000   0.0000   0.2573
  11.200   1.2465   0.03152   0.02537  -0.0260  0.0046  1.0000  -5.5338   0.0000   0.0000   0.0000   0.2565
  11.300   1.2450   0.03255   0.02646  -0.0251  0.0047  1.0000  -5.5597   0.0000   0.0000   0.0000   0.2556
  11.400   1.2434   0.03360   0.02756  -0.0243  0.0047  1.0000  -5.5829   0.0000   0.0000   0.0000   0.2548
  11.500   1.2417   0.03470   0.02872  -0.0235  0.0048  1.0000  -5.6021   0.0000   0.0000   0.0000   0.2540
  11.600   1.2396   0.03587   0.02996  -0.0227  0.0049  1.0000  -5.6156   0.0000   0.0000   0.0000   0.2532
  11.700   1.2374   0.03711   0.03126  -0.0218  0.0049  1.0000  -5.6220   0.0000   0.0000   0.0000   0.2524
  11.800   1.2347   0.03846   0.03268  -0.0209  0.0050  1.0000  -5.6130   0.0000   0.0000   0.0000   0.2516
  11.900   1.2284   0.04055   0.03487  -0.0193  0.0053  1.0000  -5.5009   0.0000   0.0000   0.0000   0.2502
  12.000   1.2328   0.04104   0.03538  -0.0191  0.0054  1.0000  -5.6008   0.0000   0.0000   0.0000   0.2498
  12.100   1.2368   0.04159   0.03595  -0.0189  0.0055  1.0000  -5.6967   0.0000   0.0000   0.0000   0.2494
  12.200   1.2406   0.04217   0.03656  -0.0188  0.0056  1.0000  -5.7896   0.0000   0.0000   0.0000   0.2490
  12.300   1.2444   0.04277   0.03718  -0.0186  0.0057  1.0000  -5.8814   0.0000   0.0000   0.0000   0.2487
  12.400   1.2483   0.04338   0.03782  -0.0184  0.0058  1.0000  -5.9710   0.0000   0.0000   0.0000   0.2483
  12.500   1.2520   0.04402   0.03850  -0.0182  0.0060  1.0000  -6.0551   0.0000   0.0000   0.0000   0.2479
  12.600   1.2556   0.04472   0.03925  -0.0179  0.0062  1.0000  -6.1254   0.0000   0.0000   0.0000   0.2474
  17.800   0.9506   0.20673   0.20459  -0.0820  0.0163  1.0000  -2.5181   0.0000   0.0000   0.0000   0.3142
  17.900   0.9512   0.20914   0.20700  -0.0831  0.0160  1.0000  -2.4923   0.0000   0.0000   0.0000   0.3153
  18.000   0.9518   0.21149   0.20934  -0.0842  0.0157  1.0000  -2.4706   0.0000   0.0000   0.0000   0.3162
  18.100   0.9527   0.21376   0.21161  -0.0853  0.0155  1.0000  -2.4527   0.0000   0.0000   0.0000   0.3171
  18.200   0.9536   0.21598   0.21383  -0.0863  0.0152  1.0000  -2.4380   0.0000   0.0000   0.0000   0.3180
  18.300   0.9547   0.21814   0.21599  -0.0873  0.0150  1.0000  -2.4266   0.0000   0.0000   0.0000   0.3188
  18.400   0.9559   0.22025   0.21810  -0.0882  0.0148  1.0000  -2.4184   0.0000   0.0000   0.0000   0.3195
  18.500   0.9571   0.22231   0.22016  -0.0891  0.0145  1.0000  -2.4130   0.0000   0.0000   0.0000   0.3202
  18.600   0.9585   0.22433   0.22217  -0.0900  0.0143  1.0000  -2.4104   0.0000   0.0000   0.0000   0.3209
  18.700   0.9600   0.22631   0.22415  -0.0909  0.0142  1.0000  -2.4104   0.0000   0.0000   0.0000   0.3215
  18.800   0.9615   0.22824   0.22608  -0.0917  0.0140  1.0000  -2.4131   0.0000   0.0000   0.0000   0.3221
  18.900   0.9632   0.23013   0.22797  -0.0926  0.0138  1.0000  -2.4185   0.0000   0.0000   0.0000   0.3226
  19.000   0.9649   0.23197   0.22982  -0.0934  0.0136  1.0000  -2.4266   0.0000   0.0000   0.0000   0.3231
  19.100   0.9666   0.23381   0.23165  -0.0942  0.0135  1.0000  -2.4360   0.0000   0.0000   0.0000   0.3236
  19.200   0.9684   0.23561   0.23345  -0.0949  0.0133  1.0000  -2.4477   0.0000   0.0000   0.0000   0.3240
  19.300   0.9702   0.23737   0.23522  -0.0957  0.0132  1.0000  -2.4620   0.0000   0.0000   0.0000   0.3244
  19.400   0.9721   0.23910   0.23695  -0.0964  0.0130  1.0000  -2.4788   0.0000   0.0000   0.0000   0.3248
  19.500   0.9741   0.24079   0.23864  -0.0971  0.0129  1.0000  -2.4981   0.0000   0.0000   0.0000   0.3251
  19.600   0.9760   0.24245   0.24030  -0.0978  0.0128  1.0000  -2.5199   0.0000   0.0000   0.0000   0.3254
  19.700   0.9780   0.24407   0.24193  -0.0984  0.0126  1.0000  -2.5440   0.0000   0.0000   0.0000   0.3257
  19.800   0.9798   0.24583   0.24368  -0.0991  0.0125  1.0000  -2.5624   0.0000   0.0000   0.0000   0.3260
  19.900   0.9811   0.24778   0.24564  -0.0999  0.0123  1.0000  -2.5708   0.0000   0.0000   0.0000   0.3265
  20.000   0.9818   0.24993   0.24779  -0.1007  0.0121  1.0000  -2.5700   0.0000   0.0000   0.0000   0.3271
  20.100   0.9716   0.25807   0.25589  -0.1028  0.0114  1.0000  -2.2591   0.0000   0.0000   0.0000   0.3305
  20.200   0.9731   0.26042   0.25824  -0.1037  0.0114  1.0000  -2.2425   0.0000   0.0000   0.0000   0.3311
  20.300   0.9746   0.26275   0.26057  -0.1045  0.0114  1.0000  -2.2263   0.0000   0.0000   0.0000   0.3316
  20.400   0.9761   0.26509   0.26291  -0.1054  0.0114  1.0000  -2.2108   0.0000   0.0000   0.0000   0.3322
  20.500   0.9776   0.26741   0.26523  -0.1062  0.0114  1.0000  -2.1958   0.0000   0.0000   0.0000   0.3328
  20.600   0.9791   0.26973   0.26755  -0.1071  0.0114  1.0000  -2.1813   0.0000   0.0000   0.0000   0.3333
  20.700   0.9806   0.27204   0.26987  -0.1079  0.0114  1.0000  -2.1673   0.0000   0.0000   0.0000   0.3339
  20.800   0.9822   0.27435   0.27217  -0.1088  0.0114  1.0000  -2.1539   0.0000   0.0000   0.0000   0.3344
  20.900   0.9837   0.27665   0.27447  -0.1096  0.0114  1.0000  -2.1409   0.0000   0.0000   0.0000   0.3349
  21.000   0.9852   0.27893   0.27676  -0.1104  0.0113  1.0000  -2.1285   0.0000   0.0000   0.0000   0.3355
  21.100   0.9868   0.28121   0.27904  -0.1113  0.0113  1.0000  -2.1166   0.0000   0.0000   0.0000   0.3360
  21.200   0.9884   0.28348   0.28131  -0.1121  0.0113  1.0000  -2.1054   0.0000   0.0000   0.0000   0.3365
  21.300   0.9899   0.28573   0.28356  -0.1130  0.0113  1.0000  -2.0947   0.0000   0.0000   0.0000   0.3370
  21.400   0.9915   0.28796   0.28580  -0.1138  0.0113  1.0000  -2.0848   0.0000   0.0000   0.0000   0.3375
  21.500   0.9932   0.29017   0.28801  -0.1146  0.0112  1.0000  -2.0757   0.0000   0.0000   0.0000   0.3380
  21.600   0.9948   0.29235   0.29019  -0.1155  0.0112  1.0000  -2.0677   0.0000   0.0000   0.0000   0.3385
  21.700   0.9966   0.29449   0.29233  -0.1163  0.0111  1.0000  -2.0609   0.0000   0.0000   0.0000   0.3389
  21.800   0.9985   0.29657   0.29441  -0.1172  0.0110  1.0000  -2.0553   0.0000   0.0000   0.0000   0.3394
  21.900   1.0006   0.29862   0.29646  -0.1180  0.0108  1.0000  -2.0497   0.0000   0.0000   0.0000   0.3399
  22.000   1.0021   0.30096   0.29880  -0.1191  0.0106  1.0000  -2.0251   0.0000   0.0000   0.0000   0.3406
  22.100   1.0036   0.30341   0.30126  -0.1201  0.0103  1.0000  -1.9970   0.0000   0.0000   0.0000   0.3413
  22.200   1.0051   0.30586   0.30371  -0.1211  0.0101  1.0000  -1.9729   0.0000   0.0000   0.0000   0.3419
  22.300   1.0065   0.30828   0.30612  -0.1219  0.0098  1.0000  -1.9534   0.0000   0.0000   0.0000   0.3425
  22.400   1.0078   0.31066   0.30851  -0.1227  0.0096  1.0000  -1.9378   0.0000   0.0000   0.0000   0.3430
  22.500   1.0091   0.31302   0.31087  -0.1235  0.0094  1.0000  -1.9250   0.0000   0.0000   0.0000   0.3434
  22.600   1.0103   0.31535   0.31320  -0.1243  0.0092  1.0000  -1.9142   0.0000   0.0000   0.0000   0.3439
  22.700   1.0115   0.31767   0.31552  -0.1250  0.0090  1.0000  -1.9050   0.0000   0.0000   0.0000   0.3443
  22.800   1.0126   0.31997   0.31783  -0.1257  0.0088  1.0000  -1.8971   0.0000   0.0000   0.0000   0.3447
  22.900   1.0137   0.32226   0.32012  -0.1265  0.0087  1.0000  -1.8902   0.0000   0.0000   0.0000   0.3451
  23.000   1.0147   0.32454   0.32241  -0.1272  0.0085  1.0000  -1.8842   0.0000   0.0000   0.0000   0.3455
  23.100   1.0157   0.32682   0.32469  -0.1279  0.0083  1.0000  -1.8789   0.0000   0.0000   0.0000   0.3459
  23.200   1.0167   0.32908   0.32696  -0.1286  0.0082  1.0000  -1.8743   0.0000   0.0000   0.0000   0.3463
  23.300   1.0176   0.33133   0.32920  -0.1293  0.0080  1.0000  -1.8713   0.0000   0.0000   0.0000   0.3467
  23.400   1.0184   0.33354   0.33142  -0.1299  0.0079  1.0000  -1.8710   0.0000   0.0000   0.0000   0.3470
  23.500   1.0193   0.33573   0.33361  -0.1306  0.0077  1.0000  -1.8718   0.0000   0.0000   0.0000   0.3474
  23.600   1.0200   0.33790   0.33579  -0.1313  0.0075  1.0000  -1.8736   0.0000   0.0000   0.0000   0.3478
  23.700   1.0207   0.34006   0.33796  -0.1319  0.0074  1.0000  -1.8763   0.0000   0.0000   0.0000   0.3481
  23.800   1.0213   0.34221   0.34010  -0.1325  0.0072  1.0000  -1.8801   0.0000   0.0000   0.0000   0.3485
  23.900   1.0219   0.34433   0.34223  -0.1331  0.0071  1.0000  -1.8848   0.0000   0.0000   0.0000   0.3488
  24.000   1.0224   0.34643   0.34434  -0.1337  0.0070  1.0000  -1.8907   0.0000   0.0000   0.0000   0.3491
  24.100   1.0228   0.34851   0.34642  -0.1343  0.0069  1.0000  -1.8975   0.0000   0.0000   0.0000   0.3495
  24.200   1.0231   0.35057   0.34849  -0.1349  0.0067  1.0000  -1.9052   0.0000   0.0000   0.0000   0.3498
  24.300   1.0233   0.35264   0.35059  -0.1354  0.0066  1.0000  -1.9118   0.0000   0.0000   0.0000   0.3501
  24.400   1.0233   0.35466   0.35262  -0.1359  0.0065  1.0000  -1.9208   0.0000   0.0000   0.0000   0.3504
  24.500   1.0233   0.35665   0.35461  -0.1364  0.0064  1.0000  -1.9307   0.0000   0.0000   0.0000   0.3507
  24.600   1.0231   0.35860   0.35658  -0.1369  0.0064  1.0000  -1.9416   0.0000   0.0000   0.0000   0.3510
  24.700   1.0227   0.36053   0.35851  -0.1373  0.0063  1.0000  -1.9532   0.0000   0.0000   0.0000   0.3513
  24.800   1.0220   0.36241   0.36040  -0.1377  0.0062  1.0000  -1.9655   0.0000   0.0000   0.0000   0.3516
  24.900   1.0212   0.36425   0.36225  -0.1381  0.0061  1.0000  -1.9782   0.0000   0.0000   0.0000   0.3518
  25.000   1.0199   0.36604   0.36405  -0.1384  0.0060  1.0000  -1.9910   0.0000   0.0000   0.0000   0.3521
  25.100   1.0183   0.36776   0.36578  -0.1387  0.0060  1.0000  -2.0034   0.0000   0.0000   0.0000   0.3524
  25.200   1.0159   0.36939   0.36742  -0.1388  0.0059  1.0000  -2.0144   0.0000   0.0000   0.0000   0.3527
  25.300   1.0125   0.37088   0.36892  -0.1388  0.0058  1.0000  -2.0222   0.0000   0.0000   0.0000   0.3530
  25.400   0.8860   0.34333   0.34154  -0.1234  0.0061  1.0000  -1.5578   0.0000   0.0000   0.0000   0.3582
  25.500   0.8824   0.34308   0.34130  -0.1233  0.0061  1.0000  -1.5590   0.0000   0.0000   0.0000   0.3586
  25.600   0.8791   0.34288   0.34112  -0.1233  0.0060  1.0000  -1.5624   0.0000   0.0000   0.0000   0.3590
  25.700   0.8761   0.34272   0.34097  -0.1233  0.0059  1.0000  -1.5679   0.0000   0.0000   0.0000   0.3594
  25.800   0.8734   0.34258   0.34083  -0.1233  0.0059  1.0000  -1.5751   0.0000   0.0000   0.0000   0.3597
  25.900   0.8708   0.34244   0.34070  -0.1233  0.0058  1.0000  -1.5839   0.0000   0.0000   0.0000   0.3600
  26.000   0.8683   0.34230   0.34057  -0.1233  0.0057  1.0000  -1.5942   0.0000   0.0000   0.0000   0.3603
  26.100   0.8660   0.34215   0.34043  -0.1233  0.0057  1.0000  -1.6055   0.0000   0.0000   0.0000   0.3605
  26.200   0.8635   0.34199   0.34028  -0.1232  0.0056  1.0000  -1.6151   0.0000   0.0000   0.0000   0.3607
  26.300   0.8599   0.34191   0.34022  -0.1231  0.0055  1.0000  -1.5997   0.0000   0.0000   0.0000   0.3611
  26.400   0.8473   0.34202   0.34031  -0.1223  0.0052  1.0000  -1.3961   0.0000   0.0000   0.0000   0.3626
  26.500   0.8455   0.34233   0.34064  -0.1225  0.0052  1.0000  -1.3828   0.0000   0.0000   0.0000   0.3631
  26.600   0.8438   0.34266   0.34098  -0.1227  0.0052  1.0000  -1.3700   0.0000   0.0000   0.0000   0.3635
  26.700   0.8422   0.34301   0.34133  -0.1230  0.0052  1.0000  -1.3575   0.0000   0.0000   0.0000   0.3640
  26.800   0.8407   0.34336   0.34169  -0.1232  0.0052  1.0000  -1.3453   0.0000   0.0000   0.0000   0.3644
  26.900   0.8393   0.34373   0.34206  -0.1235  0.0052  1.0000  -1.3335   0.0000   0.0000   0.0000   0.3648
  27.000   0.8379   0.34410   0.34245  -0.1237  0.0052  1.0000  -1.3220   0.0000   0.0000   0.0000   0.3653
  27.100   0.8366   0.34450   0.34285  -0.1240  0.0052  1.0000  -1.3108   0.0000   0.0000   0.0000   0.3657
  27.200   0.8353   0.34489   0.34324  -0.1243  0.0052  1.0000  -1.2999   0.0000   0.0000   0.0000   0.3661
  27.300   0.8341   0.34529   0.34365  -0.1246  0.0052  1.0000  -1.2892   0.0000   0.0000   0.0000   0.3666
  27.400   0.8330   0.34570   0.34407  -0.1249  0.0052  1.0000  -1.2788   0.0000   0.0000   0.0000   0.3670
  27.500   0.8319   0.34611   0.34449  -0.1252  0.0052  1.0000  -1.2686   0.0000   0.0000   0.0000   0.3674
  27.600   0.8308   0.34653   0.34492  -0.1255  0.0052  1.0000  -1.2587   0.0000   0.0000   0.0000   0.3678
  27.700   0.8298   0.34696   0.34535  -0.1258  0.0052  1.0000  -1.2490   0.0000   0.0000   0.0000   0.3682
  27.800   0.8288   0.34740   0.34579  -0.1261  0.0052  1.0000  -1.2395   0.0000   0.0000   0.0000   0.3686
  27.900   0.8279   0.34784   0.34624  -0.1264  0.0052  1.0000  -1.2300   0.0000   0.0000   0.0000   0.3690
  28.000   0.8270   0.34828   0.34669  -0.1267  0.0052  1.0000  -1.2207   0.0000   0.0000   0.0000   0.3694
  28.100   0.8261   0.34873   0.34715  -0.1271  0.0052  1.0000  -1.2117   0.0000   0.0000   0.0000   0.3698
  28.200   0.8252   0.34919   0.34761  -0.1274  0.0052  1.0000  -1.2028   0.0000   0.0000   0.0000   0.3702
  28.300   0.8244   0.34965   0.34808  -0.1277  0.0051  1.0000  -1.1941   0.0000   0.0000   0.0000   0.3706
  28.400   0.8236   0.35012   0.34855  -0.1281  0.0051  1.0000  -1.1856   0.0000   0.0000   0.0000   0.3710
  28.500   0.8229   0.35059   0.34903  -0.1284  0.0051  1.0000  -1.1773   0.0000   0.0000   0.0000   0.3714
  28.600   0.8222   0.35106   0.34951  -0.1287  0.0051  1.0000  -1.1691   0.0000   0.0000   0.0000   0.3718
  28.700   0.8215   0.35154   0.34999  -0.1291  0.0051  1.0000  -1.1611   0.0000   0.0000   0.0000   0.3721
  28.800   0.8208   0.35202   0.35048  -0.1294  0.0051  1.0000  -1.1533   0.0000   0.0000   0.0000   0.3725
  28.900   0.8201   0.35250   0.35097  -0.1298  0.0051  1.0000  -1.1456   0.0000   0.0000   0.0000   0.3729
  29.000   0.8195   0.35299   0.35147  -0.1301  0.0051  1.0000  -1.1381   0.0000   0.0000   0.0000   0.3733
  29.100   0.8189   0.35348   0.35196  -0.1305  0.0051  1.0000  -1.1307   0.0000   0.0000   0.0000   0.3736
  29.200   0.8183   0.35398   0.35246  -0.1308  0.0051  1.0000  -1.1234   0.0000   0.0000   0.0000   0.3740
  29.300   0.8177   0.35447   0.35297  -0.1312  0.0051  1.0000  -1.1163   0.0000   0.0000   0.0000   0.3744
  29.400   0.8172   0.35497   0.35347  -0.1316  0.0051  1.0000  -1.1093   0.0000   0.0000   0.0000   0.3748
  29.500   0.8166   0.35548   0.35399  -0.1319  0.0051  1.0000  -1.1022   0.0000   0.0000   0.0000   0.3751
  29.600   0.8161   0.35599   0.35450  -0.1323  0.0051  1.0000  -1.0951   0.0000   0.0000   0.0000   0.3755
  29.700   0.8156   0.35650   0.35502  -0.1327  0.0051  1.0000  -1.0882   0.0000   0.0000   0.0000   0.3758
  29.800   0.8151   0.35701   0.35554  -0.1330  0.0051  1.0000  -1.0815   0.0000   0.0000   0.0000   0.3762
  29.900   0.8146   0.35753   0.35606  -0.1334  0.0051  1.0000  -1.0748   0.0000   0.0000   0.0000   0.3766
  30.000   0.8141   0.35804   0.35660  -0.1338  0.0051  1.0000  -1.0683   0.0000   0.0000   0.0000   0.3769


