xflr5 v6.61

 Calculated polar for: S7075 (9%)

 1 1 Reynolds number fixed          Mach number fixed         

 xtrf =   1.000 (top)        1.000 (bottom)
 Mach =   0.000     Re =     0.719 e 6     Ncrit =   9.000

  alpha     CL        CD       CDp       Cm    Top Xtr Bot Xtr   Cpmin    Chinge    XCp    
 ------- -------- --------- --------- -------- ------- ------- -------- --------- ---------
 -10.000  -0.3726   0.10736   0.10530  -0.0331  1.0000  0.0156  -1.7818   0.0000   0.0000   0.0000   0.1531
  -9.900  -0.3711   0.10604   0.10399  -0.0336  1.0000  0.0156  -1.7785   0.0000   0.0000   0.0000   0.1516
  -9.800  -0.3696   0.10472   0.10269  -0.0340  1.0000  0.0156  -1.7752   0.0000   0.0000   0.0000   0.1502
  -9.700  -0.3683   0.10342   0.10139  -0.0344  1.0000  0.0156  -1.7722   0.0000   0.0000   0.0000   0.1488
  -9.600  -0.3671   0.10212   0.10010  -0.0348  1.0000  0.0156  -1.7694   0.0000   0.0000   0.0000   0.1475
  -9.500  -0.3661   0.10084   0.09883  -0.0352  1.0000  0.0157  -1.7670   0.0000   0.0000   0.0000   0.1464
  -9.400  -0.3653   0.09958   0.09757  -0.0355  1.0000  0.0157  -1.7651   0.0000   0.0000   0.0000   0.1455
  -9.300  -0.3648   0.09834   0.09634  -0.0357  1.0000  0.0157  -1.7637   0.0000   0.0000   0.0000   0.1447
  -9.200  -0.3645   0.09713   0.09514  -0.0359  1.0000  0.0157  -1.7630   0.0000   0.0000   0.0000   0.1443
  -9.100  -0.3646   0.09595   0.09398  -0.0360  1.0000  0.0157  -1.7640   0.0000   0.0000   0.0000   0.1441
  -9.000  -0.3653   0.09484   0.09288  -0.0359  1.0000  0.0157  -1.7762   0.0000   0.0000   0.0000   0.1446
  -8.900  -0.3672   0.09386   0.09191  -0.0356  1.0000  0.0157  -1.7889   0.0000   0.0000   0.0000   0.1462
  -8.800  -0.3709   0.09309   0.09116  -0.0347  1.0000  0.0157  -1.8023   0.0000   0.0000   0.0000   0.1497
  -8.700  -0.3766   0.09254   0.09063  -0.0333  1.0000  0.0157  -1.8163   0.0000   0.0000   0.0000   0.1550
  -7.500  -0.3350   0.05981   0.05792  -0.0727  0.9849  0.0165  -2.5439   0.0000   0.0000   0.0000   0.0266
  -7.400  -0.3267   0.05546   0.05352  -0.0792  0.9839  0.0169  -2.6217   0.0000   0.0000   0.0000   0.0013
  -7.300  -0.3208   0.05306   0.05108  -0.0821  0.9816  0.0172  -2.6298   0.0000   0.0000   0.0000  -0.0124
  -7.200  -0.3126   0.05104   0.04902  -0.0848  0.9799  0.0175  -2.6096   0.0000   0.0000   0.0000  -0.0278
  -7.100  -0.3033   0.05017   0.04813  -0.0863  0.9788  0.0178  -2.5274   0.0000   0.0000   0.0000  -0.0409
  -7.000  -0.2936   0.04897   0.04690  -0.0880  0.9776  0.0182  -2.4655   0.0000   0.0000   0.0000  -0.0562
  -6.900  -0.2837   0.04745   0.04534  -0.0901  0.9764  0.0185  -2.4237   0.0000   0.0000   0.0000  -0.0742
  -6.800  -0.2733   0.04571   0.04355  -0.0924  0.9752  0.0188  -2.3966   0.0000   0.0000   0.0000  -0.0947
  -6.700  -0.2629   0.04384   0.04163  -0.0947  0.9741  0.0191  -2.3799   0.0000   0.0000   0.0000  -0.1169
  -6.600  -0.2524   0.04194   0.03966  -0.0968  0.9730  0.0195  -2.3695   0.0000   0.0000   0.0000  -0.1406
  -6.500  -0.2425   0.04013   0.03777  -0.0986  0.9716  0.0198  -2.3625   0.0000   0.0000   0.0000  -0.1638
  -6.400  -0.2369   0.03868   0.03625  -0.0990  0.9685  0.0201  -2.3611   0.0000   0.0000   0.0000  -0.1753
  -6.300  -0.2291   0.03713   0.03463  -0.0999  0.9660  0.0204  -2.3564   0.0000   0.0000   0.0000  -0.1933
  -6.200  -0.2205   0.03559   0.03299  -0.1008  0.9639  0.0208  -2.3504   0.0000   0.0000   0.0000  -0.2147
  -6.100  -0.2114   0.03409   0.03140  -0.1016  0.9620  0.0213  -2.3430   0.0000   0.0000   0.0000  -0.2385
  -6.000  -0.2021   0.03265   0.02987  -0.1023  0.9603  0.0217  -2.3349   0.0000   0.0000   0.0000  -0.2643
  -5.900  -0.1927   0.03130   0.02841  -0.1029  0.9587  0.0223  -2.3261   0.0000   0.0000   0.0000  -0.2921
  -5.800  -0.1831   0.03007   0.02708  -0.1033  0.9571  0.0229  -2.3138   0.0000   0.0000   0.0000  -0.3231
  -5.700  -0.1756   0.02907   0.02599  -0.1031  0.9547  0.0235  -2.3012   0.0000   0.0000   0.0000  -0.3461
  -5.600  -0.1672   0.02819   0.02502  -0.1029  0.9524  0.0242  -2.2827   0.0000   0.0000   0.0000  -0.3747
  -5.500  -0.1578   0.02753   0.02428  -0.1028  0.9504  0.0250  -2.2532   0.0000   0.0000   0.0000  -0.4109
  -5.400  -0.1472   0.02729   0.02399  -0.1026  0.9487  0.0258  -2.2034   0.0000   0.0000   0.0000  -0.4572
  -5.300  -0.1349   0.02782   0.02450  -0.1023  0.9473  0.0267  -2.1186   0.0000   0.0000   0.0000  -0.5189
  -5.200  -0.1241   0.02777   0.02437  -0.1021  0.9457  0.0270  -2.0617   0.0000   0.0000   0.0000  -0.5843
  -5.100  -0.1144   0.02715   0.02366  -0.1021  0.9440  0.0271  -2.0285   0.0000   0.0000   0.0000  -0.6547
  -5.000  -0.1049   0.02639   0.02280  -0.1020  0.9424  0.0272  -2.0012   0.0000   0.0000   0.0000  -0.7357
  -4.900  -0.0955   0.02559   0.02189  -0.1020  0.9408  0.0272  -1.9757   0.0000   0.0000   0.0000  -0.8320
  -4.800  -0.0858   0.02478   0.02097  -0.1020  0.9391  0.0272  -1.9504   0.0000   0.0000   0.0000  -0.9537
  -4.700  -0.0851   0.01920   0.01493  -0.1023  0.9363  0.0294  -2.1399   0.0000   0.0000   0.0000  -0.9670
  -4.600  -0.0760   0.01847   0.01415  -0.1021  0.9344  0.0301  -2.0914   0.0000   0.0000   0.0000  -1.1114
  -4.500  -0.0663   0.01791   0.01355  -0.1020  0.9325  0.0307  -2.0377   0.0000   0.0000   0.0000  -1.3069
  -4.400  -0.0564   0.01741   0.01302  -0.1018  0.9308  0.0314  -1.9825   0.0000   0.0000   0.0000  -1.5793
  -4.300  -0.0462   0.01695   0.01252  -0.1017  0.9291  0.0320  -1.9282   0.0000   0.0000   0.0000  -1.9782
  -3.900  -0.0029   0.01214   0.00694  -0.0994  0.9223  0.0172  -2.2014   0.0000   0.0000   0.0000  -34.7175
  -3.800   0.0083   0.01213   0.00691  -0.0992  0.9207  0.0167  -2.1278   0.0000   0.0000   0.0000  12.2919
  -3.700   0.0197   0.01217   0.00695  -0.0991  0.9189  0.0163  -2.0475   0.0000   0.0000   0.0000   5.3460
  -3.600   0.0300   0.01172   0.00647  -0.0988  0.9175  0.0155  -2.0196   0.0000   0.0000   0.0000   3.5790
  -3.500   0.0396   0.01086   0.00554  -0.0984  0.9158  0.0150  -2.0307   0.0000   0.0000   0.0000   2.7635
  -3.400   0.0496   0.01036   0.00498  -0.0981  0.9141  0.0148  -2.0077   0.0000   0.0000   0.0000   2.2476
  -3.300   0.0599   0.00996   0.00453  -0.0979  0.9122  0.0145  -1.9751   0.0000   0.0000   0.0000   1.9003
  -3.200   0.0703   0.00962   0.00415  -0.0976  0.9104  0.0144  -1.9367   0.0000   0.0000   0.0000   1.6517
  -3.100   0.0809   0.00933   0.00381  -0.0974  0.9085  0.0142  -1.8940   0.0000   0.0000   0.0000   1.4655
  -3.000   0.0916   0.00908   0.00351  -0.0972  0.9066  0.0141  -1.8478   0.0000   0.0000   0.0000   1.3210
  -2.900   0.1024   0.00887   0.00325  -0.0971  0.9047  0.0140  -1.7986   0.0000   0.0000   0.0000   1.2059
  -2.800   0.1132   0.00867   0.00301  -0.0969  0.9029  0.0140  -1.7469   0.0000   0.0000   0.0000   1.1124
  -2.700   0.1241   0.00851   0.00280  -0.0967  0.9011  0.0141  -1.6934   0.0000   0.0000   0.0000   1.0350
  -2.600   0.1352   0.00838   0.00262  -0.0966  0.8992  0.0142  -1.6387   0.0000   0.0000   0.0000   0.9694
  -2.500   0.1464   0.00827   0.00246  -0.0965  0.8972  0.0144  -1.5835   0.0000   0.0000   0.0000   0.9134
  -2.400   0.1575   0.00818   0.00233  -0.0964  0.8953  0.0149  -1.5302   0.0000   0.0000   0.0000   0.8657
  -2.300   0.1684   0.00801   0.00213  -0.0961  0.8935  0.0218  -1.5210   0.0000   0.0000   0.0000   0.8243
  -2.200   0.1786   0.00764   0.00201  -0.0961  0.8915  0.0753  -1.4755   0.0000   0.0000   0.0000   0.7910
  -2.100   0.1892   0.00748   0.00196  -0.0960  0.8893  0.1028  -1.3989   0.0000   0.0000   0.0000   0.7601
  -2.000   0.1999   0.00735   0.00191  -0.0959  0.8870  0.1271  -1.3191   0.0000   0.0000   0.0000   0.7323
  -1.900   0.2107   0.00722   0.00186  -0.0959  0.8847  0.1484  -1.2386   0.0000   0.0000   0.0000   0.7071
  -1.800   0.2215   0.00712   0.00181  -0.0958  0.8824  0.1674  -1.1580   0.0000   0.0000   0.0000   0.6842
  -1.700   0.2324   0.00704   0.00176  -0.0957  0.8800  0.1820  -1.0766   0.0000   0.0000   0.0000   0.6633
  -1.600   0.2437   0.00707   0.00166  -0.0956  0.8776  0.1652  -0.9828   0.0000   0.0000   0.0000   0.6435
  -1.500   0.2546   0.00697   0.00162  -0.0955  0.8751  0.1883  -0.9078   0.0000   0.0000   0.0000   0.6262
  -1.400   0.2656   0.00686   0.00158  -0.0955  0.8724  0.2155  -0.8336   0.0000   0.0000   0.0000   0.6104
  -1.300   0.2764   0.00674   0.00156  -0.0954  0.8700  0.2467  -0.7611   0.0000   0.0000   0.0000   0.5961
  -1.200   0.2870   0.00661   0.00154  -0.0954  0.8676  0.2785  -0.6906   0.0000   0.0000   0.0000   0.5829
  -1.100   0.2977   0.00648   0.00152  -0.0953  0.8649  0.3117  -0.6210   0.0000   0.0000   0.0000   0.5706
  -1.000   0.3083   0.00635   0.00150  -0.0952  0.8618  0.3472  -0.5527   0.0000   0.0000   0.0000   0.5592
  -0.900   0.3189   0.00621   0.00147  -0.0952  0.8588  0.3860  -0.4857   0.0000   0.0000   0.0000   0.5485
  -0.800   0.3296   0.00607   0.00145  -0.0951  0.8556  0.4271  -0.4912   0.0000   0.0000   0.0000   0.5385
  -0.700   0.3401   0.00590   0.00143  -0.0950  0.8523  0.4824  -0.4997   0.0000   0.0000   0.0000   0.5292
  -0.600   0.3501   0.00564   0.00142  -0.0948  0.8490  0.5675  -0.5087   0.0000   0.0000   0.0000   0.5206
  -0.500   0.3592   0.00535   0.00144  -0.0944  0.8455  0.6721  -0.5174   0.0000   0.0000   0.0000   0.5124
  -0.400   0.3678   0.00516   0.00152  -0.0937  0.8424  0.7572  -0.5258   0.0000   0.0000   0.0000   0.5044
  -0.300   0.3768   0.00508   0.00158  -0.0931  0.8391  0.8019  -0.5344   0.0000   0.0000   0.0000   0.4965
  -0.200   0.3868   0.00506   0.00160  -0.0927  0.8352  0.8263  -0.5435   0.0000   0.0000   0.0000   0.4890
  -0.100   0.3963   0.00502   0.00160  -0.0922  0.8308  0.8425  -0.5529   0.0000   0.0000   0.0000   0.4819
   0.000   0.4069   0.00502   0.00159  -0.0919  0.8262  0.8528  -0.5634   0.0000   0.0000   0.0000   0.4751
   0.100   0.4176   0.00502   0.00156  -0.0917  0.8216  0.8591  -0.5740   0.0000   0.0000   0.0000   0.4687
   0.200   0.4278   0.00500   0.00153  -0.0914  0.8169  0.8660  -0.5851   0.0000   0.0000   0.0000   0.4626
   0.300   0.4382   0.00498   0.00153  -0.0911  0.8127  0.8723  -0.5967   0.0000   0.0000   0.0000   0.4569
   0.400   0.4487   0.00497   0.00152  -0.0909  0.8075  0.8784  -0.6084   0.0000   0.0000   0.0000   0.4514
   0.500   0.4593   0.00496   0.00151  -0.0907  0.8012  0.8842  -0.6201   0.0000   0.0000   0.0000   0.4462
   0.600   0.4693   0.00495   0.00148  -0.0903  0.7942  0.8910  -0.6316   0.0000   0.0000   0.0000   0.4411
   0.700   0.4789   0.00494   0.00145  -0.0899  0.7868  0.8988  -0.6429   0.0000   0.0000   0.0000   0.4362
   0.800   0.4890   0.00492   0.00145  -0.0895  0.7801  0.9064  -0.6552   0.0000   0.0000   0.0000   0.4316
   1.000   0.5089   0.00492   0.00144  -0.0888  0.7623  0.9205  -0.6809   0.0000   0.0000   0.0000   0.4228
   1.100   0.5187   0.00493   0.00142  -0.0884  0.7532  0.9290  -0.6938   0.0000   0.0000   0.0000   0.4186
   1.200   0.5293   0.00493   0.00141  -0.0882  0.7451  0.9384  -0.7072   0.0000   0.0000   0.0000   0.4147
   1.300   0.5410   0.00493   0.00140  -0.0882  0.7356  0.9510  -0.7220   0.0000   0.0000   0.0000   0.4111
   1.400   0.5551   0.00497   0.00138  -0.0888  0.7244  0.9659  -0.7398   0.0000   0.0000   0.0000   0.4079
   1.500   0.5712   0.00500   0.00138  -0.0898  0.7143  0.9854  -0.7594   0.0000   0.0000   0.0000   0.4052
   1.600   0.5838   0.00505   0.00138  -0.0902  0.7029  1.0000  -0.7784   0.0000   0.0000   0.0000   0.4023
   1.700   0.5939   0.00514   0.00139  -0.0900  0.6911  1.0000  -0.7953   0.0000   0.0000   0.0000   0.3992
   1.800   0.6046   0.00520   0.00141  -0.0899  0.6819  1.0000  -0.8128   0.0000   0.0000   0.0000   0.3963
   1.900   0.6153   0.00525   0.00143  -0.0898  0.6717  1.0000  -0.8304   0.0000   0.0000   0.0000   0.3935
   2.000   0.6254   0.00534   0.00146  -0.0896  0.6597  1.0000  -0.8476   0.0000   0.0000   0.0000   0.3907
   2.100   0.6357   0.00543   0.00148  -0.0894  0.6486  1.0000  -0.8670   0.0000   0.0000   0.0000   0.3880
   2.200   0.6463   0.00549   0.00151  -0.0893  0.6375  1.0000  -0.8874   0.0000   0.0000   0.0000   0.3855
   2.300   0.6563   0.00560   0.00154  -0.0891  0.6243  1.0000  -0.9072   0.0000   0.0000   0.0000   0.3830
   2.400   0.6665   0.00569   0.00157  -0.0889  0.6127  1.0000  -0.9280   0.0000   0.0000   0.0000   0.3805
   2.500   0.6771   0.00575   0.00161  -0.0888  0.6019  1.0000  -0.9520   0.0000   0.0000   0.0000   0.3782
   2.600   0.6872   0.00586   0.00165  -0.0886  0.5894  1.0000  -0.9754   0.0000   0.0000   0.0000   0.3759
   2.700   0.6972   0.00596   0.00169  -0.0884  0.5780  1.0000  -1.0003   0.0000   0.0000   0.0000   0.3737
   2.800   0.7080   0.00602   0.00172  -0.0883  0.5690  1.0000  -1.0293   0.0000   0.0000   0.0000   0.3716
   2.900   0.7183   0.00611   0.00177  -0.0882  0.5571  1.0000  -1.0577   0.0000   0.0000   0.0000   0.3695
   3.000   0.7279   0.00625   0.00182  -0.0879  0.5428  1.0000  -1.0855   0.0000   0.0000   0.0000   0.3674
   3.100   0.7386   0.00631   0.00186  -0.0878  0.5329  1.0000  -1.1149   0.0000   0.0000   0.0000   0.3655
   3.200   0.7488   0.00641   0.00191  -0.0876  0.5206  1.0000  -1.1534   0.0000   0.0000   0.0000   0.3635
   3.300   0.7585   0.00655   0.00196  -0.0874  0.5068  1.0000  -1.1967   0.0000   0.0000   0.0000   0.3616
   3.400   0.7691   0.00662   0.00201  -0.0873  0.4967  1.0000  -1.2423   0.0000   0.0000   0.0000   0.3598
   3.500   0.7792   0.00674   0.00207  -0.0871  0.4830  1.0000  -1.2873   0.0000   0.0000   0.0000   0.3580
   3.600   0.7887   0.00689   0.00218  -0.0869  0.4672  1.0000  -1.3350   0.0000   0.0000   0.0000   0.3563
   3.700   0.7992   0.00698   0.00223  -0.0867  0.4555  1.0000  -1.3818   0.0000   0.0000   0.0000   0.3546
   3.800   0.8089   0.00712   0.00229  -0.0865  0.4407  1.0000  -1.4274   0.0000   0.0000   0.0000   0.3529
   3.900   0.8188   0.00725   0.00236  -0.0863  0.4271  1.0000  -1.4736   0.0000   0.0000   0.0000   0.3513
   4.000   0.8292   0.00735   0.00242  -0.0862  0.4154  1.0000  -1.5211   0.0000   0.0000   0.0000   0.3497
   4.100   0.8390   0.00749   0.00249  -0.0860  0.4024  1.0000  -1.5679   0.0000   0.0000   0.0000   0.3482
   4.200   0.8491   0.00761   0.00256  -0.0859  0.3911  1.0000  -1.6156   0.0000   0.0000   0.0000   0.3467
   4.300   0.8595   0.00770   0.00262  -0.0857  0.3812  1.0000  -1.6645   0.0000   0.0000   0.0000   0.3452
   4.400   0.8694   0.00784   0.00270  -0.0855  0.3688  1.0000  -1.7124   0.0000   0.0000   0.0000   0.3438
   4.500   0.8792   0.00798   0.00278  -0.0854  0.3562  1.0000  -1.7608   0.0000   0.0000   0.0000   0.3424
   4.600   0.8894   0.00809   0.00285  -0.0852  0.3444  1.0000  -1.8103   0.0000   0.0000   0.0000   0.3410
   4.700   0.8985   0.00831   0.00295  -0.0849  0.3251  1.0000  -1.8575   0.0000   0.0000   0.0000   0.3396
   4.800   0.9084   0.00846   0.00304  -0.0848  0.3098  1.0000  -1.9070   0.0000   0.0000   0.0000   0.3383
   4.900   0.9173   0.00869   0.00315  -0.0844  0.2895  1.0000  -1.9546   0.0000   0.0000   0.0000   0.3370
   5.000   0.9273   0.00883   0.00324  -0.0843  0.2771  1.0000  -2.0052   0.0000   0.0000   0.0000   0.3357
   5.100   0.9367   0.00902   0.00334  -0.0841  0.2629  1.0000  -2.0547   0.0000   0.0000   0.0000   0.3344
   5.200   0.9467   0.00915   0.00344  -0.0839  0.2522  1.0000  -2.1058   0.0000   0.0000   0.0000   0.3332
   5.300   0.9566   0.00929   0.00353  -0.0837  0.2413  1.0000  -2.1572   0.0000   0.0000   0.0000   0.3320
   5.400   0.9660   0.00950   0.00365  -0.0835  0.2272  1.0000  -2.2074   0.0000   0.0000   0.0000   0.3308
   5.500   0.9760   0.00962   0.00374  -0.0833  0.2181  1.0000  -2.2599   0.0000   0.0000   0.0000   0.3297
   5.600   0.9855   0.00980   0.00385  -0.0831  0.2061  1.0000  -2.3113   0.0000   0.0000   0.0000   0.3285
   5.700   0.9950   0.00999   0.00398  -0.0829  0.1936  1.0000  -2.3629   0.0000   0.0000   0.0000   0.3274
   5.800   1.0046   0.01016   0.00409  -0.0827  0.1824  1.0000  -2.4153   0.0000   0.0000   0.0000   0.3263
   5.900   1.0136   0.01040   0.00423  -0.0824  0.1670  1.0000  -2.4661   0.0000   0.0000   0.0000   0.3252
   6.000   1.0230   0.01059   0.00436  -0.0822  0.1550  1.0000  -2.5187   0.0000   0.0000   0.0000   0.3241
   6.100   1.0319   0.01084   0.00451  -0.0819  0.1395  1.0000  -2.5698   0.0000   0.0000   0.0000   0.3230
   6.200   1.0422   0.01094   0.00471  -0.0818  0.1379  1.0000  -2.6244   0.0000   0.0000   0.0000   0.3220
   6.300   1.0515   0.01114   0.00486  -0.0815  0.1276  1.0000  -2.6772   0.0000   0.0000   0.0000   0.3209
   6.400   1.0606   0.01137   0.00502  -0.0813  0.1162  1.0000  -2.7297   0.0000   0.0000   0.0000   0.3199
   6.500   1.0702   0.01153   0.00516  -0.0811  0.1090  1.0000  -2.7841   0.0000   0.0000   0.0000   0.3189
   6.600   1.0791   0.01177   0.00532  -0.0808  0.0996  1.0000  -2.8367   0.0000   0.0000   0.0000   0.3179
   6.700   1.0887   0.01193   0.00546  -0.0806  0.0925  1.0000  -2.8939   0.0000   0.0000   0.0000   0.3169
   6.800   1.0981   0.01211   0.00561  -0.0803  0.0863  1.0000  -2.9625   0.0000   0.0000   0.0000   0.3160
   6.900   1.1070   0.01235   0.00578  -0.0800  0.0783  1.0000  -3.0293   0.0000   0.0000   0.0000   0.3150
   7.000   1.1165   0.01252   0.00593  -0.0798  0.0725  1.0000  -3.0987   0.0000   0.0000   0.0000   0.3141
   7.100   1.1258   0.01272   0.00609  -0.0796  0.0667  1.0000  -3.1677   0.0000   0.0000   0.0000   0.3131
   7.200   1.1343   0.01299   0.00630  -0.0792  0.0585  1.0000  -3.2342   0.0000   0.0000   0.0000   0.3122
   7.300   1.1438   0.01316   0.00645  -0.0790  0.0541  1.0000  -3.3047   0.0000   0.0000   0.0000   0.3113
   7.400   1.1526   0.01339   0.00663  -0.0787  0.0488  1.0000  -3.3739   0.0000   0.0000   0.0000   0.3104
   7.500   1.1610   0.01367   0.00686  -0.0783  0.0415  1.0000  -3.4391   0.0000   0.0000   0.0000   0.3094
   7.600   1.1706   0.01381   0.00700  -0.0781  0.0397  1.0000  -3.5135   0.0000   0.0000   0.0000   0.3086
   7.700   1.1798   0.01400   0.00716  -0.0779  0.0369  1.0000  -3.5861   0.0000   0.0000   0.0000   0.3077
   7.800   1.1886   0.01422   0.00734  -0.0775  0.0338  1.0000  -3.6573   0.0000   0.0000   0.0000   0.3068
   7.900   1.1971   0.01448   0.00758  -0.0772  0.0300  1.0000  -3.7241   0.0000   0.0000   0.0000   0.3059
   8.000   1.2061   0.01469   0.00779  -0.0769  0.0282  1.0000  -3.7934   0.0000   0.0000   0.0000   0.3050
   8.100   1.2157   0.01482   0.00793  -0.0767  0.0279  1.0000  -3.8704   0.0000   0.0000   0.0000   0.3042
   8.200   1.2252   0.01496   0.00809  -0.0764  0.0274  1.0000  -3.9470   0.0000   0.0000   0.0000   0.3034
   8.300   1.2346   0.01510   0.00825  -0.0762  0.0268  1.0000  -4.0235   0.0000   0.0000   0.0000   0.3027
   8.400   1.2439   0.01526   0.00841  -0.0760  0.0262  1.0000  -4.1002   0.0000   0.0000   0.0000   0.3019
   8.500   1.2530   0.01542   0.00858  -0.0757  0.0256  1.0000  -4.1883   0.0000   0.0000   0.0000   0.3011
   8.600   1.2624   0.01555   0.00872  -0.0755  0.0243  1.0000  -4.3166   0.0000   0.0000   0.0000   0.3003
   8.700   1.2713   0.01572   0.00889  -0.0753  0.0234  1.0000  -4.4478   0.0000   0.0000   0.0000   0.2996
   8.800   1.2802   0.01591   0.00906  -0.0750  0.0226  1.0000  -4.5802   0.0000   0.0000   0.0000   0.2988
   8.900   1.2890   0.01610   0.00925  -0.0747  0.0217  1.0000  -4.7136   0.0000   0.0000   0.0000   0.2980
   9.000   1.2977   0.01629   0.00945  -0.0743  0.0209  1.0000  -4.8473   0.0000   0.0000   0.0000   0.2972
   9.100   1.3063   0.01650   0.00967  -0.0740  0.0201  1.0000  -4.9813   0.0000   0.0000   0.0000   0.2964
   9.200   1.3148   0.01671   0.00990  -0.0736  0.0193  1.0000  -5.1155   0.0000   0.0000   0.0000   0.2957
   9.300   1.3232   0.01694   0.01015  -0.0732  0.0187  1.0000  -5.2494   0.0000   0.0000   0.0000   0.2949
   9.400   1.3313   0.01718   0.01042  -0.0728  0.0181  1.0000  -5.3825   0.0000   0.0000   0.0000   0.2941
   9.500   1.3399   0.01735   0.01060  -0.0725  0.0177  1.0000  -5.5238   0.0000   0.0000   0.0000   0.2933
   9.600   1.3492   0.01746   0.01071  -0.0723  0.0176  1.0000  -5.6746   0.0000   0.0000   0.0000   0.2926
   9.700   1.3585   0.01757   0.01083  -0.0721  0.0175  1.0000  -5.8260   0.0000   0.0000   0.0000   0.2920
   9.800   1.3676   0.01768   0.01095  -0.0718  0.0174  1.0000  -5.9776   0.0000   0.0000   0.0000   0.2913
   9.900   1.3766   0.01781   0.01109  -0.0716  0.0172  1.0000  -6.1291   0.0000   0.0000   0.0000   0.2906
  10.000   1.3854   0.01794   0.01123  -0.0713  0.0169  1.0000  -6.2805   0.0000   0.0000   0.0000   0.2899
  10.100   1.3942   0.01808   0.01138  -0.0710  0.0165  1.0000  -6.4312   0.0000   0.0000   0.0000   0.2892
  10.200   1.4028   0.01823   0.01153  -0.0707  0.0159  1.0000  -6.5801   0.0000   0.0000   0.0000   0.2885
  10.300   1.4111   0.01840   0.01170  -0.0704  0.0149  1.0000  -6.7249   0.0000   0.0000   0.0000   0.2878
  10.400   1.4188   0.01862   0.01190  -0.0699  0.0132  1.0000  -6.8618   0.0000   0.0000   0.0000   0.2871
  10.500   1.4250   0.01898   0.01219  -0.0693  0.0102  1.0000  -6.9808   0.0000   0.0000   0.0000   0.2863
  10.600   1.4312   0.01933   0.01251  -0.0686  0.0076  1.0000  -7.0911   0.0000   0.0000   0.0000   0.2855
  10.700   1.4340   0.01996   0.01308  -0.0675  0.0041  1.0000  -7.1800   0.0000   0.0000   0.0000   0.2845
  10.800   1.4396   0.02030   0.01344  -0.0667  0.0038  1.0000  -7.2890   0.0000   0.0000   0.0000   0.2836
  10.900   1.4451   0.02063   0.01379  -0.0659  0.0035  1.0000  -7.3995   0.0000   0.0000   0.0000   0.2827
  11.000   1.4506   0.02095   0.01414  -0.0650  0.0034  1.0000  -7.5121   0.0000   0.0000   0.0000   0.2818
  11.100   1.4561   0.02126   0.01448  -0.0642  0.0032  1.0000  -7.6265   0.0000   0.0000   0.0000   0.2809
  11.200   1.4616   0.02157   0.01482  -0.0634  0.0031  1.0000  -7.7425   0.0000   0.0000   0.0000   0.2800
  11.300   1.4677   0.02183   0.01516  -0.0627  0.0031  1.0000  -7.8834   0.0000   0.0000   0.0000   0.2792
  11.400   1.4733   0.02212   0.01549  -0.0620  0.0030  1.0000  -8.0097   0.0000   0.0000   0.0000   0.2784
  11.500   1.4787   0.02243   0.01584  -0.0612  0.0030  1.0000  -8.1308   0.0000   0.0000   0.0000   0.2775
  11.600   1.4840   0.02275   0.01620  -0.0604  0.0029  1.0000  -8.2510   0.0000   0.0000   0.0000   0.2767
  11.700   1.4891   0.02307   0.01657  -0.0596  0.0029  1.0000  -8.3705   0.0000   0.0000   0.0000   0.2758
  11.800   1.4941   0.02341   0.01695  -0.0588  0.0028  1.0000  -8.4893   0.0000   0.0000   0.0000   0.2750
  11.900   1.4989   0.02375   0.01734  -0.0580  0.0028  1.0000  -8.6077   0.0000   0.0000   0.0000   0.2741
  12.000   1.5036   0.02411   0.01775  -0.0572  0.0027  1.0000  -8.7254   0.0000   0.0000   0.0000   0.2733
  12.100   1.5081   0.02448   0.01817  -0.0564  0.0027  1.0000  -8.8419   0.0000   0.0000   0.0000   0.2725
  12.200   1.5125   0.02487   0.01861  -0.0555  0.0027  1.0000  -8.9576   0.0000   0.0000   0.0000   0.2717
  12.300   1.5167   0.02528   0.01907  -0.0547  0.0027  1.0000  -9.0725   0.0000   0.0000   0.0000   0.2709
  12.400   1.5206   0.02570   0.01955  -0.0539  0.0027  1.0000  -9.1852   0.0000   0.0000   0.0000   0.2700
  12.500   1.5241   0.02615   0.02005  -0.0530  0.0027  1.0000  -9.2953   0.0000   0.0000   0.0000   0.2692
  12.600   1.5275   0.02661   0.02057  -0.0521  0.0026  1.0000  -9.4043   0.0000   0.0000   0.0000   0.2684
  12.700   1.5308   0.02709   0.02110  -0.0513  0.0026  1.0000  -9.5126   0.0000   0.0000   0.0000   0.2676
  12.800   1.5338   0.02760   0.02167  -0.0504  0.0026  1.0000  -9.6182   0.0000   0.0000   0.0000   0.2668
  12.900   1.5365   0.02813   0.02226  -0.0496  0.0026  1.0000  -9.7212   0.0000   0.0000   0.0000   0.2660
  13.000   1.5390   0.02869   0.02288  -0.0487  0.0026  1.0000  -9.8228   0.0000   0.0000   0.0000   0.2652
  13.100   1.5414   0.02927   0.02352  -0.0479  0.0026  1.0000  -9.9230   0.0000   0.0000   0.0000   0.2644
  13.200   1.5433   0.02988   0.02419  -0.0470  0.0026  1.0000  -10.0190   0.0000   0.0000   0.0000   0.2637
  13.300   1.5448   0.03053   0.02490  -0.0461  0.0026  1.0000  -10.1112   0.0000   0.0000   0.0000   0.2629
  13.400   1.5461   0.03120   0.02563  -0.0453  0.0026  1.0000  -10.2011   0.0000   0.0000   0.0000   0.2621
  13.500   1.5472   0.03189   0.02639  -0.0444  0.0026  1.0000  -10.2890   0.0000   0.0000   0.0000   0.2614
  13.600   1.5477   0.03264   0.02720  -0.0436  0.0026  1.0000  -10.3712   0.0000   0.0000   0.0000   0.2606
  13.700   1.5480   0.03343   0.02805  -0.0428  0.0026  1.0000  -10.4511   0.0000   0.0000   0.0000   0.2599
  13.800   1.5483   0.03425   0.02893  -0.0420  0.0026  1.0000  -10.5302   0.0000   0.0000   0.0000   0.2592
  13.900   1.5482   0.03512   0.02987  -0.0412  0.0026  1.0000  -10.6047   0.0000   0.0000   0.0000   0.2585
  14.000   1.5475   0.03605   0.03087  -0.0405  0.0026  1.0000  -10.6736   0.0000   0.0000   0.0000   0.2579
  14.100   1.5468   0.03701   0.03190  -0.0398  0.0026  1.0000  -10.7417   0.0000   0.0000   0.0000   0.2572
  14.200   1.5458   0.03802   0.03298  -0.0392  0.0027  1.0000  -10.8062   0.0000   0.0000   0.0000   0.2566
  14.300   1.5440   0.03911   0.03415  -0.0386  0.0027  1.0000  -10.8629   0.0000   0.0000   0.0000   0.2561
  14.400   1.5423   0.04025   0.03535  -0.0380  0.0027  1.0000  -10.9184   0.0000   0.0000   0.0000   0.2556
  14.500   1.5401   0.04144   0.03662  -0.0375  0.0027  1.0000  -10.9694   0.0000   0.0000   0.0000   0.2551
  14.600   1.5373   0.04273   0.03797  -0.0371  0.0027  1.0000  -11.0131   0.0000   0.0000   0.0000   0.2546
  14.700   1.5344   0.04403   0.03935  -0.0367  0.0027  1.0000  -11.0549   0.0000   0.0000   0.0000   0.2542
  14.800   1.5306   0.04545   0.04084  -0.0364  0.0027  1.0000  -11.0882   0.0000   0.0000   0.0000   0.2539
  14.900   1.5270   0.04693   0.04239  -0.0362  0.0027  1.0000  -11.1204   0.0000   0.0000   0.0000   0.2536
  15.000   1.5230   0.04850   0.04404  -0.0361  0.0027  1.0000  -11.1488   0.0000   0.0000   0.0000   0.2533
  15.100   1.5186   0.05018   0.04579  -0.0361  0.0027  1.0000  -11.1715   0.0000   0.0000   0.0000   0.2532
  15.200   1.5143   0.05190   0.04759  -0.0361  0.0027  1.0000  -11.1937   0.0000   0.0000   0.0000   0.2531
  15.300   1.5093   0.05379   0.04955  -0.0364  0.0027  1.0000  -11.2072   0.0000   0.0000   0.0000   0.2531
  15.400   1.5046   0.05567   0.05151  -0.0366  0.0027  1.0000  -11.2220   0.0000   0.0000   0.0000   0.2531
  15.500   1.4990   0.05775   0.05367  -0.0371  0.0027  1.0000  -11.2271   0.0000   0.0000   0.0000   0.2533
  15.600   1.4938   0.05983   0.05582  -0.0376  0.0028  1.0000  -11.2333   0.0000   0.0000   0.0000   0.2535
  15.700   1.4878   0.06209   0.05816  -0.0383  0.0028  1.0000  -11.2308   0.0000   0.0000   0.0000   0.2538
  15.800   1.4820   0.06437   0.06051  -0.0390  0.0028  1.0000  -11.2279   0.0000   0.0000   0.0000   0.2542
  15.900   1.4757   0.06681   0.06302  -0.0399  0.0028  1.0000  -11.2178   0.0000   0.0000   0.0000   0.2547
  16.000   1.4693   0.06928   0.06557  -0.0408  0.0028  1.0000  -11.2054   0.0000   0.0000   0.0000   0.2552
  16.100   1.4626   0.07188   0.06824  -0.0419  0.0028  1.0000  -11.1874   0.0000   0.0000   0.0000   0.2558
  16.200   1.4557   0.07455   0.07099  -0.0430  0.0028  1.0000  -11.1654   0.0000   0.0000   0.0000   0.2565
  16.300   1.4486   0.07730   0.07380  -0.0442  0.0028  1.0000  -11.1397   0.0000   0.0000   0.0000   0.2573
  16.400   1.4412   0.08016   0.07674  -0.0456  0.0028  1.0000  -11.1074   0.0000   0.0000   0.0000   0.2582
  16.500   1.4336   0.08300   0.07965  -0.0469  0.0028  1.0000  -11.0729   0.0000   0.0000   0.0000   0.2591
  16.600   1.4254   0.08601   0.08273  -0.0484  0.0028  1.0000  -11.0291   0.0000   0.0000   0.0000   0.2601
  16.700   1.4176   0.08898   0.08576  -0.0498  0.0028  1.0000  -10.9884   0.0000   0.0000   0.0000   0.2611
  16.800   1.4091   0.09223   0.08908  -0.0515  0.0028  1.0000  -10.9354   0.0000   0.0000   0.0000   0.2623
  16.900   1.4014   0.09533   0.09225  -0.0530  0.0028  1.0000  -10.8888   0.0000   0.0000   0.0000   0.2634
  17.000   1.3926   0.09877   0.09575  -0.0549  0.0028  1.0000  -10.8266   0.0000   0.0000   0.0000   0.2647
  17.100   1.3847   0.10201   0.09906  -0.0566  0.0028  1.0000  -10.7724   0.0000   0.0000   0.0000   0.2660
  17.200   1.3758   0.10555   0.10267  -0.0585  0.0029  1.0000  -10.7033   0.0000   0.0000   0.0000   0.2675
  17.300   1.3677   0.10895   0.10612  -0.0603  0.0029  1.0000  -10.6398   0.0000   0.0000   0.0000   0.2689
  17.400   1.3590   0.11251   0.10974  -0.0623  0.0029  1.0000  -10.5669   0.0000   0.0000   0.0000   0.2704
  17.500   1.3505   0.11608   0.11337  -0.0643  0.0029  1.0000  -10.4916   0.0000   0.0000   0.0000   0.2720
  17.600   1.3423   0.11955   0.11690  -0.0662  0.0029  1.0000  -10.4192   0.0000   0.0000   0.0000   0.2735
  17.700   1.3332   0.12334   0.12075  -0.0684  0.0029  1.0000  -10.3290   0.0000   0.0000   0.0000   0.2753
  17.800   1.3252   0.12683   0.12429  -0.0703  0.0029  1.0000  -10.2512   0.0000   0.0000   0.0000   0.2770
  17.900   1.3163   0.13065   0.12817  -0.0725  0.0029  1.0000  -10.1547   0.0000   0.0000   0.0000   0.2789
  18.000   1.3080   0.13430   0.13186  -0.0746  0.0029  1.0000  -10.0649   0.0000   0.0000   0.0000   0.2807
  18.100   1.3000   0.13788   0.13550  -0.0767  0.0029  1.0000  -9.9755   0.0000   0.0000   0.0000   0.2825
  18.200   1.2910   0.14184   0.13950  -0.0790  0.0029  1.0000  -9.8637   0.0000   0.0000   0.0000   0.2845
  18.300   1.2832   0.14544   0.14315  -0.0811  0.0029  1.0000  -9.7684   0.0000   0.0000   0.0000   0.2864
  18.400   1.2747   0.14930   0.14706  -0.0834  0.0029  1.0000  -9.6560   0.0000   0.0000   0.0000   0.2885
  18.500   1.2663   0.15317   0.15098  -0.0857  0.0029  1.0000  -9.5398   0.0000   0.0000   0.0000   0.2907
  18.600   1.2589   0.15681   0.15466  -0.0879  0.0029  1.0000  -9.4346   0.0000   0.0000   0.0000   0.2926
  18.700   1.2501   0.16083   0.15873  -0.0903  0.0029  1.0000  -9.2998   0.0000   0.0000   0.0000   0.2950
  18.800   1.2425   0.16441   0.16236  -0.0926  0.0029  1.0000  -9.1771   0.0000   0.0000   0.0000   0.2972
  18.900   1.2354   0.16783   0.16582  -0.0949  0.0030  1.0000  -9.0594   0.0000   0.0000   0.0000   0.2993
  19.000   1.2266   0.17188   0.16991  -0.0975  0.0030  1.0000  -8.8997   0.0000   0.0000   0.0000   0.3019
  19.100   1.2191   0.17569   0.17376  -0.0999  0.0030  1.0000  -8.7584   0.0000   0.0000   0.0000   0.3043
  19.200   1.2117   0.17956   0.17768  -0.1022  0.0030  1.0000  -8.6142   0.0000   0.0000   0.0000   0.3067
  19.300   1.2020   0.18433   0.18248  -0.1051  0.0030  1.0000  -8.4101   0.0000   0.0000   0.0000   0.3097
  19.400   1.1941   0.18866   0.18685  -0.1076  0.0030  1.0000  -8.2362   0.0000   0.0000   0.0000   0.3124
  19.500   1.1851   0.19353   0.19176  -0.1103  0.0030  1.0000  -8.0248   0.0000   0.0000   0.0000   0.3154
  19.600   1.1740   0.19926   0.19754  -0.1134  0.0030  1.0000  -7.7514   0.0000   0.0000   0.0000   0.3190
  19.700   1.1638   0.20494   0.20326  -0.1164  0.0031  1.0000  -7.4805   0.0000   0.0000   0.0000   0.3225
  19.800   1.1466   0.21355   0.21192  -0.1206  0.0031  1.0000  -6.9917   0.0000   0.0000   0.0000   0.3280
  20.100   1.0587   0.26616   0.26448  -0.1390  0.0044  1.0000  -3.2050   0.0000   0.0000   0.0000   0.3572
  20.200   1.0614   0.26775   0.26608  -0.1397  0.0045  1.0000  -3.2392   0.0000   0.0000   0.0000   0.3573
  20.300   1.0447   0.28460   0.28288  -0.1417  0.0096  1.0000  -2.1632   0.0000   0.0000   0.0000   0.3622
  20.400   1.0461   0.28701   0.28530  -0.1425  0.0096  1.0000  -2.1474   0.0000   0.0000   0.0000   0.3626
  20.500   1.0475   0.28943   0.28772  -0.1433  0.0096  1.0000  -2.1322   0.0000   0.0000   0.0000   0.3630
  20.600   1.0489   0.29184   0.29013  -0.1441  0.0096  1.0000  -2.1175   0.0000   0.0000   0.0000   0.3634
  20.700   1.0502   0.29425   0.29254  -0.1449  0.0096  1.0000  -2.1033   0.0000   0.0000   0.0000   0.3639
  20.800   1.0516   0.29665   0.29494  -0.1457  0.0096  1.0000  -2.0895   0.0000   0.0000   0.0000   0.3643
  20.900   1.0529   0.29905   0.29734  -0.1465  0.0095  1.0000  -2.0762   0.0000   0.0000   0.0000   0.3647
  21.000   1.0542   0.30145   0.29974  -0.1473  0.0095  1.0000  -2.0633   0.0000   0.0000   0.0000   0.3651
  21.100   1.0555   0.30384   0.30214  -0.1480  0.0095  1.0000  -2.0508   0.0000   0.0000   0.0000   0.3655
  21.200   1.0568   0.30623   0.30453  -0.1488  0.0095  1.0000  -2.0387   0.0000   0.0000   0.0000   0.3659
  21.300   1.0580   0.30861   0.30692  -0.1495  0.0095  1.0000  -2.0268   0.0000   0.0000   0.0000   0.3663
  21.400   1.0592   0.31099   0.30930  -0.1503  0.0095  1.0000  -2.0151   0.0000   0.0000   0.0000   0.3667
  21.500   1.0604   0.31337   0.31168  -0.1510  0.0095  1.0000  -2.0038   0.0000   0.0000   0.0000   0.3670
  21.600   1.0615   0.31574   0.31405  -0.1518  0.0095  1.0000  -1.9929   0.0000   0.0000   0.0000   0.3674
  21.700   1.0627   0.31810   0.31641  -0.1525  0.0095  1.0000  -1.9823   0.0000   0.0000   0.0000   0.3678
  21.800   1.0637   0.32045   0.31877  -0.1533  0.0095  1.0000  -1.9721   0.0000   0.0000   0.0000   0.3682
  21.900   1.0648   0.32279   0.32111  -0.1540  0.0094  1.0000  -1.9623   0.0000   0.0000   0.0000   0.3686
  22.000   1.0658   0.32512   0.32344  -0.1547  0.0094  1.0000  -1.9525   0.0000   0.0000   0.0000   0.3689
  22.100   1.0668   0.32744   0.32576  -0.1555  0.0094  1.0000  -1.9431   0.0000   0.0000   0.0000   0.3693
  22.200   1.0678   0.32973   0.32805  -0.1562  0.0093  1.0000  -1.9342   0.0000   0.0000   0.0000   0.3697
  22.300   1.0688   0.33199   0.33032  -0.1569  0.0093  1.0000  -1.9257   0.0000   0.0000   0.0000   0.3701
  22.400   1.0697   0.33424   0.33258  -0.1577  0.0092  1.0000  -1.9160   0.0000   0.0000   0.0000   0.3705
  22.500   1.0707   0.33656   0.33490  -0.1585  0.0091  1.0000  -1.8987   0.0000   0.0000   0.0000   0.3710
  22.600   1.0718   0.33889   0.33722  -0.1594  0.0089  1.0000  -1.8782   0.0000   0.0000   0.0000   0.3715
  22.700   1.0731   0.34131   0.33965  -0.1603  0.0086  1.0000  -1.8521   0.0000   0.0000   0.0000   0.3720
  22.800   1.0740   0.34379   0.34213  -0.1610  0.0083  1.0000  -1.8295   0.0000   0.0000   0.0000   0.3724
  22.900   1.0745   0.34623   0.34457  -0.1617  0.0080  1.0000  -1.8137   0.0000   0.0000   0.0000   0.3728
  23.000   1.0747   0.34861   0.34697  -0.1622  0.0077  1.0000  -1.8018   0.0000   0.0000   0.0000   0.3732
  23.100   1.0747   0.35097   0.34932  -0.1628  0.0075  1.0000  -1.7923   0.0000   0.0000   0.0000   0.3735
  23.200   1.0746   0.35329   0.35165  -0.1633  0.0073  1.0000  -1.7843   0.0000   0.0000   0.0000   0.3739
  23.300   1.0742   0.35557   0.35394  -0.1638  0.0071  1.0000  -1.7771   0.0000   0.0000   0.0000   0.3742
  23.400   1.0736   0.35783   0.35620  -0.1643  0.0069  1.0000  -1.7705   0.0000   0.0000   0.0000   0.3746
  23.500   1.0727   0.36005   0.35842  -0.1647  0.0068  1.0000  -1.7642   0.0000   0.0000   0.0000   0.3749
  23.600   1.0715   0.36222   0.36061  -0.1651  0.0066  1.0000  -1.7580   0.0000   0.0000   0.0000   0.3753
  23.800   0.9357   0.33908   0.33762  -0.1470  0.0069  1.0000  -1.4078   0.0000   0.0000   0.0000   0.3802
  23.900   0.9303   0.33873   0.33728  -0.1467  0.0068  1.0000  -1.3911   0.0000   0.0000   0.0000   0.3807
  24.000   0.9257   0.33851   0.33706  -0.1464  0.0066  1.0000  -1.3768   0.0000   0.0000   0.0000   0.3812
  24.100   0.9214   0.33836   0.33692  -0.1462  0.0065  1.0000  -1.3642   0.0000   0.0000   0.0000   0.3816
  24.200   0.9176   0.33827   0.33684  -0.1461  0.0064  1.0000  -1.3532   0.0000   0.0000   0.0000   0.3820
  24.300   0.9141   0.33823   0.33682  -0.1460  0.0063  1.0000  -1.3435   0.0000   0.0000   0.0000   0.3824
  24.400   0.9109   0.33825   0.33686  -0.1460  0.0062  1.0000  -1.3347   0.0000   0.0000   0.0000   0.3828
  24.500   0.9080   0.33829   0.33692  -0.1460  0.0060  1.0000  -1.3272   0.0000   0.0000   0.0000   0.3832
  24.600   0.9052   0.33837   0.33701  -0.1460  0.0059  1.0000  -1.3209   0.0000   0.0000   0.0000   0.3836
  24.700   0.9027   0.33848   0.33712  -0.1460  0.0058  1.0000  -1.3156   0.0000   0.0000   0.0000   0.3840
  24.800   0.9003   0.33861   0.33726  -0.1461  0.0058  1.0000  -1.3114   0.0000   0.0000   0.0000   0.3843
  24.900   0.8981   0.33876   0.33741  -0.1461  0.0057  1.0000  -1.3080   0.0000   0.0000   0.0000   0.3847
  25.000   0.8960   0.33892   0.33758  -0.1462  0.0056  1.0000  -1.3056   0.0000   0.0000   0.0000   0.3850
  25.100   0.8941   0.33910   0.33777  -0.1463  0.0055  1.0000  -1.3040   0.0000   0.0000   0.0000   0.3853
  25.200   0.8922   0.33929   0.33797  -0.1464  0.0054  1.0000  -1.3032   0.0000   0.0000   0.0000   0.3857
  25.300   0.8905   0.33949   0.33817  -0.1466  0.0053  1.0000  -1.3033   0.0000   0.0000   0.0000   0.3860
  25.400   0.8888   0.33970   0.33839  -0.1467  0.0053  1.0000  -1.3042   0.0000   0.0000   0.0000   0.3863
  25.500   0.8872   0.33992   0.33861  -0.1468  0.0052  1.0000  -1.3059   0.0000   0.0000   0.0000   0.3866
  25.600   0.8857   0.34014   0.33884  -0.1470  0.0051  1.0000  -1.3085   0.0000   0.0000   0.0000   0.3869
  25.700   0.8843   0.34036   0.33907  -0.1472  0.0051  1.0000  -1.3118   0.0000   0.0000   0.0000   0.3872
  25.800   0.8829   0.34059   0.33930  -0.1473  0.0050  1.0000  -1.3158   0.0000   0.0000   0.0000   0.3874
  25.900   0.8816   0.34081   0.33953  -0.1475  0.0050  1.0000  -1.3207   0.0000   0.0000   0.0000   0.3877
  26.000   0.8804   0.34104   0.33976  -0.1477  0.0049  1.0000  -1.3263   0.0000   0.0000   0.0000   0.3880
  26.100   0.8792   0.34126   0.33999  -0.1479  0.0049  1.0000  -1.3327   0.0000   0.0000   0.0000   0.3882
  26.200   0.8780   0.34148   0.34022  -0.1480  0.0048  1.0000  -1.3398   0.0000   0.0000   0.0000   0.3885
  26.300   0.8769   0.34170   0.34044  -0.1482  0.0048  1.0000  -1.3475   0.0000   0.0000   0.0000   0.3887
  26.400   0.8758   0.34191   0.34066  -0.1484  0.0047  1.0000  -1.3559   0.0000   0.0000   0.0000   0.3889
  26.500   0.8747   0.34212   0.34087  -0.1486  0.0047  1.0000  -1.3649   0.0000   0.0000   0.0000   0.3891
  26.600   0.8737   0.34231   0.34107  -0.1487  0.0046  1.0000  -1.3743   0.0000   0.0000   0.0000   0.3893
  26.700   0.8726   0.34249   0.34126  -0.1489  0.0046  1.0000  -1.3840   0.0000   0.0000   0.0000   0.3895
  26.800   0.8715   0.34265   0.34143  -0.1490  0.0045  1.0000  -1.3936   0.0000   0.0000   0.0000   0.3897
  26.900   0.8703   0.34279   0.34157  -0.1491  0.0045  1.0000  -1.4025   0.0000   0.0000   0.0000   0.3899
  27.000   0.8685   0.34297   0.34176  -0.1492  0.0044  1.0000  -1.3970   0.0000   0.0000   0.0000   0.3901


