xflr5 v6.61

 Calculated polar for: S7075 (9%)

 1 1 Reynolds number fixed          Mach number fixed         

 xtrf =   1.000 (top)        1.000 (bottom)
 Mach =   0.000     Re =     0.450 e 6     Ncrit =   9.000

  alpha     CL        CD       CDp       Cm    Top Xtr Bot Xtr   Cpmin    Chinge    XCp    
 ------- -------- --------- --------- -------- ------- ------- -------- --------- ---------
 -10.000  -0.3864   0.10555   0.10299  -0.0327  1.0000  0.0179  -1.8461   0.0000   0.0000   0.0000   0.1576
  -9.900  -0.3841   0.10450   0.10194  -0.0329  1.0000  0.0181  -1.8136   0.0000   0.0000   0.0000   0.1567
  -9.800  -0.3820   0.10343   0.10087  -0.0331  1.0000  0.0183  -1.7850   0.0000   0.0000   0.0000   0.1558
  -9.700  -0.3802   0.10234   0.09980  -0.0333  1.0000  0.0185  -1.7598   0.0000   0.0000   0.0000   0.1549
  -9.600  -0.3786   0.10124   0.09871  -0.0335  1.0000  0.0187  -1.7376   0.0000   0.0000   0.0000   0.1540
  -9.500  -0.3770   0.10017   0.09764  -0.0338  1.0000  0.0189  -1.7151   0.0000   0.0000   0.0000   0.1532
  -9.400  -0.3756   0.09914   0.09663  -0.0339  1.0000  0.0192  -1.6904   0.0000   0.0000   0.0000   0.1525
  -9.300  -0.3743   0.09813   0.09563  -0.0341  1.0000  0.0196  -1.6668   0.0000   0.0000   0.0000   0.1519
  -9.200  -0.3733   0.09713   0.09463  -0.0342  1.0000  0.0200  -1.6461   0.0000   0.0000   0.0000   0.1514
  -9.100  -0.3727   0.09612   0.09364  -0.0343  1.0000  0.0205  -1.6309   0.0000   0.0000   0.0000   0.1511
  -9.000  -0.3725   0.09511   0.09264  -0.0344  1.0000  0.0209  -1.6265   0.0000   0.0000   0.0000   0.1510
  -8.900  -0.3727   0.09410   0.09165  -0.0344  1.0000  0.0214  -1.6256   0.0000   0.0000   0.0000   0.1511
  -8.800  -0.3734   0.09311   0.09067  -0.0343  1.0000  0.0218  -1.6282   0.0000   0.0000   0.0000   0.1516
  -8.700  -0.3750   0.09217   0.08976  -0.0341  1.0000  0.0222  -1.6341   0.0000   0.0000   0.0000   0.1528
  -8.600  -0.3777   0.09132   0.08892  -0.0336  1.0000  0.0225  -1.6428   0.0000   0.0000   0.0000   0.1549
  -8.500  -0.3814   0.09057   0.08819  -0.0328  1.0000  0.0228  -1.6536   0.0000   0.0000   0.0000   0.1579
  -8.400  -0.3861   0.08989   0.08753  -0.0318  1.0000  0.0231  -1.6660   0.0000   0.0000   0.0000   0.1616
  -8.300  -0.3912   0.08924   0.08691  -0.0308  1.0000  0.0233  -1.6794   0.0000   0.0000   0.0000   0.1655
  -8.200  -0.3965   0.08860   0.08629  -0.0298  1.0000  0.0235  -1.6937   0.0000   0.0000   0.0000   0.1694
  -8.100  -0.4020   0.08795   0.08566  -0.0287  1.0000  0.0236  -1.7087   0.0000   0.0000   0.0000   0.1731
  -8.000  -0.4075   0.08730   0.08502  -0.0277  1.0000  0.0238  -1.7245   0.0000   0.0000   0.0000   0.1767
  -7.900  -0.4132   0.08664   0.08438  -0.0267  1.0000  0.0240  -1.7408   0.0000   0.0000   0.0000   0.1802
  -7.800  -0.4165   0.08570   0.08346  -0.0266  0.9998  0.0242  -1.7587   0.0000   0.0000   0.0000   0.1813
  -7.700  -0.4108   0.08380   0.08156  -0.0294  0.9985  0.0249  -1.7838   0.0000   0.0000   0.0000   0.1736
  -7.600  -0.4047   0.08193   0.07969  -0.0324  0.9970  0.0255  -1.8128   0.0000   0.0000   0.0000   0.1650
  -7.500  -0.3972   0.08007   0.07783  -0.0360  0.9950  0.0260  -1.8425   0.0000   0.0000   0.0000   0.1545
  -7.400  -0.3862   0.07826   0.07602  -0.0398  0.9935  0.0265  -1.8510   0.0000   0.0000   0.0000   0.1419
  -7.300  -0.3745   0.07597   0.07372  -0.0444  0.9920  0.0267  -1.8645   0.0000   0.0000   0.0000   0.1266
  -7.200  -0.3652   0.07357   0.07132  -0.0487  0.9898  0.0268  -1.8853   0.0000   0.0000   0.0000   0.1118
  -7.100  -0.3550   0.07091   0.06864  -0.0535  0.9880  0.0269  -1.9124   0.0000   0.0000   0.0000   0.0944
  -7.000  -0.3442   0.06810   0.06580  -0.0583  0.9865  0.0270  -1.9434   0.0000   0.0000   0.0000   0.0757
  -6.900  -0.3328   0.06518   0.06284  -0.0629  0.9853  0.0270  -1.9782   0.0000   0.0000   0.0000   0.0557
  -6.800  -0.3211   0.06225   0.05986  -0.0674  0.9843  0.0271  -2.0149   0.0000   0.0000   0.0000   0.0350
  -6.700  -0.3132   0.05982   0.05737  -0.0702  0.9822  0.0271  -2.0479   0.0000   0.0000   0.0000   0.0205
  -6.600  -0.3057   0.05753   0.05502  -0.0727  0.9799  0.0272  -2.0779   0.0000   0.0000   0.0000   0.0069
  -6.500  -0.2969   0.05523   0.05264  -0.0753  0.9780  0.0272  -2.1049   0.0000   0.0000   0.0000  -0.0090
  -6.400  -0.2872   0.05298   0.05030  -0.0778  0.9765  0.0272  -2.1276   0.0000   0.0000   0.0000  -0.0266
  -6.300  -0.2768   0.05079   0.04802  -0.0803  0.9753  0.0272  -2.1456   0.0000   0.0000   0.0000  -0.0459
  -6.200  -0.2658   0.04868   0.04581  -0.0827  0.9743  0.0273  -2.1587   0.0000   0.0000   0.0000  -0.0671
  -6.100  -0.2657   0.03947   0.03626  -0.0892  0.9725  0.0285  -2.4573   0.0000   0.0000   0.0000  -0.0922
  -6.000  -0.2550   0.03729   0.03401  -0.0912  0.9719  0.0292  -2.4362   0.0000   0.0000   0.0000  -0.1143
  -5.900  -0.2525   0.03633   0.03301  -0.0904  0.9684  0.0295  -2.4138   0.0000   0.0000   0.0000  -0.1146
  -5.800  -0.2436   0.03529   0.03193  -0.0910  0.9666  0.0299  -2.3664   0.0000   0.0000   0.0000  -0.1299
  -5.700  -0.2331   0.03433   0.03093  -0.0917  0.9653  0.0303  -2.3108   0.0000   0.0000   0.0000  -0.1500
  -5.600  -0.2217   0.03336   0.02992  -0.0926  0.9642  0.0308  -2.2559   0.0000   0.0000   0.0000  -0.1744
  -5.500  -0.2095   0.03237   0.02887  -0.0936  0.9632  0.0313  -2.2030   0.0000   0.0000   0.0000  -0.2037
  -5.400  -0.1968   0.03135   0.02778  -0.0947  0.9624  0.0320  -2.1530   0.0000   0.0000   0.0000  -0.2385
  -5.300  -0.1836   0.03031   0.02666  -0.0958  0.9616  0.0327  -2.1065   0.0000   0.0000   0.0000  -0.2796
  -5.200  -0.1700   0.02927   0.02553  -0.0969  0.9609  0.0336  -2.0639   0.0000   0.0000   0.0000  -0.3281
  -5.100  -0.1564   0.02824   0.02440  -0.0979  0.9603  0.0346  -2.0252   0.0000   0.0000   0.0000  -0.3850
  -5.000  -0.1427   0.02726   0.02332  -0.0989  0.9596  0.0358  -1.9895   0.0000   0.0000   0.0000  -0.4521
  -4.900  -0.1288   0.02641   0.02235  -0.0997  0.9590  0.0373  -1.9542   0.0000   0.0000   0.0000  -0.5345
  -4.800  -0.1143   0.02584   0.02168  -0.1004  0.9584  0.0388  -1.9131   0.0000   0.0000   0.0000  -0.6396
  -4.700  -0.0982   0.02652   0.02230  -0.1007  0.9579  0.0408  -1.8333   0.0000   0.0000   0.0000  -0.7887
  -4.600  -0.0824   0.02732   0.02302  -0.1011  0.9574  0.0416  -1.7539   0.0000   0.0000   0.0000  -0.9916
  -4.500  -0.0844   0.02264   0.01796  -0.1007  0.9533  0.0441  -1.8732   0.0000   0.0000   0.0000  -0.9577
  -4.400  -0.0757   0.02171   0.01699  -0.1007  0.9511  0.0452  -1.8332   0.0000   0.0000   0.0000  -1.0958
  -4.300  -0.0649   0.02102   0.01627  -0.1008  0.9495  0.0461  -1.7858   0.0000   0.0000   0.0000  -1.3226
  -4.100  -0.0381   0.01637   0.01091  -0.0997  0.9469  0.0231  -2.1329   0.0000   0.0000   0.0000  -2.3967
  -4.000  -0.0256   0.01510   0.00945  -0.0996  0.9458  0.0210  -2.1788   0.0000   0.0000   0.0000  -3.6880
  -3.900  -0.0130   0.01407   0.00827  -0.0996  0.9447  0.0194  -2.2144   0.0000   0.0000   0.0000  -7.5030
  -3.800  -0.0003   0.01343   0.00752  -0.0997  0.9437  0.0185  -2.2083   0.0000   0.0000   0.0000  -301.2980
  -3.700   0.0124   0.01301   0.00704  -0.0998  0.9426  0.0179  -2.1694   0.0000   0.0000   0.0000   8.3740
  -3.600   0.0254   0.01268   0.00667  -0.1001  0.9416  0.0176  -2.1172   0.0000   0.0000   0.0000   4.2325
  -3.500   0.0384   0.01237   0.00632  -0.1003  0.9406  0.0173  -2.0602   0.0000   0.0000   0.0000   2.8874
  -3.400   0.0513   0.01208   0.00600  -0.1006  0.9395  0.0171  -2.0027   0.0000   0.0000   0.0000   2.2289
  -3.300   0.0607   0.01185   0.00575  -0.1001  0.9374  0.0170  -1.9545   0.0000   0.0000   0.0000   1.9157
  -3.200   0.0694   0.01162   0.00549  -0.0996  0.9347  0.0169  -1.9091   0.0000   0.0000   0.0000   1.6990
  -3.100   0.0793   0.01137   0.00521  -0.0992  0.9324  0.0169  -1.8624   0.0000   0.0000   0.0000   1.5130
  -3.000   0.0899   0.01111   0.00491  -0.0990  0.9303  0.0169  -1.8162   0.0000   0.0000   0.0000   1.3612
  -2.900   0.1009   0.01084   0.00460  -0.0989  0.9284  0.0170  -1.7714   0.0000   0.0000   0.0000   1.2383
  -2.800   0.1123   0.01059   0.00429  -0.0988  0.9267  0.0174  -1.7290   0.0000   0.0000   0.0000   1.1373
  -2.700   0.1240   0.01035   0.00400  -0.0988  0.9251  0.0181  -1.6899   0.0000   0.0000   0.0000   1.0528
  -2.600   0.1360   0.01013   0.00372  -0.0988  0.9237  0.0200  -1.6583   0.0000   0.0000   0.0000   0.9817
  -2.500   0.1479   0.00981   0.00343  -0.0987  0.9222  0.0361  -1.6655   0.0000   0.0000   0.0000   0.9221
  -2.400   0.1590   0.00936   0.00328  -0.0989  0.9207  0.1055  -1.6206   0.0000   0.0000   0.0000   0.8759
  -2.300   0.1704   0.00915   0.00322  -0.0990  0.9191  0.1430  -1.5423   0.0000   0.0000   0.0000   0.8344
  -2.200   0.1800   0.00898   0.00318  -0.0987  0.9169  0.1764  -1.4671   0.0000   0.0000   0.0000   0.8017
  -2.100   0.1894   0.00885   0.00314  -0.0984  0.9142  0.2027  -1.3916   0.0000   0.0000   0.0000   0.7723
  -2.000   0.1994   0.00872   0.00310  -0.0982  0.9116  0.2293  -1.3139   0.0000   0.0000   0.0000   0.7449
  -1.900   0.2098   0.00859   0.00305  -0.0980  0.9091  0.2562  -1.2347   0.0000   0.0000   0.0000   0.7194
  -1.800   0.2205   0.00845   0.00299  -0.0979  0.9068  0.2847  -1.1545   0.0000   0.0000   0.0000   0.6959
  -1.700   0.2315   0.00831   0.00293  -0.0978  0.9046  0.3116  -1.0733   0.0000   0.0000   0.0000   0.6743
  -1.600   0.2430   0.00825   0.00281  -0.0978  0.9026  0.3184  -0.9777   0.0000   0.0000   0.0000   0.6539
  -1.500   0.2539   0.00806   0.00276  -0.0977  0.9006  0.3647  -0.9028   0.0000   0.0000   0.0000   0.6362
  -1.400   0.2647   0.00785   0.00271  -0.0977  0.8987  0.4147  -0.8294   0.0000   0.0000   0.0000   0.6201
  -1.300   0.2755   0.00768   0.00268  -0.0976  0.8967  0.4634  -0.7572   0.0000   0.0000   0.0000   0.6051
  -1.200   0.2852   0.00749   0.00268  -0.0973  0.8943  0.5222  -0.6898   0.0000   0.0000   0.0000   0.5919
  -1.100   0.2936   0.00722   0.00269  -0.0968  0.8912  0.6046  -0.6273   0.0000   0.0000   0.0000   0.5802
  -1.000   0.3009   0.00692   0.00276  -0.0958  0.8879  0.7008  -0.5685   0.0000   0.0000   0.0000   0.5689
  -0.900   0.3084   0.00677   0.00283  -0.0947  0.8848  0.7719  -0.5100   0.0000   0.0000   0.0000   0.5575
  -0.800   0.3168   0.00669   0.00284  -0.0938  0.8818  0.8136  -0.4839   0.0000   0.0000   0.0000   0.5463
  -0.700   0.3259   0.00663   0.00283  -0.0931  0.8790  0.8387  -0.4917   0.0000   0.0000   0.0000   0.5357
  -0.600   0.3358   0.00660   0.00279  -0.0926  0.8764  0.8563  -0.5003   0.0000   0.0000   0.0000   0.5256
  -0.500   0.3455   0.00653   0.00273  -0.0920  0.8739  0.8668  -0.5093   0.0000   0.0000   0.0000   0.5161
  -0.400   0.3559   0.00649   0.00269  -0.0916  0.8712  0.8768  -0.5187   0.0000   0.0000   0.0000   0.5071
  -0.200   0.3741   0.00640   0.00264  -0.0905  0.8644  0.8949  -0.5358   0.0000   0.0000   0.0000   0.4912
  -0.100   0.3833   0.00634   0.00260  -0.0899  0.8606  0.9043  -0.5447   0.0000   0.0000   0.0000   0.4838
   0.000   0.3931   0.00629   0.00255  -0.0894  0.8568  0.9130  -0.5547   0.0000   0.0000   0.0000   0.4766
   0.100   0.4031   0.00622   0.00249  -0.0889  0.8533  0.9228  -0.5649   0.0000   0.0000   0.0000   0.4697
   0.200   0.4137   0.00616   0.00242  -0.0886  0.8499  0.9337  -0.5757   0.0000   0.0000   0.0000   0.4631
   0.300   0.4265   0.00610   0.00235  -0.0887  0.8468  0.9459  -0.5888   0.0000   0.0000   0.0000   0.4569
   0.400   0.4413   0.00606   0.00230  -0.0893  0.8435  0.9589  -0.6032   0.0000   0.0000   0.0000   0.4513
   0.500   0.4571   0.00602   0.00227  -0.0903  0.8393  0.9723  -0.6182   0.0000   0.0000   0.0000   0.4463
   0.600   0.4733   0.00598   0.00223  -0.0913  0.8347  0.9875  -0.6335   0.0000   0.0000   0.0000   0.4416
   0.700   0.4873   0.00595   0.00219  -0.0919  0.8297  1.0000  -0.6474   0.0000   0.0000   0.0000   0.4372
   0.800   0.4982   0.00594   0.00214  -0.0918  0.8247  1.0000  -0.6606   0.0000   0.0000   0.0000   0.4328
   0.900   0.5094   0.00593   0.00210  -0.0917  0.8198  1.0000  -0.6743   0.0000   0.0000   0.0000   0.4285
   1.000   0.5205   0.00593   0.00209  -0.0917  0.8148  1.0000  -0.6880   0.0000   0.0000   0.0000   0.4245
   1.100   0.5308   0.00593   0.00209  -0.0915  0.8084  1.0000  -0.7012   0.0000   0.0000   0.0000   0.4206
   1.200   0.5414   0.00593   0.00207  -0.0914  0.8012  1.0000  -0.7146   0.0000   0.0000   0.0000   0.4169
   1.300   0.5523   0.00593   0.00203  -0.0912  0.7941  1.0000  -0.7295   0.0000   0.0000   0.0000   0.4133
   1.400   0.5633   0.00595   0.00199  -0.0911  0.7872  1.0000  -0.7451   0.0000   0.0000   0.0000   0.4097
   1.500   0.5740   0.00596   0.00199  -0.0910  0.7800  1.0000  -0.7604   0.0000   0.0000   0.0000   0.4064
   1.600   0.5846   0.00598   0.00198  -0.0908  0.7715  1.0000  -0.7777   0.0000   0.0000   0.0000   0.4032
   1.700   0.5953   0.00600   0.00196  -0.0907  0.7628  1.0000  -0.7952   0.0000   0.0000   0.0000   0.4001
   1.800   0.6060   0.00604   0.00193  -0.0905  0.7540  1.0000  -0.8128   0.0000   0.0000   0.0000   0.3970
   1.900   0.6166   0.00607   0.00194  -0.0904  0.7447  1.0000  -0.8303   0.0000   0.0000   0.0000   0.3942
   2.000   0.6271   0.00611   0.00194  -0.0902  0.7340  1.0000  -0.8479   0.0000   0.0000   0.0000   0.3913
   2.100   0.6374   0.00618   0.00192  -0.0899  0.7233  1.0000  -0.8675   0.0000   0.0000   0.0000   0.3885
   2.200   0.6480   0.00623   0.00194  -0.0898  0.7137  1.0000  -0.8877   0.0000   0.0000   0.0000   0.3859
   2.300   0.6584   0.00629   0.00196  -0.0896  0.7027  1.0000  -0.9080   0.0000   0.0000   0.0000   0.3834
   2.400   0.6684   0.00638   0.00197  -0.0893  0.6912  1.0000  -0.9290   0.0000   0.0000   0.0000   0.3808
   2.500   0.6788   0.00645   0.00200  -0.0892  0.6807  1.0000  -0.9527   0.0000   0.0000   0.0000   0.3785
   2.600   0.6890   0.00652   0.00203  -0.0889  0.6685  1.0000  -0.9763   0.0000   0.0000   0.0000   0.3761
   2.700   0.6988   0.00664   0.00206  -0.0886  0.6557  1.0000  -1.0002   0.0000   0.0000   0.0000   0.3738
   2.800   0.7091   0.00671   0.00210  -0.0884  0.6448  1.0000  -1.0284   0.0000   0.0000   0.0000   0.3716
   2.900   0.7193   0.00680   0.00214  -0.0882  0.6325  1.0000  -1.0568   0.0000   0.0000   0.0000   0.3694
   3.000   0.7289   0.00692   0.00218  -0.0879  0.6198  1.0000  -1.0846   0.0000   0.0000   0.0000   0.3673
   3.100   0.7392   0.00700   0.00223  -0.0877  0.6095  1.0000  -1.1134   0.0000   0.0000   0.0000   0.3653
   3.200   0.7494   0.00708   0.00227  -0.0876  0.5980  1.0000  -1.1510   0.0000   0.0000   0.0000   0.3633
   3.300   0.7591   0.00721   0.00232  -0.0873  0.5852  1.0000  -1.1942   0.0000   0.0000   0.0000   0.3614
   3.400   0.7691   0.00731   0.00238  -0.0870  0.5737  1.0000  -1.2385   0.0000   0.0000   0.0000   0.3595
   3.500   0.7792   0.00740   0.00243  -0.0868  0.5611  1.0000  -1.2835   0.0000   0.0000   0.0000   0.3577
   3.600   0.7887   0.00754   0.00255  -0.0865  0.5481  1.0000  -1.3316   0.0000   0.0000   0.0000   0.3559
   3.700   0.7987   0.00764   0.00261  -0.0863  0.5367  1.0000  -1.3774   0.0000   0.0000   0.0000   0.3541
   3.800   0.8088   0.00774   0.00267  -0.0861  0.5242  1.0000  -1.4236   0.0000   0.0000   0.0000   0.3525
   3.900   0.8181   0.00789   0.00274  -0.0858  0.5098  1.0000  -1.4685   0.0000   0.0000   0.0000   0.3507
   4.000   0.8280   0.00801   0.00281  -0.0856  0.4971  1.0000  -1.5149   0.0000   0.0000   0.0000   0.3491
   4.100   0.8377   0.00814   0.00287  -0.0853  0.4822  1.0000  -1.5613   0.0000   0.0000   0.0000   0.3475
   4.200   0.8468   0.00831   0.00296  -0.0850  0.4672  1.0000  -1.6066   0.0000   0.0000   0.0000   0.3459
   4.300   0.8570   0.00841   0.00303  -0.0848  0.4548  1.0000  -1.6547   0.0000   0.0000   0.0000   0.3445
   4.400   0.8664   0.00857   0.00311  -0.0845  0.4400  1.0000  -1.7015   0.0000   0.0000   0.0000   0.3430
   4.500   0.8759   0.00872   0.00320  -0.0843  0.4271  1.0000  -1.7488   0.0000   0.0000   0.0000   0.3415
   4.600   0.8860   0.00883   0.00328  -0.0841  0.4154  1.0000  -1.7979   0.0000   0.0000   0.0000   0.3401
   4.700   0.8955   0.00899   0.00336  -0.0838  0.4021  1.0000  -1.8457   0.0000   0.0000   0.0000   0.3387
   4.800   0.9051   0.00913   0.00346  -0.0836  0.3903  1.0000  -1.8944   0.0000   0.0000   0.0000   0.3374
   4.900   0.9150   0.00926   0.00355  -0.0834  0.3775  1.0000  -1.9441   0.0000   0.0000   0.0000   0.3360
   5.000   0.9238   0.00948   0.00366  -0.0830  0.3603  1.0000  -1.9914   0.0000   0.0000   0.0000   0.3347
   5.100   0.9334   0.00963   0.00376  -0.0828  0.3449  1.0000  -2.0412   0.0000   0.0000   0.0000   0.3334
   5.200   0.9420   0.00988   0.00388  -0.0824  0.3251  1.0000  -2.0885   0.0000   0.0000   0.0000   0.3321
   5.300   0.9515   0.01005   0.00399  -0.0822  0.3092  1.0000  -2.1387   0.0000   0.0000   0.0000   0.3309
   5.400   0.9601   0.01030   0.00412  -0.0819  0.2911  1.0000  -2.1868   0.0000   0.0000   0.0000   0.3296
   5.500   0.9699   0.01044   0.00423  -0.0817  0.2786  1.0000  -2.2381   0.0000   0.0000   0.0000   0.3285
   5.600   0.9790   0.01065   0.00436  -0.0814  0.2647  1.0000  -2.2881   0.0000   0.0000   0.0000   0.3273
   5.700   0.9884   0.01083   0.00448  -0.0812  0.2526  1.0000  -2.3392   0.0000   0.0000   0.0000   0.3262
   5.800   0.9980   0.01100   0.00460  -0.0809  0.2406  1.0000  -2.3908   0.0000   0.0000   0.0000   0.3251
   5.900   1.0068   0.01124   0.00475  -0.0806  0.2266  1.0000  -2.4408   0.0000   0.0000   0.0000   0.3239
   6.000   1.0165   0.01139   0.00487  -0.0804  0.2166  1.0000  -2.4936   0.0000   0.0000   0.0000   0.3229
   6.100   1.0256   0.01160   0.00502  -0.0802  0.2042  1.0000  -2.5449   0.0000   0.0000   0.0000   0.3218
   6.200   1.0348   0.01181   0.00516  -0.0799  0.1927  1.0000  -2.5965   0.0000   0.0000   0.0000   0.3207
   6.300   1.0435   0.01207   0.00547  -0.0796  0.1774  1.0000  -2.6467   0.0000   0.0000   0.0000   0.3196
   6.400   1.0524   0.01230   0.00564  -0.0793  0.1654  1.0000  -2.6980   0.0000   0.0000   0.0000   0.3186
   6.500   1.0618   0.01249   0.00579  -0.0790  0.1553  1.0000  -2.7509   0.0000   0.0000   0.0000   0.3176
   6.600   1.0702   0.01277   0.00599  -0.0787  0.1428  1.0000  -2.8016   0.0000   0.0000   0.0000   0.3166
   6.700   1.0796   0.01295   0.00615  -0.0784  0.1339  1.0000  -2.8547   0.0000   0.0000   0.0000   0.3156
   6.800   1.0882   0.01322   0.00633  -0.0781  0.1228  1.0000  -2.9060   0.0000   0.0000   0.0000   0.3146
   6.900   1.0971   0.01345   0.00652  -0.0778  0.1132  1.0000  -2.9686   0.0000   0.0000   0.0000   0.3136
   7.000   1.1058   0.01369   0.00671  -0.0775  0.1038  1.0000  -3.0341   0.0000   0.0000   0.0000   0.3127
   7.100   1.1143   0.01397   0.00692  -0.0771  0.0936  1.0000  -3.0985   0.0000   0.0000   0.0000   0.3117
   7.200   1.1232   0.01420   0.00712  -0.0768  0.0861  1.0000  -3.1651   0.0000   0.0000   0.0000   0.3108
   7.300   1.1312   0.01453   0.00736  -0.0764  0.0761  1.0000  -3.2277   0.0000   0.0000   0.0000   0.3098
   7.400   1.1402   0.01474   0.00756  -0.0761  0.0704  1.0000  -3.2944   0.0000   0.0000   0.0000   0.3089
   7.500   1.1483   0.01504   0.00780  -0.0757  0.0636  1.0000  -3.3581   0.0000   0.0000   0.0000   0.3079
   7.600   1.1561   0.01539   0.00810  -0.0752  0.0563  1.0000  -3.4168   0.0000   0.0000   0.0000   0.3069
   7.700   1.1652   0.01558   0.00831  -0.0749  0.0533  1.0000  -3.4836   0.0000   0.0000   0.0000   0.3060
   7.800   1.1734   0.01586   0.00857  -0.0745  0.0495  1.0000  -3.5467   0.0000   0.0000   0.0000   0.3051
   7.900   1.1808   0.01625   0.00891  -0.0740  0.0452  1.0000  -3.6029   0.0000   0.0000   0.0000   0.3041
   8.000   1.1871   0.01674   0.00942  -0.0732  0.0413  1.0000  -3.6469   0.0000   0.0000   0.0000   0.3030
   8.100   1.1966   0.01687   0.00956  -0.0730  0.0405  1.0000  -3.7208   0.0000   0.0000   0.0000   0.3022
   8.200   1.2059   0.01701   0.00972  -0.0728  0.0394  1.0000  -3.7947   0.0000   0.0000   0.0000   0.3014
   8.300   1.2150   0.01717   0.00989  -0.0725  0.0380  1.0000  -3.8695   0.0000   0.0000   0.0000   0.3006
   8.400   1.2240   0.01733   0.01006  -0.0723  0.0365  1.0000  -3.9455   0.0000   0.0000   0.0000   0.2999
   8.500   1.2327   0.01753   0.01024  -0.0720  0.0349  1.0000  -4.0212   0.0000   0.0000   0.0000   0.2991
   8.600   1.2410   0.01776   0.01045  -0.0716  0.0332  1.0000  -4.1166   0.0000   0.0000   0.0000   0.2983
   8.700   1.2483   0.01809   0.01078  -0.0712  0.0296  1.0000  -4.2274   0.0000   0.0000   0.0000   0.2974
   8.800   1.2556   0.01842   0.01113  -0.0706  0.0283  1.0000  -4.3388   0.0000   0.0000   0.0000   0.2965
   8.900   1.2648   0.01855   0.01128  -0.0704  0.0281  1.0000  -4.4724   0.0000   0.0000   0.0000   0.2958
   9.000   1.2737   0.01870   0.01145  -0.0701  0.0278  1.0000  -4.6057   0.0000   0.0000   0.0000   0.2950
   9.100   1.2824   0.01887   0.01164  -0.0698  0.0274  1.0000  -4.7390   0.0000   0.0000   0.0000   0.2943
   9.200   1.2909   0.01904   0.01184  -0.0695  0.0271  1.0000  -4.8725   0.0000   0.0000   0.0000   0.2935
   9.300   1.2994   0.01923   0.01206  -0.0691  0.0266  1.0000  -5.0063   0.0000   0.0000   0.0000   0.2927
   9.400   1.3076   0.01943   0.01228  -0.0687  0.0262  1.0000  -5.1407   0.0000   0.0000   0.0000   0.2920
   9.500   1.3158   0.01963   0.01250  -0.0684  0.0257  1.0000  -5.2758   0.0000   0.0000   0.0000   0.2912
   9.600   1.3240   0.01983   0.01272  -0.0680  0.0253  1.0000  -5.4118   0.0000   0.0000   0.0000   0.2905
   9.700   1.3320   0.02003   0.01295  -0.0676  0.0248  1.0000  -5.5487   0.0000   0.0000   0.0000   0.2897
   9.800   1.3400   0.02024   0.01317  -0.0672  0.0243  1.0000  -5.6865   0.0000   0.0000   0.0000   0.2890
   9.900   1.3478   0.02045   0.01340  -0.0667  0.0238  1.0000  -5.8247   0.0000   0.0000   0.0000   0.2882
  10.000   1.3555   0.02066   0.01363  -0.0663  0.0232  1.0000  -5.9631   0.0000   0.0000   0.0000   0.2875
  10.100   1.3631   0.02088   0.01386  -0.0659  0.0227  1.0000  -6.1015   0.0000   0.0000   0.0000   0.2867
  10.200   1.3702   0.02111   0.01409  -0.0653  0.0221  1.0000  -6.2382   0.0000   0.0000   0.0000   0.2859
  10.300   1.3771   0.02134   0.01433  -0.0648  0.0216  1.0000  -6.3732   0.0000   0.0000   0.0000   0.2851
  10.400   1.3837   0.02159   0.01459  -0.0642  0.0210  1.0000  -6.5065   0.0000   0.0000   0.0000   0.2843
  10.500   1.3901   0.02186   0.01488  -0.0635  0.0203  1.0000  -6.6372   0.0000   0.0000   0.0000   0.2835
  10.600   1.3959   0.02216   0.01520  -0.0628  0.0197  1.0000  -6.7639   0.0000   0.0000   0.0000   0.2826
  10.700   1.4013   0.02250   0.01556  -0.0620  0.0190  1.0000  -6.8855   0.0000   0.0000   0.0000   0.2817
  10.800   1.4061   0.02287   0.01597  -0.0611  0.0183  1.0000  -7.0014   0.0000   0.0000   0.0000   0.2808
  10.900   1.4105   0.02326   0.01640  -0.0602  0.0178  1.0000  -7.1133   0.0000   0.0000   0.0000   0.2799
  11.000   1.4197   0.02329   0.01643  -0.0601  0.0176  1.0000  -7.2756   0.0000   0.0000   0.0000   0.2793
  11.100   1.4286   0.02334   0.01649  -0.0598  0.0174  1.0000  -7.4331   0.0000   0.0000   0.0000   0.2787
  11.200   1.4368   0.02344   0.01660  -0.0595  0.0171  1.0000  -7.5820   0.0000   0.0000   0.0000   0.2781
  11.300   1.4445   0.02359   0.01677  -0.0591  0.0166  1.0000  -7.7214   0.0000   0.0000   0.0000   0.2774
  11.400   1.4520   0.02374   0.01694  -0.0587  0.0156  1.0000  -7.8599   0.0000   0.0000   0.0000   0.2767
  11.500   1.4572   0.02407   0.01737  -0.0579  0.0156  1.0000  -8.0040   0.0000   0.0000   0.0000   0.2759
  11.600   1.4634   0.02432   0.01765  -0.0573  0.0144  1.0000  -8.1343   0.0000   0.0000   0.0000   0.2752
  11.700   1.4687   0.02465   0.01798  -0.0566  0.0126  1.0000  -8.2528   0.0000   0.0000   0.0000   0.2744
  11.800   1.4726   0.02509   0.01838  -0.0558  0.0103  1.0000  -8.3613   0.0000   0.0000   0.0000   0.2736
  11.900   1.4759   0.02557   0.01886  -0.0549  0.0087  1.0000  -8.4603   0.0000   0.0000   0.0000   0.2727
  12.000   1.4791   0.02608   0.01939  -0.0540  0.0074  1.0000  -8.5563   0.0000   0.0000   0.0000   0.2719
  12.100   1.4818   0.02662   0.01994  -0.0531  0.0065  1.0000  -8.6483   0.0000   0.0000   0.0000   0.2710
  12.200   1.4842   0.02718   0.02052  -0.0521  0.0057  1.0000  -8.7369   0.0000   0.0000   0.0000   0.2701
  12.300   1.4868   0.02773   0.02111  -0.0512  0.0051  1.0000  -8.8236   0.0000   0.0000   0.0000   0.2693
  12.400   1.4895   0.02829   0.02172  -0.0503  0.0046  1.0000  -8.9044   0.0000   0.0000   0.0000   0.2684
  12.500   1.4916   0.02890   0.02240  -0.0493  0.0043  1.0000  -8.9759   0.0000   0.0000   0.0000   0.2675
  12.600   1.4937   0.02953   0.02307  -0.0484  0.0042  1.0000  -9.0524   0.0000   0.0000   0.0000   0.2667
  12.700   1.4959   0.03014   0.02375  -0.0475  0.0041  1.0000  -9.1400   0.0000   0.0000   0.0000   0.2659
  12.800   1.4979   0.03077   0.02445  -0.0466  0.0040  1.0000  -9.2256   0.0000   0.0000   0.0000   0.2651
  12.900   1.4994   0.03145   0.02520  -0.0458  0.0040  1.0000  -9.3074   0.0000   0.0000   0.0000   0.2643
  13.000   1.5005   0.03216   0.02598  -0.0449  0.0040  1.0000  -9.3863   0.0000   0.0000   0.0000   0.2635
  13.100   1.5014   0.03289   0.02678  -0.0440  0.0039  1.0000  -9.4634   0.0000   0.0000   0.0000   0.2628
  13.200   1.5018   0.03367   0.02764  -0.0432  0.0039  1.0000  -9.5363   0.0000   0.0000   0.0000   0.2620
  13.300   1.5019   0.03450   0.02853  -0.0424  0.0039  1.0000  -9.6066   0.0000   0.0000   0.0000   0.2613
  13.400   1.5019   0.03536   0.02946  -0.0416  0.0039  1.0000  -9.6758   0.0000   0.0000   0.0000   0.2606
  13.500   1.5016   0.03626   0.03044  -0.0408  0.0038  1.0000  -9.7415   0.0000   0.0000   0.0000   0.2599
  13.600   1.5007   0.03723   0.03148  -0.0401  0.0038  1.0000  -9.8028   0.0000   0.0000   0.0000   0.2592
  13.700   1.4999   0.03822   0.03255  -0.0394  0.0038  1.0000  -9.8629   0.0000   0.0000   0.0000   0.2586
  13.800   1.4987   0.03927   0.03368  -0.0388  0.0038  1.0000  -9.9198   0.0000   0.0000   0.0000   0.2580
  13.900   1.4969   0.04039   0.03487  -0.0382  0.0038  1.0000  -9.9714   0.0000   0.0000   0.0000   0.2574
  14.000   1.4951   0.04155   0.03611  -0.0377  0.0038  1.0000  -10.0218   0.0000   0.0000   0.0000   0.2569
  14.100   1.4929   0.04276   0.03740  -0.0372  0.0038  1.0000  -10.0681   0.0000   0.0000   0.0000   0.2565
  14.200   1.4902   0.04405   0.03877  -0.0368  0.0038  1.0000  -10.1088   0.0000   0.0000   0.0000   0.2560
  14.300   1.4873   0.04537   0.04016  -0.0364  0.0037  1.0000  -10.1475   0.0000   0.0000   0.0000   0.2556
  14.400   1.4838   0.04680   0.04167  -0.0361  0.0037  1.0000  -10.1798   0.0000   0.0000   0.0000   0.2553
  14.500   1.4803   0.04828   0.04323  -0.0359  0.0037  1.0000  -10.2111   0.0000   0.0000   0.0000   0.2550
  14.600   1.4765   0.04984   0.04487  -0.0358  0.0037  1.0000  -10.2387   0.0000   0.0000   0.0000   0.2548
  14.700   1.4725   0.05150   0.04661  -0.0359  0.0037  1.0000  -10.2622   0.0000   0.0000   0.0000   0.2547
  14.800   1.4684   0.05321   0.04840  -0.0359  0.0037  1.0000  -10.2841   0.0000   0.0000   0.0000   0.2546
  14.900   1.4637   0.05506   0.05032  -0.0362  0.0037  1.0000  -10.2992   0.0000   0.0000   0.0000   0.2546
  15.000   1.4592   0.05692   0.05227  -0.0364  0.0037  1.0000  -10.3142   0.0000   0.0000   0.0000   0.2547
  15.100   1.4540   0.05894   0.05437  -0.0369  0.0037  1.0000  -10.3216   0.0000   0.0000   0.0000   0.2548
  15.200   1.4490   0.06098   0.05649  -0.0374  0.0037  1.0000  -10.3291   0.0000   0.0000   0.0000   0.2550
  15.300   1.4435   0.06317   0.05875  -0.0380  0.0037  1.0000  -10.3298   0.0000   0.0000   0.0000   0.2554
  15.400   1.4379   0.06540   0.06106  -0.0387  0.0037  1.0000  -10.3290   0.0000   0.0000   0.0000   0.2557
  15.500   1.4321   0.06773   0.06347  -0.0395  0.0037  1.0000  -10.3230   0.0000   0.0000   0.0000   0.2562
  15.600   1.4261   0.07015   0.06597  -0.0404  0.0037  1.0000  -10.3135   0.0000   0.0000   0.0000   0.2567
  15.700   1.4199   0.07263   0.06852  -0.0414  0.0037  1.0000  -10.3008   0.0000   0.0000   0.0000   0.2573
  15.800   1.4134   0.07523   0.07120  -0.0425  0.0037  1.0000  -10.2820   0.0000   0.0000   0.0000   0.2580
  15.900   1.4069   0.07784   0.07389  -0.0437  0.0037  1.0000  -10.2626   0.0000   0.0000   0.0000   0.2588
  16.000   1.3998   0.08061   0.07674  -0.0449  0.0037  1.0000  -10.2338   0.0000   0.0000   0.0000   0.2596
  16.100   1.3928   0.08331   0.07951  -0.0462  0.0037  1.0000  -10.2059   0.0000   0.0000   0.0000   0.2605
  16.200   1.3852   0.08625   0.08252  -0.0476  0.0037  1.0000  -10.1676   0.0000   0.0000   0.0000   0.2615
  16.300   1.3780   0.08912   0.08546  -0.0490  0.0038  1.0000  -10.1328   0.0000   0.0000   0.0000   0.2625
  16.400   1.3702   0.09223   0.08865  -0.0506  0.0038  1.0000  -10.0873   0.0000   0.0000   0.0000   0.2636
  16.500   1.3628   0.09529   0.09177  -0.0521  0.0038  1.0000  -10.0442   0.0000   0.0000   0.0000   0.2648
  16.600   1.3550   0.09851   0.09506  -0.0538  0.0038  1.0000  -9.9931   0.0000   0.0000   0.0000   0.2661
  16.700   1.3473   0.10175   0.09837  -0.0555  0.0038  1.0000  -9.9404   0.0000   0.0000   0.0000   0.2674
  16.800   1.3396   0.10502   0.10170  -0.0573  0.0038  1.0000  -9.8853   0.0000   0.0000   0.0000   0.2687
  16.900   1.3314   0.10844   0.10520  -0.0592  0.0038  1.0000  -9.8216   0.0000   0.0000   0.0000   0.2702
  17.000   1.3239   0.11174   0.10855  -0.0610  0.0038  1.0000  -9.7622   0.0000   0.0000   0.0000   0.2717
  17.100   1.3155   0.11532   0.11220  -0.0630  0.0038  1.0000  -9.6881   0.0000   0.0000   0.0000   0.2733
  17.200   1.3077   0.11872   0.11566  -0.0649  0.0038  1.0000  -9.6203   0.0000   0.0000   0.0000   0.2749
  17.300   1.2995   0.12231   0.11931  -0.0669  0.0038  1.0000  -9.5416   0.0000   0.0000   0.0000   0.2766
  17.400   1.2915   0.12588   0.12294  -0.0690  0.0038  1.0000  -9.4619   0.0000   0.0000   0.0000   0.2784
  17.500   1.2838   0.12937   0.12649  -0.0710  0.0038  1.0000  -9.3830   0.0000   0.0000   0.0000   0.2801
  17.600   1.2753   0.13317   0.13035  -0.0732  0.0038  1.0000  -9.2874   0.0000   0.0000   0.0000   0.2821
  17.700   1.2675   0.13673   0.13397  -0.0753  0.0038  1.0000  -9.2005   0.0000   0.0000   0.0000   0.2839
  17.800   1.2593   0.14052   0.13780  -0.0775  0.0039  1.0000  -9.0997   0.0000   0.0000   0.0000   0.2859
  17.900   1.2512   0.14429   0.14163  -0.0797  0.0039  1.0000  -8.9969   0.0000   0.0000   0.0000   0.2880
  18.000   1.2436   0.14793   0.14532  -0.0819  0.0039  1.0000  -8.8975   0.0000   0.0000   0.0000   0.2900
  18.100   1.2349   0.15198   0.14942  -0.0843  0.0039  1.0000  -8.7735   0.0000   0.0000   0.0000   0.2923
  18.200   1.2271   0.15578   0.15327  -0.0865  0.0039  1.0000  -8.6595   0.0000   0.0000   0.0000   0.2945
  18.300   1.2191   0.15963   0.15717  -0.0889  0.0039  1.0000  -8.5360   0.0000   0.0000   0.0000   0.2968
  18.400   1.2107   0.16355   0.16114  -0.0914  0.0039  1.0000  -8.3942   0.0000   0.0000   0.0000   0.2993
  18.500   1.2031   0.16724   0.16488  -0.0937  0.0039  1.0000  -8.2616   0.0000   0.0000   0.0000   0.3016
  18.600   1.1942   0.17145   0.16914  -0.0963  0.0040  1.0000  -8.0952   0.0000   0.0000   0.0000   0.3044
  18.700   1.1857   0.17569   0.17342  -0.0989  0.0040  1.0000  -7.9269   0.0000   0.0000   0.0000   0.3071
  18.800   1.1769   0.18017   0.17795  -0.1016  0.0040  1.0000  -7.7428   0.0000   0.0000   0.0000   0.3100
  18.900   1.1661   0.18546   0.18328  -0.1046  0.0040  1.0000  -7.5035   0.0000   0.0000   0.0000   0.3134
  19.000   1.1556   0.19083   0.18870  -0.1076  0.0040  1.0000  -7.2559   0.0000   0.0000   0.0000   0.3169
  19.100   1.1406   0.19809   0.19601  -0.1115  0.0041  1.0000  -6.8723   0.0000   0.0000   0.0000   0.3217
  19.200   1.1036   0.21449   0.21247  -0.1192  0.0042  1.0000  -5.7938   0.0000   0.0000   0.0000   0.3329
  19.300   1.0834   0.22595   0.22390  -0.1239  0.0043  1.0000  -5.0703   0.0000   0.0000   0.0000   0.3398
  19.400   1.0718   0.23447   0.23241  -0.1270  0.0045  1.0000  -4.5640   0.0000   0.0000   0.0000   0.3444
  19.500   1.0646   0.24137   0.23930  -0.1293  0.0047  1.0000  -4.1641   0.0000   0.0000   0.0000   0.3476
  19.600   1.0404   0.26189   0.25973  -0.1343  0.0067  1.0000  -2.6516   0.0000   0.0000   0.0000   0.3564
  19.700   1.0406   0.26521   0.26304  -0.1354  0.0071  1.0000  -2.5543   0.0000   0.0000   0.0000   0.3574
  19.800   1.0412   0.26808   0.26591  -0.1363  0.0075  1.0000  -2.4920   0.0000   0.0000   0.0000   0.3581
  19.900   1.0422   0.27066   0.26849  -0.1372  0.0079  1.0000  -2.4520   0.0000   0.0000   0.0000   0.3586
  20.000   1.0433   0.27301   0.27085  -0.1379  0.0083  1.0000  -2.4298   0.0000   0.0000   0.0000   0.3590
  20.100   1.0442   0.27528   0.27312  -0.1386  0.0087  1.0000  -2.4170   0.0000   0.0000   0.0000   0.3594
  20.700   1.0555   0.28803   0.28590  -0.1424  0.0106  1.0000  -2.3710   0.0000   0.0000   0.0000   0.3606
  20.800   1.0567   0.29045   0.28832  -0.1432  0.0105  1.0000  -2.3523   0.0000   0.0000   0.0000   0.3611
  20.900   1.0580   0.29275   0.29063  -0.1440  0.0105  1.0000  -2.3430   0.0000   0.0000   0.0000   0.3614
  21.000   1.0593   0.29498   0.29286  -0.1447  0.0105  1.0000  -2.3397   0.0000   0.0000   0.0000   0.3617
  21.100   1.0607   0.29716   0.29504  -0.1454  0.0104  1.0000  -2.3404   0.0000   0.0000   0.0000   0.3620
  21.200   1.0621   0.29932   0.29720  -0.1460  0.0104  1.0000  -2.3439   0.0000   0.0000   0.0000   0.3622
  21.300   1.0632   0.30161   0.29950  -0.1467  0.0103  1.0000  -2.3408   0.0000   0.0000   0.0000   0.3626
  21.400   1.0641   0.30397   0.30186  -0.1473  0.0102  1.0000  -2.3361   0.0000   0.0000   0.0000   0.3629
  21.500   1.0646   0.30652   0.30442  -0.1480  0.0101  1.0000  -2.3249   0.0000   0.0000   0.0000   0.3633
  21.600   1.0577   0.31395   0.31181  -0.1489  0.0097  1.0000  -2.1024   0.0000   0.0000   0.0000   0.3652
  21.700   1.0587   0.31639   0.31426  -0.1496  0.0097  1.0000  -2.0892   0.0000   0.0000   0.0000   0.3655
  21.800   1.0596   0.31883   0.31670  -0.1503  0.0097  1.0000  -2.0762   0.0000   0.0000   0.0000   0.3659
  21.900   1.0604   0.32127   0.31914  -0.1510  0.0097  1.0000  -2.0633   0.0000   0.0000   0.0000   0.3663
  22.000   1.0612   0.32370   0.32157  -0.1516  0.0097  1.0000  -2.0505   0.0000   0.0000   0.0000   0.3666
  22.100   1.0619   0.32613   0.32401  -0.1523  0.0097  1.0000  -2.0377   0.0000   0.0000   0.0000   0.3670
  22.200   1.0625   0.32856   0.32644  -0.1530  0.0097  1.0000  -2.0250   0.0000   0.0000   0.0000   0.3673
  22.300   1.0631   0.33098   0.32887  -0.1536  0.0097  1.0000  -2.0124   0.0000   0.0000   0.0000   0.3677
  22.400   1.0636   0.33340   0.33130  -0.1542  0.0096  1.0000  -1.9998   0.0000   0.0000   0.0000   0.3681
  22.500   1.0639   0.33582   0.33371  -0.1548  0.0096  1.0000  -1.9872   0.0000   0.0000   0.0000   0.3684
  22.600   1.0642   0.33823   0.33613  -0.1554  0.0096  1.0000  -1.9746   0.0000   0.0000   0.0000   0.3688
  22.700   1.0644   0.34063   0.33853  -0.1560  0.0096  1.0000  -1.9619   0.0000   0.0000   0.0000   0.3692
  22.800   1.0644   0.34302   0.34092  -0.1566  0.0096  1.0000  -1.9491   0.0000   0.0000   0.0000   0.3695
  22.900   1.0643   0.34539   0.34331  -0.1571  0.0096  1.0000  -1.9361   0.0000   0.0000   0.0000   0.3699
  23.000   1.0640   0.34775   0.34567  -0.1576  0.0096  1.0000  -1.9230   0.0000   0.0000   0.0000   0.3702
  23.100   1.0635   0.35010   0.34802  -0.1581  0.0096  1.0000  -1.9095   0.0000   0.0000   0.0000   0.3706
  23.200   1.0627   0.35241   0.35034  -0.1586  0.0096  1.0000  -1.8956   0.0000   0.0000   0.0000   0.3710
  23.300   1.0617   0.35470   0.35264  -0.1590  0.0096  1.0000  -1.8811   0.0000   0.0000   0.0000   0.3714
  23.400   1.0603   0.35694   0.35489  -0.1594  0.0096  1.0000  -1.8661   0.0000   0.0000   0.0000   0.3718
  23.500   1.0585   0.35913   0.35712  -0.1596  0.0096  1.0000  -1.8523   0.0000   0.0000   0.0000   0.3722
  23.600   1.0560   0.36124   0.35924  -0.1599  0.0096  1.0000  -1.8355   0.0000   0.0000   0.0000   0.3726
  23.700   1.0526   0.36322   0.36122  -0.1599  0.0096  1.0000  -1.8164   0.0000   0.0000   0.0000   0.3730
  23.800   1.0474   0.36494   0.36296  -0.1597  0.0096  1.0000  -1.7931   0.0000   0.0000   0.0000   0.3735
  24.000   0.9124   0.33453   0.33270  -0.1413  0.0096  1.0000  -1.4547   0.0000   0.0000   0.0000   0.3778
  24.100   0.9085   0.33449   0.33268  -0.1411  0.0096  1.0000  -1.4357   0.0000   0.0000   0.0000   0.3783
  24.200   0.9048   0.33450   0.33270  -0.1411  0.0096  1.0000  -1.4177   0.0000   0.0000   0.0000   0.3788
  24.300   0.9015   0.33456   0.33280  -0.1410  0.0096  1.0000  -1.4019   0.0000   0.0000   0.0000   0.3792
  24.400   0.8984   0.33467   0.33291  -0.1410  0.0096  1.0000  -1.3856   0.0000   0.0000   0.0000   0.3797
  24.500   0.8956   0.33481   0.33306  -0.1411  0.0096  1.0000  -1.3698   0.0000   0.0000   0.0000   0.3801
  24.600   0.8929   0.33498   0.33324  -0.1411  0.0096  1.0000  -1.3544   0.0000   0.0000   0.0000   0.3805
  24.700   0.8904   0.33518   0.33345  -0.1412  0.0096  1.0000  -1.3397   0.0000   0.0000   0.0000   0.3810
  24.800   0.8880   0.33540   0.33368  -0.1413  0.0095  1.0000  -1.3253   0.0000   0.0000   0.0000   0.3814
  24.900   0.8858   0.33565   0.33394  -0.1414  0.0095  1.0000  -1.3115   0.0000   0.0000   0.0000   0.3818
  25.000   0.8838   0.33591   0.33421  -0.1416  0.0095  1.0000  -1.2980   0.0000   0.0000   0.0000   0.3822
  25.100   0.8818   0.33620   0.33450  -0.1417  0.0095  1.0000  -1.2848   0.0000   0.0000   0.0000   0.3826
  25.200   0.8799   0.33651   0.33482  -0.1419  0.0095  1.0000  -1.2716   0.0000   0.0000   0.0000   0.3830
  25.300   0.8781   0.33682   0.33514  -0.1421  0.0095  1.0000  -1.2587   0.0000   0.0000   0.0000   0.3834
  25.400   0.8765   0.33716   0.33549  -0.1423  0.0095  1.0000  -1.2461   0.0000   0.0000   0.0000   0.3838
  25.500   0.8749   0.33751   0.33584  -0.1425  0.0095  1.0000  -1.2339   0.0000   0.0000   0.0000   0.3842
  25.600   0.8733   0.33788   0.33622  -0.1427  0.0095  1.0000  -1.2208   0.0000   0.0000   0.0000   0.3847
  25.700   0.8718   0.33828   0.33663  -0.1430  0.0094  1.0000  -1.2070   0.0000   0.0000   0.0000   0.3851
  25.800   0.8704   0.33869   0.33705  -0.1433  0.0094  1.0000  -1.1935   0.0000   0.0000   0.0000   0.3856
  25.900   0.8691   0.33912   0.33748  -0.1435  0.0094  1.0000  -1.1802   0.0000   0.0000   0.0000   0.3860
  26.000   0.8679   0.33957   0.33794  -0.1438  0.0094  1.0000  -1.1672   0.0000   0.0000   0.0000   0.3864
  26.100   0.8668   0.34004   0.33841  -0.1442  0.0093  1.0000  -1.1543   0.0000   0.0000   0.0000   0.3869
  26.200   0.8657   0.34052   0.33890  -0.1445  0.0093  1.0000  -1.1416   0.0000   0.0000   0.0000   0.3873
  26.300   0.8648   0.34103   0.33941  -0.1448  0.0093  1.0000  -1.1289   0.0000   0.0000   0.0000   0.3877
  26.400   0.8639   0.34156   0.33995  -0.1452  0.0092  1.0000  -1.1162   0.0000   0.0000   0.0000   0.3881
  26.500   0.8631   0.34212   0.34052  -0.1455  0.0092  1.0000  -1.1033   0.0000   0.0000   0.0000   0.3885
  26.600   0.8625   0.34271   0.34112  -0.1459  0.0091  1.0000  -1.0901   0.0000   0.0000   0.0000   0.3889
  26.700   0.8620   0.34334   0.34175  -0.1463  0.0090  1.0000  -1.0764   0.0000   0.0000   0.0000   0.3893
  26.800   0.8616   0.34400   0.34242  -0.1467  0.0089  1.0000  -1.0624   0.0000   0.0000   0.0000   0.3897
  26.900   0.8612   0.34467   0.34309  -0.1470  0.0088  1.0000  -1.0483   0.0000   0.0000   0.0000   0.3901
  27.000   0.8607   0.34530   0.34373  -0.1474  0.0086  1.0000  -1.0352   0.0000   0.0000   0.0000   0.3904
  27.100   0.8602   0.34589   0.34433  -0.1477  0.0084  1.0000  -1.0237   0.0000   0.0000   0.0000   0.3907
  27.200   0.8596   0.34644   0.34488  -0.1480  0.0083  1.0000  -1.0137   0.0000   0.0000   0.0000   0.3910
  27.300   0.8589   0.34696   0.34540  -0.1483  0.0081  1.0000  -1.0051   0.0000   0.0000   0.0000   0.3913
  27.400   0.8582   0.34744   0.34590  -0.1486  0.0079  1.0000  -0.9974   0.0000   0.0000   0.0000   0.3916
  27.500   0.8575   0.34794   0.34640  -0.1488  0.0078  1.0000  -0.9906   0.0000   0.0000   0.0000   0.3919
  27.600   0.8569   0.34842   0.34689  -0.1491  0.0076  1.0000  -0.9845   0.0000   0.0000   0.0000   0.3922
  27.700   0.8562   0.34890   0.34737  -0.1494  0.0075  1.0000  -0.9788   0.0000   0.0000   0.0000   0.3925
  27.800   0.8555   0.34937   0.34785  -0.1497  0.0073  1.0000  -0.9736   0.0000   0.0000   0.0000   0.3928
  27.900   0.8549   0.34985   0.34834  -0.1500  0.0072  1.0000  -0.9688   0.0000   0.0000   0.0000   0.3930
  28.000   0.8543   0.35032   0.34882  -0.1503  0.0071  1.0000  -0.9644   0.0000   0.0000   0.0000   0.3933
  28.100   0.8537   0.35080   0.34930  -0.1506  0.0070  1.0000  -0.9602   0.0000   0.0000   0.0000   0.3936
  28.200   0.8531   0.35127   0.34978  -0.1508  0.0068  1.0000  -0.9565   0.0000   0.0000   0.0000   0.3939
  28.300   0.8525   0.35175   0.35026  -0.1511  0.0067  1.0000  -0.9531   0.0000   0.0000   0.0000   0.3942
  28.400   0.8519   0.35223   0.35074  -0.1514  0.0066  1.0000  -0.9500   0.0000   0.0000   0.0000   0.3944
  28.500   0.8514   0.35270   0.35123  -0.1517  0.0065  1.0000  -0.9472   0.0000   0.0000   0.0000   0.3947
  28.600   0.8508   0.35318   0.35171  -0.1521  0.0064  1.0000  -0.9446   0.0000   0.0000   0.0000   0.3950
  28.700   0.8503   0.35366   0.35220  -0.1524  0.0063  1.0000  -0.9422   0.0000   0.0000   0.0000   0.3952
  28.800   0.8498   0.35414   0.35269  -0.1527  0.0062  1.0000  -0.9401   0.0000   0.0000   0.0000   0.3955
  28.900   0.8493   0.35462   0.35317  -0.1530  0.0062  1.0000  -0.9382   0.0000   0.0000   0.0000   0.3958
  29.000   0.8488   0.35510   0.35366  -0.1533  0.0061  1.0000  -0.9365   0.0000   0.0000   0.0000   0.3960
  29.100   0.8483   0.35559   0.35415  -0.1536  0.0060  1.0000  -0.9350   0.0000   0.0000   0.0000   0.3963
  29.200   0.8479   0.35606   0.35463  -0.1539  0.0059  1.0000  -0.9340   0.0000   0.0000   0.0000   0.3965
  29.300   0.8474   0.35653   0.35511  -0.1542  0.0058  1.0000  -0.9340   0.0000   0.0000   0.0000   0.3968
  29.400   0.8470   0.35700   0.35558  -0.1546  0.0057  1.0000  -0.9352   0.0000   0.0000   0.0000   0.3970
  29.500   0.8466   0.35747   0.35608  -0.1549  0.0056  1.0000  -0.9366   0.0000   0.0000   0.0000   0.3973
  29.600   0.8462   0.35790   0.35652  -0.1552  0.0055  1.0000  -0.9403   0.0000   0.0000   0.0000   0.3975
  29.700   0.8458   0.35835   0.35697  -0.1556  0.0054  1.0000  -0.9463   0.0000   0.0000   0.0000   0.3978
  29.800   0.8455   0.35875   0.35738  -0.1559  0.0053  1.0000  -0.9548   0.0000   0.0000   0.0000   0.3980
  29.900   0.8451   0.35913   0.35776  -0.1562  0.0051  1.0000  -0.9661   0.0000   0.0000   0.0000   0.3982
  30.000   0.8448   0.35946   0.35810  -0.1566  0.0050  1.0000  -0.9802   0.0000   0.0000   0.0000   0.3984


