xflr5 v6.61

 Calculated polar for: S7075 (9%)

 1 1 Reynolds number fixed          Mach number fixed         

 xtrf =   1.000 (top)        1.000 (bottom)
 Mach =   0.000     Re =     0.400 e 6     Ncrit =   9.000

  alpha     CL        CD       CDp       Cm    Top Xtr Bot Xtr   Cpmin    Chinge    XCp    
 ------- -------- --------- --------- -------- ------- ------- -------- --------- ---------
 -10.000  -0.3801   0.10769   0.10496  -0.0312  1.0000  0.0201  -1.6493   0.0000   0.0000   0.0000   0.1603
  -9.900  -0.3785   0.10649   0.10377  -0.0316  1.0000  0.0204  -1.6363   0.0000   0.0000   0.0000   0.1590
  -9.800  -0.3769   0.10528   0.10257  -0.0320  1.0000  0.0207  -1.6247   0.0000   0.0000   0.0000   0.1577
  -9.700  -0.3755   0.10410   0.10140  -0.0323  1.0000  0.0211  -1.6121   0.0000   0.0000   0.0000   0.1565
  -9.600  -0.3741   0.10294   0.10025  -0.0327  1.0000  0.0216  -1.5999   0.0000   0.0000   0.0000   0.1553
  -9.500  -0.3729   0.10178   0.09910  -0.0331  1.0000  0.0222  -1.5901   0.0000   0.0000   0.0000   0.1540
  -9.400  -0.3719   0.10061   0.09794  -0.0335  1.0000  0.0229  -1.5840   0.0000   0.0000   0.0000   0.1528
  -9.300  -0.3711   0.09944   0.09678  -0.0339  1.0000  0.0236  -1.5829   0.0000   0.0000   0.0000   0.1516
  -9.200  -0.3707   0.09828   0.09564  -0.0343  1.0000  0.0243  -1.5885   0.0000   0.0000   0.0000   0.1504
  -9.100  -0.3707   0.09718   0.09455  -0.0349  1.0000  0.0250  -1.6021   0.0000   0.0000   0.0000   0.1490
  -9.000  -0.3709   0.09618   0.09357  -0.0355  1.0000  0.0256  -1.6305   0.0000   0.0000   0.0000   0.1475
  -8.900  -0.3709   0.09537   0.09278  -0.0360  1.0000  0.0262  -1.6559   0.0000   0.0000   0.0000   0.1462
  -8.800  -0.3710   0.09470   0.09213  -0.0362  1.0000  0.0265  -1.6684   0.0000   0.0000   0.0000   0.1459
  -8.700  -0.3722   0.09401   0.09146  -0.0360  1.0000  0.0267  -1.6775   0.0000   0.0000   0.0000   0.1469
  -8.600  -0.3747   0.09332   0.09079  -0.0355  1.0000  0.0268  -1.6881   0.0000   0.0000   0.0000   0.1490
  -8.500  -0.3782   0.09266   0.09015  -0.0347  1.0000  0.0268  -1.6999   0.0000   0.0000   0.0000   0.1520
  -8.400  -0.3824   0.09203   0.08954  -0.0339  1.0000  0.0269  -1.7125   0.0000   0.0000   0.0000   0.1555
  -8.300  -0.3871   0.09140   0.08893  -0.0329  1.0000  0.0269  -1.7256   0.0000   0.0000   0.0000   0.1592
  -8.200  -0.3920   0.09078   0.08833  -0.0319  1.0000  0.0269  -1.7392   0.0000   0.0000   0.0000   0.1629
  -8.100  -0.3971   0.09014   0.08771  -0.0310  1.0000  0.0269  -1.7532   0.0000   0.0000   0.0000   0.1666
  -8.000  -0.4024   0.08950   0.08709  -0.0300  1.0000  0.0270  -1.7677   0.0000   0.0000   0.0000   0.1702
  -7.900  -0.4080   0.08887   0.08648  -0.0290  1.0000  0.0270  -1.7827   0.0000   0.0000   0.0000   0.1739
  -7.800  -0.4140   0.08825   0.08588  -0.0280  1.0000  0.0270  -1.7983   0.0000   0.0000   0.0000   0.1775
  -7.700  -0.4204   0.08765   0.08530  -0.0269  1.0000  0.0270  -1.8144   0.0000   0.0000   0.0000   0.1813
  -7.600  -0.4150   0.08577   0.08342  -0.0295  0.9986  0.0270  -1.8306   0.0000   0.0000   0.0000   0.1741
  -7.500  -0.4090   0.08375   0.08141  -0.0324  0.9970  0.0271  -1.8485   0.0000   0.0000   0.0000   0.1659
  -7.400  -0.4007   0.08137   0.07902  -0.0362  0.9953  0.0271  -1.8680   0.0000   0.0000   0.0000   0.1550
  -7.300  -0.3906   0.07868   0.07633  -0.0407  0.9938  0.0271  -1.8907   0.0000   0.0000   0.0000   0.1411
  -7.200  -0.3801   0.07583   0.07347  -0.0457  0.9925  0.0272  -1.9186   0.0000   0.0000   0.0000   0.1251
  -7.100  -0.3722   0.07320   0.07081  -0.0497  0.9904  0.0272  -1.9495   0.0000   0.0000   0.0000   0.1116
  -7.000  -0.3631   0.07040   0.06798  -0.0539  0.9886  0.0272  -1.9836   0.0000   0.0000   0.0000   0.0967
  -6.900  -0.3533   0.06753   0.06507  -0.0581  0.9870  0.0272  -2.0205   0.0000   0.0000   0.0000   0.0808
  -6.800  -0.3431   0.06467   0.06215  -0.0620  0.9856  0.0272  -2.0577   0.0000   0.0000   0.0000   0.0643
  -6.700  -0.3327   0.06191   0.05932  -0.0657  0.9845  0.0273  -2.0926   0.0000   0.0000   0.0000   0.0474
  -6.600  -0.3240   0.05949   0.05683  -0.0685  0.9830  0.0273  -2.1220   0.0000   0.0000   0.0000   0.0333
  -6.500  -0.3338   0.05083   0.04801  -0.0744  0.9784  0.0283  -2.4201   0.0000   0.0000   0.0000   0.0219
  -6.400  -0.3274   0.04808   0.04520  -0.0767  0.9768  0.0288  -2.4316   0.0000   0.0000   0.0000   0.0106
  -6.300  -0.3182   0.04617   0.04323  -0.0785  0.9756  0.0292  -2.4088   0.0000   0.0000   0.0000  -0.0020
  -6.200  -0.3077   0.04483   0.04186  -0.0799  0.9747  0.0296  -2.3591   0.0000   0.0000   0.0000  -0.0151
  -6.100  -0.2965   0.04358   0.04058  -0.0814  0.9739  0.0300  -2.3069   0.0000   0.0000   0.0000  -0.0298
  -6.000  -0.2847   0.04231   0.03926  -0.0829  0.9732  0.0304  -2.2576   0.0000   0.0000   0.0000  -0.0466
  -5.900  -0.2725   0.04100   0.03791  -0.0845  0.9726  0.0309  -2.2120   0.0000   0.0000   0.0000  -0.0657
  -5.800  -0.2599   0.03967   0.03651  -0.0861  0.9720  0.0315  -2.1704   0.0000   0.0000   0.0000  -0.0872
  -5.700  -0.2560   0.03876   0.03555  -0.0856  0.9688  0.0319  -2.1496   0.0000   0.0000   0.0000  -0.0902
  -5.600  -0.2469   0.03759   0.03431  -0.0863  0.9668  0.0324  -2.1214   0.0000   0.0000   0.0000  -0.1051
  -5.500  -0.2361   0.03633   0.03297  -0.0872  0.9652  0.0332  -2.0935   0.0000   0.0000   0.0000  -0.1255
  -5.400  -0.2242   0.03503   0.03158  -0.0883  0.9639  0.0340  -2.0671   0.0000   0.0000   0.0000  -0.1500
  -5.300  -0.2116   0.03373   0.03017  -0.0895  0.9628  0.0350  -2.0430   0.0000   0.0000   0.0000  -0.1793
  -5.200  -0.1983   0.03245   0.02878  -0.0906  0.9618  0.0362  -2.0214   0.0000   0.0000   0.0000  -0.2139
  -5.100  -0.1842   0.03135   0.02755  -0.0917  0.9610  0.0377  -1.9985   0.0000   0.0000   0.0000  -0.2550
  -5.000  -0.1688   0.03081   0.02689  -0.0925  0.9603  0.0395  -1.9625   0.0000   0.0000   0.0000  -0.3061
  -4.900  -0.1501   0.03236   0.02834  -0.0928  0.9598  0.0414  -1.8676   0.0000   0.0000   0.0000  -0.3771
  -4.800  -0.1350   0.03177   0.02762  -0.0939  0.9593  0.0416  -1.8299   0.0000   0.0000   0.0000  -0.4546
  -4.700  -0.1277   0.02566   0.02113  -0.0966  0.9583  0.0446  -1.9457   0.0000   0.0000   0.0000  -0.5165
  -4.600  -0.1138   0.02469   0.02013  -0.0977  0.9579  0.0457  -1.8869   0.0000   0.0000   0.0000  -0.6195
  -4.500  -0.0998   0.02393   0.01935  -0.0986  0.9575  0.0467  -1.8264   0.0000   0.0000   0.0000  -0.7510
  -4.400  -0.0856   0.02322   0.01859  -0.0995  0.9570  0.0478  -1.7713   0.0000   0.0000   0.0000  -0.9265
  -4.100  -0.0571   0.01798   0.01248  -0.0963  0.9495  0.0246  -2.1200   0.0000   0.0000   0.0000  -1.4575
  -4.000  -0.0446   0.01671   0.01100  -0.0965  0.9483  0.0230  -2.1496   0.0000   0.0000   0.0000  -1.9409
  -3.900  -0.0314   0.01569   0.00983  -0.0967  0.9472  0.0216  -2.1630   0.0000   0.0000   0.0000  -2.8623
  -3.800  -0.0181   0.01481   0.00882  -0.0969  0.9462  0.0205  -2.1700   0.0000   0.0000   0.0000  -5.1651
  -3.700  -0.0048   0.01410   0.00802  -0.0971  0.9453  0.0197  -2.1612   0.0000   0.0000   0.0000  -20.3701
  -3.600   0.0087   0.01354   0.00738  -0.0974  0.9443  0.0191  -2.1371   0.0000   0.0000   0.0000  11.5361
  -3.500   0.0224   0.01309   0.00687  -0.0978  0.9434  0.0187  -2.0989   0.0000   0.0000   0.0000   4.6601
  -3.400   0.0362   0.01271   0.00644  -0.0982  0.9424  0.0184  -2.0516   0.0000   0.0000   0.0000   2.9907
  -3.300   0.0500   0.01236   0.00606  -0.0987  0.9415  0.0183  -1.9997   0.0000   0.0000   0.0000   2.2433
  -3.200   0.0637   0.01204   0.00570  -0.0991  0.9405  0.0182  -1.9460   0.0000   0.0000   0.0000   1.8205
  -3.100   0.0774   0.01175   0.00537  -0.0995  0.9396  0.0183  -1.8918   0.0000   0.0000   0.0000   1.5471
  -3.000   0.0869   0.01155   0.00513  -0.0991  0.9373  0.0185  -1.8477   0.0000   0.0000   0.0000   1.4005
  -2.900   0.0951   0.01136   0.00492  -0.0984  0.9344  0.0188  -1.8070   0.0000   0.0000   0.0000   1.2935
  -2.800   0.1055   0.01117   0.00468  -0.0981  0.9320  0.0193  -1.7627   0.0000   0.0000   0.0000   1.1877
  -2.700   0.1169   0.01097   0.00445  -0.0981  0.9300  0.0203  -1.7184   0.0000   0.0000   0.0000   1.0954
  -2.600   0.1288   0.01078   0.00423  -0.0981  0.9282  0.0222  -1.6776   0.0000   0.0000   0.0000   1.0173
  -2.500   0.1405   0.01030   0.00388  -0.0981  0.9265  0.0618  -1.7063   0.0000   0.0000   0.0000   0.9531
  -2.400   0.1519   0.00992   0.00376  -0.0983  0.9249  0.1211  -1.6457   0.0000   0.0000   0.0000   0.9011
  -2.300   0.1640   0.00970   0.00367  -0.0985  0.9234  0.1595  -1.5645   0.0000   0.0000   0.0000   0.8545
  -2.200   0.1761   0.00947   0.00360  -0.0987  0.9220  0.1983  -1.4794   0.0000   0.0000   0.0000   0.8139
  -2.100   0.1884   0.00930   0.00353  -0.0990  0.9206  0.2300  -1.3931   0.0000   0.0000   0.0000   0.7782
  -2.000   0.2006   0.00916   0.00348  -0.0992  0.9191  0.2617  -1.3072   0.0000   0.0000   0.0000   0.7469
  -1.900   0.2099   0.00904   0.00345  -0.0988  0.9166  0.2901  -1.2321   0.0000   0.0000   0.0000   0.7229
  -1.800   0.2190   0.00892   0.00342  -0.0984  0.9136  0.3203  -1.1582   0.0000   0.0000   0.0000   0.7013
  -1.700   0.2289   0.00878   0.00338  -0.0982  0.9108  0.3529  -1.0813   0.0000   0.0000   0.0000   0.6806
  -1.600   0.2396   0.00869   0.00326  -0.0980  0.9083  0.3677  -0.9870   0.0000   0.0000   0.0000   0.6605
  -1.500   0.2501   0.00847   0.00322  -0.0979  0.9059  0.4198  -0.9136   0.0000   0.0000   0.0000   0.6426
  -1.400   0.2610   0.00826   0.00318  -0.0978  0.9037  0.4723  -0.8400   0.0000   0.0000   0.0000   0.6259
  -1.300   0.2714   0.00799   0.00314  -0.0976  0.9017  0.5413  -0.7686   0.0000   0.0000   0.0000   0.6107
  -1.200   0.2809   0.00767   0.00314  -0.0972  0.8997  0.6345  -0.7011   0.0000   0.0000   0.0000   0.5968
  -1.100   0.2891   0.00741   0.00320  -0.0963  0.8977  0.7288  -0.6383   0.0000   0.0000   0.0000   0.5836
  -1.000   0.2972   0.00732   0.00328  -0.0952  0.8954  0.7903  -0.5766   0.0000   0.0000   0.0000   0.5709
  -0.900   0.3043   0.00728   0.00331  -0.0941  0.8920  0.8237  -0.5195   0.0000   0.0000   0.0000   0.5597
  -0.800   0.3119   0.00722   0.00331  -0.0931  0.8885  0.8464  -0.4810   0.0000   0.0000   0.0000   0.5487
  -0.700   0.3209   0.00717   0.00328  -0.0924  0.8853  0.8622  -0.4887   0.0000   0.0000   0.0000   0.5380
  -0.600   0.3302   0.00710   0.00322  -0.0917  0.8823  0.8736  -0.4969   0.0000   0.0000   0.0000   0.5278
  -0.500   0.3403   0.00704   0.00316  -0.0913  0.8794  0.8840  -0.5060   0.0000   0.0000   0.0000   0.5181
  -0.400   0.3500   0.00696   0.00308  -0.0907  0.8768  0.8939  -0.5150   0.0000   0.0000   0.0000   0.5089
  -0.300   0.3598   0.00688   0.00301  -0.0901  0.8743  0.9043  -0.5241   0.0000   0.0000   0.0000   0.5001
  -0.200   0.3703   0.00682   0.00294  -0.0897  0.8717  0.9142  -0.5336   0.0000   0.0000   0.0000   0.4918
  -0.100   0.3797   0.00677   0.00291  -0.0892  0.8685  0.9248  -0.5424   0.0000   0.0000   0.0000   0.4842
   0.000   0.3898   0.00672   0.00287  -0.0888  0.8647  0.9364  -0.5525   0.0000   0.0000   0.0000   0.4770
   0.100   0.4027   0.00665   0.00282  -0.0890  0.8610  0.9488  -0.5644   0.0000   0.0000   0.0000   0.4701
   0.200   0.4184   0.00659   0.00275  -0.0898  0.8576  0.9625  -0.5782   0.0000   0.0000   0.0000   0.4637
   0.300   0.4358   0.00652   0.00267  -0.0910  0.8543  0.9771  -0.5941   0.0000   0.0000   0.0000   0.4578
   0.400   0.4525   0.00646   0.00258  -0.0921  0.8511  0.9932  -0.6098   0.0000   0.0000   0.0000   0.4524
   0.500   0.4660   0.00642   0.00251  -0.0925  0.8477  1.0000  -0.6234   0.0000   0.0000   0.0000   0.4473
   0.600   0.4774   0.00640   0.00246  -0.0925  0.8440  1.0000  -0.6357   0.0000   0.0000   0.0000   0.4424
   0.700   0.4872   0.00640   0.00246  -0.0922  0.8391  1.0000  -0.6469   0.0000   0.0000   0.0000   0.4379
   0.800   0.4974   0.00639   0.00244  -0.0920  0.8338  1.0000  -0.6596   0.0000   0.0000   0.0000   0.4335
   0.900   0.5080   0.00637   0.00241  -0.0919  0.8285  1.0000  -0.6729   0.0000   0.0000   0.0000   0.4293
   1.000   0.5191   0.00635   0.00238  -0.0918  0.8235  1.0000  -0.6866   0.0000   0.0000   0.0000   0.4251
   1.100   0.5305   0.00634   0.00232  -0.0917  0.8186  1.0000  -0.7005   0.0000   0.0000   0.0000   0.4211
   1.200   0.5413   0.00634   0.00230  -0.0916  0.8130  1.0000  -0.7141   0.0000   0.0000   0.0000   0.4174
   1.300   0.5516   0.00634   0.00230  -0.0914  0.8060  1.0000  -0.7285   0.0000   0.0000   0.0000   0.4138
   1.400   0.5623   0.00634   0.00227  -0.0912  0.7988  1.0000  -0.7438   0.0000   0.0000   0.0000   0.4103
   1.500   0.5733   0.00633   0.00222  -0.0911  0.7919  1.0000  -0.7593   0.0000   0.0000   0.0000   0.4068
   1.600   0.5844   0.00634   0.00218  -0.0910  0.7851  1.0000  -0.7770   0.0000   0.0000   0.0000   0.4035
   1.700   0.5948   0.00636   0.00219  -0.0908  0.7774  1.0000  -0.7942   0.0000   0.0000   0.0000   0.4005
   1.800   0.6055   0.00637   0.00218  -0.0907  0.7688  1.0000  -0.8117   0.0000   0.0000   0.0000   0.3974
   1.900   0.6162   0.00640   0.00215  -0.0905  0.7600  1.0000  -0.8295   0.0000   0.0000   0.0000   0.3945
   2.000   0.6269   0.00643   0.00213  -0.0903  0.7513  1.0000  -0.8472   0.0000   0.0000   0.0000   0.3916
   2.100   0.6374   0.00646   0.00214  -0.0901  0.7413  1.0000  -0.8668   0.0000   0.0000   0.0000   0.3889
   2.200   0.6479   0.00651   0.00213  -0.0899  0.7306  1.0000  -0.8871   0.0000   0.0000   0.0000   0.3862
   2.300   0.6583   0.00658   0.00212  -0.0897  0.7205  1.0000  -0.9074   0.0000   0.0000   0.0000   0.3835
   2.400   0.6687   0.00662   0.00215  -0.0895  0.7104  1.0000  -0.9287   0.0000   0.0000   0.0000   0.3811
   2.500   0.6790   0.00669   0.00216  -0.0893  0.6990  1.0000  -0.9523   0.0000   0.0000   0.0000   0.3786
   2.700   0.6994   0.00685   0.00221  -0.0888  0.6765  1.0000  -1.0001   0.0000   0.0000   0.0000   0.3740
   2.800   0.7094   0.00694   0.00224  -0.0886  0.6637  1.0000  -1.0281   0.0000   0.0000   0.0000   0.3717
   2.900   0.7192   0.00705   0.00227  -0.0882  0.6514  1.0000  -1.0559   0.0000   0.0000   0.0000   0.3695
   3.000   0.7296   0.00712   0.00232  -0.0881  0.6404  1.0000  -1.0847   0.0000   0.0000   0.0000   0.3674
   3.100   0.7395   0.00722   0.00236  -0.0878  0.6278  1.0000  -1.1131   0.0000   0.0000   0.0000   0.3654
   3.200   0.7491   0.00735   0.00240  -0.0875  0.6157  1.0000  -1.1490   0.0000   0.0000   0.0000   0.3633
   3.300   0.7595   0.00741   0.00246  -0.0873  0.6053  1.0000  -1.1938   0.0000   0.0000   0.0000   0.3614
   3.400   0.7695   0.00752   0.00251  -0.0871  0.5928  1.0000  -1.2380   0.0000   0.0000   0.0000   0.3595
   3.600   0.7892   0.00774   0.00268  -0.0866  0.5688  1.0000  -1.3312   0.0000   0.0000   0.0000   0.3559
   3.700   0.7990   0.00785   0.00274  -0.0863  0.5557  1.0000  -1.3767   0.0000   0.0000   0.0000   0.3541
   3.800   0.8082   0.00801   0.00281  -0.0860  0.5422  1.0000  -1.4209   0.0000   0.0000   0.0000   0.3523
   3.900   0.8185   0.00808   0.00287  -0.0858  0.5311  1.0000  -1.4679   0.0000   0.0000   0.0000   0.3507
   4.000   0.8281   0.00821   0.00293  -0.0855  0.5171  1.0000  -1.5138   0.0000   0.0000   0.0000   0.3491
   4.100   0.8373   0.00837   0.00301  -0.0852  0.5029  1.0000  -1.5590   0.0000   0.0000   0.0000   0.3474
   4.200   0.8473   0.00848   0.00308  -0.0850  0.4894  1.0000  -1.6063   0.0000   0.0000   0.0000   0.3459
   4.300   0.8565   0.00864   0.00316  -0.0846  0.4742  1.0000  -1.6522   0.0000   0.0000   0.0000   0.3443
   4.400   0.8661   0.00878   0.00324  -0.0844  0.4612  1.0000  -1.6994   0.0000   0.0000   0.0000   0.3428
   4.500   0.8758   0.00891   0.00332  -0.0841  0.4469  1.0000  -1.7471   0.0000   0.0000   0.0000   0.3414
   4.600   0.8847   0.00910   0.00342  -0.0838  0.4320  1.0000  -1.7933   0.0000   0.0000   0.0000   0.3399
   4.700   0.8949   0.00921   0.00350  -0.0836  0.4209  1.0000  -1.8427   0.0000   0.0000   0.0000   0.3385
   4.800   0.9045   0.00935   0.00359  -0.0833  0.4079  1.0000  -1.8913   0.0000   0.0000   0.0000   0.3371
   4.900   0.9135   0.00954   0.00370  -0.0830  0.3942  1.0000  -1.9387   0.0000   0.0000   0.0000   0.3358
   5.000   0.9236   0.00965   0.00379  -0.0828  0.3825  1.0000  -1.9890   0.0000   0.0000   0.0000   0.3345
   5.100   0.9325   0.00986   0.00390  -0.0825  0.3659  1.0000  -2.0369   0.0000   0.0000   0.0000   0.3332
   5.200   0.9418   0.01004   0.00401  -0.0822  0.3498  1.0000  -2.0860   0.0000   0.0000   0.0000   0.3319
   5.300   0.9504   0.01026   0.00413  -0.0819  0.3309  1.0000  -2.1340   0.0000   0.0000   0.0000   0.3306
   5.400   0.9596   0.01046   0.00425  -0.0816  0.3142  1.0000  -2.1834   0.0000   0.0000   0.0000   0.3294
   5.500   0.9683   0.01069   0.00438  -0.0812  0.2964  1.0000  -2.2320   0.0000   0.0000   0.0000   0.3282
   5.600   0.9776   0.01088   0.00450  -0.0810  0.2824  1.0000  -2.2823   0.0000   0.0000   0.0000   0.3270
   5.700   0.9868   0.01107   0.00463  -0.0807  0.2683  1.0000  -2.3328   0.0000   0.0000   0.0000   0.3258
   5.800   0.9958   0.01129   0.00477  -0.0804  0.2550  1.0000  -2.3827   0.0000   0.0000   0.0000   0.3247
   5.900   1.0054   0.01145   0.00490  -0.0802  0.2434  1.0000  -2.4348   0.0000   0.0000   0.0000   0.3236
   6.000   1.0141   0.01169   0.00505  -0.0799  0.2297  1.0000  -2.4848   0.0000   0.0000   0.0000   0.3225
   6.100   1.0236   0.01187   0.00519  -0.0796  0.2186  1.0000  -2.5369   0.0000   0.0000   0.0000   0.3214
   6.200   1.0327   0.01207   0.00533  -0.0794  0.2062  1.0000  -2.5884   0.0000   0.0000   0.0000   0.3204
   6.300   1.0412   0.01235   0.00566  -0.0790  0.1904  1.0000  -2.6376   0.0000   0.0000   0.0000   0.3193
   6.400   1.0502   0.01257   0.00582  -0.0787  0.1782  1.0000  -2.6893   0.0000   0.0000   0.0000   0.3182
   6.500   1.0589   0.01283   0.00601  -0.0784  0.1659  1.0000  -2.7400   0.0000   0.0000   0.0000   0.3172
   6.600   1.0681   0.01302   0.00617  -0.0781  0.1556  1.0000  -2.7926   0.0000   0.0000   0.0000   0.3162
   6.700   1.0765   0.01331   0.00637  -0.0778  0.1432  1.0000  -2.8428   0.0000   0.0000   0.0000   0.3152
   6.800   1.0857   0.01351   0.00655  -0.0775  0.1340  1.0000  -2.8954   0.0000   0.0000   0.0000   0.3142
   6.900   1.0942   0.01378   0.00674  -0.0772  0.1229  1.0000  -2.9510   0.0000   0.0000   0.0000   0.3132
   7.000   1.1030   0.01402   0.00694  -0.0769  0.1131  1.0000  -3.0161   0.0000   0.0000   0.0000   0.3123
   7.100   1.1115   0.01429   0.00715  -0.0765  0.1033  1.0000  -3.0806   0.0000   0.0000   0.0000   0.3113
   7.200   1.1198   0.01458   0.00738  -0.0761  0.0932  1.0000  -3.1440   0.0000   0.0000   0.0000   0.3103
   7.300   1.1284   0.01484   0.00760  -0.0758  0.0852  1.0000  -3.2091   0.0000   0.0000   0.0000   0.3094
   7.400   1.1359   0.01522   0.00789  -0.0753  0.0747  1.0000  -3.2683   0.0000   0.0000   0.0000   0.3084
   7.500   1.1449   0.01542   0.00809  -0.0750  0.0696  1.0000  -3.3349   0.0000   0.0000   0.0000   0.3075
   7.600   1.1526   0.01577   0.00836  -0.0745  0.0628  1.0000  -3.3959   0.0000   0.0000   0.0000   0.3065
   7.700   1.1600   0.01615   0.00872  -0.0740  0.0561  1.0000  -3.4508   0.0000   0.0000   0.0000   0.3055
   7.800   1.1690   0.01635   0.00894  -0.0737  0.0533  1.0000  -3.5168   0.0000   0.0000   0.0000   0.3046
   7.900   1.1773   0.01662   0.00920  -0.0733  0.0501  1.0000  -3.5794   0.0000   0.0000   0.0000   0.3037
   8.000   1.1848   0.01697   0.00952  -0.0727  0.0469  1.0000  -3.6381   0.0000   0.0000   0.0000   0.3027
   8.100   1.1906   0.01751   0.01006  -0.0719  0.0431  1.0000  -3.6801   0.0000   0.0000   0.0000   0.3016
   8.200   1.1970   0.01797   0.01055  -0.0712  0.0413  1.0000  -3.7275   0.0000   0.0000   0.0000   0.3005
   8.300   1.2062   0.01812   0.01073  -0.0709  0.0406  1.0000  -3.7993   0.0000   0.0000   0.0000   0.2997
   8.400   1.2153   0.01827   0.01089  -0.0706  0.0398  1.0000  -3.8727   0.0000   0.0000   0.0000   0.2990
   8.500   1.2244   0.01842   0.01106  -0.0704  0.0387  1.0000  -3.9474   0.0000   0.0000   0.0000   0.2982
   8.600   1.2334   0.01857   0.01123  -0.0701  0.0374  1.0000  -4.0336   0.0000   0.0000   0.0000   0.2974
   8.700   1.2423   0.01873   0.01138  -0.0699  0.0360  1.0000  -4.1647   0.0000   0.0000   0.0000   0.2967
   8.800   1.2525   0.01873   0.01131  -0.0700  0.0322  1.0000  -4.3098   0.0000   0.0000   0.0000   0.2962
   8.900   1.2595   0.01908   0.01166  -0.0695  0.0304  1.0000  -4.4227   0.0000   0.0000   0.0000   0.2953
   9.000   1.2658   0.01949   0.01212  -0.0688  0.0292  1.0000  -4.5289   0.0000   0.0000   0.0000   0.2943
   9.100   1.2719   0.01991   0.01257  -0.0680  0.0284  1.0000  -4.6351   0.0000   0.0000   0.0000   0.2934
   9.200   1.2805   0.02007   0.01275  -0.0677  0.0282  1.0000  -4.7687   0.0000   0.0000   0.0000   0.2926
   9.300   1.2890   0.02024   0.01295  -0.0674  0.0279  1.0000  -4.9024   0.0000   0.0000   0.0000   0.2919
   9.400   1.2974   0.02042   0.01315  -0.0670  0.0276  1.0000  -5.0362   0.0000   0.0000   0.0000   0.2911
   9.500   1.3056   0.02061   0.01337  -0.0667  0.0273  1.0000  -5.1701   0.0000   0.0000   0.0000   0.2904
   9.600   1.3136   0.02081   0.01360  -0.0663  0.0269  1.0000  -5.3042   0.0000   0.0000   0.0000   0.2896
   9.700   1.3215   0.02102   0.01384  -0.0658  0.0266  1.0000  -5.4385   0.0000   0.0000   0.0000   0.2888
   9.800   1.3293   0.02123   0.01408  -0.0654  0.0261  1.0000  -5.5731   0.0000   0.0000   0.0000   0.2881
   9.900   1.3368   0.02145   0.01432  -0.0649  0.0257  1.0000  -5.7074   0.0000   0.0000   0.0000   0.2873
  10.000   1.3441   0.02166   0.01456  -0.0644  0.0252  1.0000  -5.8409   0.0000   0.0000   0.0000   0.2865
  10.100   1.3512   0.02188   0.01480  -0.0639  0.0248  1.0000  -5.9747   0.0000   0.0000   0.0000   0.2857
  10.200   1.3583   0.02209   0.01504  -0.0633  0.0243  1.0000  -6.1095   0.0000   0.0000   0.0000   0.2849
  10.300   1.3653   0.02231   0.01528  -0.0628  0.0238  1.0000  -6.2452   0.0000   0.0000   0.0000   0.2841
  10.400   1.3723   0.02252   0.01552  -0.0623  0.0233  1.0000  -6.3814   0.0000   0.0000   0.0000   0.2833
  10.500   1.3791   0.02275   0.01576  -0.0617  0.0228  1.0000  -6.5173   0.0000   0.0000   0.0000   0.2825
  10.600   1.3857   0.02299   0.01601  -0.0611  0.0223  1.0000  -6.6530   0.0000   0.0000   0.0000   0.2818
  10.700   1.3922   0.02324   0.01626  -0.0605  0.0217  1.0000  -6.7878   0.0000   0.0000   0.0000   0.2810
  10.800   1.3984   0.02350   0.01654  -0.0599  0.0212  1.0000  -6.9208   0.0000   0.0000   0.0000   0.2802
  10.900   1.4043   0.02379   0.01684  -0.0593  0.0205  1.0000  -7.0504   0.0000   0.0000   0.0000   0.2794
  11.000   1.4097   0.02412   0.01719  -0.0586  0.0199  1.0000  -7.1746   0.0000   0.0000   0.0000   0.2786
  11.100   1.4143   0.02450   0.01759  -0.0577  0.0192  1.0000  -7.2914   0.0000   0.0000   0.0000   0.2777
  11.200   1.4183   0.02493   0.01806  -0.0568  0.0185  1.0000  -7.3995   0.0000   0.0000   0.0000   0.2768
  11.300   1.4213   0.02543   0.01861  -0.0559  0.0178  1.0000  -7.4981   0.0000   0.0000   0.0000   0.2759
  11.400   1.4297   0.02551   0.01870  -0.0556  0.0176  1.0000  -7.6516   0.0000   0.0000   0.0000   0.2753
  11.500   1.4385   0.02557   0.01877  -0.0554  0.0174  1.0000  -7.8067   0.0000   0.0000   0.0000   0.2747
  11.600   1.4428   0.02597   0.01929  -0.0545  0.0174  1.0000  -7.9388   0.0000   0.0000   0.0000   0.2739
  11.700   1.4507   0.02610   0.01944  -0.0542  0.0170  1.0000  -8.0923   0.0000   0.0000   0.0000   0.2732
  11.800   1.4589   0.02620   0.01957  -0.0539  0.0162  1.0000  -8.2453   0.0000   0.0000   0.0000   0.2727
  11.900   1.4657   0.02642   0.01982  -0.0535  0.0152  1.0000  -8.3785   0.0000   0.0000   0.0000   0.2720
  12.000   1.4714   0.02672   0.02015  -0.0529  0.0137  1.0000  -8.5005   0.0000   0.0000   0.0000   0.2713
  12.100   1.4759   0.02712   0.02053  -0.0522  0.0117  1.0000  -8.6129   0.0000   0.0000   0.0000   0.2706
  12.200   1.4790   0.02764   0.02102  -0.0514  0.0097  1.0000  -8.7142   0.0000   0.0000   0.0000   0.2698
  12.300   1.4820   0.02817   0.02158  -0.0505  0.0085  1.0000  -8.8069   0.0000   0.0000   0.0000   0.2690
  12.400   1.4845   0.02874   0.02217  -0.0497  0.0076  1.0000  -8.8961   0.0000   0.0000   0.0000   0.2681
  12.500   1.4866   0.02935   0.02281  -0.0488  0.0068  1.0000  -8.9819   0.0000   0.0000   0.0000   0.2673
  12.600   1.4885   0.03000   0.02348  -0.0479  0.0062  1.0000  -9.0648   0.0000   0.0000   0.0000   0.2665
  12.700   1.4902   0.03066   0.02417  -0.0470  0.0057  1.0000  -9.1439   0.0000   0.0000   0.0000   0.2657
  12.800   1.4915   0.03137   0.02493  -0.0461  0.0052  1.0000  -9.2135   0.0000   0.0000   0.0000   0.2649
  12.900   1.4923   0.03212   0.02575  -0.0452  0.0049  1.0000  -9.2751   0.0000   0.0000   0.0000   0.2641
  13.000   1.4926   0.03292   0.02662  -0.0442  0.0047  1.0000  -9.3310   0.0000   0.0000   0.0000   0.2632
  13.100   1.4921   0.03380   0.02759  -0.0433  0.0045  1.0000  -9.3792   0.0000   0.0000   0.0000   0.2624
  13.200   1.4909   0.03475   0.02863  -0.0423  0.0044  1.0000  -9.4217   0.0000   0.0000   0.0000   0.2616
  13.300   1.4894   0.03576   0.02973  -0.0414  0.0043  1.0000  -9.4614   0.0000   0.0000   0.0000   0.2609
  13.400   1.4873   0.03684   0.03087  -0.0405  0.0042  1.0000  -9.4979   0.0000   0.0000   0.0000   0.2601
  13.500   1.4864   0.03782   0.03193  -0.0398  0.0042  1.0000  -9.5566   0.0000   0.0000   0.0000   0.2595
  13.600   1.4854   0.03884   0.03303  -0.0392  0.0042  1.0000  -9.6140   0.0000   0.0000   0.0000   0.2589
  13.700   1.4840   0.03991   0.03418  -0.0385  0.0041  1.0000  -9.6673   0.0000   0.0000   0.0000   0.2583
  13.800   1.4821   0.04105   0.03540  -0.0380  0.0041  1.0000  -9.7161   0.0000   0.0000   0.0000   0.2577
  13.900   1.4802   0.04223   0.03666  -0.0374  0.0041  1.0000  -9.7637   0.0000   0.0000   0.0000   0.2572
  14.000   1.4778   0.04349   0.03799  -0.0370  0.0041  1.0000  -9.8060   0.0000   0.0000   0.0000   0.2568
  14.100   1.4748   0.04479   0.03937  -0.0366  0.0041  1.0000  -9.8439   0.0000   0.0000   0.0000   0.2564
  14.200   1.4718   0.04614   0.04081  -0.0362  0.0041  1.0000  -9.8793   0.0000   0.0000   0.0000   0.2560
  14.300   1.4682   0.04760   0.04234  -0.0360  0.0041  1.0000  -9.9092   0.0000   0.0000   0.0000   0.2557
  14.400   1.4647   0.04910   0.04392  -0.0358  0.0041  1.0000  -9.9388   0.0000   0.0000   0.0000   0.2554
  14.500   1.4608   0.05071   0.04561  -0.0358  0.0040  1.0000  -9.9630   0.0000   0.0000   0.0000   0.2552
  14.600   1.4567   0.05238   0.04736  -0.0358  0.0040  1.0000  -9.9851   0.0000   0.0000   0.0000   0.2551
  14.700   1.4524   0.05414   0.04920  -0.0359  0.0040  1.0000  -10.0037   0.0000   0.0000   0.0000   0.2551
  14.800   1.4478   0.05599   0.05113  -0.0362  0.0040  1.0000  -10.0177   0.0000   0.0000   0.0000   0.2551
  14.900   1.4432   0.05789   0.05311  -0.0365  0.0040  1.0000  -10.0301   0.0000   0.0000   0.0000   0.2552
  15.000   1.4380   0.05992   0.05523  -0.0369  0.0040  1.0000  -10.0360   0.0000   0.0000   0.0000   0.2554
  15.100   1.4330   0.06198   0.05736  -0.0374  0.0040  1.0000  -10.0418   0.0000   0.0000   0.0000   0.2556
  15.200   1.4274   0.06419   0.05966  -0.0381  0.0040  1.0000  -10.0399   0.0000   0.0000   0.0000   0.2560
  15.300   1.4219   0.06642   0.06197  -0.0388  0.0040  1.0000  -10.0381   0.0000   0.0000   0.0000   0.2563
  15.400   1.4159   0.06881   0.06444  -0.0397  0.0040  1.0000  -10.0286   0.0000   0.0000   0.0000   0.2569
  15.500   1.4100   0.07121   0.06692  -0.0406  0.0040  1.0000  -10.0186   0.0000   0.0000   0.0000   0.2574
  15.600   1.4036   0.07375   0.06954  -0.0416  0.0040  1.0000  -10.0019   0.0000   0.0000   0.0000   0.2581
  15.700   1.3972   0.07633   0.07220  -0.0427  0.0040  1.0000  -9.9830   0.0000   0.0000   0.0000   0.2588
  15.800   1.3905   0.07900   0.07495  -0.0439  0.0040  1.0000  -9.9593   0.0000   0.0000   0.0000   0.2596
  15.900   1.3834   0.08173   0.07775  -0.0452  0.0040  1.0000  -9.9300   0.0000   0.0000   0.0000   0.2604
  16.000   1.3763   0.08450   0.08060  -0.0465  0.0040  1.0000  -9.8984   0.0000   0.0000   0.0000   0.2613
  16.100   1.3688   0.08743   0.08360  -0.0479  0.0040  1.0000  -9.8600   0.0000   0.0000   0.0000   0.2624
  16.200   1.3616   0.09034   0.08658  -0.0493  0.0040  1.0000  -9.8229   0.0000   0.0000   0.0000   0.2634
  16.300   1.3538   0.09348   0.08979  -0.0509  0.0040  1.0000  -9.7757   0.0000   0.0000   0.0000   0.2646
  16.400   1.3465   0.09653   0.09291  -0.0525  0.0040  1.0000  -9.7320   0.0000   0.0000   0.0000   0.2658
  16.500   1.3385   0.09982   0.09627  -0.0543  0.0041  1.0000  -9.6769   0.0000   0.0000   0.0000   0.2671
  16.600   1.3310   0.10302   0.09955  -0.0560  0.0041  1.0000  -9.6244   0.0000   0.0000   0.0000   0.2685
  16.700   1.3230   0.10639   0.10299  -0.0578  0.0041  1.0000  -9.5636   0.0000   0.0000   0.0000   0.2699
  16.800   1.3151   0.10977   0.10643  -0.0596  0.0041  1.0000  -9.5010   0.0000   0.0000   0.0000   0.2714
  16.900   1.3073   0.11315   0.10987  -0.0615  0.0041  1.0000  -9.4363   0.0000   0.0000   0.0000   0.2729
  17.000   1.2991   0.11671   0.11350  -0.0635  0.0041  1.0000  -9.3617   0.0000   0.0000   0.0000   0.2746
  17.100   1.2914   0.12012   0.11697  -0.0654  0.0041  1.0000  -9.2920   0.0000   0.0000   0.0000   0.2762
  17.200   1.2830   0.12381   0.12073  -0.0676  0.0041  1.0000  -9.2069   0.0000   0.0000   0.0000   0.2781
  17.300   1.2751   0.12735   0.12433  -0.0696  0.0041  1.0000  -9.1268   0.0000   0.0000   0.0000   0.2799
  17.400   1.2670   0.13101   0.12804  -0.0717  0.0041  1.0000  -9.0383   0.0000   0.0000   0.0000   0.2817
  17.500   1.2587   0.13475   0.13185  -0.0739  0.0041  1.0000  -8.9432   0.0000   0.0000   0.0000   0.2837
  17.600   1.2510   0.13836   0.13551  -0.0760  0.0041  1.0000  -8.8522   0.0000   0.0000   0.0000   0.2856
  17.700   1.2423   0.14230   0.13951  -0.0783  0.0041  1.0000  -8.7407   0.0000   0.0000   0.0000   0.2878
  17.800   1.2343   0.14606   0.14332  -0.0806  0.0041  1.0000  -8.6362   0.0000   0.0000   0.0000   0.2899
  17.900   1.2261   0.14996   0.14727  -0.0829  0.0041  1.0000  -8.5206   0.0000   0.0000   0.0000   0.2921
  18.000   1.2175   0.15401   0.15138  -0.0853  0.0042  1.0000  -8.3930   0.0000   0.0000   0.0000   0.2945
  18.100   1.2095   0.15789   0.15530  -0.0876  0.0042  1.0000  -8.2707   0.0000   0.0000   0.0000   0.2968
  18.200   1.2006   0.16200   0.15947  -0.0902  0.0042  1.0000  -8.1206   0.0000   0.0000   0.0000   0.2994
  18.300   1.1924   0.16589   0.16340  -0.0926  0.0042  1.0000  -7.9758   0.0000   0.0000   0.0000   0.3019
  18.500   1.1796   0.17311   0.17072  -0.0971  0.0042  1.0000  -7.7472   0.0000   0.0000   0.0000   0.3064
  18.600   1.1739   0.17661   0.17426  -0.0992  0.0043  1.0000  -7.6423   0.0000   0.0000   0.0000   0.3086
  18.700   1.1682   0.18029   0.17797  -0.1014  0.0043  1.0000  -7.5275   0.0000   0.0000   0.0000   0.3108
  18.800   1.1616   0.18432   0.18204  -0.1037  0.0043  1.0000  -7.3910   0.0000   0.0000   0.0000   0.3132
  18.900   1.1557   0.18826   0.18601  -0.1059  0.0044  1.0000  -7.2585   0.0000   0.0000   0.0000   0.3155
  19.000   1.1490   0.19256   0.19034  -0.1083  0.0044  1.0000  -7.1021   0.0000   0.0000   0.0000   0.3181
  19.100   1.1416   0.19727   0.19508  -0.1107  0.0045  1.0000  -6.9172   0.0000   0.0000   0.0000   0.3209
  19.200   1.1343   0.20206   0.19989  -0.1132  0.0045  1.0000  -6.7227   0.0000   0.0000   0.0000   0.3238
  19.300   1.1240   0.20821   0.20607  -0.1162  0.0046  1.0000  -6.4313   0.0000   0.0000   0.0000   0.3275
  19.800   1.0404   0.26743   0.26513  -0.1357  0.0080  1.0000  -2.5278   0.0000   0.0000   0.0000   0.3576
  19.900   1.0415   0.26983   0.26754  -0.1365  0.0083  1.0000  -2.5011   0.0000   0.0000   0.0000   0.3580
  20.000   1.0425   0.27221   0.26991  -0.1373  0.0086  1.0000  -2.4790   0.0000   0.0000   0.0000   0.3585
  20.100   1.0425   0.27485   0.27255  -0.1380  0.0091  1.0000  -2.4470   0.0000   0.0000   0.0000   0.3590
  20.600   1.0470   0.29150   0.28921  -0.1432  0.0121  1.0000  -2.0071   0.0000   0.0000   0.0000   0.3631
  20.700   1.0485   0.29371   0.29142  -0.1439  0.0120  1.0000  -2.0020   0.0000   0.0000   0.0000   0.3634
  20.800   1.0499   0.29589   0.29361  -0.1447  0.0119  1.0000  -1.9986   0.0000   0.0000   0.0000   0.3638
  20.900   1.0514   0.29806   0.29578  -0.1454  0.0118  1.0000  -1.9969   0.0000   0.0000   0.0000   0.3641
  21.000   1.0528   0.30020   0.29792  -0.1461  0.0117  1.0000  -1.9967   0.0000   0.0000   0.0000   0.3644
  21.100   1.0542   0.30233   0.30006  -0.1469  0.0116  1.0000  -1.9979   0.0000   0.0000   0.0000   0.3647
  21.200   1.0557   0.30445   0.30218  -0.1475  0.0115  1.0000  -2.0003   0.0000   0.0000   0.0000   0.3650
  21.300   1.0570   0.30654   0.30428  -0.1482  0.0114  1.0000  -2.0041   0.0000   0.0000   0.0000   0.3653
  21.400   1.0584   0.30863   0.30636  -0.1489  0.0113  1.0000  -2.0092   0.0000   0.0000   0.0000   0.3656
  21.500   1.0597   0.31070   0.30844  -0.1495  0.0112  1.0000  -2.0154   0.0000   0.0000   0.0000   0.3658
  21.600   1.0611   0.31275   0.31050  -0.1502  0.0111  1.0000  -2.0229   0.0000   0.0000   0.0000   0.3661
  21.700   1.0623   0.31480   0.31255  -0.1508  0.0110  1.0000  -2.0314   0.0000   0.0000   0.0000   0.3663
  21.800   1.0636   0.31683   0.31458  -0.1514  0.0109  1.0000  -2.0412   0.0000   0.0000   0.0000   0.3665
  21.900   1.0648   0.31885   0.31661  -0.1520  0.0108  1.0000  -2.0520   0.0000   0.0000   0.0000   0.3667
  22.000   1.0660   0.32086   0.31863  -0.1525  0.0108  1.0000  -2.0641   0.0000   0.0000   0.0000   0.3668
  22.100   1.0671   0.32287   0.32064  -0.1531  0.0107  1.0000  -2.0773   0.0000   0.0000   0.0000   0.3670
  22.200   1.0681   0.32487   0.32264  -0.1536  0.0106  1.0000  -2.0916   0.0000   0.0000   0.0000   0.3671
  22.300   1.0692   0.32686   0.32465  -0.1541  0.0105  1.0000  -2.1070   0.0000   0.0000   0.0000   0.3672
  22.400   1.0701   0.32887   0.32665  -0.1545  0.0104  1.0000  -2.1234   0.0000   0.0000   0.0000   0.3673
  22.500   1.0710   0.33089   0.32868  -0.1549  0.0103  1.0000  -2.1408   0.0000   0.0000   0.0000   0.3673
  22.600   1.0718   0.33294   0.33074  -0.1552  0.0102  1.0000  -2.1590   0.0000   0.0000   0.0000   0.3673
  22.700   1.0720   0.33524   0.33305  -0.1556  0.0101  1.0000  -2.1667   0.0000   0.0000   0.0000   0.3674
  22.800   1.0700   0.33863   0.33644  -0.1559  0.0099  1.0000  -2.1341   0.0000   0.0000   0.0000   0.3679
  22.900   1.0633   0.34487   0.34265  -0.1562  0.0097  1.0000  -1.9707   0.0000   0.0000   0.0000   0.3691
  23.000   1.0630   0.34723   0.34503  -0.1567  0.0097  1.0000  -1.9571   0.0000   0.0000   0.0000   0.3695
  23.100   1.0625   0.34958   0.34738  -0.1572  0.0097  1.0000  -1.9432   0.0000   0.0000   0.0000   0.3699
  23.200   1.0617   0.35191   0.34971  -0.1576  0.0097  1.0000  -1.9290   0.0000   0.0000   0.0000   0.3702
  23.300   1.0606   0.35420   0.35201  -0.1580  0.0097  1.0000  -1.9142   0.0000   0.0000   0.0000   0.3706
  23.600   0.9341   0.33548   0.33349  -0.1417  0.0097  1.0000  -1.5799   0.0000   0.0000   0.0000   0.3749
  23.700   0.9275   0.33495   0.33298  -0.1412  0.0097  1.0000  -1.5536   0.0000   0.0000   0.0000   0.3754
  23.800   0.9219   0.33461   0.33265  -0.1409  0.0097  1.0000  -1.5297   0.0000   0.0000   0.0000   0.3759
  23.900   0.9169   0.33440   0.33245  -0.1406  0.0097  1.0000  -1.5076   0.0000   0.0000   0.0000   0.3764
  24.000   0.9125   0.33428   0.33234  -0.1404  0.0096  1.0000  -1.4870   0.0000   0.0000   0.0000   0.3769
  24.100   0.9085   0.33424   0.33231  -0.1403  0.0096  1.0000  -1.4675   0.0000   0.0000   0.0000   0.3773
  24.300   0.9014   0.33430   0.33242  -0.1402  0.0096  1.0000  -1.4333   0.0000   0.0000   0.0000   0.3782
  24.400   0.8983   0.33439   0.33253  -0.1401  0.0096  1.0000  -1.4166   0.0000   0.0000   0.0000   0.3787
  24.500   0.8954   0.33453   0.33267  -0.1402  0.0096  1.0000  -1.4005   0.0000   0.0000   0.0000   0.3791
  24.600   0.8926   0.33469   0.33285  -0.1402  0.0096  1.0000  -1.3849   0.0000   0.0000   0.0000   0.3795
  24.700   0.8901   0.33489   0.33305  -0.1403  0.0096  1.0000  -1.3698   0.0000   0.0000   0.0000   0.3799
  24.800   0.8877   0.33510   0.33328  -0.1403  0.0096  1.0000  -1.3552   0.0000   0.0000   0.0000   0.3803
  24.900   0.8854   0.33534   0.33352  -0.1404  0.0096  1.0000  -1.3409   0.0000   0.0000   0.0000   0.3807
  25.000   0.8832   0.33560   0.33379  -0.1406  0.0096  1.0000  -1.3269   0.0000   0.0000   0.0000   0.3812
  25.100   0.8812   0.33588   0.33407  -0.1407  0.0096  1.0000  -1.3133   0.0000   0.0000   0.0000   0.3816
  25.200   0.8793   0.33617   0.33437  -0.1409  0.0096  1.0000  -1.3000   0.0000   0.0000   0.0000   0.3820
  25.300   0.8774   0.33647   0.33469  -0.1410  0.0096  1.0000  -1.2871   0.0000   0.0000   0.0000   0.3824
  25.400   0.8757   0.33679   0.33501  -0.1412  0.0096  1.0000  -1.2745   0.0000   0.0000   0.0000   0.3828
  25.500   0.8740   0.33713   0.33535  -0.1414  0.0096  1.0000  -1.2623   0.0000   0.0000   0.0000   0.3831
  25.600   0.8724   0.33747   0.33571  -0.1416  0.0096  1.0000  -1.2504   0.0000   0.0000   0.0000   0.3835
  25.700   0.8709   0.33783   0.33607  -0.1418  0.0096  1.0000  -1.2387   0.0000   0.0000   0.0000   0.3839
  25.800   0.8695   0.33819   0.33644  -0.1420  0.0095  1.0000  -1.2274   0.0000   0.0000   0.0000   0.3843
  25.900   0.8681   0.33857   0.33683  -0.1423  0.0095  1.0000  -1.2157   0.0000   0.0000   0.0000   0.3847
  26.000   0.8668   0.33896   0.33722  -0.1425  0.0095  1.0000  -1.2043   0.0000   0.0000   0.0000   0.3851
  26.100   0.8655   0.33935   0.33763  -0.1427  0.0095  1.0000  -1.1932   0.0000   0.0000   0.0000   0.3855
  26.200   0.8643   0.33976   0.33804  -0.1430  0.0095  1.0000  -1.1823   0.0000   0.0000   0.0000   0.3859
  26.300   0.8632   0.34017   0.33846  -0.1433  0.0095  1.0000  -1.1717   0.0000   0.0000   0.0000   0.3862
  26.400   0.8620   0.34061   0.33890  -0.1436  0.0095  1.0000  -1.1604   0.0000   0.0000   0.0000   0.3866
  26.500   0.8609   0.34104   0.33934  -0.1439  0.0095  1.0000  -1.1483   0.0000   0.0000   0.0000   0.3871
  26.600   0.8598   0.34150   0.33980  -0.1442  0.0095  1.0000  -1.1364   0.0000   0.0000   0.0000   0.3875
  26.700   0.8588   0.34196   0.34027  -0.1445  0.0094  1.0000  -1.1248   0.0000   0.0000   0.0000   0.3879
  26.800   0.8579   0.34244   0.34075  -0.1448  0.0094  1.0000  -1.1134   0.0000   0.0000   0.0000   0.3883
  26.900   0.8570   0.34292   0.34125  -0.1452  0.0094  1.0000  -1.1022   0.0000   0.0000   0.0000   0.3887
  27.000   0.8562   0.34342   0.34175  -0.1455  0.0094  1.0000  -1.0912   0.0000   0.0000   0.0000   0.3891
  27.100   0.8554   0.34392   0.34226  -0.1458  0.0094  1.0000  -1.0803   0.0000   0.0000   0.0000   0.3895
  27.200   0.8546   0.34445   0.34279  -0.1462  0.0093  1.0000  -1.0695   0.0000   0.0000   0.0000   0.3899
  27.300   0.8540   0.34498   0.34333  -0.1466  0.0093  1.0000  -1.0589   0.0000   0.0000   0.0000   0.3903
  27.400   0.8533   0.34553   0.34389  -0.1469  0.0093  1.0000  -1.0482   0.0000   0.0000   0.0000   0.3907
  27.500   0.8528   0.34610   0.34446  -0.1473  0.0093  1.0000  -1.0376   0.0000   0.0000   0.0000   0.3910
  27.600   0.8523   0.34668   0.34505  -0.1477  0.0092  1.0000  -1.0270   0.0000   0.0000   0.0000   0.3914
  27.700   0.8518   0.34729   0.34566  -0.1481  0.0092  1.0000  -1.0162   0.0000   0.0000   0.0000   0.3918
  27.800   0.8515   0.34791   0.34630  -0.1485  0.0091  1.0000  -1.0053   0.0000   0.0000   0.0000   0.3921
  27.900   0.8512   0.34856   0.34695  -0.1489  0.0090  1.0000  -0.9942   0.0000   0.0000   0.0000   0.3925
  28.000   0.8509   0.34923   0.34762  -0.1493  0.0090  1.0000  -0.9829   0.0000   0.0000   0.0000   0.3928
  28.100   0.8507   0.34990   0.34830  -0.1497  0.0088  1.0000  -0.9717   0.0000   0.0000   0.0000   0.3932
  28.200   0.8505   0.35055   0.34896  -0.1500  0.0087  1.0000  -0.9610   0.0000   0.0000   0.0000   0.3935
  28.300   0.8502   0.35119   0.34960  -0.1504  0.0086  1.0000  -0.9512   0.0000   0.0000   0.0000   0.3938
  28.400   0.8499   0.35179   0.35021  -0.1507  0.0084  1.0000  -0.9423   0.0000   0.0000   0.0000   0.3941
  28.500   0.8495   0.35237   0.35079  -0.1511  0.0083  1.0000  -0.9345   0.0000   0.0000   0.0000   0.3943
  28.600   0.8491   0.35291   0.35134  -0.1514  0.0081  1.0000  -0.9275   0.0000   0.0000   0.0000   0.3946
  28.700   0.8487   0.35345   0.35190  -0.1517  0.0080  1.0000  -0.9213   0.0000   0.0000   0.0000   0.3949
  28.800   0.8482   0.35399   0.35244  -0.1520  0.0079  1.0000  -0.9157   0.0000   0.0000   0.0000   0.3952
  28.900   0.8478   0.35452   0.35297  -0.1523  0.0077  1.0000  -0.9105   0.0000   0.0000   0.0000   0.3954
  29.000   0.8473   0.35504   0.35350  -0.1526  0.0076  1.0000  -0.9058   0.0000   0.0000   0.0000   0.3957
  29.100   0.8469   0.35556   0.35403  -0.1530  0.0075  1.0000  -0.9014   0.0000   0.0000   0.0000   0.3960
  29.200   0.8464   0.35607   0.35455  -0.1533  0.0073  1.0000  -0.8973   0.0000   0.0000   0.0000   0.3962
  29.300   0.8460   0.35659   0.35507  -0.1536  0.0072  1.0000  -0.8935   0.0000   0.0000   0.0000   0.3965
  29.400   0.8455   0.35710   0.35559  -0.1539  0.0071  1.0000  -0.8902   0.0000   0.0000   0.0000   0.3967
  29.500   0.8451   0.35761   0.35610  -0.1542  0.0070  1.0000  -0.8876   0.0000   0.0000   0.0000   0.3970
  29.600   0.8447   0.35812   0.35664  -0.1546  0.0068  1.0000  -0.8855   0.0000   0.0000   0.0000   0.3973
  29.700   0.8443   0.35862   0.35715  -0.1549  0.0067  1.0000  -0.8843   0.0000   0.0000   0.0000   0.3975
  29.800   0.8439   0.35912   0.35765  -0.1552  0.0065  1.0000  -0.8843   0.0000   0.0000   0.0000   0.3978
  29.900   0.8435   0.35960   0.35814  -0.1556  0.0063  1.0000  -0.8860   0.0000   0.0000   0.0000   0.3980
  30.000   0.8432   0.36007   0.35862  -0.1559  0.0061  1.0000  -0.8979   0.0000   0.0000   0.0000   0.3983


