xflr5 v6.61

 Calculated polar for: S7075 (9%)

 1 1 Reynolds number fixed          Mach number fixed         

 xtrf =   1.000 (top)        1.000 (bottom)
 Mach =   0.000     Re =     0.500 e 6     Ncrit =   9.000

  alpha     CL        CD       CDp       Cm    Top Xtr Bot Xtr   Cpmin    Chinge    XCp    
 ------- -------- --------- --------- -------- ------- ------- -------- --------- ---------
  -9.800  -0.3901   0.10079   0.09838  -0.0357  1.0000  0.0168  -2.0639   0.0000   0.0000   0.0000   0.1508
  -9.700  -0.3893   0.09955   0.09716  -0.0359  1.0000  0.0170  -2.0437   0.0000   0.0000   0.0000   0.1501
  -9.600  -0.3876   0.09851   0.09612  -0.0360  1.0000  0.0171  -2.0087   0.0000   0.0000   0.0000   0.1497
  -9.500  -0.3861   0.09749   0.09511  -0.0360  1.0000  0.0173  -1.9758   0.0000   0.0000   0.0000   0.1494
  -9.400  -0.3848   0.09649   0.09411  -0.0360  1.0000  0.0175  -1.9456   0.0000   0.0000   0.0000   0.1490
  -9.300  -0.3836   0.09551   0.09315  -0.0360  1.0000  0.0176  -1.9155   0.0000   0.0000   0.0000   0.1489
  -9.200  -0.3824   0.09461   0.09226  -0.0359  1.0000  0.0178  -1.8821   0.0000   0.0000   0.0000   0.1489
  -9.100  -0.3812   0.09379   0.09144  -0.0358  1.0000  0.0180  -1.8530   0.0000   0.0000   0.0000   0.1492
  -9.000  -0.3802   0.09299   0.09067  -0.0355  1.0000  0.0183  -1.8241   0.0000   0.0000   0.0000   0.1497
  -8.900  -0.3797   0.09222   0.08990  -0.0353  1.0000  0.0185  -1.7992   0.0000   0.0000   0.0000   0.1504
  -8.800  -0.3801   0.09146   0.08916  -0.0349  1.0000  0.0188  -1.7805   0.0000   0.0000   0.0000   0.1517
  -8.700  -0.3817   0.09075   0.08846  -0.0343  1.0000  0.0191  -1.7688   0.0000   0.0000   0.0000   0.1538
  -8.600  -0.3847   0.09010   0.08784  -0.0334  1.0000  0.0193  -1.7635   0.0000   0.0000   0.0000   0.1569
  -8.500  -0.3888   0.08952   0.08728  -0.0324  1.0000  0.0195  -1.7634   0.0000   0.0000   0.0000   0.1607
  -8.400  -0.3936   0.08897   0.08674  -0.0312  1.0000  0.0196  -1.7662   0.0000   0.0000   0.0000   0.1648
  -8.300  -0.3986   0.08841   0.08620  -0.0300  1.0000  0.0198  -1.7708   0.0000   0.0000   0.0000   0.1689
  -8.200  -0.4037   0.08783   0.08565  -0.0289  1.0000  0.0199  -1.7767   0.0000   0.0000   0.0000   0.1729
  -8.100  -0.4089   0.08723   0.08506  -0.0278  1.0000  0.0201  -1.7837   0.0000   0.0000   0.0000   0.1766
  -8.000  -0.4135   0.08656   0.08441  -0.0270  1.0000  0.0202  -1.7905   0.0000   0.0000   0.0000   0.1796
  -7.900  -0.4078   0.08494   0.08278  -0.0290  0.9990  0.0208  -1.7814   0.0000   0.0000   0.0000   0.1737
  -7.800  -0.4022   0.08324   0.08109  -0.0312  0.9980  0.0213  -1.7794   0.0000   0.0000   0.0000   0.1674
  -7.700  -0.3974   0.08151   0.07937  -0.0333  0.9968  0.0218  -1.7837   0.0000   0.0000   0.0000   0.1611
  -7.600  -0.3923   0.07971   0.07757  -0.0357  0.9953  0.0222  -1.7925   0.0000   0.0000   0.0000   0.1540
  -7.500  -0.3867   0.07778   0.07564  -0.0385  0.9938  0.0227  -1.8057   0.0000   0.0000   0.0000   0.1455
  -7.400  -0.3798   0.07563   0.07349  -0.0419  0.9923  0.0231  -1.8232   0.0000   0.0000   0.0000   0.1348
  -7.300  -0.3723   0.07327   0.07113  -0.0455  0.9900  0.0235  -1.8443   0.0000   0.0000   0.0000   0.1226
  -7.200  -0.3630   0.07063   0.06849  -0.0502  0.9880  0.0240  -1.8723   0.0000   0.0000   0.0000   0.1067
  -7.100  -0.3523   0.06769   0.06553  -0.0558  0.9864  0.0245  -1.9085   0.0000   0.0000   0.0000   0.0866
  -7.000  -0.3398   0.06459   0.06240  -0.0616  0.9851  0.0250  -1.9501   0.0000   0.0000   0.0000   0.0636
  -6.900  -0.3253   0.06134   0.05911  -0.0677  0.9841  0.0257  -2.0005   0.0000   0.0000   0.0000   0.0368
  -6.800  -0.3150   0.05932   0.05705  -0.0707  0.9818  0.0262  -2.0211   0.0000   0.0000   0.0000   0.0202
  -6.700  -0.3032   0.05733   0.05501  -0.0737  0.9797  0.0266  -2.0376   0.0000   0.0000   0.0000   0.0012
  -6.600  -0.2915   0.05512   0.05273  -0.0769  0.9780  0.0268  -2.0597   0.0000   0.0000   0.0000  -0.0194
  -6.500  -0.2802   0.05285   0.05038  -0.0798  0.9766  0.0270  -2.0835   0.0000   0.0000   0.0000  -0.0409
  -6.400  -0.2689   0.05063   0.04807  -0.0826  0.9755  0.0270  -2.1045   0.0000   0.0000   0.0000  -0.0634
  -6.300  -0.2574   0.04849   0.04583  -0.0852  0.9745  0.0271  -2.1214   0.0000   0.0000   0.0000  -0.0875
  -6.200  -0.2456   0.04642   0.04366  -0.0877  0.9737  0.0272  -2.1336   0.0000   0.0000   0.0000  -0.1137
  -6.100  -0.2334   0.04444   0.04156  -0.0900  0.9730  0.0272  -2.1411   0.0000   0.0000   0.0000  -0.1426
  -6.000  -0.2208   0.04254   0.03955  -0.0922  0.9724  0.0272  -2.1438   0.0000   0.0000   0.0000  -0.1747
  -5.900  -0.2081   0.04073   0.03762  -0.0942  0.9719  0.0272  -2.1424   0.0000   0.0000   0.0000  -0.2103
  -5.800  -0.2177   0.03413   0.03067  -0.0955  0.9657  0.0282  -2.4025   0.0000   0.0000   0.0000  -0.1959
  -5.700  -0.2097   0.03147   0.02790  -0.0969  0.9642  0.0291  -2.4095   0.0000   0.0000   0.0000  -0.2198
  -5.600  -0.1985   0.03018   0.02655  -0.0979  0.9632  0.0297  -2.3636   0.0000   0.0000   0.0000  -0.2510
  -5.500  -0.1867   0.02919   0.02551  -0.0988  0.9623  0.0302  -2.3059   0.0000   0.0000   0.0000  -0.2873
  -5.400  -0.1744   0.02833   0.02462  -0.0996  0.9614  0.0307  -2.2438   0.0000   0.0000   0.0000  -0.3296
  -5.300  -0.1620   0.02750   0.02373  -0.1004  0.9606  0.0313  -2.1845   0.0000   0.0000   0.0000  -0.3790
  -5.200  -0.1495   0.02667   0.02285  -0.1012  0.9599  0.0320  -2.1290   0.0000   0.0000   0.0000  -0.4364
  -5.100  -0.1370   0.02586   0.02197  -0.1019  0.9591  0.0327  -2.0771   0.0000   0.0000   0.0000  -0.5043
  -5.000  -0.1243   0.02505   0.02108  -0.1026  0.9583  0.0336  -2.0288   0.0000   0.0000   0.0000  -0.5867
  -4.900  -0.1114   0.02426   0.02020  -0.1033  0.9576  0.0346  -1.9838   0.0000   0.0000   0.0000  -0.6894
  -4.800  -0.0988   0.02353   0.01937  -0.1038  0.9568  0.0357  -1.9423   0.0000   0.0000   0.0000  -0.8137
  -4.700  -0.0932   0.02306   0.01884  -0.1027  0.9536  0.0366  -1.9149   0.0000   0.0000   0.0000  -0.8661
  -4.600  -0.0837   0.02256   0.01826  -0.1024  0.9515  0.0377  -1.8798   0.0000   0.0000   0.0000  -0.9895
  -4.500  -0.0726   0.02219   0.01781  -0.1023  0.9498  0.0390  -1.8385   0.0000   0.0000   0.0000  -1.1768
  -4.400  -0.0602   0.02226   0.01783  -0.1023  0.9483  0.0403  -1.7816   0.0000   0.0000   0.0000  -1.4684
  -4.200  -0.0375   0.01749   0.01240  -0.1016  0.9452  0.0257  -2.0340   0.0000   0.0000   0.0000  -2.4907
  -4.100  -0.0266   0.01534   0.00997  -0.1015  0.9439  0.0221  -2.1337   0.0000   0.0000   0.0000  -3.6149
  -4.000  -0.0146   0.01380   0.00819  -0.1011  0.9428  0.0192  -2.2373   0.0000   0.0000   0.0000  -6.7812
  -3.900  -0.0022   0.01317   0.00745  -0.1011  0.9417  0.0180  -2.2373   0.0000   0.0000   0.0000  -45.2883
  -3.800   0.0101   0.01286   0.00709  -0.1012  0.9407  0.0174  -2.1883   0.0000   0.0000   0.0000  10.3550
  -3.700   0.0224   0.01261   0.00681  -0.1013  0.9396  0.0170  -2.1289   0.0000   0.0000   0.0000   4.8204
  -3.600   0.0322   0.01241   0.00659  -0.1009  0.9376  0.0168  -2.0735   0.0000   0.0000   0.0000   3.4177
  -3.500   0.0413   0.01221   0.00637  -0.1004  0.9351  0.0165  -2.0199   0.0000   0.0000   0.0000   2.7066
  -3.400   0.0511   0.01199   0.00613  -0.1000  0.9329  0.0164  -1.9651   0.0000   0.0000   0.0000   2.2249
  -3.300   0.0615   0.01176   0.00587  -0.0997  0.9308  0.0162  -1.9108   0.0000   0.0000   0.0000   1.8881
  -3.200   0.0721   0.01149   0.00559  -0.0995  0.9289  0.0160  -1.8585   0.0000   0.0000   0.0000   1.6428
  -3.100   0.0831   0.01120   0.00527  -0.0994  0.9271  0.0159  -1.8087   0.0000   0.0000   0.0000   1.4570
  -3.000   0.0942   0.01089   0.00492  -0.0993  0.9255  0.0159  -1.7627   0.0000   0.0000   0.0000   1.3135
  -2.900   0.1053   0.01057   0.00455  -0.0992  0.9240  0.0159  -1.7206   0.0000   0.0000   0.0000   1.1995
  -2.800   0.1166   0.01025   0.00417  -0.0991  0.9225  0.0160  -1.6825   0.0000   0.0000   0.0000   1.1068
  -2.700   0.1279   0.00995   0.00380  -0.0990  0.9210  0.0164  -1.6485   0.0000   0.0000   0.0000   1.0298
  -2.600   0.1393   0.00971   0.00346  -0.0989  0.9194  0.0173  -1.6219   0.0000   0.0000   0.0000   0.9649
  -2.500   0.1498   0.00950   0.00319  -0.0986  0.9175  0.0215  -1.6179   0.0000   0.0000   0.0000   0.9123
  -2.400   0.1590   0.00904   0.00299  -0.0982  0.9151  0.0789  -1.6170   0.0000   0.0000   0.0000   0.8719
  -2.300   0.1687   0.00881   0.00293  -0.0980  0.9126  0.1175  -1.5492   0.0000   0.0000   0.0000   0.8345
  -2.200   0.1789   0.00863   0.00287  -0.0979  0.9102  0.1504  -1.4725   0.0000   0.0000   0.0000   0.8001
  -2.100   0.1895   0.00847   0.00281  -0.0978  0.9079  0.1788  -1.3929   0.0000   0.0000   0.0000   0.7687
  -2.000   0.2003   0.00833   0.00276  -0.0977  0.9058  0.2049  -1.3122   0.0000   0.0000   0.0000   0.7402
  -1.900   0.2112   0.00819   0.00269  -0.0976  0.9037  0.2311  -1.2311   0.0000   0.0000   0.0000   0.7144
  -1.800   0.2223   0.00806   0.00263  -0.0976  0.9017  0.2556  -1.1497   0.0000   0.0000   0.0000   0.6908
  -1.700   0.2333   0.00794   0.00257  -0.0975  0.8998  0.2795  -1.0680   0.0000   0.0000   0.0000   0.6695
  -1.600   0.2447   0.00793   0.00246  -0.0974  0.8979  0.2765  -0.9735   0.0000   0.0000   0.0000   0.6495
  -1.500   0.2556   0.00778   0.00244  -0.0974  0.8958  0.3180  -0.8987   0.0000   0.0000   0.0000   0.6322
  -1.400   0.2654   0.00762   0.00242  -0.0972  0.8934  0.3609  -0.8290   0.0000   0.0000   0.0000   0.6171
  -1.300   0.2753   0.00745   0.00240  -0.0970  0.8906  0.4049  -0.7597   0.0000   0.0000   0.0000   0.6030
  -1.200   0.2854   0.00728   0.00237  -0.0968  0.8876  0.4490  -0.6909   0.0000   0.0000   0.0000   0.5897
  -1.100   0.2954   0.00708   0.00234  -0.0965  0.8847  0.5037  -0.6234   0.0000   0.0000   0.0000   0.5773
  -1.000   0.3049   0.00679   0.00233  -0.0962  0.8818  0.5857  -0.5585   0.0000   0.0000   0.0000   0.5659
  -0.900   0.3134   0.00649   0.00235  -0.0955  0.8791  0.6856  -0.4974   0.0000   0.0000   0.0000   0.5551
  -0.800   0.3213   0.00630   0.00241  -0.0946  0.8765  0.7632  -0.4865   0.0000   0.0000   0.0000   0.5444
  -0.700   0.3301   0.00622   0.00244  -0.0937  0.8739  0.8082  -0.4942   0.0000   0.0000   0.0000   0.5340
  -0.600   0.3397   0.00620   0.00245  -0.0931  0.8712  0.8343  -0.5028   0.0000   0.0000   0.0000   0.5240
  -0.500   0.3487   0.00617   0.00245  -0.0925  0.8682  0.8520  -0.5113   0.0000   0.0000   0.0000   0.5150
  -0.400   0.3582   0.00613   0.00243  -0.0920  0.8648  0.8623  -0.5201   0.0000   0.0000   0.0000   0.5065
  -0.300   0.3677   0.00608   0.00240  -0.0915  0.8612  0.8715  -0.5289   0.0000   0.0000   0.0000   0.4984
  -0.200   0.3776   0.00604   0.00237  -0.0911  0.8575  0.8805  -0.5380   0.0000   0.0000   0.0000   0.4906
  -0.100   0.3877   0.00600   0.00232  -0.0907  0.8540  0.8883  -0.5475   0.0000   0.0000   0.0000   0.4832
   0.000   0.3975   0.00593   0.00226  -0.0902  0.8506  0.8964  -0.5575   0.0000   0.0000   0.0000   0.4761
   0.100   0.4077   0.00589   0.00221  -0.0898  0.8473  0.9047  -0.5679   0.0000   0.0000   0.0000   0.4693
   0.200   0.4181   0.00586   0.00217  -0.0894  0.8438  0.9128  -0.5786   0.0000   0.0000   0.0000   0.4630
   0.300   0.4274   0.00581   0.00215  -0.0889  0.8398  0.9228  -0.5895   0.0000   0.0000   0.0000   0.4569
   0.400   0.4373   0.00576   0.00213  -0.0885  0.8352  0.9343  -0.6008   0.0000   0.0000   0.0000   0.4512
   0.500   0.4493   0.00571   0.00208  -0.0885  0.8306  0.9468  -0.6135   0.0000   0.0000   0.0000   0.4457
   0.600   0.4635   0.00567   0.00203  -0.0890  0.8259  0.9587  -0.6275   0.0000   0.0000   0.0000   0.4407
   0.900   0.5098   0.00560   0.00190  -0.0916  0.8115  1.0000  -0.6750   0.0000   0.0000   0.0000   0.4281
   1.000   0.5203   0.00560   0.00192  -0.0915  0.8048  1.0000  -0.6882   0.0000   0.0000   0.0000   0.4241
   1.100   0.5311   0.00560   0.00189  -0.0913  0.7975  1.0000  -0.7017   0.0000   0.0000   0.0000   0.4202
   1.200   0.5420   0.00561   0.00185  -0.0912  0.7904  1.0000  -0.7153   0.0000   0.0000   0.0000   0.4165
   1.300   0.5528   0.00563   0.00182  -0.0911  0.7835  1.0000  -0.7303   0.0000   0.0000   0.0000   0.4129
   1.400   0.5635   0.00565   0.00183  -0.0910  0.7756  1.0000  -0.7455   0.0000   0.0000   0.0000   0.4095
   1.500   0.5742   0.00567   0.00181  -0.0909  0.7668  1.0000  -0.7610   0.0000   0.0000   0.0000   0.4062
   1.600   0.5849   0.00570   0.00178  -0.0907  0.7580  1.0000  -0.7784   0.0000   0.0000   0.0000   0.4029
   1.700   0.5956   0.00574   0.00178  -0.0906  0.7494  1.0000  -0.7958   0.0000   0.0000   0.0000   0.3998
   1.800   0.6062   0.00578   0.00178  -0.0904  0.7392  1.0000  -0.8133   0.0000   0.0000   0.0000   0.3969
   1.900   0.6165   0.00583   0.00177  -0.0902  0.7282  1.0000  -0.8306   0.0000   0.0000   0.0000   0.3939
   2.000   0.6269   0.00590   0.00178  -0.0900  0.7182  1.0000  -0.8481   0.0000   0.0000   0.0000   0.3911
   2.100   0.6375   0.00595   0.00180  -0.0899  0.7079  1.0000  -0.8679   0.0000   0.0000   0.0000   0.3884
   2.200   0.6478   0.00602   0.00181  -0.0897  0.6967  1.0000  -0.8879   0.0000   0.0000   0.0000   0.3858
   2.300   0.6578   0.00611   0.00183  -0.0894  0.6857  1.0000  -0.9079   0.0000   0.0000   0.0000   0.3832
   2.400   0.6684   0.00617   0.00186  -0.0893  0.6751  1.0000  -0.9293   0.0000   0.0000   0.0000   0.3808
   2.500   0.6785   0.00626   0.00188  -0.0890  0.6625  1.0000  -0.9527   0.0000   0.0000   0.0000   0.3783
   2.600   0.6883   0.00637   0.00192  -0.0887  0.6503  1.0000  -0.9759   0.0000   0.0000   0.0000   0.3760
   2.700   0.6988   0.00643   0.00195  -0.0886  0.6392  1.0000  -1.0007   0.0000   0.0000   0.0000   0.3737
   2.800   0.7087   0.00653   0.00199  -0.0884  0.6265  1.0000  -1.0287   0.0000   0.0000   0.0000   0.3715
   2.900   0.7185   0.00665   0.00203  -0.0881  0.6145  1.0000  -1.0564   0.0000   0.0000   0.0000   0.3693
   3.000   0.7290   0.00671   0.00208  -0.0880  0.6042  1.0000  -1.0854   0.0000   0.0000   0.0000   0.3673
   3.100   0.7391   0.00681   0.00212  -0.0877  0.5924  1.0000  -1.1140   0.0000   0.0000   0.0000   0.3653
   3.300   0.7591   0.00701   0.00222  -0.0873  0.5689  1.0000  -1.1953   0.0000   0.0000   0.0000   0.3614
   3.400   0.7691   0.00712   0.00227  -0.0871  0.5557  1.0000  -1.2396   0.0000   0.0000   0.0000   0.3595
   3.500   0.7784   0.00727   0.00234  -0.0867  0.5422  1.0000  -1.2829   0.0000   0.0000   0.0000   0.3577
   3.600   0.7890   0.00734   0.00245  -0.0866  0.5321  1.0000  -1.3331   0.0000   0.0000   0.0000   0.3559
   3.700   0.7989   0.00745   0.00250  -0.0864  0.5191  1.0000  -1.3789   0.0000   0.0000   0.0000   0.3542
   3.800   0.8082   0.00761   0.00257  -0.0861  0.5047  1.0000  -1.4232   0.0000   0.0000   0.0000   0.3525
   3.900   0.8185   0.00770   0.00263  -0.0859  0.4925  1.0000  -1.4703   0.0000   0.0000   0.0000   0.3509
   4.000   0.8280   0.00785   0.00270  -0.0857  0.4772  1.0000  -1.5159   0.0000   0.0000   0.0000   0.3492
   4.100   0.8376   0.00799   0.00278  -0.0854  0.4635  1.0000  -1.5620   0.0000   0.0000   0.0000   0.3476
   4.200   0.8476   0.00810   0.00284  -0.0852  0.4501  1.0000  -1.6095   0.0000   0.0000   0.0000   0.3461
   4.300   0.8568   0.00827   0.00293  -0.0849  0.4350  1.0000  -1.6555   0.0000   0.0000   0.0000   0.3446
   4.400   0.8669   0.00839   0.00300  -0.0847  0.4235  1.0000  -1.7038   0.0000   0.0000   0.0000   0.3431
   4.500   0.8769   0.00851   0.00308  -0.0845  0.4113  1.0000  -1.7523   0.0000   0.0000   0.0000   0.3417
   4.600   0.8863   0.00868   0.00317  -0.0843  0.3979  1.0000  -1.7996   0.0000   0.0000   0.0000   0.3403
   4.700   0.8964   0.00879   0.00325  -0.0841  0.3874  1.0000  -1.8491   0.0000   0.0000   0.0000   0.3389
   4.800   0.9062   0.00892   0.00334  -0.0839  0.3744  1.0000  -1.8983   0.0000   0.0000   0.0000   0.3376
   4.900   0.9152   0.00913   0.00345  -0.0836  0.3578  1.0000  -1.9458   0.0000   0.0000   0.0000   0.3362
   5.000   0.9249   0.00928   0.00354  -0.0834  0.3424  1.0000  -1.9956   0.0000   0.0000   0.0000   0.3349
   5.100   0.9336   0.00952   0.00366  -0.0830  0.3227  1.0000  -2.0430   0.0000   0.0000   0.0000   0.3336
   5.200   0.9431   0.00969   0.00376  -0.0828  0.3066  1.0000  -2.0930   0.0000   0.0000   0.0000   0.3324
   5.300   0.9519   0.00992   0.00389  -0.0825  0.2888  1.0000  -2.1413   0.0000   0.0000   0.0000   0.3311
   5.400   0.9618   0.01006   0.00399  -0.0823  0.2767  1.0000  -2.1926   0.0000   0.0000   0.0000   0.3299
   5.500   0.9709   0.01027   0.00411  -0.0820  0.2628  1.0000  -2.2425   0.0000   0.0000   0.0000   0.3287
   5.600   0.9806   0.01043   0.00423  -0.0818  0.2514  1.0000  -2.2939   0.0000   0.0000   0.0000   0.3276
   5.700   0.9901   0.01060   0.00435  -0.0816  0.2393  1.0000  -2.3454   0.0000   0.0000   0.0000   0.3265
   5.800   0.9991   0.01083   0.00448  -0.0813  0.2254  1.0000  -2.3957   0.0000   0.0000   0.0000   0.3253
   5.900   1.0090   0.01097   0.00460  -0.0811  0.2159  1.0000  -2.4486   0.0000   0.0000   0.0000   0.3243
   6.000   1.0181   0.01119   0.00474  -0.0809  0.2035  1.0000  -2.4998   0.0000   0.0000   0.0000   0.3232
   6.100   1.0275   0.01137   0.00487  -0.0806  0.1923  1.0000  -2.5519   0.0000   0.0000   0.0000   0.3221
   6.200   1.0369   0.01155   0.00501  -0.0804  0.1821  1.0000  -2.6047   0.0000   0.0000   0.0000   0.3210
   6.300   1.0454   0.01184   0.00532  -0.0800  0.1658  1.0000  -2.6539   0.0000   0.0000   0.0000   0.3200
   6.400   1.0548   0.01202   0.00546  -0.0798  0.1558  1.0000  -2.7070   0.0000   0.0000   0.0000   0.3189
   6.500   1.0634   0.01230   0.00565  -0.0795  0.1431  1.0000  -2.7579   0.0000   0.0000   0.0000   0.3179
   6.600   1.0728   0.01247   0.00580  -0.0792  0.1343  1.0000  -2.8115   0.0000   0.0000   0.0000   0.3169
   6.700   1.0816   0.01273   0.00598  -0.0789  0.1233  1.0000  -2.8631   0.0000   0.0000   0.0000   0.3159
   6.800   1.0906   0.01295   0.00615  -0.0786  0.1136  1.0000  -2.9171   0.0000   0.0000   0.0000   0.3149
   6.900   1.0995   0.01317   0.00633  -0.0784  0.1045  1.0000  -2.9835   0.0000   0.0000   0.0000   0.3140
   7.000   1.1080   0.01345   0.00654  -0.0780  0.0942  1.0000  -3.0483   0.0000   0.0000   0.0000   0.3130
   7.100   1.1172   0.01365   0.00671  -0.0778  0.0873  1.0000  -3.1160   0.0000   0.0000   0.0000   0.3121
   7.200   1.1255   0.01394   0.00692  -0.0774  0.0782  1.0000  -3.1806   0.0000   0.0000   0.0000   0.3111
   7.300   1.1345   0.01416   0.00712  -0.0771  0.0716  1.0000  -3.2476   0.0000   0.0000   0.0000   0.3102
   7.400   1.1431   0.01441   0.00733  -0.0767  0.0652  1.0000  -3.3134   0.0000   0.0000   0.0000   0.3092
   7.500   1.1509   0.01476   0.00761  -0.0763  0.0568  1.0000  -3.3737   0.0000   0.0000   0.0000   0.3082
   7.600   1.1602   0.01493   0.00780  -0.0760  0.0540  1.0000  -3.4422   0.0000   0.0000   0.0000   0.3074
   7.700   1.1687   0.01519   0.00803  -0.0756  0.0499  1.0000  -3.5072   0.0000   0.0000   0.0000   0.3064
   7.800   1.1762   0.01557   0.00835  -0.0751  0.0443  1.0000  -3.5644   0.0000   0.0000   0.0000   0.3054
   7.900   1.1841   0.01590   0.00869  -0.0746  0.0410  1.0000  -3.6221   0.0000   0.0000   0.0000   0.3045
   8.000   1.1936   0.01603   0.00883  -0.0744  0.0399  1.0000  -3.6969   0.0000   0.0000   0.0000   0.3037
   8.100   1.2029   0.01618   0.00899  -0.0742  0.0384  1.0000  -3.7713   0.0000   0.0000   0.0000   0.3029
   8.200   1.2119   0.01636   0.00916  -0.0739  0.0366  1.0000  -3.8455   0.0000   0.0000   0.0000   0.3021
   8.300   1.2205   0.01657   0.00935  -0.0736  0.0347  1.0000  -3.9193   0.0000   0.0000   0.0000   0.3012
   8.400   1.2288   0.01682   0.00957  -0.0732  0.0327  1.0000  -3.9904   0.0000   0.0000   0.0000   0.3004
   8.500   1.2365   0.01714   0.00989  -0.0727  0.0305  1.0000  -4.0538   0.0000   0.0000   0.0000   0.2995
   8.600   1.2431   0.01757   0.01036  -0.0720  0.0286  1.0000  -4.1361   0.0000   0.0000   0.0000   0.2985
   8.700   1.2540   0.01751   0.01032  -0.0721  0.0280  1.0000  -4.2794   0.0000   0.0000   0.0000   0.2979
   8.800   1.2632   0.01764   0.01046  -0.0719  0.0276  1.0000  -4.4126   0.0000   0.0000   0.0000   0.2972
   8.900   1.2722   0.01779   0.01064  -0.0716  0.0271  1.0000  -4.5452   0.0000   0.0000   0.0000   0.2964
   9.000   1.2810   0.01796   0.01083  -0.0713  0.0267  1.0000  -4.6782   0.0000   0.0000   0.0000   0.2957
   9.100   1.2896   0.01814   0.01103  -0.0710  0.0262  1.0000  -4.8118   0.0000   0.0000   0.0000   0.2949
   9.200   1.2982   0.01833   0.01123  -0.0707  0.0257  1.0000  -4.9463   0.0000   0.0000   0.0000   0.2941
   9.300   1.3067   0.01851   0.01144  -0.0703  0.0252  1.0000  -5.0817   0.0000   0.0000   0.0000   0.2934
   9.400   1.3151   0.01871   0.01165  -0.0700  0.0247  1.0000  -5.2180   0.0000   0.0000   0.0000   0.2926
   9.500   1.3233   0.01891   0.01186  -0.0696  0.0241  1.0000  -5.3548   0.0000   0.0000   0.0000   0.2919
   9.600   1.3315   0.01911   0.01208  -0.0692  0.0236  1.0000  -5.4922   0.0000   0.0000   0.0000   0.2911
   9.700   1.3396   0.01932   0.01230  -0.0689  0.0230  1.0000  -5.6302   0.0000   0.0000   0.0000   0.2904
   9.800   1.3475   0.01954   0.01252  -0.0684  0.0225  1.0000  -5.7684   0.0000   0.0000   0.0000   0.2896
   9.900   1.3553   0.01976   0.01275  -0.0680  0.0219  1.0000  -5.9066   0.0000   0.0000   0.0000   0.2888
  10.000   1.3629   0.02000   0.01299  -0.0676  0.0212  1.0000  -6.0441   0.0000   0.0000   0.0000   0.2881
  10.100   1.3703   0.02025   0.01325  -0.0671  0.0206  1.0000  -6.1803   0.0000   0.0000   0.0000   0.2873
  10.200   1.3774   0.02052   0.01354  -0.0665  0.0199  1.0000  -6.3143   0.0000   0.0000   0.0000   0.2865
  10.300   1.3839   0.02080   0.01385  -0.0659  0.0192  1.0000  -6.4438   0.0000   0.0000   0.0000   0.2857
  10.400   1.3897   0.02111   0.01420  -0.0651  0.0186  1.0000  -6.5678   0.0000   0.0000   0.0000   0.2848
  10.500   1.3950   0.02146   0.01459  -0.0643  0.0180  1.0000  -6.6866   0.0000   0.0000   0.0000   0.2839
  10.600   1.4024   0.02164   0.01477  -0.0638  0.0177  1.0000  -6.8289   0.0000   0.0000   0.0000   0.2831
  10.700   1.4114   0.02169   0.01483  -0.0636  0.0175  1.0000  -6.9876   0.0000   0.0000   0.0000   0.2825
  10.800   1.4201   0.02176   0.01490  -0.0633  0.0173  1.0000  -7.1438   0.0000   0.0000   0.0000   0.2819
  10.900   1.4284   0.02186   0.01501  -0.0630  0.0170  1.0000  -7.2939   0.0000   0.0000   0.0000   0.2812
  11.000   1.4362   0.02199   0.01516  -0.0626  0.0165  1.0000  -7.4361   0.0000   0.0000   0.0000   0.2805
  11.100   1.4436   0.02216   0.01535  -0.0621  0.0159  1.0000  -7.5699   0.0000   0.0000   0.0000   0.2798
  11.200   1.4503   0.02238   0.01557  -0.0615  0.0144  1.0000  -7.6973   0.0000   0.0000   0.0000   0.2790
  11.300   1.4556   0.02271   0.01587  -0.0608  0.0119  1.0000  -7.8130   0.0000   0.0000   0.0000   0.2782
  11.400   1.4613   0.02299   0.01625  -0.0601  0.0118  1.0000  -7.9583   0.0000   0.0000   0.0000   0.2774
  11.500   1.4653   0.02343   0.01665  -0.0592  0.0097  1.0000  -8.0701   0.0000   0.0000   0.0000   0.2765
  11.600   1.4692   0.02386   0.01709  -0.0583  0.0081  1.0000  -8.1743   0.0000   0.0000   0.0000   0.2757
  11.700   1.4726   0.02433   0.01757  -0.0573  0.0068  1.0000  -8.2730   0.0000   0.0000   0.0000   0.2748
  11.800   1.4755   0.02484   0.01809  -0.0563  0.0058  1.0000  -8.3676   0.0000   0.0000   0.0000   0.2738
  11.900   1.4787   0.02533   0.01860  -0.0554  0.0050  1.0000  -8.4622   0.0000   0.0000   0.0000   0.2729
  12.000   1.4828   0.02576   0.01908  -0.0545  0.0044  1.0000  -8.5584   0.0000   0.0000   0.0000   0.2721
  12.100   1.4866   0.02622   0.01958  -0.0537  0.0041  1.0000  -8.6546   0.0000   0.0000   0.0000   0.2712
  12.200   1.4901   0.02668   0.02010  -0.0528  0.0040  1.0000  -8.7543   0.0000   0.0000   0.0000   0.2704
  12.300   1.4934   0.02717   0.02064  -0.0519  0.0039  1.0000  -8.8531   0.0000   0.0000   0.0000   0.2696
  12.400   1.4966   0.02767   0.02120  -0.0510  0.0039  1.0000  -8.9513   0.0000   0.0000   0.0000   0.2687
  12.500   1.4996   0.02820   0.02178  -0.0502  0.0038  1.0000  -9.0479   0.0000   0.0000   0.0000   0.2679
  12.600   1.5022   0.02875   0.02240  -0.0493  0.0038  1.0000  -9.1417   0.0000   0.0000   0.0000   0.2671
  12.700   1.5047   0.02933   0.02305  -0.0484  0.0037  1.0000  -9.2341   0.0000   0.0000   0.0000   0.2663
  12.800   1.5069   0.02994   0.02371  -0.0476  0.0037  1.0000  -9.3254   0.0000   0.0000   0.0000   0.2655
  12.900   1.5088   0.03057   0.02441  -0.0467  0.0036  1.0000  -9.4136   0.0000   0.0000   0.0000   0.2647
  13.000   1.5103   0.03124   0.02515  -0.0458  0.0036  1.0000  -9.4983   0.0000   0.0000   0.0000   0.2639
  13.100   1.5115   0.03194   0.02591  -0.0450  0.0036  1.0000  -9.5803   0.0000   0.0000   0.0000   0.2632
  13.200   1.5125   0.03266   0.02670  -0.0441  0.0036  1.0000  -9.6604   0.0000   0.0000   0.0000   0.2624
  13.300   1.5129   0.03343   0.02754  -0.0433  0.0036  1.0000  -9.7359   0.0000   0.0000   0.0000   0.2616
  13.400   1.5131   0.03424   0.02842  -0.0424  0.0035  1.0000  -9.8090   0.0000   0.0000   0.0000   0.2609
  13.500   1.5133   0.03509   0.02934  -0.0417  0.0035  1.0000  -9.8812   0.0000   0.0000   0.0000   0.2602
  13.600   1.5130   0.03598   0.03030  -0.0409  0.0035  1.0000  -9.9494   0.0000   0.0000   0.0000   0.2595
  13.700   1.5123   0.03694   0.03133  -0.0402  0.0035  1.0000  -10.0129   0.0000   0.0000   0.0000   0.2589
  13.800   1.5115   0.03793   0.03239  -0.0395  0.0035  1.0000  -10.0750   0.0000   0.0000   0.0000   0.2583
  13.900   1.5103   0.03897   0.03351  -0.0389  0.0035  1.0000  -10.1337   0.0000   0.0000   0.0000   0.2577
  14.000   1.5085   0.04008   0.03470  -0.0383  0.0035  1.0000  -10.1866   0.0000   0.0000   0.0000   0.2571
  14.100   1.5067   0.04124   0.03593  -0.0377  0.0035  1.0000  -10.2379   0.0000   0.0000   0.0000   0.2566
  14.200   1.5045   0.04246   0.03722  -0.0373  0.0035  1.0000  -10.2848   0.0000   0.0000   0.0000   0.2561
  14.300   1.5017   0.04375   0.03859  -0.0369  0.0035  1.0000  -10.3261   0.0000   0.0000   0.0000   0.2557
  14.400   1.4987   0.04507   0.03999  -0.0365  0.0035  1.0000  -10.3655   0.0000   0.0000   0.0000   0.2553
  14.500   1.4951   0.04650   0.04149  -0.0362  0.0035  1.0000  -10.3980   0.0000   0.0000   0.0000   0.2549
  14.600   1.4916   0.04798   0.04305  -0.0360  0.0035  1.0000  -10.4298   0.0000   0.0000   0.0000   0.2547
  14.700   1.4878   0.04955   0.04470  -0.0359  0.0035  1.0000  -10.4576   0.0000   0.0000   0.0000   0.2544
  14.800   1.4836   0.05121   0.04644  -0.0359  0.0035  1.0000  -10.4814   0.0000   0.0000   0.0000   0.2543
  14.900   1.4795   0.05293   0.04824  -0.0360  0.0035  1.0000  -10.5037   0.0000   0.0000   0.0000   0.2542
  15.000   1.4748   0.05477   0.05016  -0.0362  0.0035  1.0000  -10.5192   0.0000   0.0000   0.0000   0.2542
  15.100   1.4702   0.05664   0.05211  -0.0365  0.0035  1.0000  -10.5349   0.0000   0.0000   0.0000   0.2543
  15.200   1.4650   0.05867   0.05421  -0.0370  0.0035  1.0000  -10.5426   0.0000   0.0000   0.0000   0.2545
  15.300   1.4600   0.06071   0.05633  -0.0374  0.0035  1.0000  -10.5509   0.0000   0.0000   0.0000   0.2547
  15.400   1.4545   0.06291   0.05861  -0.0381  0.0035  1.0000  -10.5517   0.0000   0.0000   0.0000   0.2550
  15.500   1.4490   0.06514   0.06091  -0.0388  0.0035  1.0000  -10.5515   0.0000   0.0000   0.0000   0.2554
  15.600   1.4431   0.06749   0.06335  -0.0396  0.0035  1.0000  -10.5454   0.0000   0.0000   0.0000   0.2558
  15.700   1.4370   0.06991   0.06584  -0.0405  0.0035  1.0000  -10.5362   0.0000   0.0000   0.0000   0.2563
  15.800   1.4308   0.07241   0.06842  -0.0415  0.0035  1.0000  -10.5232   0.0000   0.0000   0.0000   0.2570
  15.900   1.4242   0.07502   0.07111  -0.0426  0.0035  1.0000  -10.5044   0.0000   0.0000   0.0000   0.2577
  16.000   1.4177   0.07765   0.07381  -0.0438  0.0035  1.0000  -10.4844   0.0000   0.0000   0.0000   0.2584
  16.100   1.4105   0.08044   0.07668  -0.0451  0.0035  1.0000  -10.4555   0.0000   0.0000   0.0000   0.2593
  16.200   1.4034   0.08316   0.07947  -0.0463  0.0035  1.0000  -10.4269   0.0000   0.0000   0.0000   0.2601
  16.300   1.3957   0.08612   0.08250  -0.0478  0.0035  1.0000  -10.3876   0.0000   0.0000   0.0000   0.2611
  16.400   1.3884   0.08899   0.08545  -0.0491  0.0035  1.0000  -10.3525   0.0000   0.0000   0.0000   0.2621
  16.500   1.3804   0.09214   0.08866  -0.0508  0.0035  1.0000  -10.3053   0.0000   0.0000   0.0000   0.2633
  16.600   1.3730   0.09520   0.09179  -0.0523  0.0035  1.0000  -10.2623   0.0000   0.0000   0.0000   0.2644
  16.700   1.3650   0.09846   0.09513  -0.0540  0.0035  1.0000  -10.2091   0.0000   0.0000   0.0000   0.2657
  16.800   1.3572   0.10170   0.09842  -0.0557  0.0035  1.0000  -10.1566   0.0000   0.0000   0.0000   0.2670
  16.900   1.3493   0.10501   0.10181  -0.0575  0.0035  1.0000  -10.0992   0.0000   0.0000   0.0000   0.2683
  17.000   1.3412   0.10844   0.10529  -0.0594  0.0035  1.0000  -10.0357   0.0000   0.0000   0.0000   0.2698
  17.100   1.3335   0.11175   0.10867  -0.0612  0.0035  1.0000  -9.9752   0.0000   0.0000   0.0000   0.2713
  17.200   1.3250   0.11536   0.11234  -0.0632  0.0035  1.0000  -9.9000   0.0000   0.0000   0.0000   0.2729
  17.300   1.3172   0.11875   0.11579  -0.0651  0.0036  1.0000  -9.8327   0.0000   0.0000   0.0000   0.2745
  17.400   1.3088   0.12240   0.11950  -0.0672  0.0036  1.0000  -9.7511   0.0000   0.0000   0.0000   0.2762
  17.500   1.3008   0.12594   0.12310  -0.0692  0.0036  1.0000  -9.6727   0.0000   0.0000   0.0000   0.2779
  17.600   1.2929   0.12946   0.12668  -0.0712  0.0036  1.0000  -9.5925   0.0000   0.0000   0.0000   0.2796
  17.700   1.2844   0.13324   0.13052  -0.0734  0.0036  1.0000  -9.4973   0.0000   0.0000   0.0000   0.2816
  17.800   1.2767   0.13678   0.13411  -0.0755  0.0036  1.0000  -9.4121   0.0000   0.0000   0.0000   0.2834
  17.900   1.2682   0.14060   0.13798  -0.0777  0.0036  1.0000  -9.3094   0.0000   0.0000   0.0000   0.2854
  18.000   1.2603   0.14432   0.14175  -0.0799  0.0036  1.0000  -9.2096   0.0000   0.0000   0.0000   0.2874
  18.100   1.2527   0.14793   0.14542  -0.0820  0.0036  1.0000  -9.1122   0.0000   0.0000   0.0000   0.2894
  18.200   1.2440   0.15196   0.14950  -0.0844  0.0036  1.0000  -8.9889   0.0000   0.0000   0.0000   0.2917
  18.300   1.2363   0.15570   0.15328  -0.0867  0.0036  1.0000  -8.8791   0.0000   0.0000   0.0000   0.2938
  18.400   1.2285   0.15952   0.15715  -0.0890  0.0037  1.0000  -8.7590   0.0000   0.0000   0.0000   0.2960
  18.500   1.2201   0.16339   0.16107  -0.0914  0.0037  1.0000  -8.6212   0.0000   0.0000   0.0000   0.2984
  18.600   1.2128   0.16697   0.16469  -0.0937  0.0037  1.0000  -8.4960   0.0000   0.0000   0.0000   0.3007
  18.700   1.2043   0.17102   0.16879  -0.0963  0.0037  1.0000  -8.3400   0.0000   0.0000   0.0000   0.3033
  18.800   1.1960   0.17512   0.17294  -0.0988  0.0037  1.0000  -8.1806   0.0000   0.0000   0.0000   0.3059
  18.900   1.1881   0.17926   0.17712  -0.1013  0.0037  1.0000  -8.0201   0.0000   0.0000   0.0000   0.3085
  19.000   1.1778   0.18430   0.18220  -0.1042  0.0038  1.0000  -7.7987   0.0000   0.0000   0.0000   0.3118
  19.100   1.1688   0.18912   0.18706  -0.1070  0.0038  1.0000  -7.5916   0.0000   0.0000   0.0000   0.3148
  19.200   1.1562   0.19536   0.19335  -0.1104  0.0038  1.0000  -7.2836   0.0000   0.0000   0.0000   0.3189
  19.300   1.1433   0.20198   0.20001  -0.1138  0.0039  1.0000  -6.9445   0.0000   0.0000   0.0000   0.3231
  19.500   1.0580   0.24555   0.24356  -0.1310  0.0044  1.0000  -3.8450   0.0000   0.0000   0.0000   0.3502
  19.600   1.0587   0.24813   0.24614  -0.1320  0.0044  1.0000  -3.7993   0.0000   0.0000   0.0000   0.3509
  19.700   1.0595   0.25072   0.24873  -0.1330  0.0045  1.0000  -3.7517   0.0000   0.0000   0.0000   0.3516
  19.800   1.0601   0.25358   0.25159  -0.1340  0.0046  1.0000  -3.6809   0.0000   0.0000   0.0000   0.3524
  21.000   1.0517   0.29986   0.29782  -0.1452  0.0097  1.0000  -2.1527   0.0000   0.0000   0.0000   0.3634
  21.100   1.0529   0.30230   0.30026  -0.1460  0.0097  1.0000  -2.1385   0.0000   0.0000   0.0000   0.3638
  21.200   1.0541   0.30473   0.30269  -0.1467  0.0097  1.0000  -2.1245   0.0000   0.0000   0.0000   0.3642
  21.300   1.0552   0.30717   0.30513  -0.1474  0.0096  1.0000  -2.1108   0.0000   0.0000   0.0000   0.3646
  21.400   1.0563   0.30960   0.30757  -0.1482  0.0096  1.0000  -2.0974   0.0000   0.0000   0.0000   0.3650
  21.500   1.0574   0.31204   0.31001  -0.1489  0.0096  1.0000  -2.0842   0.0000   0.0000   0.0000   0.3653
  21.600   1.0584   0.31447   0.31244  -0.1496  0.0096  1.0000  -2.0711   0.0000   0.0000   0.0000   0.3657
  21.700   1.0593   0.31690   0.31488  -0.1503  0.0096  1.0000  -2.0582   0.0000   0.0000   0.0000   0.3661
  21.800   1.0603   0.31933   0.31731  -0.1510  0.0096  1.0000  -2.0455   0.0000   0.0000   0.0000   0.3665
  21.900   1.0611   0.32176   0.31974  -0.1517  0.0096  1.0000  -2.0329   0.0000   0.0000   0.0000   0.3668
  22.000   1.0619   0.32418   0.32217  -0.1524  0.0096  1.0000  -2.0204   0.0000   0.0000   0.0000   0.3672
  22.100   1.0626   0.32661   0.32460  -0.1530  0.0096  1.0000  -2.0080   0.0000   0.0000   0.0000   0.3676
  22.200   1.0633   0.32903   0.32702  -0.1537  0.0096  1.0000  -1.9957   0.0000   0.0000   0.0000   0.3679
  22.300   1.0639   0.33144   0.32944  -0.1543  0.0096  1.0000  -1.9835   0.0000   0.0000   0.0000   0.3683
  22.400   1.0644   0.33385   0.33185  -0.1550  0.0096  1.0000  -1.9713   0.0000   0.0000   0.0000   0.3687
  22.500   1.0648   0.33626   0.33426  -0.1556  0.0096  1.0000  -1.9591   0.0000   0.0000   0.0000   0.3690
  22.600   1.0651   0.33866   0.33667  -0.1562  0.0096  1.0000  -1.9469   0.0000   0.0000   0.0000   0.3694
  22.700   1.0653   0.34105   0.33906  -0.1568  0.0096  1.0000  -1.9344   0.0000   0.0000   0.0000   0.3698
  22.800   1.0653   0.34343   0.34145  -0.1573  0.0096  1.0000  -1.9219   0.0000   0.0000   0.0000   0.3701
  22.900   1.0652   0.34580   0.34382  -0.1579  0.0096  1.0000  -1.9092   0.0000   0.0000   0.0000   0.3705
  23.000   1.0650   0.34815   0.34618  -0.1584  0.0096  1.0000  -1.8964   0.0000   0.0000   0.0000   0.3709
  23.100   1.0645   0.35048   0.34851  -0.1589  0.0096  1.0000  -1.8833   0.0000   0.0000   0.0000   0.3713
  23.200   1.0639   0.35279   0.35083  -0.1594  0.0096  1.0000  -1.8698   0.0000   0.0000   0.0000   0.3716
  23.300   1.0629   0.35507   0.35311  -0.1598  0.0096  1.0000  -1.8560   0.0000   0.0000   0.0000   0.3720
  23.400   1.0616   0.35731   0.35536  -0.1602  0.0096  1.0000  -1.8415   0.0000   0.0000   0.0000   0.3724
  23.500   1.0599   0.35950   0.35756  -0.1606  0.0095  1.0000  -1.8262   0.0000   0.0000   0.0000   0.3728
  23.600   1.0576   0.36161   0.35971  -0.1608  0.0095  1.0000  -1.8120   0.0000   0.0000   0.0000   0.3732
  23.700   1.0544   0.36361   0.36171  -0.1609  0.0095  1.0000  -1.7935   0.0000   0.0000   0.0000   0.3737
  23.800   1.0496   0.36538   0.36350  -0.1608  0.0095  1.0000  -1.7714   0.0000   0.0000   0.0000   0.3742
  24.200   0.9054   0.33483   0.33312  -0.1419  0.0095  1.0000  -1.3939   0.0000   0.0000   0.0000   0.3796
  24.300   0.9022   0.33490   0.33320  -0.1419  0.0095  1.0000  -1.3770   0.0000   0.0000   0.0000   0.3801
  24.400   0.8992   0.33501   0.33335  -0.1419  0.0095  1.0000  -1.3627   0.0000   0.0000   0.0000   0.3805
  24.500   0.8964   0.33517   0.33351  -0.1420  0.0095  1.0000  -1.3472   0.0000   0.0000   0.0000   0.3810
  24.600   0.8938   0.33536   0.33371  -0.1421  0.0095  1.0000  -1.3319   0.0000   0.0000   0.0000   0.3814
  24.700   0.8914   0.33558   0.33394  -0.1422  0.0095  1.0000  -1.3171   0.0000   0.0000   0.0000   0.3818
  24.800   0.8891   0.33582   0.33419  -0.1423  0.0094  1.0000  -1.3028   0.0000   0.0000   0.0000   0.3823
  24.900   0.8870   0.33610   0.33448  -0.1425  0.0094  1.0000  -1.2879   0.0000   0.0000   0.0000   0.3827
  25.000   0.8849   0.33642   0.33481  -0.1427  0.0094  1.0000  -1.2720   0.0000   0.0000   0.0000   0.3832
  25.100   0.8831   0.33677   0.33516  -0.1429  0.0094  1.0000  -1.2564   0.0000   0.0000   0.0000   0.3837
  25.200   0.8813   0.33715   0.33554  -0.1431  0.0093  1.0000  -1.2410   0.0000   0.0000   0.0000   0.3841
  25.300   0.8797   0.33755   0.33596  -0.1434  0.0093  1.0000  -1.2260   0.0000   0.0000   0.0000   0.3846
  25.400   0.8782   0.33799   0.33640  -0.1436  0.0093  1.0000  -1.2110   0.0000   0.0000   0.0000   0.3851
  25.500   0.8769   0.33846   0.33688  -0.1439  0.0092  1.0000  -1.1959   0.0000   0.0000   0.0000   0.3855
  25.600   0.8758   0.33898   0.33741  -0.1443  0.0091  1.0000  -1.1806   0.0000   0.0000   0.0000   0.3860
  25.700   0.8748   0.33956   0.33799  -0.1446  0.0091  1.0000  -1.1647   0.0000   0.0000   0.0000   0.3864
  25.800   0.8741   0.34018   0.33862  -0.1450  0.0089  1.0000  -1.1479   0.0000   0.0000   0.0000   0.3869
  25.900   0.8734   0.34083   0.33927  -0.1453  0.0088  1.0000  -1.1307   0.0000   0.0000   0.0000   0.3873
  26.000   0.8726   0.34144   0.33989  -0.1457  0.0086  1.0000  -1.1146   0.0000   0.0000   0.0000   0.3876
  26.100   0.8718   0.34198   0.34044  -0.1459  0.0084  1.0000  -1.1007   0.0000   0.0000   0.0000   0.3880
  26.200   0.8708   0.34247   0.34093  -0.1462  0.0082  1.0000  -1.0890   0.0000   0.0000   0.0000   0.3883
  26.300   0.8697   0.34293   0.34140  -0.1464  0.0080  1.0000  -1.0790   0.0000   0.0000   0.0000   0.3886
  26.400   0.8687   0.34335   0.34183  -0.1466  0.0078  1.0000  -1.0702   0.0000   0.0000   0.0000   0.3889
  26.500   0.8677   0.34379   0.34227  -0.1469  0.0076  1.0000  -1.0624   0.0000   0.0000   0.0000   0.3892
  26.600   0.8667   0.34422   0.34270  -0.1471  0.0075  1.0000  -1.0554   0.0000   0.0000   0.0000   0.3896
  26.700   0.8657   0.34464   0.34314  -0.1473  0.0073  1.0000  -1.0490   0.0000   0.0000   0.0000   0.3899
  26.800   0.8648   0.34506   0.34357  -0.1476  0.0072  1.0000  -1.0431   0.0000   0.0000   0.0000   0.3902
  26.900   0.8639   0.34549   0.34400  -0.1478  0.0070  1.0000  -1.0377   0.0000   0.0000   0.0000   0.3905
  27.000   0.8630   0.34592   0.34443  -0.1481  0.0069  1.0000  -1.0327   0.0000   0.0000   0.0000   0.3908
  27.100   0.8621   0.34634   0.34486  -0.1483  0.0068  1.0000  -1.0281   0.0000   0.0000   0.0000   0.3911
  27.200   0.8613   0.34677   0.34530  -0.1486  0.0067  1.0000  -1.0240   0.0000   0.0000   0.0000   0.3913
  27.300   0.8605   0.34720   0.34574  -0.1489  0.0066  1.0000  -1.0204   0.0000   0.0000   0.0000   0.3916
  27.400   0.8598   0.34764   0.34618  -0.1491  0.0064  1.0000  -1.0172   0.0000   0.0000   0.0000   0.3919
  27.500   0.8590   0.34807   0.34662  -0.1494  0.0063  1.0000  -1.0142   0.0000   0.0000   0.0000   0.3922
  27.600   0.8583   0.34851   0.34706  -0.1497  0.0062  1.0000  -1.0116   0.0000   0.0000   0.0000   0.3925
  27.700   0.8576   0.34895   0.34751  -0.1500  0.0061  1.0000  -1.0092   0.0000   0.0000   0.0000   0.3928
  27.800   0.8569   0.34939   0.34795  -0.1503  0.0061  1.0000  -1.0072   0.0000   0.0000   0.0000   0.3930
  27.900   0.8563   0.34983   0.34840  -0.1505  0.0060  1.0000  -1.0055   0.0000   0.0000   0.0000   0.3933
  28.000   0.8557   0.35027   0.34885  -0.1508  0.0059  1.0000  -1.0040   0.0000   0.0000   0.0000   0.3936
  28.100   0.8551   0.35071   0.34930  -0.1511  0.0058  1.0000  -1.0029   0.0000   0.0000   0.0000   0.3939
  28.200   0.8545   0.35116   0.34975  -0.1514  0.0057  1.0000  -1.0021   0.0000   0.0000   0.0000   0.3941
  28.300   0.8539   0.35160   0.35020  -0.1517  0.0056  1.0000  -1.0016   0.0000   0.0000   0.0000   0.3944
  28.400   0.8533   0.35205   0.35065  -0.1520  0.0056  1.0000  -1.0014   0.0000   0.0000   0.0000   0.3947
  28.500   0.8528   0.35249   0.35110  -0.1523  0.0055  1.0000  -1.0015   0.0000   0.0000   0.0000   0.3949
  28.600   0.8523   0.35293   0.35155  -0.1526  0.0054  1.0000  -1.0020   0.0000   0.0000   0.0000   0.3952
  28.700   0.8517   0.35338   0.35200  -0.1529  0.0054  1.0000  -1.0028   0.0000   0.0000   0.0000   0.3954
  28.800   0.8512   0.35382   0.35244  -0.1532  0.0053  1.0000  -1.0039   0.0000   0.0000   0.0000   0.3957
  28.900   0.8507   0.35426   0.35289  -0.1535  0.0052  1.0000  -1.0054   0.0000   0.0000   0.0000   0.3959
  29.000   0.8503   0.35470   0.35333  -0.1539  0.0052  1.0000  -1.0073   0.0000   0.0000   0.0000   0.3962
  29.100   0.8498   0.35512   0.35377  -0.1542  0.0051  1.0000  -1.0098   0.0000   0.0000   0.0000   0.3964
  29.200   0.8493   0.35553   0.35418  -0.1545  0.0051  1.0000  -1.0140   0.0000   0.0000   0.0000   0.3967
  29.300   0.8489   0.35594   0.35460  -0.1548  0.0050  1.0000  -1.0201   0.0000   0.0000   0.0000   0.3969
  29.400   0.8485   0.35634   0.35502  -0.1551  0.0049  1.0000  -1.0258   0.0000   0.0000   0.0000   0.3971
  29.500   0.8480   0.35669   0.35538  -0.1554  0.0049  1.0000  -1.0353   0.0000   0.0000   0.0000   0.3973
  29.600   0.8476   0.35701   0.35571  -0.1557  0.0048  1.0000  -1.0475   0.0000   0.0000   0.0000   0.3975
  29.700   0.8472   0.35728   0.35598  -0.1560  0.0047  1.0000  -1.0628   0.0000   0.0000   0.0000   0.3977
  29.800   0.8467   0.35750   0.35621  -0.1563  0.0046  1.0000  -1.0810   0.0000   0.0000   0.0000   0.3978
  29.900   0.8462   0.35765   0.35636  -0.1565  0.0046  1.0000  -1.1020   0.0000   0.0000   0.0000   0.3979
  30.000   0.8455   0.35771   0.35643  -0.1566  0.0045  1.0000  -1.1255   0.0000   0.0000   0.0000   0.3980


