xflr5 v6.61

 Calculated polar for: S7075 (9%)

 1 1 Reynolds number fixed          Mach number fixed         

 xtrf =   1.000 (top)        1.000 (bottom)
 Mach =   0.000     Re =     0.130 e 6     Ncrit =   9.000

  alpha     CL        CD       CDp       Cm    Top Xtr Bot Xtr   Cpmin    Chinge    XCp    
 ------- -------- --------- --------- -------- ------- ------- -------- --------- ---------
 -10.000  -0.3973   0.12009   0.11546  -0.0361  1.0000  0.0588  -1.5478   0.0000   0.0000   0.0000   0.1524
  -9.900  -0.3968   0.11905   0.11443  -0.0368  1.0000  0.0588  -1.5519   0.0000   0.0000   0.0000   0.1507
  -9.800  -0.3964   0.11798   0.11339  -0.0374  1.0000  0.0589  -1.5559   0.0000   0.0000   0.0000   0.1492
  -9.700  -0.3961   0.11689   0.11231  -0.0379  1.0000  0.0590  -1.5599   0.0000   0.0000   0.0000   0.1478
  -9.600  -0.3960   0.11579   0.11123  -0.0385  1.0000  0.0590  -1.5640   0.0000   0.0000   0.0000   0.1465
  -9.500  -0.3961   0.11467   0.11014  -0.0390  1.0000  0.0590  -1.5684   0.0000   0.0000   0.0000   0.1453
  -9.400  -0.3999   0.11008   0.10560  -0.0392  1.0000  0.0598  -1.6050   0.0000   0.0000   0.0000   0.1458
  -9.300  -0.3916   0.10673   0.10223  -0.0372  1.0000  0.0608  -1.5274   0.0000   0.0000   0.0000   0.1487
  -9.200  -0.3857   0.10505   0.10054  -0.0361  1.0000  0.0615  -1.4820   0.0000   0.0000   0.0000   0.1501
  -9.100  -0.3812   0.10368   0.09918  -0.0354  1.0000  0.0621  -1.4485   0.0000   0.0000   0.0000   0.1509
  -9.000  -0.3778   0.10246   0.09797  -0.0348  1.0000  0.0627  -1.4235   0.0000   0.0000   0.0000   0.1515
  -8.900  -0.3751   0.10131   0.09683  -0.0344  1.0000  0.0633  -1.4047   0.0000   0.0000   0.0000   0.1519
  -8.800  -0.3731   0.10022   0.09576  -0.0341  1.0000  0.0640  -1.3906   0.0000   0.0000   0.0000   0.1523
  -8.700  -0.3716   0.09917   0.09472  -0.0339  1.0000  0.0646  -1.3803   0.0000   0.0000   0.0000   0.1527
  -8.600  -0.3707   0.09814   0.09371  -0.0337  1.0000  0.0652  -1.3732   0.0000   0.0000   0.0000   0.1531
  -8.500  -0.3702   0.09714   0.09273  -0.0335  1.0000  0.0659  -1.3686   0.0000   0.0000   0.0000   0.1537
  -8.400  -0.3702   0.09615   0.09177  -0.0333  1.0000  0.0665  -1.3663   0.0000   0.0000   0.0000   0.1543
  -8.300  -0.3706   0.09519   0.09083  -0.0331  1.0000  0.0672  -1.3660   0.0000   0.0000   0.0000   0.1551
  -8.200  -0.3715   0.09426   0.08993  -0.0328  1.0000  0.0678  -1.3674   0.0000   0.0000   0.0000   0.1561
  -8.100  -0.3729   0.09336   0.08905  -0.0325  1.0000  0.0685  -1.3706   0.0000   0.0000   0.0000   0.1574
  -8.000  -0.3749   0.09249   0.08821  -0.0322  1.0000  0.0691  -1.3753   0.0000   0.0000   0.0000   0.1589
  -7.900  -0.3775   0.09166   0.08741  -0.0317  1.0000  0.0697  -1.3816   0.0000   0.0000   0.0000   0.1608
  -7.800  -0.3807   0.09088   0.08665  -0.0312  1.0000  0.0703  -1.3894   0.0000   0.0000   0.0000   0.1631
  -7.700  -0.3846   0.09013   0.08594  -0.0306  1.0000  0.0709  -1.3985   0.0000   0.0000   0.0000   0.1656
  -7.600  -0.3891   0.08943   0.08527  -0.0299  1.0000  0.0714  -1.4090   0.0000   0.0000   0.0000   0.1685
  -7.500  -0.3943   0.08877   0.08465  -0.0291  1.0000  0.0719  -1.4206   0.0000   0.0000   0.0000   0.1717
  -7.400  -0.4001   0.08816   0.08407  -0.0282  1.0000  0.0724  -1.4335   0.0000   0.0000   0.0000   0.1752
  -7.300  -0.4066   0.08758   0.08352  -0.0272  1.0000  0.0728  -1.4474   0.0000   0.0000   0.0000   0.1789
  -7.200  -0.4135   0.08700   0.08298  -0.0263  1.0000  0.0732  -1.4623   0.0000   0.0000   0.0000   0.1824
  -7.100  -0.4196   0.08631   0.08232  -0.0257  1.0000  0.0736  -1.4784   0.0000   0.0000   0.0000   0.1849
  -7.000  -0.4243   0.08542   0.08147  -0.0258  1.0000  0.0743  -1.4972   0.0000   0.0000   0.0000   0.1855
  -6.900  -0.4287   0.08446   0.08053  -0.0263  1.0000  0.0750  -1.5195   0.0000   0.0000   0.0000   0.1851
  -6.800  -0.4329   0.08341   0.07951  -0.0275  1.0000  0.0758  -1.5493   0.0000   0.0000   0.0000   0.1831
  -6.700  -0.4367   0.08231   0.07841  -0.0298  1.0000  0.0768  -1.5935   0.0000   0.0000   0.0000   0.1785
  -6.600  -0.4395   0.08127   0.07734  -0.0336  1.0000  0.0779  -1.6607   0.0000   0.0000   0.0000   0.1704
  -6.500  -0.4405   0.08041   0.07642  -0.0362  1.0000  0.0785  -1.7109   0.0000   0.0000   0.0000   0.1648
  -6.400  -0.4399   0.07951   0.07546  -0.0373  1.0000  0.0788  -1.7363   0.0000   0.0000   0.0000   0.1621
  -6.300  -0.4391   0.07849   0.07438  -0.0382  1.0000  0.0790  -1.7557   0.0000   0.0000   0.0000   0.1601
  -6.200  -0.4378   0.07738   0.07322  -0.0388  1.0000  0.0791  -1.7714   0.0000   0.0000   0.0000   0.1585
  -6.100  -0.4439   0.07278   0.06865  -0.0400  1.0000  0.0800  -1.8307   0.0000   0.0000   0.0000   0.1570
  -6.000  -0.4449   0.06985   0.06579  -0.0392  1.0000  0.0810  -1.8152   0.0000   0.0000   0.0000   0.1591
  -5.900  -0.4429   0.06846   0.06447  -0.0379  1.0000  0.0817  -1.7790   0.0000   0.0000   0.0000   0.1617
  -5.800  -0.4408   0.06736   0.06340  -0.0367  1.0000  0.0824  -1.7458   0.0000   0.0000   0.0000   0.1640
  -5.700  -0.4385   0.06637   0.06243  -0.0358  1.0000  0.0832  -1.7153   0.0000   0.0000   0.0000   0.1658
  -5.600  -0.4358   0.06546   0.06155  -0.0349  1.0000  0.0840  -1.6859   0.0000   0.0000   0.0000   0.1674
  -5.500  -0.4330   0.06452   0.06062  -0.0342  1.0000  0.0850  -1.6610   0.0000   0.0000   0.0000   0.1684
  -5.400  -0.4299   0.06353   0.05963  -0.0339  1.0000  0.0861  -1.6403   0.0000   0.0000   0.0000   0.1687
  -5.300  -0.4265   0.06247   0.05857  -0.0338  1.0000  0.0874  -1.6237   0.0000   0.0000   0.0000   0.1683
  -5.200  -0.4227   0.06134   0.05742  -0.0340  1.0000  0.0889  -1.6109   0.0000   0.0000   0.0000   0.1672
  -5.100  -0.4182   0.06012   0.05617  -0.0344  1.0000  0.0907  -1.6022   0.0000   0.0000   0.0000   0.1653
  -5.000  -0.4128   0.05879   0.05480  -0.0353  1.0000  0.0930  -1.5995   0.0000   0.0000   0.0000   0.1621
  -4.900  -0.3934   0.06028   0.05579  -0.0403  1.0000  0.1016  -1.6576   0.0000   0.0000   0.0000   0.1450
  -4.800  -0.3926   0.05518   0.05059  -0.0429  1.0000  0.1036  -1.7108   0.0000   0.0000   0.0000   0.1382
  -4.700  -0.3892   0.05281   0.04832  -0.0427  1.0000  0.1048  -1.6860   0.0000   0.0000   0.0000   0.1379
  -4.600  -0.3847   0.05145   0.04702  -0.0422  1.0000  0.1059  -1.6542   0.0000   0.0000   0.0000   0.1380
  -4.500  -0.3796   0.05034   0.04595  -0.0417  1.0000  0.1071  -1.6232   0.0000   0.0000   0.0000   0.1377
  -4.400  -0.3740   0.04936   0.04498  -0.0414  1.0000  0.1085  -1.5940   0.0000   0.0000   0.0000   0.1369
  -4.300  -0.3679   0.04845   0.04408  -0.0412  1.0000  0.1102  -1.5661   0.0000   0.0000   0.0000   0.1358
  -4.200  -0.3611   0.04753   0.04315  -0.0412  1.0000  0.1123  -1.5416   0.0000   0.0000   0.0000   0.1337
  -4.100  -0.3534   0.04658   0.04215  -0.0414  1.0000  0.1151  -1.5215   0.0000   0.0000   0.0000   0.1305
  -4.000  -0.3370   0.04643   0.04149  -0.0447  1.0000  0.1292  -1.5486   0.0000   0.0000   0.0000   0.1150
  -3.900  -0.3313   0.04389   0.03904  -0.0450  1.0000  0.1312  -1.5258   0.0000   0.0000   0.0000   0.1119
  -3.800  -0.3246   0.04261   0.03781  -0.0448  1.0000  0.1328  -1.4965   0.0000   0.0000   0.0000   0.1096
  -3.600  -0.2695   0.03231   0.02602  -0.0499  1.0000  0.0565  -1.9486   0.0000   0.0000   0.0000   0.0612
  -3.500  -0.2564   0.03005   0.02358  -0.0509  1.0000  0.0528  -1.9697   0.0000   0.0000   0.0000   0.0478
  -3.400  -0.2389   0.02739   0.02037  -0.0519  1.0000  0.0465  -2.0769   0.0000   0.0000   0.0000   0.0289
  -3.300  -0.2259   0.02662   0.01923  -0.0516  1.0000  0.0434  -2.1212   0.0000   0.0000   0.0000   0.0173
  -3.200  -0.2163   0.02654   0.01907  -0.0512  1.0000  0.0425  -2.0897   0.0000   0.0000   0.0000   0.0089
  -3.100  -0.2032   0.02648   0.01894  -0.0515  0.9991  0.0419  -2.0433   0.0000   0.0000   0.0000  -0.0081
  -3.000  -0.1866   0.02506   0.01733  -0.0527  0.9982  0.0411  -2.0390   0.0000   0.0000   0.0000  -0.0370
  -2.900  -0.1701   0.02390   0.01592  -0.0537  0.9970  0.0407  -2.0386   0.0000   0.0000   0.0000  -0.0708
  -2.800  -0.1537   0.02300   0.01487  -0.0547  0.9957  0.0404  -2.0207   0.0000   0.0000   0.0000  -0.1113
  -2.700  -0.1370   0.02224   0.01399  -0.0557  0.9943  0.0402  -1.9984   0.0000   0.0000   0.0000  -0.1624
  -2.600  -0.1199   0.02158   0.01323  -0.0567  0.9931  0.0403  -1.9726   0.0000   0.0000   0.0000  -0.2297
  -2.500  -0.1035   0.02101   0.01258  -0.0576  0.9913  0.0406  -1.9454   0.0000   0.0000   0.0000  -0.3144
  -2.400  -0.0872   0.02052   0.01203  -0.0585  0.9893  0.0411  -1.9166   0.0000   0.0000   0.0000  -0.4295
  -2.300  -0.0704   0.02006   0.01154  -0.0595  0.9874  0.0419  -1.8889   0.0000   0.0000   0.0000  -0.6052
  -2.200  -0.0535   0.01907   0.01053  -0.0606  0.9863  0.0447  -1.8926   0.0000   0.0000   0.0000  -0.8967
  -2.100  -0.0356   0.01865   0.01012  -0.0620  0.9848  0.0499  -1.8673   0.0000   0.0000   0.0000  -1.5086
  -2.000  -0.0174   0.01809   0.00956  -0.0632  0.9834  0.0655  -1.9009   0.0000   0.0000   0.0000  -3.4119
  -1.900  -0.0004   0.01673   0.00907  -0.0648  0.9827  0.2226  -1.9484   0.0000   0.0000   0.0000  -158.8967
  -1.800   0.0137   0.01600   0.00918  -0.0660  0.9808  0.4001  -1.8676   0.0000   0.0000   0.0000   5.1253
  -1.700   0.0259   0.01545   0.00933  -0.0663  0.9787  0.5565  -1.7853   0.0000   0.0000   0.0000   2.8287
  -1.600   0.0351   0.01512   0.00958  -0.0653  0.9763  0.7023  -1.7100   0.0000   0.0000   0.0000   2.1241
  -1.500   0.0446   0.01505   0.00976  -0.0641  0.9737  0.8101  -1.6332   0.0000   0.0000   0.0000   1.6979
  -1.400   0.0549   0.01501   0.00979  -0.0633  0.9710  0.8819  -1.5544   0.0000   0.0000   0.0000   1.4108
  -1.300   0.0712   0.01477   0.00959  -0.0641  0.9660  1.0000  -1.4548   0.0000   0.0000   0.0000   1.1553
  -1.200   0.0880   0.01487   0.00958  -0.0654  0.9629  1.0000  -1.3555   0.0000   0.0000   0.0000   0.9967
  -1.100   0.1061   0.01499   0.00958  -0.0669  0.9603  1.0000  -1.2519   0.0000   0.0000   0.0000   0.8833
  -1.000   0.1253   0.01512   0.00960  -0.0686  0.9583  1.0000  -1.1445   0.0000   0.0000   0.0000   0.7994
  -0.900   0.1413   0.01523   0.00961  -0.0697  0.9552  1.0000  -1.0485   0.0000   0.0000   0.0000   0.7446
  -0.800   0.1530   0.01527   0.00949  -0.0699  0.9503  1.0000  -0.9471   0.0000   0.0000   0.0000   0.7082
  -0.700   0.1690   0.01534   0.00948  -0.0709  0.9467  1.0000  -0.8588   0.0000   0.0000   0.0000   0.6708
  -0.600   0.1868   0.01542   0.00949  -0.0723  0.9439  1.0000  -0.7659   0.0000   0.0000   0.0000   0.6378
  -0.500   0.2060   0.01551   0.00950  -0.0739  0.9415  1.0000  -0.6706   0.0000   0.0000   0.0000   0.6093
  -0.400   0.2261   0.01561   0.00953  -0.0757  0.9396  1.0000  -0.5897   0.0000   0.0000   0.0000   0.5850
  -0.300   0.2346   0.01565   0.00953  -0.0753  0.9341  1.0000  -0.5499   0.0000   0.0000   0.0000   0.5710
  -0.200   0.2477   0.01569   0.00953  -0.0758  0.9295  1.0000  -0.5009   0.0000   0.0000   0.0000   0.5556
  -0.100   0.2643   0.01573   0.00952  -0.0768  0.9260  1.0000  -0.4656   0.0000   0.0000   0.0000   0.5403
   0.000   0.2827   0.01576   0.00951  -0.0782  0.9233  1.0000  -0.4789   0.0000   0.0000   0.0000   0.5262
   0.100   0.3024   0.01579   0.00949  -0.0799  0.9211  1.0000  -0.4931   0.0000   0.0000   0.0000   0.5134
   0.200   0.3227   0.01582   0.00948  -0.0816  0.9193  1.0000  -0.5083   0.0000   0.0000   0.0000   0.5020
   0.300   0.3277   0.01587   0.00951  -0.0805  0.9124  1.0000  -0.5148   0.0000   0.0000   0.0000   0.4946
   0.400   0.3409   0.01588   0.00950  -0.0809  0.9076  1.0000  -0.5264   0.0000   0.0000   0.0000   0.4862
   0.500   0.3576   0.01587   0.00946  -0.0819  0.9042  1.0000  -0.5403   0.0000   0.0000   0.0000   0.4778
   0.600   0.3763   0.01582   0.00939  -0.0832  0.9015  1.0000  -0.5567   0.0000   0.0000   0.0000   0.4698
   0.700   0.3961   0.01576   0.00931  -0.0847  0.8992  1.0000  -0.5742   0.0000   0.0000   0.0000   0.4625
   0.800   0.4170   0.01569   0.00923  -0.0864  0.8974  1.0000  -0.5925   0.0000   0.0000   0.0000   0.4558
   1.000   0.4354   0.01574   0.00925  -0.0856  0.8856  1.0000  -0.6136   0.0000   0.0000   0.0000   0.4450
   1.100   0.4512   0.01567   0.00918  -0.0864  0.8816  1.0000  -0.6297   0.0000   0.0000   0.0000   0.4397
   1.200   0.4686   0.01556   0.00906  -0.0873  0.8785  1.0000  -0.6478   0.0000   0.0000   0.0000   0.4346
   1.300   0.4866   0.01543   0.00898  -0.0884  0.8759  1.0000  -0.6664   0.0000   0.0000   0.0000   0.4297
   1.400   0.5048   0.01529   0.00883  -0.0894  0.8738  1.0000  -0.6855   0.0000   0.0000   0.0000   0.4252
   1.500   0.5233   0.01513   0.00867  -0.0905  0.8718  1.0000  -0.7060   0.0000   0.0000   0.0000   0.4208
   1.600   0.5264   0.01523   0.00877  -0.0890  0.8629  1.0000  -0.7146   0.0000   0.0000   0.0000   0.4169
   1.700   0.5383   0.01515   0.00868  -0.0889  0.8574  1.0000  -0.7308   0.0000   0.0000   0.0000   0.4129
   1.800   0.5533   0.01500   0.00853  -0.0893  0.8535  1.0000  -0.7503   0.0000   0.0000   0.0000   0.4091
   1.900   0.5693   0.01482   0.00835  -0.0898  0.8503  1.0000  -0.7727   0.0000   0.0000   0.0000   0.4055
   2.000   0.5859   0.01462   0.00815  -0.0905  0.8476  1.0000  -0.7958   0.0000   0.0000   0.0000   0.4020
   2.100   0.6029   0.01440   0.00793  -0.0911  0.8451  1.0000  -0.8193   0.0000   0.0000   0.0000   0.3986
   2.200   0.6072   0.01449   0.00802  -0.0898  0.8358  1.0000  -0.8309   0.0000   0.0000   0.0000   0.3953
   2.300   0.6185   0.01438   0.00792  -0.0895  0.8296  1.0000  -0.8512   0.0000   0.0000   0.0000   0.3921
   2.400   0.6324   0.01420   0.00775  -0.0897  0.8250  1.0000  -0.8751   0.0000   0.0000   0.0000   0.3891
   2.500   0.6474   0.01398   0.00752  -0.0899  0.8211  1.0000  -0.9005   0.0000   0.0000   0.0000   0.3861
   2.600   0.6633   0.01374   0.00728  -0.0903  0.8175  1.0000  -0.9294   0.0000   0.0000   0.0000   0.3833
   2.700   0.6714   0.01373   0.00729  -0.0896  0.8095  1.0000  -0.9503   0.0000   0.0000   0.0000   0.3804
   2.800   0.6809   0.01366   0.00723  -0.0890  0.8014  1.0000  -0.9733   0.0000   0.0000   0.0000   0.3777
   2.900   0.6939   0.01349   0.00706  -0.0889  0.7953  1.0000  -1.0006   0.0000   0.0000   0.0000   0.3750
   3.000   0.7081   0.01329   0.00685  -0.0890  0.7901  1.0000  -1.0349   0.0000   0.0000   0.0000   0.3725
   3.100   0.7221   0.01311   0.00666  -0.0891  0.7846  1.0000  -1.0691   0.0000   0.0000   0.0000   0.3701
   3.200   0.7293   0.01315   0.00673  -0.0883  0.7740  1.0000  -1.0933   0.0000   0.0000   0.0000   0.3677
   3.300   0.7407   0.01305   0.00662  -0.0880  0.7657  1.0000  -1.1241   0.0000   0.0000   0.0000   0.3653
   3.400   0.7543   0.01288   0.00643  -0.0880  0.7588  1.0000  -1.1745   0.0000   0.0000   0.0000   0.3631
   3.500   0.7666   0.01279   0.00633  -0.0879  0.7507  1.0000  -1.2237   0.0000   0.0000   0.0000   0.3610
   3.600   0.7755   0.01280   0.00635  -0.0873  0.7395  1.0000  -1.2657   0.0000   0.0000   0.0000   0.3588
   3.700   0.7876   0.01271   0.00635  -0.0871  0.7301  1.0000  -1.3206   0.0000   0.0000   0.0000   0.3567
   3.800   0.8015   0.01260   0.00617  -0.0871  0.7218  1.0000  -1.3755   0.0000   0.0000   0.0000   0.3548
   3.900   0.8098   0.01267   0.00627  -0.0865  0.7095  1.0000  -1.4169   0.0000   0.0000   0.0000   0.3528
   4.000   0.8207   0.01266   0.00622  -0.0862  0.6977  1.0000  -1.4653   0.0000   0.0000   0.0000   0.3509
   4.100   0.8335   0.01264   0.00610  -0.0861  0.6871  1.0000  -1.5185   0.0000   0.0000   0.0000   0.3491
   4.200   0.8419   0.01273   0.00621  -0.0855  0.6738  1.0000  -1.5612   0.0000   0.0000   0.0000   0.3472
   4.300   0.8525   0.01277   0.00620  -0.0851  0.6612  1.0000  -1.6099   0.0000   0.0000   0.0000   0.3455
   4.400   0.8635   0.01285   0.00619  -0.0848  0.6493  1.0000  -1.6598   0.0000   0.0000   0.0000   0.3437
   4.500   0.8724   0.01294   0.00629  -0.0843  0.6353  1.0000  -1.7047   0.0000   0.0000   0.0000   0.3420
   4.600   0.8826   0.01303   0.00630  -0.0839  0.6219  1.0000  -1.7536   0.0000   0.0000   0.0000   0.3404
   4.700   0.8922   0.01315   0.00638  -0.0835  0.6088  1.0000  -1.8010   0.0000   0.0000   0.0000   0.3388
   4.800   0.9014   0.01327   0.00647  -0.0830  0.5944  1.0000  -1.8476   0.0000   0.0000   0.0000   0.3372
   4.900   0.9112   0.01342   0.00650  -0.0825  0.5806  1.0000  -1.8967   0.0000   0.0000   0.0000   0.3356
   5.000   0.9200   0.01354   0.00663  -0.0820  0.5659  1.0000  -1.9425   0.0000   0.0000   0.0000   0.3340
   5.100   0.9290   0.01369   0.00671  -0.0815  0.5508  1.0000  -1.9899   0.0000   0.0000   0.0000   0.3325
   5.200   0.9380   0.01386   0.00681  -0.0810  0.5366  1.0000  -2.0376   0.0000   0.0000   0.0000   0.3310
   5.300   0.9467   0.01401   0.00694  -0.0804  0.5210  1.0000  -2.0842   0.0000   0.0000   0.0000   0.3296
   5.500   0.9638   0.01437   0.00717  -0.0794  0.4899  1.0000  -2.1783   0.0000   0.0000   0.0000   0.3267
   5.600   0.9720   0.01459   0.00728  -0.0787  0.4736  1.0000  -2.2249   0.0000   0.0000   0.0000   0.3253
   5.700   0.9804   0.01478   0.00744  -0.0782  0.4581  1.0000  -2.2719   0.0000   0.0000   0.0000   0.3239
   5.800   0.9885   0.01499   0.00758  -0.0776  0.4414  1.0000  -2.3184   0.0000   0.0000   0.0000   0.3226
   5.900   0.9965   0.01523   0.00774  -0.0770  0.4258  1.0000  -2.3649   0.0000   0.0000   0.0000   0.3213
   6.000   1.0046   0.01544   0.00791  -0.0765  0.4087  1.0000  -2.4115   0.0000   0.0000   0.0000   0.3200
   6.100   1.0119   0.01573   0.00807  -0.0758  0.3926  1.0000  -2.4568   0.0000   0.0000   0.0000   0.3186
   6.200   1.0202   0.01593   0.00827  -0.0753  0.3758  1.0000  -2.5039   0.0000   0.0000   0.0000   0.3174
   6.400   1.0345   0.01652   0.00890  -0.0740  0.3381  1.0000  -2.5933   0.0000   0.0000   0.0000   0.3149
   6.500   1.0411   0.01687   0.00912  -0.0733  0.3202  1.0000  -2.6370   0.0000   0.0000   0.0000   0.3136
   6.600   1.0484   0.01715   0.00935  -0.0727  0.3011  1.0000  -2.6825   0.0000   0.0000   0.0000   0.3124
   6.700   1.0551   0.01750   0.00960  -0.0720  0.2834  1.0000  -2.7261   0.0000   0.0000   0.0000   0.3112
   6.800   1.0620   0.01784   0.00985  -0.0714  0.2650  1.0000  -2.7701   0.0000   0.0000   0.0000   0.3101
   6.900   1.0688   0.01820   0.01014  -0.0708  0.2477  1.0000  -2.8133   0.0000   0.0000   0.0000   0.3090
   7.000   1.0749   0.01861   0.01042  -0.0701  0.2298  1.0000  -2.8548   0.0000   0.0000   0.0000   0.3078
   7.100   1.0820   0.01897   0.01073  -0.0695  0.2124  1.0000  -2.8977   0.0000   0.0000   0.0000   0.3067
   7.300   1.0946   0.01984   0.01141  -0.0682  0.1796  1.0000  -2.9772   0.0000   0.0000   0.0000   0.3045
   7.400   1.0997   0.02041   0.01183  -0.0673  0.1653  1.0000  -3.0237   0.0000   0.0000   0.0000   0.3034
   7.500   1.1066   0.02083   0.01222  -0.0667  0.1514  1.0000  -3.0751   0.0000   0.0000   0.0000   0.3023
   7.600   1.1111   0.02150   0.01274  -0.0658  0.1395  1.0000  -3.1167   0.0000   0.0000   0.0000   0.3012
   7.700   1.1184   0.02191   0.01318  -0.0652  0.1286  1.0000  -3.1663   0.0000   0.0000   0.0000   0.3001
   7.800   1.1226   0.02262   0.01374  -0.0643  0.1193  1.0000  -3.2059   0.0000   0.0000   0.0000   0.2990
   7.900   1.1294   0.02316   0.01430  -0.0636  0.1117  1.0000  -3.2487   0.0000   0.0000   0.0000   0.2979
   8.000   1.1363   0.02362   0.01477  -0.0630  0.1050  1.0000  -3.2954   0.0000   0.0000   0.0000   0.2969
   8.100   1.1417   0.02424   0.01531  -0.0622  0.0995  1.0000  -3.3385   0.0000   0.0000   0.0000   0.2958
   8.200   1.1469   0.02524   0.01623  -0.0614  0.0941  1.0000  -3.3699   0.0000   0.0000   0.0000   0.2947
   8.300   1.1550   0.02565   0.01672  -0.0609  0.0907  1.0000  -3.4165   0.0000   0.0000   0.0000   0.2938
   8.400   1.1627   0.02614   0.01727  -0.0604  0.0873  1.0000  -3.4622   0.0000   0.0000   0.0000   0.2929
   8.500   1.1701   0.02666   0.01780  -0.0598  0.0843  1.0000  -3.5088   0.0000   0.0000   0.0000   0.2919
   8.600   1.1774   0.02721   0.01835  -0.0593  0.0817  1.0000  -3.5564   0.0000   0.0000   0.0000   0.2910
   8.700   1.1848   0.02786   0.01899  -0.0588  0.0794  1.0000  -3.6035   0.0000   0.0000   0.0000   0.2902
   8.800   1.1931   0.02890   0.01998  -0.0585  0.0769  1.0000  -3.6460   0.0000   0.0000   0.0000   0.2895
   8.900   1.2042   0.03049   0.02157  -0.0586  0.0746  1.0000  -3.6956   0.0000   0.0000   0.0000   0.2890
   9.000   1.2129   0.03098   0.02215  -0.0582  0.0737  1.0000  -3.7990   0.0000   0.0000   0.0000   0.2882
   9.100   1.2214   0.03149   0.02275  -0.0578  0.0726  1.0000  -3.9028   0.0000   0.0000   0.0000   0.2874
   9.200   1.2297   0.03198   0.02342  -0.0574  0.0715  1.0000  -3.9967   0.0000   0.0000   0.0000   0.2866
   9.300   1.2379   0.03251   0.02403  -0.0570  0.0702  1.0000  -4.0983   0.0000   0.0000   0.0000   0.2859
   9.400   1.2456   0.03304   0.02463  -0.0566  0.0688  1.0000  -4.2016   0.0000   0.0000   0.0000   0.2851
   9.500   1.2530   0.03357   0.02523  -0.0561  0.0673  1.0000  -4.3058   0.0000   0.0000   0.0000   0.2843
   9.600   1.2603   0.03411   0.02582  -0.0557  0.0659  1.0000  -4.4113   0.0000   0.0000   0.0000   0.2836
   9.700   1.2676   0.03468   0.02645  -0.0552  0.0647  1.0000  -4.5178   0.0000   0.0000   0.0000   0.2828
   9.800   1.2753   0.03535   0.02718  -0.0548  0.0638  1.0000  -4.6239   0.0000   0.0000   0.0000   0.2821
   9.900   1.2829   0.03610   0.02799  -0.0544  0.0630  1.0000  -4.7281   0.0000   0.0000   0.0000   0.2814
  10.000   1.2903   0.03687   0.02883  -0.0540  0.0623  1.0000  -4.8322   0.0000   0.0000   0.0000   0.2807
  10.100   1.2977   0.03769   0.02972  -0.0536  0.0616  1.0000  -4.9359   0.0000   0.0000   0.0000   0.2800
  10.200   1.3048   0.03857   0.03067  -0.0532  0.0609  1.0000  -5.0384   0.0000   0.0000   0.0000   0.2794
  10.300   1.3119   0.03956   0.03173  -0.0529  0.0602  1.0000  -5.1387   0.0000   0.0000   0.0000   0.2787
  10.400   1.3185   0.04072   0.03296  -0.0525  0.0595  1.0000  -5.2331   0.0000   0.0000   0.0000   0.2781
  10.500   1.3244   0.04210   0.03445  -0.0520  0.0589  1.0000  -5.3167   0.0000   0.0000   0.0000   0.2775
  10.600   1.3290   0.04377   0.03626  -0.0515  0.0583  1.0000  -5.3851   0.0000   0.0000   0.0000   0.2768
  10.700   1.3319   0.04575   0.03840  -0.0508  0.0577  1.0000  -5.4339   0.0000   0.0000   0.0000   0.2761
  10.800   1.3324   0.04802   0.04087  -0.0500  0.0573  1.0000  -5.4596   0.0000   0.0000   0.0000   0.2754
  10.900   1.3320   0.04976   0.04277  -0.0489  0.0569  1.0000  -5.4900   0.0000   0.0000   0.0000   0.2745
  11.000   1.3340   0.05002   0.04316  -0.0478  0.0564  1.0000  -5.5678   0.0000   0.0000   0.0000   0.2734
  11.100   1.3357   0.05031   0.04356  -0.0467  0.0557  1.0000  -5.6437   0.0000   0.0000   0.0000   0.2724
  11.200   1.3368   0.05067   0.04405  -0.0455  0.0549  1.0000  -5.7156   0.0000   0.0000   0.0000   0.2714
  11.300   1.3374   0.05112   0.04461  -0.0443  0.0539  1.0000  -5.7843   0.0000   0.0000   0.0000   0.2703
  11.400   1.3373   0.05159   0.04517  -0.0431  0.0528  1.0000  -5.8497   0.0000   0.0000   0.0000   0.2693
  11.500   1.3370   0.05199   0.04565  -0.0419  0.0515  1.0000  -5.9195   0.0000   0.0000   0.0000   0.2682
  11.600   1.3377   0.05218   0.04589  -0.0408  0.0500  1.0000  -6.0072   0.0000   0.0000   0.0000   0.2673
  11.700   1.3412   0.05185   0.04551  -0.0401  0.0481  1.0000  -6.1401   0.0000   0.0000   0.0000   0.2665
  11.800   1.3452   0.05126   0.04481  -0.0394  0.0461  1.0000  -6.2941   0.0000   0.0000   0.0000   0.2657
  11.900   1.3510   0.05087   0.04423  -0.0392  0.0440  1.0000  -6.4713   0.0000   0.0000   0.0000   0.2652
  12.000   1.3500   0.05227   0.04565  -0.0385  0.0428  1.0000  -6.5324   0.0000   0.0000   0.0000   0.2646
  12.100   1.3441   0.05437   0.04788  -0.0374  0.0421  1.0000  -6.5259   0.0000   0.0000   0.0000   0.2637
  12.200   1.3363   0.05653   0.05020  -0.0362  0.0417  1.0000  -6.4996   0.0000   0.0000   0.0000   0.2629
  12.300   1.3277   0.05861   0.05240  -0.0350  0.0415  1.0000  -6.4679   0.0000   0.0000   0.0000   0.2621
  12.400   1.3259   0.05844   0.05230  -0.0340  0.0410  1.0000  -6.5432   0.0000   0.0000   0.0000   0.2611
  12.500   1.3235   0.05881   0.05277  -0.0331  0.0405  1.0000  -6.6003   0.0000   0.0000   0.0000   0.2603
  12.600   1.3204   0.05954   0.05360  -0.0323  0.0400  1.0000  -6.6436   0.0000   0.0000   0.0000   0.2596
  12.700   1.3166   0.06053   0.05470  -0.0316  0.0396  1.0000  -6.6744   0.0000   0.0000   0.0000   0.2590
  12.800   1.3120   0.06172   0.05599  -0.0310  0.0392  1.0000  -6.6951   0.0000   0.0000   0.0000   0.2584
  12.900   1.3066   0.06307   0.05745  -0.0304  0.0389  1.0000  -6.7056   0.0000   0.0000   0.0000   0.2580
  13.000   1.3007   0.06457   0.05906  -0.0300  0.0387  1.0000  -6.7086   0.0000   0.0000   0.0000   0.2576
  13.100   1.2942   0.06621   0.06081  -0.0297  0.0385  1.0000  -6.7033   0.0000   0.0000   0.0000   0.2573
  13.200   1.2872   0.06799   0.06270  -0.0295  0.0383  1.0000  -6.6914   0.0000   0.0000   0.0000   0.2571
  13.300   1.2795   0.06991   0.06472  -0.0295  0.0383  1.0000  -6.6719   0.0000   0.0000   0.0000   0.2571
  13.400   1.2714   0.07195   0.06687  -0.0297  0.0382  1.0000  -6.6463   0.0000   0.0000   0.0000   0.2572
  13.500   1.2627   0.07413   0.06916  -0.0300  0.0382  1.0000  -6.6139   0.0000   0.0000   0.0000   0.2575
  13.600   1.2536   0.07646   0.07158  -0.0306  0.0382  1.0000  -6.5745   0.0000   0.0000   0.0000   0.2579
  13.700   1.2439   0.07893   0.07416  -0.0313  0.0383  1.0000  -6.5280   0.0000   0.0000   0.0000   0.2585
  13.800   1.2335   0.08160   0.07693  -0.0323  0.0384  1.0000  -6.4717   0.0000   0.0000   0.0000   0.2593
  13.900   1.2221   0.08449   0.07990  -0.0334  0.0386  1.0000  -6.4027   0.0000   0.0000   0.0000   0.2604
  14.000   1.2097   0.08770   0.08321  -0.0349  0.0389  1.0000  -6.3174   0.0000   0.0000   0.0000   0.2617
  14.100   1.1957   0.09141   0.08701  -0.0367  0.0394  1.0000  -6.2069   0.0000   0.0000   0.0000   0.2634
  14.200   1.1782   0.09613   0.09180  -0.0389  0.0404  1.0000  -6.0430   0.0000   0.0000   0.0000   0.2656
  14.700   0.9474   0.18095   0.17675  -0.0909  0.1011  1.0000  -2.1694   0.0000   0.0000   0.0000   0.3314
  14.800   0.9509   0.18240   0.17822  -0.0911  0.1002  1.0000  -2.2118   0.0000   0.0000   0.0000   0.3311
  14.900   0.9550   0.18382   0.17965  -0.0911  0.0994  1.0000  -2.2613   0.0000   0.0000   0.0000   0.3305
  15.000   0.9596   0.18524   0.18109  -0.0910  0.0987  1.0000  -2.3176   0.0000   0.0000   0.0000   0.3298
  15.100   0.9648   0.18670   0.18257  -0.0907  0.0980  1.0000  -2.3811   0.0000   0.0000   0.0000   0.3288
  15.200   0.9704   0.18827   0.18417  -0.0902  0.0974  1.0000  -2.4506   0.0000   0.0000   0.0000   0.3276
  15.300   0.9763   0.19009   0.18601  -0.0896  0.0967  1.0000  -2.5249   0.0000   0.0000   0.0000   0.3263
  15.400   0.9827   0.19254   0.18849  -0.0887  0.0960  1.0000  -2.6076   0.0000   0.0000   0.0000   0.3245
  15.500   0.9808   0.19945   0.19538  -0.0887  0.0948  1.0000  -2.5927   0.0000   0.0000   0.0000   0.3247
  15.600   0.9810   0.20144   0.19737  -0.0900  0.0947  1.0000  -2.5829   0.0000   0.0000   0.0000   0.3259
  15.700   0.9811   0.20331   0.19924  -0.0912  0.0947  1.0000  -2.5728   0.0000   0.0000   0.0000   0.3271
  15.800   0.9813   0.20506   0.20100  -0.0926  0.0946  1.0000  -2.5618   0.0000   0.0000   0.0000   0.3283
  15.900   0.9814   0.20668   0.20261  -0.0940  0.0944  1.0000  -2.5488   0.0000   0.0000   0.0000   0.3296
  16.000   0.9800   0.20806   0.20398  -0.0958  0.0942  1.0000  -2.5185   0.0000   0.0000   0.0000   0.3314
  16.100   0.9770   0.20904   0.20494  -0.0981  0.0938  1.0000  -2.4669   0.0000   0.0000   0.0000   0.3340
  16.200   0.9701   0.20920   0.20507  -0.1018  0.0925  1.0000  -2.3639   0.0000   0.0000   0.0000   0.3384
  16.300   0.9645   0.20979   0.20563  -0.1047  0.0905  1.0000  -2.2840   0.0000   0.0000   0.0000   0.3420
  16.400   0.9640   0.21127   0.20711  -0.1063  0.0888  1.0000  -2.2651   0.0000   0.0000   0.0000   0.3435
  16.500   0.9649   0.21289   0.20874  -0.1074  0.0874  1.0000  -2.2642   0.0000   0.0000   0.0000   0.3444
  16.600   0.9664   0.21454   0.21039  -0.1083  0.0861  1.0000  -2.2711   0.0000   0.0000   0.0000   0.3451
  16.700   0.9682   0.21618   0.21205  -0.1091  0.0848  1.0000  -2.2828   0.0000   0.0000   0.0000   0.3455
  16.800   0.9705   0.21772   0.21359  -0.1098  0.0833  1.0000  -2.3040   0.0000   0.0000   0.0000   0.3457
  16.900   0.9745   0.21893   0.21482  -0.1098  0.0811  1.0000  -2.3531   0.0000   0.0000   0.0000   0.3452
  17.300   0.9905   0.22838   0.22441  -0.1090  0.0734  1.0000  -2.4645   0.0000   0.0000   0.0000   0.3418
  17.400   0.9865   0.22927   0.22528  -0.1116  0.0725  1.0000  -2.3894   0.0000   0.0000   0.0000   0.3449
  17.500   0.9836   0.23049   0.22648  -0.1142  0.0705  1.0000  -2.3173   0.0000   0.0000   0.0000   0.3477
  17.600   0.9842   0.23183   0.22782  -0.1157  0.0658  1.0000  -2.2928   0.0000   0.0000   0.0000   0.3490
  17.700   1.0012   0.23480   0.23084  -0.1092  0.0566  1.0000  -2.5355   0.0000   0.0000   0.0000   0.3401
  17.800   1.0005   0.23669   0.23271  -0.1111  0.0563  1.0000  -2.4681   0.0000   0.0000   0.0000   0.3420
  17.900   0.9985   0.23818   0.23419  -0.1135  0.0558  1.0000  -2.3912   0.0000   0.0000   0.0000   0.3445
  18.000   0.9949   0.23942   0.23540  -0.1164  0.0548  1.0000  -2.3060   0.0000   0.0000   0.0000   0.3477
  18.100   0.9931   0.24115   0.23712  -0.1189  0.0524  1.0000  -2.2295   0.0000   0.0000   0.0000   0.3504
  18.200   0.9942   0.24302   0.23899  -0.1201  0.0495  1.0000  -2.1984   0.0000   0.0000   0.0000   0.3513
  18.300   0.9969   0.24451   0.24048  -0.1206  0.0469  1.0000  -2.2011   0.0000   0.0000   0.0000   0.3513
  18.400   1.0023   0.24529   0.24128  -0.1199  0.0445  1.0000  -2.2614   0.0000   0.0000   0.0000   0.3497
  18.500   1.0114   0.25034   0.24636  -0.1153  0.0415  1.0000  -2.4134   0.0000   0.0000   0.0000   0.3437
  18.600   1.0127   0.25289   0.24891  -0.1163  0.0415  1.0000  -2.3748   0.0000   0.0000   0.0000   0.3444
  18.700   1.0140   0.25540   0.25141  -0.1172  0.0414  1.0000  -2.3390   0.0000   0.0000   0.0000   0.3451
  18.800   1.0153   0.25786   0.25387  -0.1182  0.0414  1.0000  -2.3055   0.0000   0.0000   0.0000   0.3458
  18.900   1.0166   0.26027   0.25628  -0.1191  0.0414  1.0000  -2.2740   0.0000   0.0000   0.0000   0.3464
  19.000   1.0179   0.26264   0.25865  -0.1201  0.0413  1.0000  -2.2441   0.0000   0.0000   0.0000   0.3471
  19.100   1.0192   0.26494   0.26095  -0.1211  0.0413  1.0000  -2.2154   0.0000   0.0000   0.0000   0.3478
  19.200   1.0204   0.26719   0.26319  -0.1221  0.0412  1.0000  -2.1878   0.0000   0.0000   0.0000   0.3485
  19.300   1.0217   0.26936   0.26537  -0.1231  0.0412  1.0000  -2.1607   0.0000   0.0000   0.0000   0.3492
  19.400   1.0224   0.27144   0.26745  -0.1243  0.0411  1.0000  -2.1287   0.0000   0.0000   0.0000   0.3501
  19.500   1.0228   0.27342   0.26942  -0.1255  0.0410  1.0000  -2.0946   0.0000   0.0000   0.0000   0.3512
  19.600   1.0230   0.27526   0.27125  -0.1269  0.0408  1.0000  -2.0574   0.0000   0.0000   0.0000   0.3524
  19.700   1.0223   0.27691   0.27289  -0.1286  0.0406  1.0000  -2.0127   0.0000   0.0000   0.0000   0.3539
  19.800   1.0215   0.27849   0.27447  -0.1304  0.0402  1.0000  -1.9612   0.0000   0.0000   0.0000   0.3557
  19.900   1.0212   0.28019   0.27616  -0.1325  0.0395  1.0000  -1.9042   0.0000   0.0000   0.0000   0.3576
  20.000   1.0218   0.28223   0.27819  -0.1340  0.0385  1.0000  -1.8630   0.0000   0.0000   0.0000   0.3589
  20.100   1.0230   0.28440   0.28036  -0.1351  0.0376  1.0000  -1.8389   0.0000   0.0000   0.0000   0.3597
  20.200   1.0244   0.28657   0.28253  -0.1360  0.0368  1.0000  -1.8225   0.0000   0.0000   0.0000   0.3603
  20.300   1.0258   0.28873   0.28470  -0.1368  0.0361  1.0000  -1.8101   0.0000   0.0000   0.0000   0.3607
  20.400   1.0273   0.29088   0.28685  -0.1376  0.0355  1.0000  -1.8004   0.0000   0.0000   0.0000   0.3611
  20.500   1.0287   0.29301   0.28898  -0.1384  0.0349  1.0000  -1.7926   0.0000   0.0000   0.0000   0.3615
  20.600   1.0302   0.29513   0.29111  -0.1391  0.0344  1.0000  -1.7864   0.0000   0.0000   0.0000   0.3618
  20.700   1.0317   0.29724   0.29322  -0.1397  0.0339  1.0000  -1.7817   0.0000   0.0000   0.0000   0.3621
  20.800   1.0331   0.29933   0.29533  -0.1404  0.0335  1.0000  -1.7784   0.0000   0.0000   0.0000   0.3624
  20.900   1.0345   0.30142   0.29742  -0.1410  0.0330  1.0000  -1.7764   0.0000   0.0000   0.0000   0.3627
  21.000   1.0360   0.30349   0.29949  -0.1417  0.0326  1.0000  -1.7759   0.0000   0.0000   0.0000   0.3629
  21.100   1.0374   0.30555   0.30156  -0.1422  0.0322  1.0000  -1.7768   0.0000   0.0000   0.0000   0.3631
  21.200   1.0388   0.30760   0.30362  -0.1428  0.0319  1.0000  -1.7792   0.0000   0.0000   0.0000   0.3633
  21.300   1.0402   0.30964   0.30566  -0.1433  0.0315  1.0000  -1.7833   0.0000   0.0000   0.0000   0.3634
  21.400   1.0415   0.31167   0.30770  -0.1438  0.0312  1.0000  -1.7893   0.0000   0.0000   0.0000   0.3635
  21.500   1.0429   0.31369   0.30973  -0.1442  0.0309  1.0000  -1.7975   0.0000   0.0000   0.0000   0.3636
  21.600   1.0443   0.31572   0.31177  -0.1446  0.0306  1.0000  -1.8080   0.0000   0.0000   0.0000   0.3635
  21.700   1.0457   0.31776   0.31382  -0.1449  0.0303  1.0000  -1.8212   0.0000   0.0000   0.0000   0.3635
  21.800   1.0472   0.31984   0.31591  -0.1451  0.0300  1.0000  -1.8379   0.0000   0.0000   0.0000   0.3633
  21.900   1.0488   0.32200   0.31809  -0.1452  0.0297  1.0000  -1.8587   0.0000   0.0000   0.0000   0.3630
  22.000   1.0506   0.32434   0.32044  -0.1451  0.0294  1.0000  -1.8852   0.0000   0.0000   0.0000   0.3624
  22.100   1.0530   0.32710   0.32322  -0.1447  0.0291  1.0000  -1.9216   0.0000   0.0000   0.0000   0.3615
  22.200   1.0574   0.33257   0.32872  -0.1432  0.0286  1.0000  -1.9805   0.0000   0.0000   0.0000   0.3594
  22.300   1.0558   0.33757   0.33369  -0.1435  0.0284  1.0000  -1.9396   0.0000   0.0000   0.0000   0.3598
  22.400   1.0559   0.33979   0.33591  -0.1441  0.0284  1.0000  -1.9257   0.0000   0.0000   0.0000   0.3602
  22.500   1.0559   0.34199   0.33812  -0.1448  0.0284  1.0000  -1.9116   0.0000   0.0000   0.0000   0.3607
  22.600   1.0558   0.34415   0.34029  -0.1454  0.0283  1.0000  -1.8974   0.0000   0.0000   0.0000   0.3611
  22.700   1.0555   0.34629   0.34243  -0.1460  0.0283  1.0000  -1.8829   0.0000   0.0000   0.0000   0.3616
  22.800   1.0550   0.34839   0.34454  -0.1466  0.0283  1.0000  -1.8681   0.0000   0.0000   0.0000   0.3620
  22.900   1.0544   0.35045   0.34661  -0.1471  0.0283  1.0000  -1.8529   0.0000   0.0000   0.0000   0.3625
  23.000   1.0531   0.35242   0.34859  -0.1477  0.0282  1.0000  -1.8337   0.0000   0.0000   0.0000   0.3631
  23.100   1.0514   0.35434   0.35051  -0.1483  0.0282  1.0000  -1.8134   0.0000   0.0000   0.0000   0.3637
  23.200   1.0494   0.35618   0.35236  -0.1488  0.0282  1.0000  -1.7922   0.0000   0.0000   0.0000   0.3643
  23.300   1.0466   0.35790   0.35409  -0.1493  0.0282  1.0000  -1.7680   0.0000   0.0000   0.0000   0.3650
  23.400   1.0431   0.35951   0.35571  -0.1497  0.0281  1.0000  -1.7423   0.0000   0.0000   0.0000   0.3657
  23.500   1.0385   0.36096   0.35718  -0.1499  0.0281  1.0000  -1.7146   0.0000   0.0000   0.0000   0.3665
  23.600   1.0322   0.36212   0.35836  -0.1498  0.0281  1.0000  -1.6835   0.0000   0.0000   0.0000   0.3672
  23.700   0.9250   0.33849   0.33498  -0.1338  0.0282  1.0000  -1.4602   0.0000   0.0000   0.0000   0.3684
  23.800   0.9179   0.33758   0.33410  -0.1335  0.0282  1.0000  -1.4295   0.0000   0.0000   0.0000   0.3692
  23.900   0.9116   0.33687   0.33340  -0.1333  0.0281  1.0000  -1.4007   0.0000   0.0000   0.0000   0.3699
  24.000   0.9061   0.33629   0.33284  -0.1332  0.0281  1.0000  -1.3734   0.0000   0.0000   0.0000   0.3707
  24.100   0.9011   0.33583   0.33239  -0.1332  0.0281  1.0000  -1.3471   0.0000   0.0000   0.0000   0.3714
  24.200   0.8966   0.33546   0.33204  -0.1333  0.0280  1.0000  -1.3217   0.0000   0.0000   0.0000   0.3722
  24.300   0.8925   0.33518   0.33177  -0.1334  0.0280  1.0000  -1.2970   0.0000   0.0000   0.0000   0.3729
  24.400   0.8887   0.33497   0.33158  -0.1336  0.0279  1.0000  -1.2728   0.0000   0.0000   0.0000   0.3737
  24.500   0.8853   0.33485   0.33147  -0.1339  0.0278  1.0000  -1.2490   0.0000   0.0000   0.0000   0.3745
  24.600   0.8823   0.33482   0.33146  -0.1342  0.0277  1.0000  -1.2254   0.0000   0.0000   0.0000   0.3752
  24.700   0.8796   0.33490   0.33155  -0.1345  0.0276  1.0000  -1.2022   0.0000   0.0000   0.0000   0.3760
  24.800   0.8773   0.33509   0.33175  -0.1349  0.0275  1.0000  -1.1793   0.0000   0.0000   0.0000   0.3768
  25.000   0.8735   0.33577   0.33250  -0.1357  0.0271  1.0000  -1.1397   0.0000   0.0000   0.0000   0.3781
  25.100   0.8719   0.33618   0.33293  -0.1361  0.0268  1.0000  -1.1210   0.0000   0.0000   0.0000   0.3787
  25.200   0.8704   0.33662   0.33338  -0.1364  0.0265  1.0000  -1.1044   0.0000   0.0000   0.0000   0.3793
  25.300   0.8689   0.33705   0.33382  -0.1367  0.0262  1.0000  -1.0899   0.0000   0.0000   0.0000   0.3797
  25.400   0.8674   0.33746   0.33425  -0.1370  0.0259  1.0000  -1.0772   0.0000   0.0000   0.0000   0.3802
  25.500   0.8659   0.33785   0.33466  -0.1372  0.0255  1.0000  -1.0658   0.0000   0.0000   0.0000   0.3806
  25.600   0.8645   0.33823   0.33505  -0.1374  0.0252  1.0000  -1.0555   0.0000   0.0000   0.0000   0.3809
  25.700   0.8631   0.33861   0.33544  -0.1376  0.0249  1.0000  -1.0461   0.0000   0.0000   0.0000   0.3813
  25.800   0.8618   0.33899   0.33583  -0.1378  0.0246  1.0000  -1.0374   0.0000   0.0000   0.0000   0.3816
  25.900   0.8605   0.33937   0.33622  -0.1380  0.0243  1.0000  -1.0293   0.0000   0.0000   0.0000   0.3820
  26.000   0.8593   0.33974   0.33661  -0.1382  0.0240  1.0000  -1.0218   0.0000   0.0000   0.0000   0.3823
  26.100   0.8581   0.34012   0.33700  -0.1384  0.0238  1.0000  -1.0147   0.0000   0.0000   0.0000   0.3826
  26.200   0.8569   0.34050   0.33739  -0.1386  0.0235  1.0000  -1.0081   0.0000   0.0000   0.0000   0.3829
  26.300   0.8558   0.34088   0.33779  -0.1388  0.0232  1.0000  -1.0020   0.0000   0.0000   0.0000   0.3832
  26.400   0.8547   0.34126   0.33818  -0.1391  0.0230  1.0000  -0.9962   0.0000   0.0000   0.0000   0.3835
  26.500   0.8537   0.34165   0.33858  -0.1393  0.0227  1.0000  -0.9909   0.0000   0.0000   0.0000   0.3838
  26.600   0.8527   0.34203   0.33898  -0.1395  0.0225  1.0000  -0.9859   0.0000   0.0000   0.0000   0.3841
  26.700   0.8518   0.34242   0.33938  -0.1397  0.0222  1.0000  -0.9813   0.0000   0.0000   0.0000   0.3844
  26.800   0.8509   0.34281   0.33978  -0.1400  0.0220  1.0000  -0.9770   0.0000   0.0000   0.0000   0.3847
  26.900   0.8500   0.34320   0.34018  -0.1402  0.0218  1.0000  -0.9731   0.0000   0.0000   0.0000   0.3850
  27.000   0.8491   0.34359   0.34059  -0.1404  0.0215  1.0000  -0.9696   0.0000   0.0000   0.0000   0.3852
  27.100   0.8483   0.34398   0.34099  -0.1407  0.0213  1.0000  -0.9665   0.0000   0.0000   0.0000   0.3855
  27.200   0.8475   0.34437   0.34139  -0.1409  0.0211  1.0000  -0.9638   0.0000   0.0000   0.0000   0.3858
  27.300   0.8468   0.34476   0.34179  -0.1411  0.0209  1.0000  -0.9615   0.0000   0.0000   0.0000   0.3860
  27.400   0.8460   0.34514   0.34219  -0.1414  0.0207  1.0000  -0.9596   0.0000   0.0000   0.0000   0.3863
  27.500   0.8453   0.34553   0.34258  -0.1416  0.0205  1.0000  -0.9581   0.0000   0.0000   0.0000   0.3865
  27.600   0.8446   0.34591   0.34297  -0.1418  0.0203  1.0000  -0.9571   0.0000   0.0000   0.0000   0.3867
  27.700   0.8440   0.34628   0.34336  -0.1421  0.0201  1.0000  -0.9565   0.0000   0.0000   0.0000   0.3870
  27.800   0.8433   0.34665   0.34374  -0.1423  0.0199  1.0000  -0.9565   0.0000   0.0000   0.0000   0.3872
  27.900   0.8427   0.34701   0.34412  -0.1425  0.0198  1.0000  -0.9571   0.0000   0.0000   0.0000   0.3874
  28.000   0.8420   0.34737   0.34449  -0.1428  0.0196  1.0000  -0.9582   0.0000   0.0000   0.0000   0.3876
  28.100   0.8414   0.34771   0.34485  -0.1430  0.0194  1.0000  -0.9600   0.0000   0.0000   0.0000   0.3878
  28.200   0.8408   0.34806   0.34521  -0.1432  0.0193  1.0000  -0.9625   0.0000   0.0000   0.0000   0.3879
  28.300   0.8402   0.34839   0.34555  -0.1434  0.0191  1.0000  -0.9658   0.0000   0.0000   0.0000   0.3881
  28.400   0.8396   0.34872   0.34589  -0.1435  0.0190  1.0000  -0.9699   0.0000   0.0000   0.0000   0.3882
  28.500   0.8390   0.34903   0.34622  -0.1437  0.0188  1.0000  -0.9751   0.0000   0.0000   0.0000   0.3883
  28.600   0.8384   0.34935   0.34655  -0.1438  0.0187  1.0000  -0.9814   0.0000   0.0000   0.0000   0.3883
  28.700   0.8378   0.34970   0.34691  -0.1438  0.0185  1.0000  -0.9892   0.0000   0.0000   0.0000   0.3883
  28.800   0.8373   0.35009   0.34732  -0.1439  0.0184  1.0000  -0.9986   0.0000   0.0000   0.0000   0.3882
  28.900   0.8369   0.35062   0.34786  -0.1438  0.0182  1.0000  -1.0105   0.0000   0.0000   0.0000   0.3880
  29.000   0.8369   0.35153   0.34879  -0.1435  0.0181  1.0000  -1.0262   0.0000   0.0000   0.0000   0.3876
  29.100   0.8385   0.35429   0.35157  -0.1429  0.0179  1.0000  -1.0518   0.0000   0.0000   0.0000   0.3863
  29.900   0.8331   0.35882   0.35618  -0.1456  0.0177  1.0000  -0.9815   0.0000   0.0000   0.0000   0.3891
  30.000   0.8323   0.35910   0.35647  -0.1460  0.0177  1.0000  -0.9718   0.0000   0.0000   0.0000   0.3895


