xflr5 v6.61

 Calculated polar for: S7075 (9%)

 1 1 Reynolds number fixed          Mach number fixed         

 xtrf =   1.000 (top)        1.000 (bottom)
 Mach =   0.000     Re =     1.000 e 6     Ncrit =   9.000

  alpha     CL        CD       CDp       Cm    Top Xtr Bot Xtr   Cpmin    Chinge    XCp    
 ------- -------- --------- --------- -------- ------- ------- -------- --------- ---------
 -10.000  -0.3826   0.10475   0.10301  -0.0320  1.0000  0.0130  -1.8343   0.0000   0.0000   0.0000   0.1587
  -9.900  -0.3808   0.10349   0.10176  -0.0325  1.0000  0.0135  -1.8314   0.0000   0.0000   0.0000   0.1569
  -9.800  -0.3787   0.10229   0.10056  -0.0331  1.0000  0.0141  -1.8323   0.0000   0.0000   0.0000   0.1549
  -9.700  -0.3761   0.10122   0.09951  -0.0338  1.0000  0.0146  -1.8321   0.0000   0.0000   0.0000   0.1526
  -9.600  -0.3729   0.10031   0.09860  -0.0342  1.0000  0.0149  -1.8140   0.0000   0.0000   0.0000   0.1507
  -9.500  -0.3706   0.09932   0.09761  -0.0345  1.0000  0.0151  -1.7966   0.0000   0.0000   0.0000   0.1493
  -9.400  -0.3689   0.09824   0.09655  -0.0348  1.0000  0.0152  -1.7846   0.0000   0.0000   0.0000   0.1483
  -9.300  -0.3678   0.09714   0.09545  -0.0350  1.0000  0.0153  -1.7757   0.0000   0.0000   0.0000   0.1475
  -9.200  -0.3671   0.09604   0.09436  -0.0352  1.0000  0.0153  -1.7690   0.0000   0.0000   0.0000   0.1470
  -9.100  -0.3670   0.09497   0.09331  -0.0352  1.0000  0.0153  -1.7644   0.0000   0.0000   0.0000   0.1469
  -9.000  -0.3681   0.09401   0.09235  -0.0350  1.0000  0.0154  -1.7662   0.0000   0.0000   0.0000   0.1480
  -8.900  -0.3719   0.09332   0.09169  -0.0340  1.0000  0.0154  -1.7768   0.0000   0.0000   0.0000   0.1518
  -8.800  -0.3756   0.09262   0.09100  -0.0331  0.9998  0.0154  -1.7877   0.0000   0.0000   0.0000   0.1553
  -8.700  -0.3704   0.09093   0.08931  -0.0348  0.9992  0.0154  -1.7943   0.0000   0.0000   0.0000   0.1495
  -8.600  -0.3653   0.08922   0.08760  -0.0365  0.9984  0.0155  -1.8021   0.0000   0.0000   0.0000   0.1434
  -8.500  -0.3603   0.08751   0.08589  -0.0382  0.9976  0.0155  -1.8110   0.0000   0.0000   0.0000   0.1373
  -8.400  -0.3554   0.08579   0.08417  -0.0400  0.9966  0.0155  -1.8209   0.0000   0.0000   0.0000   0.1309
  -8.300  -0.3504   0.08404   0.08242  -0.0418  0.9956  0.0155  -1.8318   0.0000   0.0000   0.0000   0.1240
  -8.200  -0.3449   0.08223   0.08061  -0.0439  0.9946  0.0155  -1.8436   0.0000   0.0000   0.0000   0.1162
  -8.100  -0.3392   0.08036   0.07875  -0.0460  0.9937  0.0156  -1.8565   0.0000   0.0000   0.0000   0.1077
  -8.000  -0.3332   0.07844   0.07682  -0.0484  0.9928  0.0156  -1.8706   0.0000   0.0000   0.0000   0.0981
  -7.900  -0.3279   0.07656   0.07494  -0.0506  0.9910  0.0156  -1.8862   0.0000   0.0000   0.0000   0.0890
  -7.800  -0.3221   0.07459   0.07298  -0.0531  0.9892  0.0156  -1.9033   0.0000   0.0000   0.0000   0.0786
  -7.700  -0.3157   0.07250   0.07088  -0.0559  0.9875  0.0156  -1.9225   0.0000   0.0000   0.0000   0.0661
  -7.600  -0.3083   0.07023   0.06862  -0.0594  0.9860  0.0156  -1.9443   0.0000   0.0000   0.0000   0.0508
  -7.500  -0.2992   0.06769   0.06608  -0.0636  0.9848  0.0156  -1.9701   0.0000   0.0000   0.0000   0.0306
  -7.400  -0.2894   0.06489   0.06327  -0.0687  0.9833  0.0157  -2.0023   0.0000   0.0000   0.0000   0.0058
  -7.300  -0.2807   0.06196   0.06033  -0.0739  0.9801  0.0157  -2.0434   0.0000   0.0000   0.0000  -0.0202
  -7.200  -0.2712   0.05885   0.05719  -0.0789  0.9773  0.0157  -2.0905   0.0000   0.0000   0.0000  -0.0481
  -7.100  -0.2612   0.05565   0.05395  -0.0837  0.9749  0.0157  -2.1434   0.0000   0.0000   0.0000  -0.0775
  -7.000  -0.2513   0.05249   0.05073  -0.0878  0.9726  0.0157  -2.1999   0.0000   0.0000   0.0000  -0.1069
  -6.900  -0.2455   0.04996   0.04814  -0.0902  0.9689  0.0157  -2.2501   0.0000   0.0000   0.0000  -0.1249
  -6.800  -0.2405   0.04766   0.04578  -0.0920  0.9651  0.0157  -2.2957   0.0000   0.0000   0.0000  -0.1400
  -6.700  -0.2351   0.04551   0.04355  -0.0935  0.9618  0.0157  -2.3360   0.0000   0.0000   0.0000  -0.1553
  -6.600  -0.2293   0.04349   0.04144  -0.0949  0.9589  0.0157  -2.3700   0.0000   0.0000   0.0000  -0.1716
  -6.500  -0.2238   0.04167   0.03954  -0.0959  0.9560  0.0158  -2.3967   0.0000   0.0000   0.0000  -0.1866
  -6.400  -0.2191   0.04006   0.03784  -0.0965  0.9530  0.0158  -2.4167   0.0000   0.0000   0.0000  -0.1984
  -6.300  -0.2369   0.02966   0.02689  -0.0998  0.9455  0.0168  -2.9926   0.0000   0.0000   0.0000  -0.1793
  -6.200  -0.2310   0.02824   0.02538  -0.1000  0.9433  0.0173  -2.9635   0.0000   0.0000   0.0000  -0.1912
  -6.100  -0.2231   0.02742   0.02451  -0.1002  0.9413  0.0177  -2.9002   0.0000   0.0000   0.0000  -0.2071
  -5.900  -0.2060   0.02611   0.02311  -0.1003  0.9378  0.0183  -2.7642   0.0000   0.0000   0.0000  -0.2455
  -5.800  -0.1972   0.02545   0.02241  -0.1004  0.9363  0.0186  -2.7031   0.0000   0.0000   0.0000  -0.2673
  -5.700  -0.1884   0.02473   0.02163  -0.1004  0.9346  0.0188  -2.6505   0.0000   0.0000   0.0000  -0.2913
  -5.600  -0.1795   0.02402   0.02086  -0.1003  0.9329  0.0191  -2.5989   0.0000   0.0000   0.0000  -0.3181
  -5.500  -0.1704   0.02331   0.02009  -0.1003  0.9311  0.0194  -2.5482   0.0000   0.0000   0.0000  -0.3482
  -5.400  -0.1611   0.02262   0.01933  -0.1003  0.9295  0.0198  -2.4985   0.0000   0.0000   0.0000  -0.3823
  -5.300  -0.1517   0.02194   0.01858  -0.1003  0.9278  0.0201  -2.4500   0.0000   0.0000   0.0000  -0.4209
  -5.200  -0.1422   0.02127   0.01784  -0.1002  0.9262  0.0206  -2.4026   0.0000   0.0000   0.0000  -0.4649
  -5.100  -0.1326   0.02063   0.01711  -0.1001  0.9246  0.0210  -2.3559   0.0000   0.0000   0.0000  -0.5159
  -5.000  -0.1227   0.02001   0.01641  -0.1000  0.9229  0.0216  -2.3098   0.0000   0.0000   0.0000  -0.5762
  -4.900  -0.1127   0.01942   0.01574  -0.0999  0.9212  0.0222  -2.2637   0.0000   0.0000   0.0000  -0.6488
  -4.800  -0.1023   0.01888   0.01512  -0.0998  0.9193  0.0228  -2.2169   0.0000   0.0000   0.0000  -0.7386
  -4.700  -0.0919   0.01838   0.01456  -0.0997  0.9179  0.0235  -2.1691   0.0000   0.0000   0.0000  -0.8489
  -4.600  -0.0815   0.01796   0.01408  -0.0996  0.9166  0.0243  -2.1187   0.0000   0.0000   0.0000  -0.9878
  -4.500  -0.0708   0.01767   0.01374  -0.0994  0.9151  0.0251  -2.0630   0.0000   0.0000   0.0000  -1.1714
  -4.400  -0.0599   0.01758   0.01364  -0.0992  0.9135  0.0259  -1.9973   0.0000   0.0000   0.0000  -1.4281
  -4.300  -0.0482   0.01808   0.01413  -0.0990  0.9118  0.0267  -1.9067   0.0000   0.0000   0.0000  -1.8306
  -4.200  -0.0367   0.01842   0.01444  -0.0988  0.9102  0.0271  -1.8251   0.0000   0.0000   0.0000  -2.4743
  -4.100  -0.0261   0.01803   0.01399  -0.0987  0.9085  0.0272  -1.7796   0.0000   0.0000   0.0000  -3.5756
  -4.000  -0.0156   0.01750   0.01337  -0.0986  0.9068  0.0272  -1.7415   0.0000   0.0000   0.0000  -6.1329
  -3.900  -0.0089   0.01357   0.00906  -0.0985  0.9049  0.0296  -1.8630   0.0000   0.0000   0.0000  -10.9083
  -3.800   0.0015   0.01299   0.00846  -0.0984  0.9034  0.0305  -1.8112   0.0000   0.0000   0.0000  68.4238
  -3.700   0.0131   0.01069   0.00582  -0.0972  0.9018  0.0173  -2.0852   0.0000   0.0000   0.0000   7.7353
  -3.600   0.0247   0.01085   0.00598  -0.0971  0.9002  0.0166  -1.9993   0.0000   0.0000   0.0000   4.2203
  -3.500   0.0349   0.00989   0.00493  -0.0967  0.8982  0.0145  -2.0471   0.0000   0.0000   0.0000   3.0524
  -3.400   0.0454   0.00935   0.00433  -0.0965  0.8959  0.0140  -2.0338   0.0000   0.0000   0.0000   2.3957
  -3.300   0.0559   0.00893   0.00386  -0.0963  0.8948  0.0136  -2.0073   0.0000   0.0000   0.0000   1.9875
  -3.200   0.0666   0.00859   0.00347  -0.0961  0.8933  0.0132  -1.9729   0.0000   0.0000   0.0000   1.7061
  -3.100   0.0774   0.00831   0.00314  -0.0959  0.8917  0.0129  -1.9322   0.0000   0.0000   0.0000   1.5006
  -3.000   0.0883   0.00808   0.00286  -0.0958  0.8899  0.0127  -1.8864   0.0000   0.0000   0.0000   1.3442
  -2.900   0.0993   0.00789   0.00262  -0.0956  0.8881  0.0125  -1.8366   0.0000   0.0000   0.0000   1.2214
  -2.800   0.1103   0.00772   0.00241  -0.0955  0.8861  0.0123  -1.7836   0.0000   0.0000   0.0000   1.1227
  -2.700   0.1214   0.00758   0.00223  -0.0954  0.8841  0.0122  -1.7279   0.0000   0.0000   0.0000   1.0419
  -2.600   0.1324   0.00746   0.00207  -0.0953  0.8821  0.0122  -1.6701   0.0000   0.0000   0.0000   0.9744
  -2.500   0.1436   0.00736   0.00193  -0.0952  0.8801  0.0123  -1.6103   0.0000   0.0000   0.0000   0.9173
  -2.400   0.1548   0.00728   0.00181  -0.0951  0.8781  0.0125  -1.5489   0.0000   0.0000   0.0000   0.8682
  -2.300   0.1659   0.00721   0.00170  -0.0950  0.8759  0.0128  -1.4880   0.0000   0.0000   0.0000   0.8258
  -2.200   0.1772   0.00714   0.00160  -0.0949  0.8734  0.0137  -1.4322   0.0000   0.0000   0.0000   0.7886
  -2.100   0.1882   0.00693   0.00148  -0.0948  0.8708  0.0414  -1.4014   0.0000   0.0000   0.0000   0.7565
  -2.000   0.1990   0.00674   0.00142  -0.0948  0.8692  0.0713  -1.3261   0.0000   0.0000   0.0000   0.7289
  -1.900   0.2098   0.00662   0.00138  -0.0948  0.8672  0.0910  -1.2459   0.0000   0.0000   0.0000   0.7037
  -1.800   0.2209   0.00654   0.00134  -0.0947  0.8648  0.1033  -1.1645   0.0000   0.0000   0.0000   0.6807
  -1.700   0.2319   0.00646   0.00130  -0.0947  0.8623  0.1162  -1.0828   0.0000   0.0000   0.0000   0.6600
  -1.600   0.2433   0.00653   0.00123  -0.0946  0.8597  0.0927  -0.9887   0.0000   0.0000   0.0000   0.6403
  -1.500   0.2542   0.00643   0.00119  -0.0946  0.8568  0.1127  -0.9139   0.0000   0.0000   0.0000   0.6232
  -1.400   0.2652   0.00635   0.00116  -0.0946  0.8539  0.1305  -0.8394   0.0000   0.0000   0.0000   0.6074
  -1.300   0.2762   0.00625   0.00112  -0.0945  0.8509  0.1520  -0.7663   0.0000   0.0000   0.0000   0.5930
  -1.200   0.2870   0.00615   0.00109  -0.0945  0.8477  0.1779  -0.6945   0.0000   0.0000   0.0000   0.5797
  -1.100   0.2980   0.00606   0.00106  -0.0945  0.8442  0.2040  -0.6237   0.0000   0.0000   0.0000   0.5674
  -1.000   0.3090   0.00597   0.00104  -0.0944  0.8419  0.2268  -0.5540   0.0000   0.0000   0.0000   0.5559
  -0.900   0.3200   0.00588   0.00103  -0.0944  0.8390  0.2498  -0.4856   0.0000   0.0000   0.0000   0.5452
  -0.800   0.3310   0.00578   0.00102  -0.0944  0.8356  0.2759  -0.4925   0.0000   0.0000   0.0000   0.5353
  -0.700   0.3419   0.00569   0.00100  -0.0944  0.8318  0.3024  -0.5011   0.0000   0.0000   0.0000   0.5260
  -0.600   0.3528   0.00560   0.00098  -0.0944  0.8277  0.3325  -0.5106   0.0000   0.0000   0.0000   0.5172
  -0.500   0.3635   0.00549   0.00096  -0.0943  0.8233  0.3704  -0.5200   0.0000   0.0000   0.0000   0.5090
  -0.400   0.3741   0.00536   0.00095  -0.0942  0.8185  0.4171  -0.5294   0.0000   0.0000   0.0000   0.5014
  -0.300   0.3846   0.00519   0.00095  -0.0942  0.8144  0.4828  -0.5387   0.0000   0.0000   0.0000   0.4943
  -0.200   0.3946   0.00492   0.00097  -0.0941  0.8104  0.5772  -0.5479   0.0000   0.0000   0.0000   0.4877
  -0.100   0.4040   0.00464   0.00101  -0.0938  0.8054  0.6856  -0.5574   0.0000   0.0000   0.0000   0.4813
   0.000   0.4130   0.00447   0.00107  -0.0932  0.7994  0.7638  -0.5670   0.0000   0.0000   0.0000   0.4748
   0.100   0.4224   0.00443   0.00110  -0.0927  0.7926  0.8031  -0.5769   0.0000   0.0000   0.0000   0.4685
   0.200   0.4325   0.00445   0.00111  -0.0923  0.7853  0.8241  -0.5883   0.0000   0.0000   0.0000   0.4625
   0.300   0.4426   0.00443   0.00113  -0.0920  0.7787  0.8378  -0.5997   0.0000   0.0000   0.0000   0.4568
   0.400   0.4531   0.00444   0.00113  -0.0918  0.7696  0.8463  -0.6113   0.0000   0.0000   0.0000   0.4514
   0.500   0.4634   0.00448   0.00112  -0.0915  0.7592  0.8516  -0.6230   0.0000   0.0000   0.0000   0.4462
   0.600   0.4741   0.00453   0.00112  -0.0914  0.7502  0.8554  -0.6348   0.0000   0.0000   0.0000   0.4413
   0.700   0.4846   0.00455   0.00112  -0.0912  0.7407  0.8604  -0.6466   0.0000   0.0000   0.0000   0.4367
   0.800   0.4946   0.00457   0.00112  -0.0908  0.7303  0.8666  -0.6592   0.0000   0.0000   0.0000   0.4321
   0.900   0.5044   0.00461   0.00113  -0.0905  0.7206  0.8730  -0.6719   0.0000   0.0000   0.0000   0.4278
   1.000   0.5149   0.00463   0.00116  -0.0903  0.7126  0.8789  -0.6852   0.0000   0.0000   0.0000   0.4237
   1.100   0.5253   0.00468   0.00117  -0.0901  0.7019  0.8836  -0.6984   0.0000   0.0000   0.0000   0.4197
   1.300   0.5454   0.00478   0.00119  -0.0895  0.6805  0.8931  -0.7253   0.0000   0.0000   0.0000   0.4122
   1.400   0.5555   0.00481   0.00121  -0.0892  0.6702  0.8985  -0.7400   0.0000   0.0000   0.0000   0.4086
   1.500   0.5652   0.00487   0.00122  -0.0889  0.6591  0.9043  -0.7546   0.0000   0.0000   0.0000   0.4052
   1.600   0.5751   0.00491   0.00124  -0.0886  0.6496  0.9105  -0.7711   0.0000   0.0000   0.0000   0.4019
   1.700   0.5851   0.00492   0.00126  -0.0883  0.6409  0.9187  -0.7878   0.0000   0.0000   0.0000   0.3986
   1.800   0.5946   0.00496   0.00127  -0.0879  0.6295  0.9281  -0.8044   0.0000   0.0000   0.0000   0.3954
   2.000   0.6155   0.00505   0.00131  -0.0875  0.6067  0.9513  -0.8392   0.0000   0.0000   0.0000   0.3896
   2.100   0.6293   0.00511   0.00133  -0.0881  0.5936  0.9670  -0.8612   0.0000   0.0000   0.0000   0.3874
   2.200   0.6444   0.00521   0.00136  -0.0890  0.5784  1.0000  -0.8859   0.0000   0.0000   0.0000   0.3855
   2.300   0.6553   0.00526   0.00138  -0.0890  0.5696  1.0000  -0.9066   0.0000   0.0000   0.0000   0.3830
   2.400   0.6659   0.00534   0.00142  -0.0889  0.5589  1.0000  -0.9277   0.0000   0.0000   0.0000   0.3807
   2.500   0.6761   0.00545   0.00145  -0.0887  0.5469  1.0000  -0.9511   0.0000   0.0000   0.0000   0.3783
   2.600   0.6868   0.00552   0.00149  -0.0887  0.5375  1.0000  -0.9753   0.0000   0.0000   0.0000   0.3761
   2.700   0.6974   0.00559   0.00152  -0.0886  0.5266  1.0000  -1.0016   0.0000   0.0000   0.0000   0.3739
   2.800   0.7074   0.00571   0.00157  -0.0884  0.5123  1.0000  -1.0295   0.0000   0.0000   0.0000   0.3718
   2.900   0.7179   0.00580   0.00161  -0.0883  0.5010  1.0000  -1.0582   0.0000   0.0000   0.0000   0.3697
   3.000   0.7286   0.00587   0.00165  -0.0882  0.4914  1.0000  -1.0875   0.0000   0.0000   0.0000   0.3677
   3.100   0.7388   0.00598   0.00170  -0.0881  0.4786  1.0000  -1.1161   0.0000   0.0000   0.0000   0.3658
   3.200   0.7490   0.00610   0.00175  -0.0879  0.4652  1.0000  -1.1552   0.0000   0.0000   0.0000   0.3639
   3.300   0.7595   0.00619   0.00180  -0.0878  0.4529  1.0000  -1.2002   0.0000   0.0000   0.0000   0.3620
   3.400   0.7691   0.00635   0.00186  -0.0876  0.4355  1.0000  -1.2439   0.0000   0.0000   0.0000   0.3602
   3.500   0.7796   0.00644   0.00191  -0.0875  0.4238  1.0000  -1.2897   0.0000   0.0000   0.0000   0.3584
   3.600   0.7899   0.00654   0.00200  -0.0874  0.4111  1.0000  -1.3387   0.0000   0.0000   0.0000   0.3567
   3.700   0.7997   0.00670   0.00206  -0.0872  0.3954  1.0000  -1.3841   0.0000   0.0000   0.0000   0.3550
   3.800   0.8104   0.00677   0.00211  -0.0871  0.3875  1.0000  -1.4318   0.0000   0.0000   0.0000   0.3534
   3.900   0.8208   0.00686   0.00217  -0.0870  0.3772  1.0000  -1.4792   0.0000   0.0000   0.0000   0.3518
   4.000   0.8307   0.00701   0.00224  -0.0868  0.3641  1.0000  -1.5259   0.0000   0.0000   0.0000   0.3503
   4.100   0.8412   0.00710   0.00229  -0.0867  0.3546  1.0000  -1.5742   0.0000   0.0000   0.0000   0.3488
   4.200   0.8517   0.00719   0.00235  -0.0866  0.3452  1.0000  -1.6229   0.0000   0.0000   0.0000   0.3473
   4.300   0.8615   0.00734   0.00243  -0.0864  0.3315  1.0000  -1.6705   0.0000   0.0000   0.0000   0.3458
   4.400   0.8717   0.00747   0.00250  -0.0863  0.3190  1.0000  -1.7194   0.0000   0.0000   0.0000   0.3444
   4.500   0.8814   0.00762   0.00258  -0.0861  0.3034  1.0000  -1.7677   0.0000   0.0000   0.0000   0.3430
   4.600   0.8910   0.00781   0.00267  -0.0859  0.2851  1.0000  -1.8157   0.0000   0.0000   0.0000   0.3416
   4.700   0.9005   0.00799   0.00276  -0.0857  0.2682  1.0000  -1.8642   0.0000   0.0000   0.0000   0.3402
   4.800   0.9103   0.00816   0.00285  -0.0855  0.2536  1.0000  -1.9135   0.0000   0.0000   0.0000   0.3389
   4.900   0.9204   0.00828   0.00293  -0.0854  0.2427  1.0000  -1.9641   0.0000   0.0000   0.0000   0.3376
   5.000   0.9299   0.00848   0.00304  -0.0851  0.2274  1.0000  -2.0134   0.0000   0.0000   0.0000   0.3363
   5.100   0.9400   0.00860   0.00312  -0.0850  0.2171  1.0000  -2.0648   0.0000   0.0000   0.0000   0.3351
   5.200   0.9492   0.00883   0.00324  -0.0847  0.2002  1.0000  -2.1141   0.0000   0.0000   0.0000   0.3339
   5.300   0.9590   0.00899   0.00333  -0.0846  0.1868  1.0000  -2.1654   0.0000   0.0000   0.0000   0.3327
   5.500   0.9775   0.00942   0.00358  -0.0841  0.1549  1.0000  -2.2662   0.0000   0.0000   0.0000   0.3303
   5.600   0.9865   0.00966   0.00372  -0.0838  0.1382  1.0000  -2.3165   0.0000   0.0000   0.0000   0.3291
   5.700   0.9955   0.00991   0.00386  -0.0835  0.1227  1.0000  -2.3670   0.0000   0.0000   0.0000   0.3280
   5.800   1.0049   0.01011   0.00398  -0.0833  0.1101  1.0000  -2.4191   0.0000   0.0000   0.0000   0.3268
   5.900   1.0138   0.01036   0.00413  -0.0830  0.0956  1.0000  -2.4700   0.0000   0.0000   0.0000   0.3257
   6.000   1.0235   0.01053   0.00426  -0.0828  0.0875  1.0000  -2.5236   0.0000   0.0000   0.0000   0.3246
   6.100   1.0326   0.01076   0.00440  -0.0825  0.0764  1.0000  -2.5757   0.0000   0.0000   0.0000   0.3236
   6.200   1.0463   0.01048   0.00443  -0.0828  0.1025  1.0000  -2.6396   0.0000   0.0000   0.0000   0.3227
   6.300   1.0561   0.01063   0.00456  -0.0827  0.0961  1.0000  -2.6940   0.0000   0.0000   0.0000   0.3217
   6.400   1.0662   0.01076   0.00467  -0.0825  0.0914  1.0000  -2.7496   0.0000   0.0000   0.0000   0.3207
   6.500   1.0757   0.01094   0.00480  -0.0823  0.0848  1.0000  -2.8042   0.0000   0.0000   0.0000   0.3197
   6.600   1.0849   0.01115   0.00495  -0.0820  0.0755  1.0000  -2.8586   0.0000   0.0000   0.0000   0.3187
   6.700   1.0946   0.01130   0.00508  -0.0819  0.0706  1.0000  -2.9287   0.0000   0.0000   0.0000   0.3177
   6.800   1.1037   0.01152   0.00524  -0.0816  0.0635  1.0000  -2.9968   0.0000   0.0000   0.0000   0.3167
   6.900   1.1131   0.01171   0.00538  -0.0813  0.0561  1.0000  -3.0662   0.0000   0.0000   0.0000   0.3158
   7.000   1.1226   0.01188   0.00553  -0.0811  0.0515  1.0000  -3.1368   0.0000   0.0000   0.0000   0.3148
   7.100   1.1315   0.01212   0.00570  -0.0808  0.0452  1.0000  -3.2056   0.0000   0.0000   0.0000   0.3139
   7.200   1.1411   0.01228   0.00584  -0.0806  0.0406  1.0000  -3.2774   0.0000   0.0000   0.0000   0.3130
   7.300   1.1506   0.01244   0.00598  -0.0804  0.0376  1.0000  -3.3502   0.0000   0.0000   0.0000   0.3121
   7.400   1.1598   0.01264   0.00614  -0.0802  0.0343  1.0000  -3.4219   0.0000   0.0000   0.0000   0.3112
   7.500   1.1690   0.01283   0.00630  -0.0799  0.0308  1.0000  -3.4931   0.0000   0.0000   0.0000   0.3103
   7.600   1.1786   0.01299   0.00645  -0.0797  0.0283  1.0000  -3.5652   0.0000   0.0000   0.0000   0.3094
   7.700   1.1884   0.01311   0.00658  -0.0795  0.0276  1.0000  -3.6413   0.0000   0.0000   0.0000   0.3086
   7.800   1.1981   0.01324   0.00671  -0.0793  0.0268  1.0000  -3.7173   0.0000   0.0000   0.0000   0.3078
   7.900   1.2077   0.01338   0.00685  -0.0791  0.0259  1.0000  -3.7934   0.0000   0.0000   0.0000   0.3069
   8.000   1.2172   0.01353   0.00700  -0.0789  0.0250  1.0000  -3.8696   0.0000   0.0000   0.0000   0.3061
   8.100   1.2266   0.01369   0.00715  -0.0787  0.0241  1.0000  -3.9457   0.0000   0.0000   0.0000   0.3053
   8.200   1.2359   0.01386   0.00731  -0.0784  0.0231  1.0000  -4.0219   0.0000   0.0000   0.0000   0.3045
   8.300   1.2451   0.01403   0.00747  -0.0782  0.0222  1.0000  -4.0980   0.0000   0.0000   0.0000   0.3037
   8.400   1.2543   0.01420   0.00764  -0.0779  0.0211  1.0000  -4.1736   0.0000   0.0000   0.0000   0.3029
   8.500   1.2635   0.01438   0.00785  -0.0776  0.0194  1.0000  -4.2786   0.0000   0.0000   0.0000   0.3021
   8.600   1.2726   0.01456   0.00804  -0.0773  0.0182  1.0000  -4.4066   0.0000   0.0000   0.0000   0.3013
   8.700   1.2819   0.01471   0.00819  -0.0771  0.0177  1.0000  -4.5420   0.0000   0.0000   0.0000   0.3005
   8.800   1.2916   0.01481   0.00829  -0.0769  0.0177  1.0000  -4.6842   0.0000   0.0000   0.0000   0.2998
   8.900   1.3012   0.01491   0.00841  -0.0768  0.0176  1.0000  -4.8273   0.0000   0.0000   0.0000   0.2991
   9.000   1.3108   0.01503   0.00853  -0.0766  0.0175  1.0000  -4.9714   0.0000   0.0000   0.0000   0.2983
   9.100   1.3202   0.01515   0.00866  -0.0764  0.0173  1.0000  -5.1164   0.0000   0.0000   0.0000   0.2976
   9.200   1.3296   0.01527   0.00879  -0.0762  0.0171  1.0000  -5.2623   0.0000   0.0000   0.0000   0.2969
   9.300   1.3389   0.01540   0.00893  -0.0759  0.0168  1.0000  -5.4090   0.0000   0.0000   0.0000   0.2962
   9.400   1.3482   0.01554   0.00907  -0.0757  0.0165  1.0000  -5.5562   0.0000   0.0000   0.0000   0.2955
   9.500   1.3573   0.01568   0.00922  -0.0755  0.0159  1.0000  -5.7037   0.0000   0.0000   0.0000   0.2948
   9.600   1.3662   0.01584   0.00937  -0.0752  0.0152  1.0000  -5.8511   0.0000   0.0000   0.0000   0.2941
   9.700   1.3749   0.01601   0.00954  -0.0749  0.0142  1.0000  -5.9976   0.0000   0.0000   0.0000   0.2933
   9.800   1.3831   0.01624   0.00974  -0.0745  0.0126  1.0000  -6.1401   0.0000   0.0000   0.0000   0.2926
   9.900   1.3907   0.01652   0.00997  -0.0740  0.0102  1.0000  -6.2766   0.0000   0.0000   0.0000   0.2918
  10.000   1.3988   0.01674   0.01018  -0.0737  0.0086  1.0000  -6.4136   0.0000   0.0000   0.0000   0.2911
  10.100   1.4031   0.01733   0.01069  -0.0727  0.0041  1.0000  -6.5155   0.0000   0.0000   0.0000   0.2901
  10.200   1.4100   0.01767   0.01101  -0.0721  0.0034  1.0000  -6.6243   0.0000   0.0000   0.0000   0.2893
  10.300   1.4171   0.01799   0.01132  -0.0715  0.0027  1.0000  -6.7247   0.0000   0.0000   0.0000   0.2884
  10.400   1.4246   0.01824   0.01160  -0.0710  0.0024  1.0000  -6.8360   0.0000   0.0000   0.0000   0.2877
  10.500   1.4322   0.01849   0.01188  -0.0705  0.0023  1.0000  -6.9557   0.0000   0.0000   0.0000   0.2869
  10.600   1.4398   0.01873   0.01215  -0.0700  0.0022  1.0000  -7.0799   0.0000   0.0000   0.0000   0.2861
  10.700   1.4473   0.01897   0.01242  -0.0695  0.0021  1.0000  -7.2075   0.0000   0.0000   0.0000   0.2854
  10.800   1.4547   0.01921   0.01270  -0.0690  0.0021  1.0000  -7.3371   0.0000   0.0000   0.0000   0.2846
  10.900   1.4621   0.01945   0.01297  -0.0684  0.0020  1.0000  -7.4679   0.0000   0.0000   0.0000   0.2838
  11.000   1.4690   0.01969   0.01325  -0.0678  0.0020  1.0000  -7.5978   0.0000   0.0000   0.0000   0.2830
  11.100   1.4756   0.01993   0.01353  -0.0672  0.0020  1.0000  -7.7266   0.0000   0.0000   0.0000   0.2822
  11.200   1.4822   0.02016   0.01383  -0.0665  0.0020  1.0000  -7.8725   0.0000   0.0000   0.0000   0.2814
  11.300   1.4885   0.02042   0.01412  -0.0658  0.0020  1.0000  -8.0048   0.0000   0.0000   0.0000   0.2806
  11.400   1.4945   0.02068   0.01443  -0.0650  0.0020  1.0000  -8.1339   0.0000   0.0000   0.0000   0.2797
  11.500   1.5003   0.02096   0.01474  -0.0643  0.0020  1.0000  -8.2613   0.0000   0.0000   0.0000   0.2789
  11.600   1.5059   0.02124   0.01507  -0.0635  0.0020  1.0000  -8.3879   0.0000   0.0000   0.0000   0.2781
  11.700   1.5113   0.02154   0.01541  -0.0627  0.0020  1.0000  -8.5132   0.0000   0.0000   0.0000   0.2772
  11.800   1.5165   0.02185   0.01576  -0.0619  0.0020  1.0000  -8.6373   0.0000   0.0000   0.0000   0.2764
  11.900   1.5215   0.02217   0.01612  -0.0610  0.0020  1.0000  -8.7607   0.0000   0.0000   0.0000   0.2755
  12.000   1.5264   0.02251   0.01650  -0.0602  0.0020  1.0000  -8.8829   0.0000   0.0000   0.0000   0.2747
  12.100   1.5309   0.02286   0.01690  -0.0593  0.0020  1.0000  -9.0036   0.0000   0.0000   0.0000   0.2738
  12.200   1.5353   0.02322   0.01731  -0.0584  0.0020  1.0000  -9.1226   0.0000   0.0000   0.0000   0.2729
  12.300   1.5394   0.02361   0.01774  -0.0575  0.0020  1.0000  -9.2404   0.0000   0.0000   0.0000   0.2721
  12.400   1.5433   0.02401   0.01819  -0.0566  0.0020  1.0000  -9.3564   0.0000   0.0000   0.0000   0.2712
  12.500   1.5471   0.02443   0.01866  -0.0557  0.0020  1.0000  -9.4716   0.0000   0.0000   0.0000   0.2704
  12.600   1.5507   0.02487   0.01915  -0.0548  0.0020  1.0000  -9.5861   0.0000   0.0000   0.0000   0.2696
  12.700   1.5539   0.02532   0.01965  -0.0539  0.0020  1.0000  -9.6975   0.0000   0.0000   0.0000   0.2687
  12.800   1.5568   0.02580   0.02018  -0.0530  0.0020  1.0000  -9.8063   0.0000   0.0000   0.0000   0.2679
  12.900   1.5596   0.02629   0.02072  -0.0520  0.0020  1.0000  -9.9143   0.0000   0.0000   0.0000   0.2671
  13.000   1.5623   0.02681   0.02129  -0.0511  0.0020  1.0000  -10.0216   0.0000   0.0000   0.0000   0.2662
  13.100   1.5646   0.02735   0.02189  -0.0502  0.0021  1.0000  -10.1252   0.0000   0.0000   0.0000   0.2654
  13.200   1.5667   0.02792   0.02252  -0.0493  0.0021  1.0000  -10.2270   0.0000   0.0000   0.0000   0.2646
  13.300   1.5687   0.02851   0.02316  -0.0484  0.0021  1.0000  -10.3283   0.0000   0.0000   0.0000   0.2638
  13.400   1.5705   0.02913   0.02383  -0.0475  0.0021  1.0000  -10.4272   0.0000   0.0000   0.0000   0.2630
  13.500   1.5717   0.02979   0.02455  -0.0466  0.0021  1.0000  -10.5209   0.0000   0.0000   0.0000   0.2622
  13.600   1.5726   0.03047   0.02529  -0.0457  0.0021  1.0000  -10.6118   0.0000   0.0000   0.0000   0.2615
  13.700   1.5734   0.03117   0.02604  -0.0448  0.0021  1.0000  -10.7017   0.0000   0.0000   0.0000   0.2607
  13.800   1.5737   0.03192   0.02686  -0.0439  0.0021  1.0000  -10.7860   0.0000   0.0000   0.0000   0.2599
  13.900   1.5736   0.03272   0.02771  -0.0430  0.0022  1.0000  -10.8670   0.0000   0.0000   0.0000   0.2592
  14.000   1.5736   0.03354   0.02860  -0.0422  0.0022  1.0000  -10.9480   0.0000   0.0000   0.0000   0.2585
  14.100   1.5734   0.03441   0.02953  -0.0414  0.0022  1.0000  -11.0257   0.0000   0.0000   0.0000   0.2578
  14.200   1.5724   0.03535   0.03054  -0.0407  0.0022  1.0000  -11.0962   0.0000   0.0000   0.0000   0.2572
  14.300   1.5715   0.03631   0.03157  -0.0400  0.0022  1.0000  -11.1664   0.0000   0.0000   0.0000   0.2565
  14.400   1.5704   0.03732   0.03264  -0.0393  0.0022  1.0000  -11.2341   0.0000   0.0000   0.0000   0.2559
  14.500   1.5684   0.03843   0.03381  -0.0387  0.0022  1.0000  -11.2924   0.0000   0.0000   0.0000   0.2554
  14.600   1.5665   0.03956   0.03501  -0.0381  0.0023  1.0000  -11.3500   0.0000   0.0000   0.0000   0.2548
  14.700   1.5643   0.04075   0.03627  -0.0376  0.0023  1.0000  -11.4042   0.0000   0.0000   0.0000   0.2543
  14.800   1.5613   0.04204   0.03764  -0.0372  0.0023  1.0000  -11.4488   0.0000   0.0000   0.0000   0.2539
  14.900   1.5582   0.04335   0.03901  -0.0368  0.0023  1.0000  -11.4920   0.0000   0.0000   0.0000   0.2535
  15.000   1.5543   0.04478   0.04051  -0.0364  0.0023  1.0000  -11.5258   0.0000   0.0000   0.0000   0.2531
  15.100   1.5503   0.04627   0.04208  -0.0362  0.0023  1.0000  -11.5573   0.0000   0.0000   0.0000   0.2528
  15.200   1.5462   0.04785   0.04372  -0.0361  0.0023  1.0000  -11.5858   0.0000   0.0000   0.0000   0.2526
  15.300   1.5415   0.04956   0.04551  -0.0361  0.0024  1.0000  -11.6064   0.0000   0.0000   0.0000   0.2524
  15.500   1.5309   0.05332   0.04945  -0.0364  0.0024  1.0000  -11.6231   0.0000   0.0000   0.0000   0.2523
  15.600   1.5257   0.05527   0.05148  -0.0367  0.0024  1.0000  -11.6318   0.0000   0.0000   0.0000   0.2524
  15.700   1.5197   0.05743   0.05371  -0.0372  0.0024  1.0000  -11.6303   0.0000   0.0000   0.0000   0.2526
  15.800   1.5140   0.05958   0.05594  -0.0377  0.0024  1.0000  -11.6304   0.0000   0.0000   0.0000   0.2528
  15.900   1.5074   0.06196   0.05838  -0.0384  0.0025  1.0000  -11.6200   0.0000   0.0000   0.0000   0.2531
  16.000   1.5012   0.06431   0.06081  -0.0392  0.0025  1.0000  -11.6108   0.0000   0.0000   0.0000   0.2535
  16.100   1.4942   0.06688   0.06346  -0.0401  0.0025  1.0000  -11.5916   0.0000   0.0000   0.0000   0.2541
  16.200   1.4874   0.06942   0.06607  -0.0411  0.0025  1.0000  -11.5732   0.0000   0.0000   0.0000   0.2546
  16.300   1.4799   0.07218   0.06890  -0.0423  0.0025  1.0000  -11.5456   0.0000   0.0000   0.0000   0.2553
  16.400   1.4727   0.07491   0.07170  -0.0434  0.0025  1.0000  -11.5184   0.0000   0.0000   0.0000   0.2560
  16.500   1.4649   0.07784   0.07471  -0.0448  0.0025  1.0000  -11.4826   0.0000   0.0000   0.0000   0.2569
  16.600   1.4572   0.08074   0.07767  -0.0461  0.0025  1.0000  -11.4469   0.0000   0.0000   0.0000   0.2578
  16.700   1.4488   0.08376   0.08076  -0.0476  0.0025  1.0000  -11.4022   0.0000   0.0000   0.0000   0.2587
  16.800   1.4405   0.08677   0.08384  -0.0491  0.0025  1.0000  -11.3575   0.0000   0.0000   0.0000   0.2597
  16.900   1.4320   0.08995   0.08708  -0.0507  0.0025  1.0000  -11.3067   0.0000   0.0000   0.0000   0.2608
  17.000   1.4236   0.09318   0.09037  -0.0523  0.0025  1.0000  -11.2543   0.0000   0.0000   0.0000   0.2620
  17.100   1.4151   0.09648   0.09373  -0.0540  0.0026  1.0000  -11.1989   0.0000   0.0000   0.0000   0.2632
  17.200   1.4064   0.09990   0.09722  -0.0559  0.0026  1.0000  -11.1380   0.0000   0.0000   0.0000   0.2646
  17.300   1.3981   0.10325   0.10062  -0.0576  0.0026  1.0000  -11.0791   0.0000   0.0000   0.0000   0.2659
  17.400   1.3891   0.10685   0.10429  -0.0596  0.0026  1.0000  -11.0093   0.0000   0.0000   0.0000   0.2674
  17.500   1.3811   0.11022   0.10771  -0.0614  0.0026  1.0000  -10.9481   0.0000   0.0000   0.0000   0.2687
  17.600   1.3725   0.11383   0.11135  -0.0635  0.0026  1.0000  -10.8832   0.0000   0.0000   0.0000   0.2703
  17.700   1.3642   0.11732   0.11490  -0.0654  0.0026  1.0000  -10.8116   0.0000   0.0000   0.0000   0.2718
  17.800   1.3551   0.12108   0.11871  -0.0675  0.0026  1.0000  -10.7260   0.0000   0.0000   0.0000   0.2736
  17.900   1.3465   0.12472   0.12240  -0.0696  0.0026  1.0000  -10.6436   0.0000   0.0000   0.0000   0.2752
  18.000   1.3382   0.12830   0.12603  -0.0716  0.0026  1.0000  -10.5617   0.0000   0.0000   0.0000   0.2769
  18.100   1.3289   0.13221   0.12999  -0.0739  0.0026  1.0000  -10.4615   0.0000   0.0000   0.0000   0.2788
  18.200   1.3209   0.13577   0.13360  -0.0759  0.0026  1.0000  -10.3760   0.0000   0.0000   0.0000   0.2806
  18.300   1.3118   0.13969   0.13757  -0.0782  0.0026  1.0000  -10.2696   0.0000   0.0000   0.0000   0.2826
  18.400   1.3035   0.14341   0.14133  -0.0804  0.0026  1.0000  -10.1708   0.0000   0.0000   0.0000   0.2845
  18.500   1.2958   0.14700   0.14496  -0.0825  0.0026  1.0000  -10.0764   0.0000   0.0000   0.0000   0.2863
  18.600   1.2864   0.15110   0.14911  -0.0849  0.0026  1.0000  -9.9513   0.0000   0.0000   0.0000   0.2886
  18.700   1.2788   0.15475   0.15281  -0.0871  0.0026  1.0000  -9.8478   0.0000   0.0000   0.0000   0.2906
  18.800   1.2710   0.15845   0.15655  -0.0893  0.0026  1.0000  -9.7387   0.0000   0.0000   0.0000   0.2926
  18.900   1.2621   0.16251   0.16064  -0.0918  0.0026  1.0000  -9.6009   0.0000   0.0000   0.0000   0.2950
  19.000   1.2551   0.16585   0.16403  -0.0940  0.0026  1.0000  -9.4898   0.0000   0.0000   0.0000   0.2970
  19.100   1.2478   0.16931   0.16753  -0.0963  0.0026  1.0000  -9.3684   0.0000   0.0000   0.0000   0.2992
  19.200   1.2391   0.17331   0.17156  -0.0989  0.0026  1.0000  -9.2127   0.0000   0.0000   0.0000   0.3017
  19.300   1.2322   0.17691   0.17521  -0.1012  0.0026  1.0000  -9.0852   0.0000   0.0000   0.0000   0.3039
  19.400   1.2248   0.18079   0.17912  -0.1036  0.0026  1.0000  -8.9409   0.0000   0.0000   0.0000   0.3063
  19.500   1.2157   0.18536   0.18373  -0.1063  0.0026  1.0000  -8.7519   0.0000   0.0000   0.0000   0.3092
  19.600   1.2085   0.18942   0.18782  -0.1087  0.0026  1.0000  -8.5970   0.0000   0.0000   0.0000   0.3116
  19.700   1.2002   0.19399   0.19243  -0.1113  0.0026  1.0000  -8.4076   0.0000   0.0000   0.0000   0.3144
  19.800   1.1902   0.19928   0.19776  -0.1142  0.0026  1.0000  -8.1675   0.0000   0.0000   0.0000   0.3177
  19.900   1.1821   0.20413   0.20265  -0.1168  0.0026  1.0000  -7.9574   0.0000   0.0000   0.0000   0.3206
  20.000   1.1688   0.21106   0.20962  -0.1204  0.0026  1.0000  -7.5967   0.0000   0.0000   0.0000   0.3249
  20.100   1.1575   0.21759   0.21618  -0.1236  0.0026  1.0000  -7.2605   0.0000   0.0000   0.0000   0.3288
  22.100   1.0759   0.32618   0.32477  -0.1577  0.0060  1.0000  -2.0165   0.0000   0.0000   0.0000   0.3702
  22.200   1.0769   0.32836   0.32694  -0.1584  0.0059  1.0000  -2.0222   0.0000   0.0000   0.0000   0.3705
  22.300   1.0779   0.33052   0.32911  -0.1591  0.0057  1.0000  -2.0289   0.0000   0.0000   0.0000   0.3708
  22.400   1.0788   0.33267   0.33126  -0.1598  0.0056  1.0000  -2.0365   0.0000   0.0000   0.0000   0.3711
  22.500   1.0797   0.33481   0.33340  -0.1604  0.0056  1.0000  -2.0450   0.0000   0.0000   0.0000   0.3714
  22.600   1.0805   0.33693   0.33553  -0.1610  0.0055  1.0000  -2.0544   0.0000   0.0000   0.0000   0.3717
  22.700   1.0813   0.33903   0.33764  -0.1617  0.0054  1.0000  -2.0645   0.0000   0.0000   0.0000   0.3719
  22.800   1.0820   0.34113   0.33973  -0.1623  0.0053  1.0000  -2.0755   0.0000   0.0000   0.0000   0.3722
  22.900   1.0826   0.34321   0.34182  -0.1629  0.0052  1.0000  -2.0873   0.0000   0.0000   0.0000   0.3725
  23.000   1.0831   0.34527   0.34388  -0.1634  0.0052  1.0000  -2.0998   0.0000   0.0000   0.0000   0.3727
  23.100   1.0835   0.34732   0.34594  -0.1640  0.0051  1.0000  -2.1130   0.0000   0.0000   0.0000   0.3730
  23.200   1.0838   0.34934   0.34799  -0.1645  0.0050  1.0000  -2.1269   0.0000   0.0000   0.0000   0.3732
  23.300   1.0840   0.35135   0.35001  -0.1651  0.0050  1.0000  -2.1412   0.0000   0.0000   0.0000   0.3735
  23.400   1.0840   0.35335   0.35201  -0.1655  0.0049  1.0000  -2.1561   0.0000   0.0000   0.0000   0.3737
  23.500   1.0839   0.35533   0.35399  -0.1660  0.0049  1.0000  -2.1712   0.0000   0.0000   0.0000   0.3739
  23.600   1.0836   0.35728   0.35595  -0.1664  0.0048  1.0000  -2.1865   0.0000   0.0000   0.0000   0.3742
  23.700   1.0830   0.35921   0.35789  -0.1668  0.0048  1.0000  -2.2017   0.0000   0.0000   0.0000   0.3744
  23.800   1.0821   0.36112   0.35980  -0.1672  0.0047  1.0000  -2.2166   0.0000   0.0000   0.0000   0.3746
  23.900   1.0809   0.36299   0.36168  -0.1674  0.0047  1.0000  -2.2306   0.0000   0.0000   0.0000   0.3749
  24.000   1.0790   0.36489   0.36359  -0.1676  0.0046  1.0000  -2.2389   0.0000   0.0000   0.0000   0.3752
  24.100   1.0759   0.36682   0.36552  -0.1677  0.0046  1.0000  -2.2382   0.0000   0.0000   0.0000   0.3755
  24.200   1.0708   0.36871   0.36741  -0.1676  0.0045  1.0000  -2.2239   0.0000   0.0000   0.0000   0.3760
  25.800   0.8761   0.33924   0.33815  -0.1473  0.0042  1.0000  -1.2932   0.0000   0.0000   0.0000   0.3888
  25.900   0.8747   0.33962   0.33854  -0.1475  0.0042  1.0000  -1.2818   0.0000   0.0000   0.0000   0.3892
  26.000   0.8733   0.34001   0.33893  -0.1478  0.0041  1.0000  -1.2708   0.0000   0.0000   0.0000   0.3895
  26.100   0.8721   0.34041   0.33934  -0.1480  0.0041  1.0000  -1.2600   0.0000   0.0000   0.0000   0.3899
  26.200   0.8708   0.34082   0.33975  -0.1482  0.0041  1.0000  -1.2495   0.0000   0.0000   0.0000   0.3902
  26.300   0.8697   0.34123   0.34017  -0.1484  0.0041  1.0000  -1.2394   0.0000   0.0000   0.0000   0.3905
  26.400   0.8685   0.34165   0.34059  -0.1486  0.0041  1.0000  -1.2294   0.0000   0.0000   0.0000   0.3909
  26.500   0.8675   0.34208   0.34102  -0.1489  0.0041  1.0000  -1.2197   0.0000   0.0000   0.0000   0.3912
  26.600   0.8664   0.34251   0.34146  -0.1491  0.0041  1.0000  -1.2103   0.0000   0.0000   0.0000   0.3915
  26.700   0.8654   0.34295   0.34191  -0.1494  0.0041  1.0000  -1.2009   0.0000   0.0000   0.0000   0.3918
  26.800   0.8644   0.34340   0.34236  -0.1496  0.0041  1.0000  -1.1916   0.0000   0.0000   0.0000   0.3922
  26.900   0.8635   0.34386   0.34282  -0.1499  0.0041  1.0000  -1.1824   0.0000   0.0000   0.0000   0.3925
  27.000   0.8626   0.34431   0.34328  -0.1501  0.0041  1.0000  -1.1735   0.0000   0.0000   0.0000   0.3928
  27.100   0.8617   0.34478   0.34374  -0.1504  0.0041  1.0000  -1.1648   0.0000   0.0000   0.0000   0.3931
  27.200   0.8609   0.34524   0.34422  -0.1507  0.0041  1.0000  -1.1563   0.0000   0.0000   0.0000   0.3934
  27.300   0.8601   0.34571   0.34469  -0.1509  0.0041  1.0000  -1.1480   0.0000   0.0000   0.0000   0.3937
  27.400   0.8593   0.34619   0.34517  -0.1512  0.0041  1.0000  -1.1399   0.0000   0.0000   0.0000   0.3940
  27.500   0.8586   0.34667   0.34565  -0.1515  0.0041  1.0000  -1.1320   0.0000   0.0000   0.0000   0.3943
  27.600   0.8579   0.34715   0.34614  -0.1518  0.0041  1.0000  -1.1243   0.0000   0.0000   0.0000   0.3946


