xflr5 v6.61

 Calculated polar for: S7075 (9%)

 1 1 Reynolds number fixed          Mach number fixed         

 xtrf =   1.000 (top)        1.000 (bottom)
 Mach =   0.000     Re =     0.625 e 6     Ncrit =   9.000

  alpha     CL        CD       CDp       Cm    Top Xtr Bot Xtr   Cpmin    Chinge    XCp    
 ------- -------- --------- --------- -------- ------- ------- -------- --------- ---------
 -10.000  -0.3731   0.10760   0.10540  -0.0335  1.0000  0.0157  -1.7969   0.0000   0.0000   0.0000   0.1523
  -9.900  -0.3716   0.10627   0.10407  -0.0340  1.0000  0.0157  -1.7945   0.0000   0.0000   0.0000   0.1508
  -9.800  -0.3702   0.10493   0.10275  -0.0344  1.0000  0.0157  -1.7923   0.0000   0.0000   0.0000   0.1493
  -9.700  -0.3689   0.10361   0.10143  -0.0348  1.0000  0.0157  -1.7902   0.0000   0.0000   0.0000   0.1479
  -9.600  -0.3678   0.10230   0.10013  -0.0352  1.0000  0.0157  -1.7884   0.0000   0.0000   0.0000   0.1467
  -9.500  -0.3668   0.10100   0.09884  -0.0355  1.0000  0.0157  -1.7869   0.0000   0.0000   0.0000   0.1455
  -9.400  -0.3661   0.09973   0.09758  -0.0359  1.0000  0.0157  -1.7859   0.0000   0.0000   0.0000   0.1446
  -9.300  -0.3656   0.09847   0.09633  -0.0361  1.0000  0.0157  -1.7853   0.0000   0.0000   0.0000   0.1438
  -9.200  -0.3654   0.09725   0.09512  -0.0363  1.0000  0.0157  -1.7855   0.0000   0.0000   0.0000   0.1434
  -9.100  -0.3655   0.09605   0.09394  -0.0364  1.0000  0.0157  -1.7952   0.0000   0.0000   0.0000   0.1432
  -9.000  -0.3662   0.09491   0.09281  -0.0364  1.0000  0.0157  -1.8081   0.0000   0.0000   0.0000   0.1435
  -8.900  -0.3677   0.09387   0.09179  -0.0362  1.0000  0.0157  -1.8216   0.0000   0.0000   0.0000   0.1447
  -8.800  -0.3707   0.09299   0.09093  -0.0355  1.0000  0.0158  -1.8355   0.0000   0.0000   0.0000   0.1473
  -8.700  -0.3753   0.09230   0.09025  -0.0345  1.0000  0.0158  -1.8500   0.0000   0.0000   0.0000   0.1515
  -8.600  -0.3808   0.09171   0.08968  -0.0332  1.0000  0.0158  -1.8648   0.0000   0.0000   0.0000   0.1565
  -8.500  -0.3864   0.09112   0.08911  -0.0319  1.0000  0.0158  -1.8799   0.0000   0.0000   0.0000   0.1612
  -8.400  -0.3912   0.09042   0.08842  -0.0309  1.0000  0.0158  -1.8953   0.0000   0.0000   0.0000   0.1649
  -8.300  -0.3861   0.08852   0.08652  -0.0330  0.9992  0.0158  -1.9114   0.0000   0.0000   0.0000   0.1586
  -8.200  -0.3810   0.08661   0.08461  -0.0351  0.9984  0.0158  -1.9291   0.0000   0.0000   0.0000   0.1519
  -8.100  -0.3947   0.07936   0.07740  -0.0407  0.9961  0.0164  -2.2726   0.0000   0.0000   0.0000   0.1409
  -8.000  -0.3937   0.07656   0.07460  -0.0437  0.9946  0.0168  -2.3220   0.0000   0.0000   0.0000   0.1332
  -7.900  -0.3891   0.07455   0.07260  -0.0463  0.9933  0.0171  -2.3165   0.0000   0.0000   0.0000   0.1251
  -7.800  -0.3833   0.07296   0.07101  -0.0486  0.9919  0.0173  -2.2848   0.0000   0.0000   0.0000   0.1174
  -7.700  -0.3768   0.07192   0.06997  -0.0500  0.9903  0.0177  -2.2211   0.0000   0.0000   0.0000   0.1117
  -7.600  -0.3688   0.07066   0.06871  -0.0520  0.9889  0.0180  -2.1622   0.0000   0.0000   0.0000   0.1034
  -7.500  -0.3603   0.06919   0.06724  -0.0545  0.9877  0.0183  -2.1158   0.0000   0.0000   0.0000   0.0931
  -7.400  -0.3514   0.06747   0.06551  -0.0576  0.9866  0.0187  -2.0832   0.0000   0.0000   0.0000   0.0805
  -7.300  -0.3415   0.06533   0.06337  -0.0617  0.9855  0.0190  -2.0668   0.0000   0.0000   0.0000   0.0639
  -7.200  -0.3308   0.06290   0.06092  -0.0662  0.9846  0.0194  -2.0626   0.0000   0.0000   0.0000   0.0442
  -7.100  -0.3192   0.06025   0.05824  -0.0710  0.9839  0.0197  -2.0680   0.0000   0.0000   0.0000   0.0219
  -7.000  -0.3123   0.05794   0.05590  -0.0742  0.9810  0.0200  -2.0841   0.0000   0.0000   0.0000   0.0066
  -6.900  -0.3027   0.05533   0.05326  -0.0781  0.9791  0.0203  -2.1023   0.0000   0.0000   0.0000  -0.0139
  -6.800  -0.2919   0.05262   0.05050  -0.0821  0.9776  0.0206  -2.1233   0.0000   0.0000   0.0000  -0.0370
  -6.700  -0.2805   0.04989   0.04771  -0.0859  0.9765  0.0210  -2.1462   0.0000   0.0000   0.0000  -0.0623
  -6.600  -0.2687   0.04721   0.04495  -0.0894  0.9754  0.0214  -2.1694   0.0000   0.0000   0.0000  -0.0891
  -6.500  -0.2570   0.04466   0.04232  -0.0925  0.9744  0.0219  -2.1913   0.0000   0.0000   0.0000  -0.1164
  -6.400  -0.2453   0.04226   0.03982  -0.0952  0.9734  0.0224  -2.2117   0.0000   0.0000   0.0000  -0.1449
  -6.300  -0.2333   0.03999   0.03745  -0.0976  0.9725  0.0230  -2.2304   0.0000   0.0000   0.0000  -0.1753
  -6.200  -0.2239   0.03812   0.03549  -0.0989  0.9707  0.0236  -2.2467   0.0000   0.0000   0.0000  -0.1991
  -6.100  -0.2167   0.03663   0.03390  -0.0993  0.9679  0.0242  -2.2594   0.0000   0.0000   0.0000  -0.2157
  -6.000  -0.2068   0.03540   0.03258  -0.0999  0.9659  0.0250  -2.2548   0.0000   0.0000   0.0000  -0.2409
  -5.900  -0.1948   0.03477   0.03187  -0.1003  0.9645  0.0259  -2.2245   0.0000   0.0000   0.0000  -0.2727
  -5.800  -0.1810   0.03496   0.03200  -0.1004  0.9633  0.0267  -2.1590   0.0000   0.0000   0.0000  -0.3134
  -5.700  -0.1692   0.03436   0.03130  -0.1010  0.9620  0.0270  -2.1234   0.0000   0.0000   0.0000  -0.3559
  -5.600  -0.1583   0.03336   0.03020  -0.1017  0.9606  0.0271  -2.1025   0.0000   0.0000   0.0000  -0.4019
  -5.500  -0.1476   0.03227   0.02899  -0.1023  0.9592  0.0271  -2.0844   0.0000   0.0000   0.0000  -0.4530
  -5.400  -0.1372   0.03117   0.02778  -0.1028  0.9579  0.0272  -2.0666   0.0000   0.0000   0.0000  -0.5100
  -5.300  -0.1280   0.03014   0.02665  -0.1031  0.9563  0.0272  -2.0493   0.0000   0.0000   0.0000  -0.5662
  -5.200  -0.1213   0.02925   0.02567  -0.1027  0.9537  0.0272  -2.0340   0.0000   0.0000   0.0000  -0.6081
  -5.100  -0.1244   0.02285   0.01880  -0.1033  0.9495  0.0293  -2.2584   0.0000   0.0000   0.0000  -0.5923
  -5.000  -0.1151   0.02195   0.01785  -0.1033  0.9477  0.0299  -2.2116   0.0000   0.0000   0.0000  -0.6606
  -4.900  -0.1051   0.02126   0.01710  -0.1034  0.9462  0.0305  -2.1582   0.0000   0.0000   0.0000  -0.7471
  -4.800  -0.0948   0.02066   0.01647  -0.1035  0.9448  0.0311  -2.1007   0.0000   0.0000   0.0000  -0.8562
  -4.700  -0.0842   0.02011   0.01588  -0.1035  0.9434  0.0317  -2.0435   0.0000   0.0000   0.0000  -0.9945
  -4.600  -0.0737   0.01958   0.01530  -0.1035  0.9421  0.0324  -1.9888   0.0000   0.0000   0.0000  -1.1732
  -4.500  -0.0631   0.01906   0.01473  -0.1035  0.9407  0.0331  -1.9370   0.0000   0.0000   0.0000  -1.4113
  -4.400  -0.0525   0.01858   0.01418  -0.1035  0.9393  0.0339  -1.8884   0.0000   0.0000   0.0000  -1.7447
  -4.300  -0.0430   0.01810   0.01361  -0.1032  0.9375  0.0348  -1.8496   0.0000   0.0000   0.0000  -2.1776
  -4.200  -0.0333   0.01763   0.01309  -0.1028  0.9356  0.0357  -1.8079   0.0000   0.0000   0.0000  -2.8724
  -4.100  -0.0233   0.01715   0.01254  -0.1026  0.9337  0.0365  -1.7691   0.0000   0.0000   0.0000  -4.1939
  -4.000  -0.0121   0.01278   0.00745  -0.1005  0.9316  0.0180  -2.2583   0.0000   0.0000   0.0000  -8.1296
  -3.900  -0.0013   0.01258   0.00720  -0.1002  0.9297  0.0172  -2.2103   0.0000   0.0000   0.0000  -79.5523
  -3.800   0.0097   0.01247   0.00707  -0.1000  0.9279  0.0167  -2.1422   0.0000   0.0000   0.0000  10.6611
  -3.700   0.0208   0.01239   0.00698  -0.0999  0.9262  0.0163  -2.0695   0.0000   0.0000   0.0000   5.1033
  -3.600   0.0319   0.01232   0.00690  -0.0997  0.9246  0.0161  -1.9956   0.0000   0.0000   0.0000   3.4047
  -3.500   0.0424   0.01173   0.00626  -0.0995  0.9230  0.0156  -1.9754   0.0000   0.0000   0.0000   2.6224
  -3.400   0.0524   0.01102   0.00548  -0.0991  0.9214  0.0153  -1.9705   0.0000   0.0000   0.0000   2.1614
  -3.300   0.0628   0.01057   0.00497  -0.0989  0.9198  0.0151  -1.9422   0.0000   0.0000   0.0000   1.8398
  -3.200   0.0732   0.01022   0.00457  -0.0987  0.9182  0.0150  -1.9062   0.0000   0.0000   0.0000   1.6098
  -3.100   0.0833   0.00992   0.00422  -0.0984  0.9165  0.0149  -1.8661   0.0000   0.0000   0.0000   1.4413
  -3.000   0.0936   0.00965   0.00392  -0.0981  0.9146  0.0148  -1.8224   0.0000   0.0000   0.0000   1.3078
  -2.900   0.1040   0.00942   0.00365  -0.0979  0.9126  0.0148  -1.7757   0.0000   0.0000   0.0000   1.1992
  -2.800   0.1146   0.00922   0.00340  -0.0977  0.9105  0.0148  -1.7264   0.0000   0.0000   0.0000   1.1093
  -2.700   0.1254   0.00905   0.00318  -0.0975  0.9084  0.0149  -1.6750   0.0000   0.0000   0.0000   1.0337
  -2.600   0.1362   0.00889   0.00298  -0.0973  0.9064  0.0151  -1.6221   0.0000   0.0000   0.0000   0.9696
  -2.500   0.1472   0.00875   0.00280  -0.0972  0.9044  0.0154  -1.5683   0.0000   0.0000   0.0000   0.9145
  -2.400   0.1583   0.00863   0.00264  -0.0970  0.9025  0.0158  -1.5136   0.0000   0.0000   0.0000   0.8669
  -2.300   0.1688   0.00814   0.00233  -0.0968  0.9006  0.0685  -1.5452   0.0000   0.0000   0.0000   0.8271
  -2.200   0.1795   0.00795   0.00226  -0.0967  0.8987  0.1018  -1.4724   0.0000   0.0000   0.0000   0.7921
  -2.100   0.1904   0.00780   0.00221  -0.0967  0.8966  0.1328  -1.3927   0.0000   0.0000   0.0000   0.7608
  -2.000   0.2010   0.00769   0.00218  -0.0966  0.8947  0.1547  -1.3128   0.0000   0.0000   0.0000   0.7332
  -1.900   0.2114   0.00756   0.00214  -0.0965  0.8926  0.1783  -1.2336   0.0000   0.0000   0.0000   0.7086
  -1.800   0.2220   0.00745   0.00209  -0.0964  0.8903  0.1993  -1.1540   0.0000   0.0000   0.0000   0.6862
  -1.700   0.2327   0.00737   0.00205  -0.0963  0.8879  0.2157  -1.0734   0.0000   0.0000   0.0000   0.6654
  -1.600   0.2438   0.00738   0.00195  -0.0962  0.8853  0.2029  -0.9802   0.0000   0.0000   0.0000   0.6458
  -1.500   0.2546   0.00725   0.00191  -0.0961  0.8828  0.2296  -0.9061   0.0000   0.0000   0.0000   0.6286
  -1.400   0.2653   0.00712   0.00186  -0.0960  0.8802  0.2612  -0.8329   0.0000   0.0000   0.0000   0.6129
  -1.300   0.2759   0.00696   0.00182  -0.0959  0.8777  0.2980  -0.7609   0.0000   0.0000   0.0000   0.5984
  -1.200   0.2867   0.00681   0.00178  -0.0958  0.8752  0.3371  -0.6896   0.0000   0.0000   0.0000   0.5849
  -1.100   0.2976   0.00668   0.00175  -0.0958  0.8726  0.3772  -0.6193   0.0000   0.0000   0.0000   0.5724
  -1.000   0.3082   0.00654   0.00174  -0.0957  0.8700  0.4188  -0.5511   0.0000   0.0000   0.0000   0.5609
  -0.900   0.3185   0.00638   0.00173  -0.0956  0.8673  0.4637  -0.4854   0.0000   0.0000   0.0000   0.5503
  -0.800   0.3284   0.00615   0.00172  -0.0954  0.8642  0.5347  -0.4904   0.0000   0.0000   0.0000   0.5406
  -0.700   0.3375   0.00585   0.00174  -0.0950  0.8610  0.6310  -0.4982   0.0000   0.0000   0.0000   0.5315
  -0.600   0.3459   0.00560   0.00180  -0.0943  0.8576  0.7270  -0.5063   0.0000   0.0000   0.0000   0.5225
  -0.500   0.3544   0.00548   0.00185  -0.0935  0.8542  0.7881  -0.5147   0.0000   0.0000   0.0000   0.5136
  -0.400   0.3638   0.00544   0.00186  -0.0929  0.8508  0.8206  -0.5235   0.0000   0.0000   0.0000   0.5050
  -0.300   0.3735   0.00540   0.00185  -0.0924  0.8475  0.8393  -0.5325   0.0000   0.0000   0.0000   0.4969
  -0.200   0.3839   0.00540   0.00184  -0.0921  0.8440  0.8526  -0.5419   0.0000   0.0000   0.0000   0.4893
  -0.100   0.3942   0.00538   0.00184  -0.0918  0.8407  0.8602  -0.5516   0.0000   0.0000   0.0000   0.4822
   0.000   0.4040   0.00534   0.00183  -0.0914  0.8367  0.8680  -0.5616   0.0000   0.0000   0.0000   0.4754
   0.100   0.4142   0.00531   0.00181  -0.0911  0.8323  0.8755  -0.5718   0.0000   0.0000   0.0000   0.4690
   0.200   0.4247   0.00529   0.00178  -0.0908  0.8276  0.8820  -0.5830   0.0000   0.0000   0.0000   0.4629
   0.300   0.4352   0.00528   0.00174  -0.0906  0.8230  0.8879  -0.5947   0.0000   0.0000   0.0000   0.4570
   0.400   0.4452   0.00524   0.00170  -0.0901  0.8183  0.8951  -0.6061   0.0000   0.0000   0.0000   0.4513
   0.500   0.4551   0.00522   0.00169  -0.0898  0.8139  0.9033  -0.6174   0.0000   0.0000   0.0000   0.4460
   0.600   0.4650   0.00520   0.00168  -0.0894  0.8086  0.9116  -0.6288   0.0000   0.0000   0.0000   0.4409
   0.700   0.4747   0.00516   0.00166  -0.0889  0.8023  0.9208  -0.6401   0.0000   0.0000   0.0000   0.4359
   0.800   0.4848   0.00513   0.00163  -0.0886  0.7953  0.9300  -0.6522   0.0000   0.0000   0.0000   0.4311
   0.900   0.4955   0.00512   0.00159  -0.0883  0.7881  0.9391  -0.6656   0.0000   0.0000   0.0000   0.4266
   1.000   0.5076   0.00511   0.00160  -0.0884  0.7814  0.9502  -0.6799   0.0000   0.0000   0.0000   0.4225
   1.100   0.5217   0.00509   0.00158  -0.0890  0.7731  0.9624  -0.6958   0.0000   0.0000   0.0000   0.4188
   1.200   0.5377   0.00509   0.00154  -0.0900  0.7637  0.9781  -0.7129   0.0000   0.0000   0.0000   0.4155
   1.300   0.5526   0.00512   0.00150  -0.0908  0.7545  1.0000  -0.7307   0.0000   0.0000   0.0000   0.4123
   1.400   0.5635   0.00515   0.00151  -0.0907  0.7463  1.0000  -0.7461   0.0000   0.0000   0.0000   0.4089
   1.500   0.5741   0.00519   0.00150  -0.0906  0.7360  1.0000  -0.7616   0.0000   0.0000   0.0000   0.4057
   1.600   0.5843   0.00526   0.00150  -0.0903  0.7249  1.0000  -0.7785   0.0000   0.0000   0.0000   0.4024
   1.700   0.5949   0.00532   0.00151  -0.0902  0.7151  1.0000  -0.7959   0.0000   0.0000   0.0000   0.3994
   1.800   0.6055   0.00537   0.00152  -0.0901  0.7042  1.0000  -0.8133   0.0000   0.0000   0.0000   0.3965
   1.900   0.6157   0.00546   0.00154  -0.0899  0.6929  1.0000  -0.8305   0.0000   0.0000   0.0000   0.3936
   2.000   0.6261   0.00553   0.00156  -0.0897  0.6831  1.0000  -0.8479   0.0000   0.0000   0.0000   0.3908
   2.100   0.6367   0.00558   0.00158  -0.0896  0.6726  1.0000  -0.8678   0.0000   0.0000   0.0000   0.3882
   2.200   0.6468   0.00568   0.00160  -0.0894  0.6603  1.0000  -0.8876   0.0000   0.0000   0.0000   0.3855
   2.300   0.6569   0.00577   0.00163  -0.0892  0.6488  1.0000  -0.9075   0.0000   0.0000   0.0000   0.3830
   2.400   0.6674   0.00583   0.00166  -0.0890  0.6373  1.0000  -0.9288   0.0000   0.0000   0.0000   0.3806
   2.500   0.6774   0.00594   0.00170  -0.0888  0.6245  1.0000  -0.9521   0.0000   0.0000   0.0000   0.3782
   2.600   0.6874   0.00604   0.00174  -0.0886  0.6128  1.0000  -0.9755   0.0000   0.0000   0.0000   0.3759
   2.700   0.6980   0.00610   0.00177  -0.0885  0.6020  1.0000  -1.0008   0.0000   0.0000   0.0000   0.3737
   2.800   0.7081   0.00620   0.00181  -0.0883  0.5901  1.0000  -1.0289   0.0000   0.0000   0.0000   0.3715
   2.900   0.7180   0.00632   0.00186  -0.0880  0.5784  1.0000  -1.0568   0.0000   0.0000   0.0000   0.3694
   3.000   0.7286   0.00638   0.00190  -0.0879  0.5686  1.0000  -1.0860   0.0000   0.0000   0.0000   0.3674
   3.100   0.7387   0.00648   0.00195  -0.0878  0.5558  1.0000  -1.1145   0.0000   0.0000   0.0000   0.3654
   3.200   0.7483   0.00662   0.00200  -0.0875  0.5419  1.0000  -1.1514   0.0000   0.0000   0.0000   0.3634
   3.300   0.7589   0.00669   0.00205  -0.0874  0.5319  1.0000  -1.1967   0.0000   0.0000   0.0000   0.3615
   3.400   0.7690   0.00679   0.00210  -0.0872  0.5193  1.0000  -1.2413   0.0000   0.0000   0.0000   0.3597
   3.600   0.7891   0.00702   0.00226  -0.0868  0.4948  1.0000  -1.3350   0.0000   0.0000   0.0000   0.3561
   3.700   0.7989   0.00714   0.00232  -0.0866  0.4802  1.0000  -1.3805   0.0000   0.0000   0.0000   0.3544
   3.800   0.8085   0.00729   0.00239  -0.0863  0.4652  1.0000  -1.4256   0.0000   0.0000   0.0000   0.3527
   3.900   0.8188   0.00739   0.00245  -0.0862  0.4526  1.0000  -1.4726   0.0000   0.0000   0.0000   0.3511
   4.000   0.8283   0.00755   0.00252  -0.0859  0.4373  1.0000  -1.5183   0.0000   0.0000   0.0000   0.3495
   4.100   0.8383   0.00767   0.00259  -0.0857  0.4251  1.0000  -1.5655   0.0000   0.0000   0.0000   0.3480
   4.200   0.8485   0.00777   0.00265  -0.0856  0.4132  1.0000  -1.6134   0.0000   0.0000   0.0000   0.3465
   4.300   0.8582   0.00793   0.00274  -0.0854  0.4001  1.0000  -1.6605   0.0000   0.0000   0.0000   0.3450
   4.400   0.8683   0.00804   0.00281  -0.0852  0.3894  1.0000  -1.7090   0.0000   0.0000   0.0000   0.3435
   4.500   0.8785   0.00815   0.00288  -0.0851  0.3785  1.0000  -1.7581   0.0000   0.0000   0.0000   0.3421
   4.600   0.8881   0.00831   0.00297  -0.0848  0.3650  1.0000  -1.8061   0.0000   0.0000   0.0000   0.3407
   4.700   0.8980   0.00844   0.00305  -0.0847  0.3522  1.0000  -1.8553   0.0000   0.0000   0.0000   0.3394
   4.800   0.9075   0.00862   0.00314  -0.0844  0.3352  1.0000  -1.9038   0.0000   0.0000   0.0000   0.3380
   4.900   0.9168   0.00881   0.00324  -0.0842  0.3175  1.0000  -1.9522   0.0000   0.0000   0.0000   0.3367
   5.000   0.9260   0.00902   0.00335  -0.0839  0.2993  1.0000  -2.0008   0.0000   0.0000   0.0000   0.3354
   5.100   0.9355   0.00920   0.00345  -0.0837  0.2839  1.0000  -2.0503   0.0000   0.0000   0.0000   0.3341
   5.200   0.9452   0.00936   0.00355  -0.0835  0.2708  1.0000  -2.1007   0.0000   0.0000   0.0000   0.3329
   5.300   0.9545   0.00955   0.00367  -0.0832  0.2566  1.0000  -2.1505   0.0000   0.0000   0.0000   0.3317
   5.400   0.9646   0.00968   0.00376  -0.0831  0.2473  1.0000  -2.2026   0.0000   0.0000   0.0000   0.3305
   5.500   0.9741   0.00986   0.00387  -0.0828  0.2347  1.0000  -2.2534   0.0000   0.0000   0.0000   0.3293
   5.600   0.9836   0.01004   0.00399  -0.0826  0.2228  1.0000  -2.3048   0.0000   0.0000   0.0000   0.3282
   5.700   0.9934   0.01018   0.00410  -0.0825  0.2126  1.0000  -2.3572   0.0000   0.0000   0.0000   0.3271
   5.800   1.0026   0.01040   0.00423  -0.0822  0.1995  1.0000  -2.4082   0.0000   0.0000   0.0000   0.3259
   5.900   1.0124   0.01055   0.00434  -0.0820  0.1899  1.0000  -2.4612   0.0000   0.0000   0.0000   0.3249
   6.000   1.0218   0.01074   0.00447  -0.0818  0.1786  1.0000  -2.5133   0.0000   0.0000   0.0000   0.3238
   6.100   1.0309   0.01096   0.00461  -0.0815  0.1657  1.0000  -2.5651   0.0000   0.0000   0.0000   0.3227
   6.200   1.0403   0.01115   0.00486  -0.0813  0.1546  1.0000  -2.6171   0.0000   0.0000   0.0000   0.3216
   6.300   1.0491   0.01141   0.00503  -0.0810  0.1410  1.0000  -2.6684   0.0000   0.0000   0.0000   0.3206
   6.400   1.0587   0.01158   0.00517  -0.0808  0.1324  1.0000  -2.7222   0.0000   0.0000   0.0000   0.3196
   6.500   1.0674   0.01184   0.00534  -0.0804  0.1207  1.0000  -2.7739   0.0000   0.0000   0.0000   0.3185
   6.600   1.0770   0.01201   0.00548  -0.0802  0.1123  1.0000  -2.8280   0.0000   0.0000   0.0000   0.3175
   6.700   1.0860   0.01223   0.00565  -0.0800  0.1034  1.0000  -2.8809   0.0000   0.0000   0.0000   0.3166
   6.800   1.0950   0.01246   0.00582  -0.0797  0.0940  1.0000  -2.9443   0.0000   0.0000   0.0000   0.3156
   6.900   1.1044   0.01263   0.00597  -0.0794  0.0878  1.0000  -3.0132   0.0000   0.0000   0.0000   0.3146
   7.000   1.1132   0.01288   0.00616  -0.0791  0.0798  1.0000  -3.0796   0.0000   0.0000   0.0000   0.3137
   7.100   1.1224   0.01308   0.00633  -0.0789  0.0731  1.0000  -3.1476   0.0000   0.0000   0.0000   0.3127
   7.200   1.1316   0.01328   0.00649  -0.0786  0.0677  1.0000  -3.2164   0.0000   0.0000   0.0000   0.3118
   7.300   1.1401   0.01355   0.00671  -0.0782  0.0603  1.0000  -3.2822   0.0000   0.0000   0.0000   0.3108
   7.400   1.1492   0.01375   0.00689  -0.0780  0.0550  1.0000  -3.3507   0.0000   0.0000   0.0000   0.3099
   7.500   1.1581   0.01397   0.00707  -0.0777  0.0504  1.0000  -3.4194   0.0000   0.0000   0.0000   0.3090
   7.600   1.1663   0.01428   0.00732  -0.0773  0.0439  1.0000  -3.4835   0.0000   0.0000   0.0000   0.3081
   7.700   1.1754   0.01448   0.00751  -0.0770  0.0406  1.0000  -3.5527   0.0000   0.0000   0.0000   0.3072
   7.800   1.1848   0.01463   0.00767  -0.0768  0.0386  1.0000  -3.6267   0.0000   0.0000   0.0000   0.3064
   7.900   1.1937   0.01484   0.00784  -0.0765  0.0361  1.0000  -3.6991   0.0000   0.0000   0.0000   0.3055
   8.000   1.2023   0.01508   0.00804  -0.0761  0.0333  1.0000  -3.7699   0.0000   0.0000   0.0000   0.3047
   8.100   1.2105   0.01537   0.00832  -0.0757  0.0300  1.0000  -3.8336   0.0000   0.0000   0.0000   0.3037
   8.200   1.2190   0.01562   0.00858  -0.0753  0.0283  1.0000  -3.9000   0.0000   0.0000   0.0000   0.3028
   8.300   1.2285   0.01574   0.00872  -0.0751  0.0280  1.0000  -3.9787   0.0000   0.0000   0.0000   0.3021
   8.400   1.2378   0.01589   0.00888  -0.0749  0.0276  1.0000  -4.0555   0.0000   0.0000   0.0000   0.3013
   8.500   1.2470   0.01604   0.00905  -0.0746  0.0272  1.0000  -4.1322   0.0000   0.0000   0.0000   0.3005
   8.600   1.2567   0.01613   0.00918  -0.0745  0.0263  1.0000  -4.2631   0.0000   0.0000   0.0000   0.2998
   8.700   1.2659   0.01627   0.00933  -0.0743  0.0255  1.0000  -4.3947   0.0000   0.0000   0.0000   0.2990
   8.800   1.2749   0.01644   0.00950  -0.0740  0.0248  1.0000  -4.5271   0.0000   0.0000   0.0000   0.2983
   8.900   1.2837   0.01662   0.00968  -0.0737  0.0242  1.0000  -4.6604   0.0000   0.0000   0.0000   0.2975
   9.000   1.2924   0.01681   0.00987  -0.0734  0.0235  1.0000  -4.7946   0.0000   0.0000   0.0000   0.2967
   9.100   1.3011   0.01700   0.01006  -0.0731  0.0228  1.0000  -4.9295   0.0000   0.0000   0.0000   0.2960
   9.200   1.3096   0.01720   0.01026  -0.0727  0.0221  1.0000  -5.0650   0.0000   0.0000   0.0000   0.2952
   9.300   1.3180   0.01741   0.01047  -0.0724  0.0214  1.0000  -5.2009   0.0000   0.0000   0.0000   0.2944
   9.400   1.3264   0.01762   0.01069  -0.0720  0.0207  1.0000  -5.3369   0.0000   0.0000   0.0000   0.2936
   9.500   1.3345   0.01785   0.01094  -0.0716  0.0200  1.0000  -5.4723   0.0000   0.0000   0.0000   0.2929
   9.600   1.3425   0.01809   0.01120  -0.0711  0.0193  1.0000  -5.6070   0.0000   0.0000   0.0000   0.2921
   9.700   1.3502   0.01835   0.01149  -0.0707  0.0186  1.0000  -5.7403   0.0000   0.0000   0.0000   0.2913
   9.800   1.3576   0.01862   0.01180  -0.0702  0.0180  1.0000  -5.8719   0.0000   0.0000   0.0000   0.2905
   9.900   1.3659   0.01881   0.01199  -0.0698  0.0177  1.0000  -6.0150   0.0000   0.0000   0.0000   0.2897
  10.000   1.3751   0.01890   0.01209  -0.0696  0.0176  1.0000  -6.1697   0.0000   0.0000   0.0000   0.2891
  10.100   1.3841   0.01900   0.01220  -0.0693  0.0175  1.0000  -6.3245   0.0000   0.0000   0.0000   0.2884
  10.200   1.3931   0.01911   0.01232  -0.0691  0.0173  1.0000  -6.4785   0.0000   0.0000   0.0000   0.2878
  10.300   1.4018   0.01923   0.01244  -0.0688  0.0170  1.0000  -6.6315   0.0000   0.0000   0.0000   0.2871
  10.400   1.4105   0.01936   0.01258  -0.0685  0.0166  1.0000  -6.7826   0.0000   0.0000   0.0000   0.2864
  10.500   1.4189   0.01950   0.01273  -0.0682  0.0160  1.0000  -6.9303   0.0000   0.0000   0.0000   0.2858
  10.600   1.4269   0.01968   0.01291  -0.0678  0.0150  1.0000  -7.0705   0.0000   0.0000   0.0000   0.2851
  10.700   1.4340   0.01991   0.01312  -0.0673  0.0134  1.0000  -7.1987   0.0000   0.0000   0.0000   0.2843
  10.800   1.4395   0.02025   0.01342  -0.0665  0.0108  1.0000  -7.3105   0.0000   0.0000   0.0000   0.2834
  10.900   1.4433   0.02072   0.01383  -0.0655  0.0073  1.0000  -7.4082   0.0000   0.0000   0.0000   0.2825
  11.000   1.4461   0.02125   0.01434  -0.0643  0.0049  1.0000  -7.4980   0.0000   0.0000   0.0000   0.2814
  11.100   1.4510   0.02161   0.01471  -0.0635  0.0041  1.0000  -7.6040   0.0000   0.0000   0.0000   0.2805
  11.200   1.4563   0.02194   0.01508  -0.0626  0.0039  1.0000  -7.7154   0.0000   0.0000   0.0000   0.2796
  11.300   1.4614   0.02228   0.01545  -0.0618  0.0037  1.0000  -7.8274   0.0000   0.0000   0.0000   0.2787
  11.400   1.4675   0.02254   0.01579  -0.0611  0.0037  1.0000  -7.9753   0.0000   0.0000   0.0000   0.2780
  11.500   1.4726   0.02287   0.01616  -0.0603  0.0036  1.0000  -8.0928   0.0000   0.0000   0.0000   0.2771
  11.600   1.4775   0.02322   0.01656  -0.0595  0.0035  1.0000  -8.2081   0.0000   0.0000   0.0000   0.2762
  11.700   1.4822   0.02358   0.01696  -0.0587  0.0034  1.0000  -8.3223   0.0000   0.0000   0.0000   0.2754
  11.800   1.4869   0.02395   0.01737  -0.0578  0.0034  1.0000  -8.4362   0.0000   0.0000   0.0000   0.2745
  11.900   1.4914   0.02432   0.01779  -0.0570  0.0033  1.0000  -8.5495   0.0000   0.0000   0.0000   0.2737
  12.000   1.4957   0.02471   0.01823  -0.0562  0.0032  1.0000  -8.6620   0.0000   0.0000   0.0000   0.2729
  12.100   1.4999   0.02511   0.01869  -0.0553  0.0032  1.0000  -8.7742   0.0000   0.0000   0.0000   0.2720
  12.200   1.5041   0.02553   0.01915  -0.0545  0.0032  1.0000  -8.8859   0.0000   0.0000   0.0000   0.2712
  12.300   1.5080   0.02596   0.01964  -0.0537  0.0031  1.0000  -8.9955   0.0000   0.0000   0.0000   0.2704
  12.400   1.5116   0.02641   0.02014  -0.0528  0.0031  1.0000  -9.1031   0.0000   0.0000   0.0000   0.2696
  12.500   1.5150   0.02688   0.02066  -0.0519  0.0031  1.0000  -9.2096   0.0000   0.0000   0.0000   0.2687
  12.600   1.5183   0.02736   0.02121  -0.0511  0.0030  1.0000  -9.3154   0.0000   0.0000   0.0000   0.2679
  12.700   1.5214   0.02787   0.02177  -0.0502  0.0030  1.0000  -9.4186   0.0000   0.0000   0.0000   0.2671
  12.800   1.5241   0.02840   0.02237  -0.0494  0.0030  1.0000  -9.5194   0.0000   0.0000   0.0000   0.2663
  12.900   1.5267   0.02896   0.02299  -0.0485  0.0030  1.0000  -9.6187   0.0000   0.0000   0.0000   0.2655
  13.000   1.5291   0.02955   0.02364  -0.0477  0.0030  1.0000  -9.7161   0.0000   0.0000   0.0000   0.2648
  13.100   1.5310   0.03017   0.02432  -0.0468  0.0030  1.0000  -9.8094   0.0000   0.0000   0.0000   0.2640
  13.200   1.5326   0.03083   0.02504  -0.0460  0.0030  1.0000  -9.8990   0.0000   0.0000   0.0000   0.2632
  13.300   1.5338   0.03150   0.02578  -0.0451  0.0029  1.0000  -9.9860   0.0000   0.0000   0.0000   0.2624
  13.400   1.5348   0.03221   0.02655  -0.0443  0.0029  1.0000  -10.0708   0.0000   0.0000   0.0000   0.2617
  13.500   1.5352   0.03298   0.02738  -0.0434  0.0029  1.0000  -10.1495   0.0000   0.0000   0.0000   0.2609
  13.600   1.5355   0.03378   0.02825  -0.0426  0.0029  1.0000  -10.2259   0.0000   0.0000   0.0000   0.2602
  13.700   1.5356   0.03462   0.02915  -0.0418  0.0029  1.0000  -10.3013   0.0000   0.0000   0.0000   0.2595
  13.800   1.5353   0.03551   0.03011  -0.0411  0.0029  1.0000  -10.3715   0.0000   0.0000   0.0000   0.2588
  13.900   1.5345   0.03646   0.03113  -0.0403  0.0029  1.0000  -10.4371   0.0000   0.0000   0.0000   0.2582
  14.000   1.5337   0.03744   0.03218  -0.0396  0.0029  1.0000  -10.5017   0.0000   0.0000   0.0000   0.2576
  14.100   1.5325   0.03848   0.03329  -0.0390  0.0029  1.0000  -10.5621   0.0000   0.0000   0.0000   0.2570
  14.200   1.5307   0.03959   0.03447  -0.0384  0.0029  1.0000  -10.6166   0.0000   0.0000   0.0000   0.2564
  14.300   1.5289   0.04073   0.03569  -0.0379  0.0029  1.0000  -10.6704   0.0000   0.0000   0.0000   0.2559
  14.400   1.5266   0.04195   0.03698  -0.0374  0.0029  1.0000  -10.7187   0.0000   0.0000   0.0000   0.2554
  14.500   1.5238   0.04324   0.03834  -0.0370  0.0029  1.0000  -10.7615   0.0000   0.0000   0.0000   0.2550
  14.600   1.5209   0.04455   0.03972  -0.0366  0.0029  1.0000  -10.8021   0.0000   0.0000   0.0000   0.2546
  14.700   1.5172   0.04598   0.04123  -0.0363  0.0029  1.0000  -10.8348   0.0000   0.0000   0.0000   0.2542
  14.800   1.5136   0.04746   0.04279  -0.0361  0.0029  1.0000  -10.8676   0.0000   0.0000   0.0000   0.2539
  14.900   1.5097   0.04904   0.04445  -0.0360  0.0030  1.0000  -10.8953   0.0000   0.0000   0.0000   0.2537
  15.000   1.5055   0.05071   0.04619  -0.0360  0.0030  1.0000  -10.9192   0.0000   0.0000   0.0000   0.2536
  15.100   1.5012   0.05244   0.04800  -0.0361  0.0030  1.0000  -10.9413   0.0000   0.0000   0.0000   0.2535
  15.200   1.4963   0.05431   0.04994  -0.0364  0.0030  1.0000  -10.9561   0.0000   0.0000   0.0000   0.2535
  15.300   1.4917   0.05620   0.05190  -0.0366  0.0030  1.0000  -10.9715   0.0000   0.0000   0.0000   0.2536
  15.400   1.4863   0.05826   0.05404  -0.0371  0.0030  1.0000  -10.9777   0.0000   0.0000   0.0000   0.2538
  15.500   1.4812   0.06032   0.05618  -0.0376  0.0030  1.0000  -10.9854   0.0000   0.0000   0.0000   0.2539
  15.600   1.4753   0.06257   0.05851  -0.0383  0.0030  1.0000  -10.9837   0.0000   0.0000   0.0000   0.2543
  15.700   1.4697   0.06483   0.06084  -0.0390  0.0030  1.0000  -10.9823   0.0000   0.0000   0.0000   0.2546
  15.800   1.4634   0.06725   0.06334  -0.0399  0.0030  1.0000  -10.9729   0.0000   0.0000   0.0000   0.2551
  15.900   1.4572   0.06970   0.06586  -0.0408  0.0030  1.0000  -10.9623   0.0000   0.0000   0.0000   0.2557
  16.000   1.4506   0.07228   0.06852  -0.0418  0.0030  1.0000  -10.9452   0.0000   0.0000   0.0000   0.2563
  16.100   1.4439   0.07492   0.07123  -0.0430  0.0030  1.0000  -10.9251   0.0000   0.0000   0.0000   0.2570
  16.200   1.4370   0.07764   0.07403  -0.0442  0.0030  1.0000  -10.9007   0.0000   0.0000   0.0000   0.2578
  16.300   1.4296   0.08047   0.07693  -0.0455  0.0030  1.0000  -10.8701   0.0000   0.0000   0.0000   0.2586
  16.400   1.4222   0.08328   0.07981  -0.0468  0.0030  1.0000  -10.8369   0.0000   0.0000   0.0000   0.2595
  16.500   1.4142   0.08627   0.08287  -0.0483  0.0030  1.0000  -10.7951   0.0000   0.0000   0.0000   0.2605
  16.600   1.4066   0.08921   0.08588  -0.0497  0.0030  1.0000  -10.7561   0.0000   0.0000   0.0000   0.2615
  16.700   1.3983   0.09243   0.08917  -0.0513  0.0031  1.0000  -10.7052   0.0000   0.0000   0.0000   0.2627
  16.800   1.3907   0.09551   0.09231  -0.0529  0.0031  1.0000  -10.6602   0.0000   0.0000   0.0000   0.2638
  16.900   1.3821   0.09891   0.09578  -0.0547  0.0031  1.0000  -10.6003   0.0000   0.0000   0.0000   0.2652
  17.000   1.3743   0.10213   0.09907  -0.0564  0.0031  1.0000  -10.5473   0.0000   0.0000   0.0000   0.2664
  17.100   1.3657   0.10562   0.10262  -0.0583  0.0031  1.0000  -10.4809   0.0000   0.0000   0.0000   0.2679
  17.200   1.3576   0.10901   0.10607  -0.0601  0.0031  1.0000  -10.4183   0.0000   0.0000   0.0000   0.2693
  17.300   1.3492   0.11251   0.10963  -0.0620  0.0031  1.0000  -10.3486   0.0000   0.0000   0.0000   0.2708
  17.400   1.3407   0.11607   0.11326  -0.0640  0.0031  1.0000  -10.2737   0.0000   0.0000   0.0000   0.2724
  17.500   1.3328   0.11950   0.11675  -0.0659  0.0031  1.0000  -10.2037   0.0000   0.0000   0.0000   0.2740
  17.600   1.3238   0.12327   0.12057  -0.0681  0.0031  1.0000  -10.1148   0.0000   0.0000   0.0000   0.2758
  17.700   1.3159   0.12677   0.12412  -0.0701  0.0031  1.0000  -10.0375   0.0000   0.0000   0.0000   0.2774
  17.800   1.3072   0.13052   0.12793  -0.0722  0.0031  1.0000  -9.9445   0.0000   0.0000   0.0000   0.2793
  17.900   1.2989   0.13418   0.13165  -0.0743  0.0031  1.0000  -9.8539   0.0000   0.0000   0.0000   0.2811
  18.000   1.2911   0.13774   0.13525  -0.0764  0.0031  1.0000  -9.7670   0.0000   0.0000   0.0000   0.2829
  18.100   1.2822   0.14169   0.13925  -0.0787  0.0031  1.0000  -9.6557   0.0000   0.0000   0.0000   0.2850
  18.200   1.2744   0.14530   0.14292  -0.0808  0.0031  1.0000  -9.5599   0.0000   0.0000   0.0000   0.2869
  18.300   1.2662   0.14911   0.14677  -0.0831  0.0032  1.0000  -9.4511   0.0000   0.0000   0.0000   0.2890
  18.400   1.2577   0.15302   0.15074  -0.0854  0.0032  1.0000  -9.3324   0.0000   0.0000   0.0000   0.2912
  18.500   1.2502   0.15668   0.15445  -0.0876  0.0032  1.0000  -9.2262   0.0000   0.0000   0.0000   0.2932
  18.600   1.2416   0.16068   0.15848  -0.0900  0.0032  1.0000  -9.0931   0.0000   0.0000   0.0000   0.2955
  18.700   1.2339   0.16431   0.16216  -0.0924  0.0032  1.0000  -8.9676   0.0000   0.0000   0.0000   0.2978
  18.800   1.2268   0.16779   0.16568  -0.0946  0.0032  1.0000  -8.8472   0.0000   0.0000   0.0000   0.3000
  18.900   1.2180   0.17188   0.16982  -0.0972  0.0032  1.0000  -8.6862   0.0000   0.0000   0.0000   0.3026
  19.000   1.2103   0.17576   0.17374  -0.0996  0.0032  1.0000  -8.5407   0.0000   0.0000   0.0000   0.3051
  19.100   1.2027   0.17974   0.17777  -0.1021  0.0032  1.0000  -8.3898   0.0000   0.0000   0.0000   0.3075
  19.200   1.1928   0.18461   0.18268  -0.1049  0.0033  1.0000  -8.1790   0.0000   0.0000   0.0000   0.3106
  19.300   1.1846   0.18910   0.18720  -0.1075  0.0033  1.0000  -7.9950   0.0000   0.0000   0.0000   0.3134
  19.400   1.1737   0.19464   0.19279  -0.1106  0.0033  1.0000  -7.7364   0.0000   0.0000   0.0000   0.3169
  19.500   1.1631   0.20031   0.19850  -0.1136  0.0033  1.0000  -7.4674   0.0000   0.0000   0.0000   0.3205
  19.600   1.1473   0.20820   0.20645  -0.1176  0.0034  1.0000  -7.0338   0.0000   0.0000   0.0000   0.3256
  19.900   1.0552   0.26096   0.25917  -0.1368  0.0043  1.0000  -3.2819   0.0000   0.0000   0.0000   0.3559
  20.000   1.0576   0.26267   0.26087  -0.1375  0.0044  1.0000  -3.3078   0.0000   0.0000   0.0000   0.3561
  20.100   1.0599   0.26445   0.26266  -0.1383  0.0044  1.0000  -3.3272   0.0000   0.0000   0.0000   0.3563
  20.200   1.0620   0.26650   0.26471  -0.1390  0.0046  1.0000  -3.3222   0.0000   0.0000   0.0000   0.3565
  21.700   1.0611   0.31780   0.31599  -0.1517  0.0096  1.0000  -2.0046   0.0000   0.0000   0.0000   0.3672
  21.800   1.0621   0.32020   0.31839  -0.1524  0.0095  1.0000  -1.9928   0.0000   0.0000   0.0000   0.3676
  21.900   1.0630   0.32260   0.32079  -0.1531  0.0095  1.0000  -1.9811   0.0000   0.0000   0.0000   0.3679
  22.000   1.0639   0.32499   0.32319  -0.1538  0.0095  1.0000  -1.9696   0.0000   0.0000   0.0000   0.3683
  22.100   1.0647   0.32738   0.32558  -0.1545  0.0095  1.0000  -1.9583   0.0000   0.0000   0.0000   0.3687
  22.200   1.0654   0.32976   0.32797  -0.1552  0.0095  1.0000  -1.9471   0.0000   0.0000   0.0000   0.3691
  22.300   1.0661   0.33214   0.33035  -0.1558  0.0095  1.0000  -1.9361   0.0000   0.0000   0.0000   0.3694
  22.400   1.0667   0.33451   0.33272  -0.1565  0.0095  1.0000  -1.9252   0.0000   0.0000   0.0000   0.3698
  22.500   1.0673   0.33687   0.33508  -0.1572  0.0095  1.0000  -1.9144   0.0000   0.0000   0.0000   0.3702
  22.600   1.0677   0.33922   0.33744  -0.1578  0.0095  1.0000  -1.9033   0.0000   0.0000   0.0000   0.3706
  22.700   1.0681   0.34155   0.33978  -0.1584  0.0094  1.0000  -1.8923   0.0000   0.0000   0.0000   0.3709
  22.800   1.0683   0.34387   0.34210  -0.1591  0.0094  1.0000  -1.8814   0.0000   0.0000   0.0000   0.3713
  22.900   1.0685   0.34617   0.34441  -0.1597  0.0094  1.0000  -1.8705   0.0000   0.0000   0.0000   0.3717
  23.000   1.0686   0.34845   0.34669  -0.1603  0.0094  1.0000  -1.8597   0.0000   0.0000   0.0000   0.3721
  23.100   1.0685   0.35072   0.34896  -0.1609  0.0093  1.0000  -1.8477   0.0000   0.0000   0.0000   0.3725
  23.200   1.0682   0.35297   0.35122  -0.1615  0.0093  1.0000  -1.8342   0.0000   0.0000   0.0000   0.3729
  23.300   1.0678   0.35524   0.35349  -0.1621  0.0092  1.0000  -1.8162   0.0000   0.0000   0.0000   0.3734
  23.400   1.0673   0.35748   0.35574  -0.1627  0.0091  1.0000  -1.7969   0.0000   0.0000   0.0000   0.3739
  23.500   1.0667   0.35970   0.35796  -0.1633  0.0090  1.0000  -1.7750   0.0000   0.0000   0.0000   0.3745
  23.600   1.0662   0.36195   0.36021  -0.1639  0.0088  1.0000  -1.7488   0.0000   0.0000   0.0000   0.3750
  23.700   1.0650   0.36420   0.36250  -0.1644  0.0085  1.0000  -1.7237   0.0000   0.0000   0.0000   0.3754
  23.800   1.0628   0.36636   0.36467  -0.1646  0.0083  1.0000  -1.6999   0.0000   0.0000   0.0000   0.3759
  23.900   1.0592   0.36834   0.36666  -0.1647  0.0080  1.0000  -1.6776   0.0000   0.0000   0.0000   0.3763
  24.000   1.0525   0.36992   0.36825  -0.1643  0.0078  1.0000  -1.6511   0.0000   0.0000   0.0000   0.3769
  24.400   0.9081   0.33806   0.33654  -0.1452  0.0078  1.0000  -1.2840   0.0000   0.0000   0.0000   0.3826
  24.500   0.9052   0.33819   0.33671  -0.1452  0.0076  1.0000  -1.2705   0.0000   0.0000   0.0000   0.3830
  24.600   0.9024   0.33833   0.33686  -0.1452  0.0075  1.0000  -1.2580   0.0000   0.0000   0.0000   0.3834
  24.700   0.8999   0.33850   0.33704  -0.1452  0.0073  1.0000  -1.2467   0.0000   0.0000   0.0000   0.3838
  24.800   0.8975   0.33869   0.33723  -0.1453  0.0071  1.0000  -1.2365   0.0000   0.0000   0.0000   0.3841
  24.900   0.8952   0.33889   0.33744  -0.1454  0.0070  1.0000  -1.2272   0.0000   0.0000   0.0000   0.3845
  25.000   0.8931   0.33911   0.33767  -0.1454  0.0068  1.0000  -1.2188   0.0000   0.0000   0.0000   0.3849
  25.100   0.8911   0.33935   0.33791  -0.1455  0.0067  1.0000  -1.2112   0.0000   0.0000   0.0000   0.3852
  25.200   0.8891   0.33959   0.33817  -0.1457  0.0066  1.0000  -1.2045   0.0000   0.0000   0.0000   0.3856
  25.300   0.8873   0.33985   0.33843  -0.1458  0.0064  1.0000  -1.1986   0.0000   0.0000   0.0000   0.3859
  25.400   0.8856   0.34012   0.33871  -0.1459  0.0063  1.0000  -1.1933   0.0000   0.0000   0.0000   0.3863
  25.500   0.8840   0.34040   0.33899  -0.1461  0.0062  1.0000  -1.1886   0.0000   0.0000   0.0000   0.3866
  25.600   0.8825   0.34069   0.33929  -0.1463  0.0061  1.0000  -1.1846   0.0000   0.0000   0.0000   0.3869
  25.700   0.8810   0.34098   0.33959  -0.1464  0.0060  1.0000  -1.1812   0.0000   0.0000   0.0000   0.3872
  25.800   0.8796   0.34129   0.33990  -0.1466  0.0059  1.0000  -1.1783   0.0000   0.0000   0.0000   0.3876
  25.900   0.8783   0.34159   0.34021  -0.1468  0.0058  1.0000  -1.1761   0.0000   0.0000   0.0000   0.3879
  26.000   0.8770   0.34191   0.34053  -0.1470  0.0057  1.0000  -1.1744   0.0000   0.0000   0.0000   0.3882
  26.100   0.8758   0.34223   0.34086  -0.1472  0.0056  1.0000  -1.1732   0.0000   0.0000   0.0000   0.3885
  26.200   0.8746   0.34255   0.34118  -0.1474  0.0055  1.0000  -1.1727   0.0000   0.0000   0.0000   0.3888
  26.300   0.8735   0.34287   0.34151  -0.1476  0.0055  1.0000  -1.1728   0.0000   0.0000   0.0000   0.3891
  26.400   0.8724   0.34320   0.34185  -0.1478  0.0054  1.0000  -1.1734   0.0000   0.0000   0.0000   0.3894
  26.500   0.8714   0.34353   0.34218  -0.1481  0.0053  1.0000  -1.1747   0.0000   0.0000   0.0000   0.3896
  26.600   0.8704   0.34386   0.34252  -0.1483  0.0053  1.0000  -1.1765   0.0000   0.0000   0.0000   0.3899
  26.700   0.8695   0.34419   0.34285  -0.1485  0.0052  1.0000  -1.1788   0.0000   0.0000   0.0000   0.3902
  26.800   0.8686   0.34452   0.34319  -0.1488  0.0051  1.0000  -1.1818   0.0000   0.0000   0.0000   0.3904
  26.900   0.8677   0.34484   0.34352  -0.1490  0.0051  1.0000  -1.1854   0.0000   0.0000   0.0000   0.3907
  27.000   0.8668   0.34517   0.34385  -0.1493  0.0050  1.0000  -1.1895   0.0000   0.0000   0.0000   0.3910
  27.100   0.8660   0.34549   0.34418  -0.1495  0.0050  1.0000  -1.1943   0.0000   0.0000   0.0000   0.3912
  27.200   0.8652   0.34581   0.34450  -0.1497  0.0049  1.0000  -1.1997   0.0000   0.0000   0.0000   0.3915
  27.300   0.8644   0.34612   0.34482  -0.1500  0.0049  1.0000  -1.2056   0.0000   0.0000   0.0000   0.3917
  27.400   0.8637   0.34643   0.34514  -0.1502  0.0048  1.0000  -1.2122   0.0000   0.0000   0.0000   0.3919
  27.500   0.8629   0.34673   0.34544  -0.1505  0.0048  1.0000  -1.2193   0.0000   0.0000   0.0000   0.3921
  27.600   0.8622   0.34702   0.34574  -0.1507  0.0047  1.0000  -1.2269   0.0000   0.0000   0.0000   0.3924
  27.700   0.8615   0.34731   0.34603  -0.1509  0.0047  1.0000  -1.2351   0.0000   0.0000   0.0000   0.3926
  27.800   0.8607   0.34758   0.34631  -0.1512  0.0046  1.0000  -1.2437   0.0000   0.0000   0.0000   0.3928
  27.900   0.8600   0.34784   0.34658  -0.1514  0.0046  1.0000  -1.2526   0.0000   0.0000   0.0000   0.3929
  28.000   0.8592   0.34808   0.34683  -0.1516  0.0045  1.0000  -1.2617   0.0000   0.0000   0.0000   0.3931
  28.100   0.8584   0.34831   0.34706  -0.1518  0.0045  1.0000  -1.2706   0.0000   0.0000   0.0000   0.3933
  28.200   0.8575   0.34851   0.34727  -0.1519  0.0045  1.0000  -1.2787   0.0000   0.0000   0.0000   0.3934
  28.300   0.8562   0.34872   0.34748  -0.1520  0.0044  1.0000  -1.2790   0.0000   0.0000   0.0000   0.3936


