xflr5 v6.61

 Calculated polar for: SD2030-086-88

 1 1 Reynolds number fixed          Mach number fixed         

 xtrf =   1.000 (top)        1.000 (bottom)
 Mach =   0.000     Re =     0.160 e 6     Ncrit =   9.000

  alpha     CL        CD       CDp       Cm    Top Xtr Bot Xtr   Cpmin    Chinge    XCp    
 ------- -------- --------- --------- -------- ------- ------- -------- --------- ---------
  -9.300  -0.4168   0.10107   0.09692  -0.0304  1.0000  0.0514  -1.4318   0.0000   0.0000   0.0000   0.1715
  -9.200  -0.4150   0.10021   0.09607  -0.0302  1.0000  0.0535  -1.4083   0.0000   0.0000   0.0000   0.1716
  -9.100  -0.4143   0.09920   0.09508  -0.0304  1.0000  0.0551  -1.4020   0.0000   0.0000   0.0000   0.1712
  -9.000  -0.4142   0.09814   0.09403  -0.0306  1.0000  0.0564  -1.4030   0.0000   0.0000   0.0000   0.1707
  -8.900  -0.4144   0.09706   0.09297  -0.0309  1.0000  0.0575  -1.4081   0.0000   0.0000   0.0000   0.1702
  -8.800  -0.4150   0.09596   0.09190  -0.0312  1.0000  0.0584  -1.4162   0.0000   0.0000   0.0000   0.1697
  -8.700  -0.4158   0.09487   0.09082  -0.0316  1.0000  0.0593  -1.4265   0.0000   0.0000   0.0000   0.1691
  -8.600  -0.4169   0.09378   0.08976  -0.0319  1.0000  0.0601  -1.4387   0.0000   0.0000   0.0000   0.1686
  -8.500  -0.4183   0.09271   0.08872  -0.0323  1.0000  0.0608  -1.4526   0.0000   0.0000   0.0000   0.1681
  -8.400  -0.4202   0.09169   0.08771  -0.0326  1.0000  0.0615  -1.4685   0.0000   0.0000   0.0000   0.1677
  -8.300  -0.4227   0.09071   0.08676  -0.0330  1.0000  0.0621  -1.4863   0.0000   0.0000   0.0000   0.1674
  -8.200  -0.4257   0.08979   0.08588  -0.0333  1.0000  0.0627  -1.5053   0.0000   0.0000   0.0000   0.1674
  -8.100  -0.4293   0.08895   0.08507  -0.0335  1.0000  0.0632  -1.5255   0.0000   0.0000   0.0000   0.1676
  -8.000  -0.4340   0.08818   0.08433  -0.0337  1.0000  0.0637  -1.5470   0.0000   0.0000   0.0000   0.1684
  -7.900  -0.4397   0.08746   0.08365  -0.0336  1.0000  0.0640  -1.5690   0.0000   0.0000   0.0000   0.1697
  -7.800  -0.4465   0.08674   0.08297  -0.0334  1.0000  0.0642  -1.5914   0.0000   0.0000   0.0000   0.1715
  -7.700  -0.4530   0.08593   0.08219  -0.0335  1.0000  0.0645  -1.6152   0.0000   0.0000   0.0000   0.1725
  -7.600  -0.4573   0.08498   0.08126  -0.0343  1.0000  0.0648  -1.6410   0.0000   0.0000   0.0000   0.1716
  -7.500  -0.4600   0.08425   0.08053  -0.0348  1.0000  0.0653  -1.6605   0.0000   0.0000   0.0000   0.1712
  -7.400  -0.4626   0.08354   0.07982  -0.0351  1.0000  0.0656  -1.6785   0.0000   0.0000   0.0000   0.1710
  -7.300  -0.4649   0.08280   0.07907  -0.0352  1.0000  0.0659  -1.6949   0.0000   0.0000   0.0000   0.1712
  -7.200  -0.4672   0.08200   0.07825  -0.0352  1.0000  0.0661  -1.7099   0.0000   0.0000   0.0000   0.1717
  -7.100  -0.4692   0.08115   0.07739  -0.0350  1.0000  0.0663  -1.7236   0.0000   0.0000   0.0000   0.1724
  -7.000  -0.4710   0.08025   0.07647  -0.0348  1.0000  0.0664  -1.7361   0.0000   0.0000   0.0000   0.1732
  -6.900  -0.4726   0.07932   0.07551  -0.0346  1.0000  0.0665  -1.7476   0.0000   0.0000   0.0000   0.1741
  -6.800  -0.4740   0.07835   0.07452  -0.0343  1.0000  0.0666  -1.7581   0.0000   0.0000   0.0000   0.1750
  -6.700  -0.4751   0.07734   0.07349  -0.0339  1.0000  0.0667  -1.7676   0.0000   0.0000   0.0000   0.1759
  -6.600  -0.4758   0.07631   0.07243  -0.0336  1.0000  0.0667  -1.7762   0.0000   0.0000   0.0000   0.1768
  -6.500  -0.4763   0.07526   0.07134  -0.0332  1.0000  0.0668  -1.7839   0.0000   0.0000   0.0000   0.1777
  -6.400  -0.4765   0.07418   0.07023  -0.0328  1.0000  0.0668  -1.7906   0.0000   0.0000   0.0000   0.1786
  -6.300  -0.4763   0.07308   0.06909  -0.0324  1.0000  0.0669  -1.7965   0.0000   0.0000   0.0000   0.1794
  -6.200  -0.4758   0.07196   0.06792  -0.0321  1.0000  0.0669  -1.8016   0.0000   0.0000   0.0000   0.1802
  -6.100  -0.4952   0.06348   0.05947  -0.0336  1.0000  0.0692  -1.9456   0.0000   0.0000   0.0000   0.1797
  -6.000  -0.4960   0.06134   0.05734  -0.0333  1.0000  0.0701  -1.9427   0.0000   0.0000   0.0000   0.1805
  -5.900  -0.4940   0.05990   0.05593  -0.0326  1.0000  0.0708  -1.9165   0.0000   0.0000   0.0000   0.1816
  -5.800  -0.4915   0.05873   0.05478  -0.0319  1.0000  0.0716  -1.8869   0.0000   0.0000   0.0000   0.1827
  -5.700  -0.4888   0.05766   0.05373  -0.0313  1.0000  0.0723  -1.8586   0.0000   0.0000   0.0000   0.1838
  -5.600  -0.4860   0.05665   0.05273  -0.0307  1.0000  0.0732  -1.8319   0.0000   0.0000   0.0000   0.1847
  -5.500  -0.4830   0.05566   0.05174  -0.0301  1.0000  0.0740  -1.8072   0.0000   0.0000   0.0000   0.1855
  -5.400  -0.4799   0.05468   0.05074  -0.0296  1.0000  0.0750  -1.7844   0.0000   0.0000   0.0000   0.1862
  -5.300  -0.4764   0.05369   0.04973  -0.0293  1.0000  0.0761  -1.7638   0.0000   0.0000   0.0000   0.1866
  -5.200  -0.4726   0.05269   0.04871  -0.0289  1.0000  0.0773  -1.7442   0.0000   0.0000   0.0000   0.1869
  -5.100  -0.4685   0.05168   0.04767  -0.0286  1.0000  0.0786  -1.7263   0.0000   0.0000   0.0000   0.1869
  -5.000  -0.4639   0.05065   0.04660  -0.0284  1.0000  0.0801  -1.7106   0.0000   0.0000   0.0000   0.1868
  -4.900  -0.4590   0.04962   0.04552  -0.0283  1.0000  0.0818  -1.6970   0.0000   0.0000   0.0000   0.1865
  -4.800  -0.4536   0.04859   0.04442  -0.0282  1.0000  0.0837  -1.6853   0.0000   0.0000   0.0000   0.1859
  -4.700  -0.4475   0.04762   0.04337  -0.0282  1.0000  0.0860  -1.6757   0.0000   0.0000   0.0000   0.1852
  -4.600  -0.4402   0.04688   0.04252  -0.0281  1.0000  0.0888  -1.6680   0.0000   0.0000   0.0000   0.1842
  -4.500  -0.4299   0.04762   0.04313  -0.0277  1.0000  0.0929  -1.6456   0.0000   0.0000   0.0000   0.1838
  -4.400  -0.4184   0.05024   0.04558  -0.0265  1.0000  0.0954  -1.6004   0.0000   0.0000   0.0000   0.1848
  -4.300  -0.4116   0.04977   0.04501  -0.0262  1.0000  0.0957  -1.5861   0.0000   0.0000   0.0000   0.1845
  -4.200  -0.4147   0.04139   0.03648  -0.0289  1.0000  0.1005  -1.6706   0.0000   0.0000   0.0000   0.1784
  -4.100  -0.4086   0.04002   0.03513  -0.0288  1.0000  0.1022  -1.6409   0.0000   0.0000   0.0000   0.1777
  -4.000  -0.4019   0.03899   0.03412  -0.0285  1.0000  0.1038  -1.6082   0.0000   0.0000   0.0000   0.1772
  -3.900  -0.3916   0.03800   0.03313  -0.0289  0.9993  0.1059  -1.5701   0.0000   0.0000   0.0000   0.1743
  -3.800  -0.3790   0.03705   0.03216  -0.0297  0.9981  0.1086  -1.5313   0.0000   0.0000   0.0000   0.1698
  -3.700  -0.3657   0.03618   0.03123  -0.0306  0.9969  0.1118  -1.4961   0.0000   0.0000   0.0000   0.1645
  -3.600  -0.3522   0.03537   0.03034  -0.0314  0.9956  0.1156  -1.4655   0.0000   0.0000   0.0000   0.1590
  -3.400  -0.3127   0.02836   0.02209  -0.0322  0.9951  0.0592  -1.7874   0.0000   0.0000   0.0000   0.1446
  -3.300  -0.2961   0.02514   0.01820  -0.0321  0.9950  0.0477  -1.9565   0.0000   0.0000   0.0000   0.1390
  -3.200  -0.2802   0.02507   0.01795  -0.0324  0.9933  0.0448  -1.9356   0.0000   0.0000   0.0000   0.1316
  -3.100  -0.2647   0.02532   0.01818  -0.0331  0.9913  0.0437  -1.8699   0.0000   0.0000   0.0000   0.1223
  -3.000  -0.2502   0.02413   0.01685  -0.0337  0.9903  0.0420  -1.8594   0.0000   0.0000   0.0000   0.1125
  -2.900  -0.2356   0.02270   0.01522  -0.0343  0.9894  0.0410  -1.8627   0.0000   0.0000   0.0000   0.1013
  -2.800  -0.2203   0.02169   0.01405  -0.0350  0.9884  0.0402  -1.8485   0.0000   0.0000   0.0000   0.0881
  -2.700  -0.2048   0.02086   0.01308  -0.0357  0.9875  0.0395  -1.8251   0.0000   0.0000   0.0000   0.0724
  -2.600  -0.1900   0.02016   0.01225  -0.0363  0.9864  0.0387  -1.7914   0.0000   0.0000   0.0000   0.0557
  -2.500  -0.1771   0.01952   0.01125  -0.0365  0.9847  0.0370  -1.7186   0.0000   0.0000   0.0000   0.0405
  -2.400  -0.1641   0.01900   0.01066  -0.0367  0.9830  0.0367  -1.6911   0.0000   0.0000   0.0000   0.0225
  -2.300  -0.1511   0.01854   0.01014  -0.0370  0.9815  0.0366  -1.6610   0.0000   0.0000   0.0000   0.0012
  -2.200  -0.1378   0.01813   0.00969  -0.0374  0.9800  0.0366  -1.6281   0.0000   0.0000   0.0000  -0.0253
  -2.100  -0.1242   0.01777   0.00928  -0.0379  0.9785  0.0368  -1.5928   0.0000   0.0000   0.0000  -0.0589
  -2.000  -0.1101   0.01746   0.00892  -0.0384  0.9769  0.0373  -1.5551   0.0000   0.0000   0.0000  -0.1038
  -1.900  -0.0951   0.01720   0.00860  -0.0392  0.9754  0.0382  -1.5158   0.0000   0.0000   0.0000  -0.1670
  -1.800  -0.0793   0.01699   0.00831  -0.0401  0.9739  0.0396  -1.4758   0.0000   0.0000   0.0000  -0.2610
  -1.700  -0.0627   0.01685   0.00807  -0.0411  0.9726  0.0420  -1.4360   0.0000   0.0000   0.0000  -0.4128
  -1.600  -0.0458   0.01630   0.00760  -0.0421  0.9715  0.0731  -1.4616   0.0000   0.0000   0.0000  -0.6772
  -1.500  -0.0353   0.01538   0.00747  -0.0426  0.9697  0.2490  -1.4387   0.0000   0.0000   0.0000  -0.9690
  -1.400  -0.0266   0.01454   0.00748  -0.0427  0.9674  0.4447  -1.3866   0.0000   0.0000   0.0000  -1.3658
  -1.300  -0.0237   0.01367   0.00773  -0.0406  0.9652  0.7083  -1.3422   0.0000   0.0000   0.0000  -1.4805
  -1.200  -0.0182   0.01353   0.00793  -0.0387  0.9625  0.8241  -1.2888   0.0000   0.0000   0.0000  -1.8934
  -1.100  -0.0077   0.01354   0.00802  -0.0381  0.9602  0.8840  -1.2195   0.0000   0.0000   0.0000  -4.7503
  -1.000   0.0113   0.01356   0.00808  -0.0393  0.9590  0.9386  -1.1223   0.0000   0.0000   0.0000   3.7601
  -0.900   0.0427   0.01354   0.00802  -0.0436  0.9588  1.0000  -0.9864   0.0000   0.0000   0.0000   1.2753
  -0.800   0.0587   0.01363   0.00804  -0.0447  0.9566  1.0000  -0.9013   0.0000   0.0000   0.0000   1.0135
  -0.700   0.0759   0.01372   0.00808  -0.0460  0.9547  1.0000  -0.8138   0.0000   0.0000   0.0000   0.8580
  -0.600   0.0940   0.01382   0.00812  -0.0475  0.9530  1.0000  -0.7248   0.0000   0.0000   0.0000   0.7566
  -0.500   0.1131   0.01393   0.00818  -0.0492  0.9515  1.0000  -0.6344   0.0000   0.0000   0.0000   0.6855
  -0.400   0.1236   0.01395   0.00817  -0.0492  0.9481  1.0000  -0.5715   0.0000   0.0000   0.0000   0.6483
  -0.300   0.1310   0.01394   0.00812  -0.0486  0.9434  1.0000  -0.5361   0.0000   0.0000   0.0000   0.6208
  -0.200   0.1433   0.01396   0.00811  -0.0489  0.9399  1.0000  -0.4950   0.0000   0.0000   0.0000   0.5912
  -0.100   0.1578   0.01400   0.00812  -0.0497  0.9368  1.0000  -0.4507   0.0000   0.0000   0.0000   0.5644
   0.000   0.1740   0.01403   0.00812  -0.0507  0.9342  1.0000  -0.4041   0.0000   0.0000   0.0000   0.5410
   0.100   0.1915   0.01406   0.00813  -0.0520  0.9319  1.0000  -0.3890   0.0000   0.0000   0.0000   0.5210
   0.200   0.2098   0.01410   0.00813  -0.0535  0.9300  1.0000  -0.4041   0.0000   0.0000   0.0000   0.5042
   0.300   0.2286   0.01413   0.00815  -0.0550  0.9282  1.0000  -0.4196   0.0000   0.0000   0.0000   0.4898
   0.400   0.2489   0.01415   0.00816  -0.0568  0.9266  1.0000  -0.4363   0.0000   0.0000   0.0000   0.4774
   0.500   0.2623   0.01417   0.00816  -0.0573  0.9235  1.0000  -0.4505   0.0000   0.0000   0.0000   0.4674
   0.600   0.2639   0.01416   0.00814  -0.0555  0.9169  1.0000  -0.4568   0.0000   0.0000   0.0000   0.4591
   0.700   0.2761   0.01414   0.00812  -0.0557  0.9128  1.0000  -0.4704   0.0000   0.0000   0.0000   0.4505
   0.800   0.2912   0.01412   0.00814  -0.0565  0.9095  1.0000  -0.4862   0.0000   0.0000   0.0000   0.4426
   0.900   0.3083   0.01407   0.00808  -0.0576  0.9065  1.0000  -0.5033   0.0000   0.0000   0.0000   0.4354
   1.000   0.3269   0.01401   0.00801  -0.0590  0.9040  1.0000  -0.5217   0.0000   0.0000   0.0000   0.4289
   1.100   0.3465   0.01393   0.00793  -0.0605  0.9019  1.0000  -0.5430   0.0000   0.0000   0.0000   0.4231
   1.200   0.3678   0.01382   0.00782  -0.0624  0.9001  1.0000  -0.5668   0.0000   0.0000   0.0000   0.4180
   1.300   0.3908   0.01368   0.00768  -0.0646  0.8986  1.0000  -0.5922   0.0000   0.0000   0.0000   0.4135
   1.400   0.4135   0.01353   0.00754  -0.0666  0.8971  1.0000  -0.6175   0.0000   0.0000   0.0000   0.4094
   1.500   0.4188   0.01356   0.00756  -0.0655  0.8917  1.0000  -0.6300   0.0000   0.0000   0.0000   0.4045
   1.600   0.4209   0.01359   0.00759  -0.0636  0.8845  1.0000  -0.6408   0.0000   0.0000   0.0000   0.3994
   1.700   0.4347   0.01349   0.00749  -0.0640  0.8802  1.0000  -0.6630   0.0000   0.0000   0.0000   0.3953
   1.800   0.4511   0.01334   0.00736  -0.0648  0.8767  1.0000  -0.6878   0.0000   0.0000   0.0000   0.3917
   1.900   0.4684   0.01317   0.00720  -0.0658  0.8737  1.0000  -0.7138   0.0000   0.0000   0.0000   0.3883
   2.000   0.4866   0.01298   0.00702  -0.0668  0.8709  1.0000  -0.7449   0.0000   0.0000   0.0000   0.3853
   2.100   0.5055   0.01276   0.00681  -0.0680  0.8683  1.0000  -0.7786   0.0000   0.0000   0.0000   0.3824
   2.200   0.5251   0.01253   0.00660  -0.0693  0.8657  1.0000  -0.8135   0.0000   0.0000   0.0000   0.3797
   2.300   0.5444   0.01232   0.00641  -0.0705  0.8631  1.0000  -0.8484   0.0000   0.0000   0.0000   0.3773
   2.400   0.5449   0.01241   0.00650  -0.0684  0.8553  1.0000  -0.8608   0.0000   0.0000   0.0000   0.3732
   2.500   0.5526   0.01236   0.00646  -0.0675  0.8485  1.0000  -0.8841   0.0000   0.0000   0.0000   0.3698
   2.600   0.5650   0.01222   0.00634  -0.0675  0.8430  1.0000  -0.9196   0.0000   0.0000   0.0000   0.3670
   2.700   0.5797   0.01205   0.00619  -0.0678  0.8383  1.0000  -0.9587   0.0000   0.0000   0.0000   0.3645
   2.800   0.5954   0.01185   0.00601  -0.0684  0.8338  1.0000  -0.9998   0.0000   0.0000   0.0000   0.3622
   2.900   0.6121   0.01164   0.00581  -0.0690  0.8293  1.0000  -1.0431   0.0000   0.0000   0.0000   0.3601
   3.000   0.6270   0.01150   0.00567  -0.0694  0.8238  1.0000  -1.0837   0.0000   0.0000   0.0000   0.3579
   3.100   0.6310   0.01153   0.00573  -0.0679  0.8150  1.0000  -1.1066   0.0000   0.0000   0.0000   0.3548
   3.200   0.6401   0.01146   0.00568  -0.0672  0.8065  1.0000  -1.1382   0.0000   0.0000   0.0000   0.3521
   3.300   0.6521   0.01133   0.00555  -0.0670  0.7986  1.0000  -1.1748   0.0000   0.0000   0.0000   0.3498
   3.400   0.6672   0.01115   0.00538  -0.0674  0.7912  1.0000  -1.2170   0.0000   0.0000   0.0000   0.3480
   3.500   0.6809   0.01105   0.00526  -0.0675  0.7829  1.0000  -1.2569   0.0000   0.0000   0.0000   0.3460
   3.600   0.6864   0.01107   0.00532  -0.0663  0.7718  1.0000  -1.2830   0.0000   0.0000   0.0000   0.3434
   3.700   0.6961   0.01101   0.00526  -0.0657  0.7598  1.0000  -1.3167   0.0000   0.0000   0.0000   0.3411
   3.800   0.7095   0.01089   0.00509  -0.0657  0.7479  1.0000  -1.3570   0.0000   0.0000   0.0000   0.3393
   3.900   0.7213   0.01086   0.00524  -0.0656  0.7396  1.0000  -1.3926   0.0000   0.0000   0.0000   0.3375
   4.000   0.7283   0.01088   0.00530  -0.0647  0.7267  1.0000  -1.4207   0.0000   0.0000   0.0000   0.3353
   4.100   0.7383   0.01086   0.00525  -0.0642  0.7118  1.0000  -1.4544   0.0000   0.0000   0.0000   0.3333
   4.200   0.7504   0.01083   0.00513  -0.0640  0.6959  1.0000  -1.5182   0.0000   0.0000   0.0000   0.3316
   4.300   0.7581   0.01087   0.00518  -0.0632  0.6777  1.0000  -1.5803   0.0000   0.0000   0.0000   0.3296
   4.400   0.7682   0.01091   0.00510  -0.0627  0.6556  1.0000  -1.6514   0.0000   0.0000   0.0000   0.3277
   4.500   0.7769   0.01099   0.00512  -0.0620  0.6336  1.0000  -1.7176   0.0000   0.0000   0.0000   0.3259
   4.600   0.7855   0.01111   0.00510  -0.0613  0.6076  1.0000  -1.7844   0.0000   0.0000   0.0000   0.3240
   4.700   0.7937   0.01124   0.00515  -0.0606  0.5831  1.0000  -1.8502   0.0000   0.0000   0.0000   0.3222
   4.800   0.8013   0.01144   0.00518  -0.0597  0.5560  1.0000  -1.9145   0.0000   0.0000   0.0000   0.3203
   4.900   0.8088   0.01163   0.00527  -0.0589  0.5283  1.0000  -1.9789   0.0000   0.0000   0.0000   0.3186
   5.000   0.8147   0.01192   0.00535  -0.0578  0.4954  1.0000  -2.0387   0.0000   0.0000   0.0000   0.3166
   5.100   0.8199   0.01226   0.00545  -0.0567  0.4582  1.0000  -2.0968   0.0000   0.0000   0.0000   0.3146
   5.200   0.8253   0.01259   0.00558  -0.0556  0.4211  1.0000  -2.1560   0.0000   0.0000   0.0000   0.3128
   5.300   0.8303   0.01296   0.00573  -0.0546  0.3848  1.0000  -2.2143   0.0000   0.0000   0.0000   0.3110
   5.400   0.8348   0.01338   0.00588  -0.0535  0.3488  1.0000  -2.2717   0.0000   0.0000   0.0000   0.3092
   5.500   0.8398   0.01378   0.00605  -0.0525  0.3135  1.0000  -2.3313   0.0000   0.0000   0.0000   0.3076
   5.600   0.8460   0.01413   0.00621  -0.0517  0.2813  1.0000  -2.3959   0.0000   0.0000   0.0000   0.3062
   5.700   0.8518   0.01451   0.00639  -0.0510  0.2521  1.0000  -2.4598   0.0000   0.0000   0.0000   0.3047
   5.800   0.8578   0.01491   0.00656  -0.0502  0.2245  1.0000  -2.5252   0.0000   0.0000   0.0000   0.3034
   5.900   0.8654   0.01519   0.00674  -0.0498  0.2032  1.0000  -2.5976   0.0000   0.0000   0.0000   0.3022
   6.000   0.8722   0.01555   0.00693  -0.0492  0.1836  1.0000  -2.6674   0.0000   0.0000   0.0000   0.3010
   6.100   0.8809   0.01575   0.00711  -0.0488  0.1720  1.0000  -2.7451   0.0000   0.0000   0.0000   0.2999
   6.200   0.8894   0.01598   0.00729  -0.0485  0.1611  1.0000  -2.8232   0.0000   0.0000   0.0000   0.2989
   6.300   0.8972   0.01627   0.00749  -0.0480  0.1500  1.0000  -2.8997   0.0000   0.0000   0.0000   0.2978
   6.400   0.9056   0.01650   0.00770  -0.0476  0.1411  1.0000  -2.9795   0.0000   0.0000   0.0000   0.2968
   6.500   0.9145   0.01670   0.00790  -0.0473  0.1331  1.0000  -3.0628   0.0000   0.0000   0.0000   0.2958
   6.600   0.9229   0.01695   0.00810  -0.0469  0.1243  1.0000  -3.1455   0.0000   0.0000   0.0000   0.2948
   6.700   0.9307   0.01725   0.00833  -0.0465  0.1152  1.0000  -3.2270   0.0000   0.0000   0.0000   0.2938
   6.800   0.9392   0.01748   0.00856  -0.0461  0.1085  1.0000  -3.3130   0.0000   0.0000   0.0000   0.2929
   6.900   0.9480   0.01770   0.00878  -0.0458  0.1019  1.0000  -3.4019   0.0000   0.0000   0.0000   0.2919
   7.000   0.9562   0.01796   0.00901  -0.0454  0.0943  1.0000  -3.4905   0.0000   0.0000   0.0000   0.2910
   7.100   0.9638   0.01830   0.00926  -0.0449  0.0858  1.0000  -3.5775   0.0000   0.0000   0.0000   0.2900
   7.200   0.9722   0.01855   0.00951  -0.0446  0.0777  1.0000  -3.6710   0.0000   0.0000   0.0000   0.2891
   7.300   0.9796   0.01893   0.00975  -0.0441  0.0643  1.0000  -3.7635   0.0000   0.0000   0.0000   0.2882
   7.400   0.9871   0.01929   0.01006  -0.0436  0.0545  1.0000  -3.8539   0.0000   0.0000   0.0000   0.2873
   7.500   0.9947   0.01965   0.01038  -0.0432  0.0445  1.0000  -3.9433   0.0000   0.0000   0.0000   0.2864
   7.600   1.0014   0.02015   0.01080  -0.0425  0.0337  1.0000  -4.0231   0.0000   0.0000   0.0000   0.2853
   7.700   1.0073   0.02075   0.01130  -0.0417  0.0244  1.0000  -4.0910   0.0000   0.0000   0.0000   0.2842
   7.800   1.0133   0.02137   0.01193  -0.0408  0.0201  1.0000  -4.1443   0.0000   0.0000   0.0000   0.2829
   7.900   1.0268   0.02083   0.01213  -0.0413  0.0405  1.0000  -4.3737   0.0000   0.0000   0.0000   0.2827
   8.000   1.0334   0.02133   0.01265  -0.0406  0.0330  1.0000  -4.4542   0.0000   0.0000   0.0000   0.2816
   8.100   1.0383   0.02208   0.01331  -0.0396  0.0248  1.0000  -4.4979   0.0000   0.0000   0.0000   0.2804
   8.200   1.0405   0.02310   0.01439  -0.0381  0.0208  1.0000  -4.4938   0.0000   0.0000   0.0000   0.2788
   8.300   1.0468   0.02363   0.01501  -0.0373  0.0195  1.0000  -4.5558   0.0000   0.0000   0.0000   0.2776
   8.400   1.0523   0.02424   0.01571  -0.0363  0.0183  1.0000  -4.6104   0.0000   0.0000   0.0000   0.2765
   8.500   1.0577   0.02489   0.01645  -0.0354  0.0174  1.0000  -4.6635   0.0000   0.0000   0.0000   0.2753
   8.600   1.0631   0.02557   0.01721  -0.0345  0.0167  1.0000  -4.7169   0.0000   0.0000   0.0000   0.2741
   8.700   1.0683   0.02629   0.01801  -0.0336  0.0161  1.0000  -4.7706   0.0000   0.0000   0.0000   0.2730
   8.800   1.0737   0.02704   0.01884  -0.0327  0.0157  1.0000  -4.8245   0.0000   0.0000   0.0000   0.2719
   8.900   1.0792   0.02783   0.01973  -0.0318  0.0153  1.0000  -4.8783   0.0000   0.0000   0.0000   0.2708
   9.000   1.0848   0.02868   0.02066  -0.0310  0.0150  1.0000  -4.9310   0.0000   0.0000   0.0000   0.2698
   9.100   1.0904   0.02958   0.02166  -0.0302  0.0147  1.0000  -4.9820   0.0000   0.0000   0.0000   0.2688
   9.200   1.0961   0.03055   0.02274  -0.0294  0.0146  1.0000  -5.0306   0.0000   0.0000   0.0000   0.2678
   9.300   1.1019   0.03160   0.02390  -0.0287  0.0144  1.0000  -5.0757   0.0000   0.0000   0.0000   0.2668
   9.400   1.1074   0.03273   0.02516  -0.0279  0.0144  1.0000  -5.1155   0.0000   0.0000   0.0000   0.2659
   9.500   1.1125   0.03394   0.02651  -0.0271  0.0143  1.0000  -5.1494   0.0000   0.0000   0.0000   0.2649
   9.600   1.1171   0.03523   0.02796  -0.0262  0.0143  1.0000  -5.1765   0.0000   0.0000   0.0000   0.2640
   9.700   1.1209   0.03660   0.02950  -0.0253  0.0144  1.0000  -5.1959   0.0000   0.0000   0.0000   0.2629
   9.800   1.1237   0.03803   0.03110  -0.0243  0.0144  1.0000  -5.2077   0.0000   0.0000   0.0000   0.2619
   9.900   1.1255   0.03951   0.03277  -0.0232  0.0145  1.0000  -5.2121   0.0000   0.0000   0.0000   0.2608
  10.000   1.1261   0.04103   0.03446  -0.0219  0.0146  1.0000  -5.2098   0.0000   0.0000   0.0000   0.2596
  10.100   1.1253   0.04253   0.03613  -0.0206  0.0147  1.0000  -5.2019   0.0000   0.0000   0.0000   0.2583
  10.200   1.1233   0.04402   0.03779  -0.0192  0.0148  1.0000  -5.1896   0.0000   0.0000   0.0000   0.2569
  10.300   1.1204   0.04551   0.03944  -0.0177  0.0150  1.0000  -5.1739   0.0000   0.0000   0.0000   0.2556
  10.400   1.1162   0.04701   0.04110  -0.0161  0.0151  1.0000  -5.1519   0.0000   0.0000   0.0000   0.2542
  10.500   1.1113   0.04851   0.04275  -0.0147  0.0152  1.0000  -5.1278   0.0000   0.0000   0.0000   0.2528
  10.600   1.1059   0.05003   0.04440  -0.0132  0.0153  1.0000  -5.1023   0.0000   0.0000   0.0000   0.2515
  10.700   1.0998   0.05155   0.04605  -0.0119  0.0154  1.0000  -5.0756   0.0000   0.0000   0.0000   0.2502
  10.800   1.0933   0.05309   0.04773  -0.0107  0.0155  1.0000  -5.0478   0.0000   0.0000   0.0000   0.2490
  10.900   1.0864   0.05467   0.04943  -0.0096  0.0156  1.0000  -5.0188   0.0000   0.0000   0.0000   0.2480
  11.000   1.0791   0.05627   0.05114  -0.0087  0.0157  1.0000  -4.9891   0.0000   0.0000   0.0000   0.2471
  11.100   1.0714   0.05790   0.05288  -0.0079  0.0158  1.0000  -4.9587   0.0000   0.0000   0.0000   0.2463
  11.200   1.0635   0.05960   0.05469  -0.0074  0.0159  1.0000  -4.9271   0.0000   0.0000   0.0000   0.2457
  11.300   1.0554   0.06138   0.05657  -0.0070  0.0159  1.0000  -4.8943   0.0000   0.0000   0.0000   0.2453
  11.400   1.0471   0.06325   0.05853  -0.0069  0.0160  1.0000  -4.8603   0.0000   0.0000   0.0000   0.2451
  11.500   1.0388   0.06520   0.06057  -0.0070  0.0161  1.0000  -4.8248   0.0000   0.0000   0.0000   0.2451
  11.600   1.0302   0.06724   0.06270  -0.0073  0.0161  1.0000  -4.7880   0.0000   0.0000   0.0000   0.2453
  11.700   1.0216   0.06938   0.06493  -0.0079  0.0162  1.0000  -4.7492   0.0000   0.0000   0.0000   0.2458
  11.800   1.0127   0.07159   0.06722  -0.0087  0.0162  1.0000  -4.7090   0.0000   0.0000   0.0000   0.2465
  11.900   1.0037   0.07394   0.06965  -0.0097  0.0162  1.0000  -4.6662   0.0000   0.0000   0.0000   0.2474
  12.000   0.9948   0.07648   0.07225  -0.0111  0.0163  1.0000  -4.6201   0.0000   0.0000   0.0000   0.2487
  12.100   0.9859   0.07923   0.07507  -0.0127  0.0163  1.0000  -4.5699   0.0000   0.0000   0.0000   0.2504
  12.200   0.9769   0.08221   0.07812  -0.0147  0.0163  1.0000  -4.5144   0.0000   0.0000   0.0000   0.2524
  12.300   0.9679   0.08546   0.08144  -0.0170  0.0164  1.0000  -4.4523   0.0000   0.0000   0.0000   0.2548
  12.400   0.9588   0.08902   0.08505  -0.0197  0.0164  1.0000  -4.3814   0.0000   0.0000   0.0000   0.2576
  12.500   0.9496   0.09294   0.08903  -0.0227  0.0164  1.0000  -4.2988   0.0000   0.0000   0.0000   0.2609
  12.600   0.9400   0.09729   0.09343  -0.0260  0.0165  1.0000  -4.2002   0.0000   0.0000   0.0000   0.2645
  12.700   0.9301   0.10212   0.09830  -0.0295  0.0165  1.0000  -4.0802   0.0000   0.0000   0.0000   0.2686
  12.800   0.9196   0.10743   0.10363  -0.0331  0.0166  1.0000  -3.9340   0.0000   0.0000   0.0000   0.2729
  12.900   0.9090   0.11296   0.10918  -0.0364  0.0168  1.0000  -3.7655   0.0000   0.0000   0.0000   0.2771
  13.000   0.8993   0.11827   0.11448  -0.0393  0.0170  1.0000  -3.5923   0.0000   0.0000   0.0000   0.2808
  13.100   0.8913   0.12289   0.11909  -0.0417  0.0173  1.0000  -3.4440   0.0000   0.0000   0.0000   0.2839
  13.200   0.8848   0.12693   0.12311  -0.0438  0.0175  1.0000  -3.3214   0.0000   0.0000   0.0000   0.2865
  13.300   0.8793   0.13060   0.12677  -0.0456  0.0177  1.0000  -3.2150   0.0000   0.0000   0.0000   0.2890
  13.400   0.8746   0.13401   0.13016  -0.0474  0.0179  1.0000  -3.1204   0.0000   0.0000   0.0000   0.2912
  13.500   0.8707   0.13721   0.13334  -0.0490  0.0181  1.0000  -3.0351   0.0000   0.0000   0.0000   0.2933
  13.600   0.8673   0.14024   0.13635  -0.0505  0.0183  1.0000  -2.9577   0.0000   0.0000   0.0000   0.2952
  13.700   0.8644   0.14311   0.13922  -0.0519  0.0186  1.0000  -2.8869   0.0000   0.0000   0.0000   0.2970
  13.800   0.8620   0.14578   0.14187  -0.0533  0.0188  1.0000  -2.8222   0.0000   0.0000   0.0000   0.2987
  13.900   0.8599   0.14830   0.14438  -0.0545  0.0190  1.0000  -2.7625   0.0000   0.0000   0.0000   0.3002
  14.000   0.8581   0.15074   0.14681  -0.0558  0.0193  1.0000  -2.7070   0.0000   0.0000   0.0000   0.3017
  14.100   0.8566   0.15315   0.14921  -0.0569  0.0195  1.0000  -2.6548   0.0000   0.0000   0.0000   0.3031
  14.200   0.8552   0.15555   0.15160  -0.0581  0.0198  1.0000  -2.6052   0.0000   0.0000   0.0000   0.3045
  14.300   0.8540   0.15796   0.15400  -0.0592  0.0201  1.0000  -2.5568   0.0000   0.0000   0.0000   0.3058
  14.400   0.8526   0.16044   0.15647  -0.0602  0.0205  1.0000  -2.5070   0.0000   0.0000   0.0000   0.3071
  15.000   0.8496   0.18365   0.17966  -0.0649  0.0375  1.0000  -1.9532   0.0000   0.0000   0.0000   0.3128
  15.100   0.8511   0.18584   0.18185  -0.0658  0.0375  1.0000  -1.9403   0.0000   0.0000   0.0000   0.3135
  15.200   0.8526   0.18802   0.18404  -0.0666  0.0375  1.0000  -1.9277   0.0000   0.0000   0.0000   0.3143
  15.300   0.8542   0.19021   0.18623  -0.0675  0.0375  1.0000  -1.9156   0.0000   0.0000   0.0000   0.3151
  15.400   0.8557   0.19239   0.18841  -0.0683  0.0375  1.0000  -1.9037   0.0000   0.0000   0.0000   0.3158
  15.500   0.8574   0.19457   0.19059  -0.0692  0.0375  1.0000  -1.8922   0.0000   0.0000   0.0000   0.3166
  15.600   0.8590   0.19675   0.19276  -0.0700  0.0375  1.0000  -1.8810   0.0000   0.0000   0.0000   0.3173
  15.700   0.8607   0.19892   0.19494  -0.0709  0.0375  1.0000  -1.8701   0.0000   0.0000   0.0000   0.3180
  15.800   0.8624   0.20109   0.19711  -0.0717  0.0375  1.0000  -1.8595   0.0000   0.0000   0.0000   0.3187
  15.900   0.8641   0.20326   0.19928  -0.0726  0.0375  1.0000  -1.8493   0.0000   0.0000   0.0000   0.3195
  16.000   0.8658   0.20543   0.20145  -0.0734  0.0374  1.0000  -1.8396   0.0000   0.0000   0.0000   0.3202
  16.100   0.8675   0.20759   0.20361  -0.0743  0.0374  1.0000  -1.8301   0.0000   0.0000   0.0000   0.3209
  16.200   0.8692   0.20975   0.20576  -0.0751  0.0374  1.0000  -1.8207   0.0000   0.0000   0.0000   0.3216
  16.300   0.8710   0.21190   0.20791  -0.0760  0.0374  1.0000  -1.8115   0.0000   0.0000   0.0000   0.3222
  16.400   0.8727   0.21404   0.21006  -0.0768  0.0374  1.0000  -1.8024   0.0000   0.0000   0.0000   0.3229
  16.500   0.8744   0.21618   0.21220  -0.0777  0.0374  1.0000  -1.7934   0.0000   0.0000   0.0000   0.3236
  16.600   0.8762   0.21830   0.21432  -0.0785  0.0374  1.0000  -1.7845   0.0000   0.0000   0.0000   0.3243
  16.700   0.8779   0.22042   0.21644  -0.0794  0.0373  1.0000  -1.7758   0.0000   0.0000   0.0000   0.3250
  16.800   0.8797   0.22253   0.21855  -0.0802  0.0373  1.0000  -1.7671   0.0000   0.0000   0.0000   0.3257
  16.900   0.8814   0.22462   0.22064  -0.0811  0.0373  1.0000  -1.7585   0.0000   0.0000   0.0000   0.3263
  17.000   0.8831   0.22670   0.22272  -0.0819  0.0373  1.0000  -1.7501   0.0000   0.0000   0.0000   0.3270
  17.100   0.8848   0.22876   0.22479  -0.0828  0.0372  1.0000  -1.7417   0.0000   0.0000   0.0000   0.3277
  17.200   0.8865   0.23081   0.22683  -0.0836  0.0372  1.0000  -1.7333   0.0000   0.0000   0.0000   0.3283
  17.300   0.8882   0.23283   0.22886  -0.0845  0.0372  1.0000  -1.7251   0.0000   0.0000   0.0000   0.3290
  17.400   0.8898   0.23482   0.23085  -0.0854  0.0371  1.0000  -1.7169   0.0000   0.0000   0.0000   0.3297
  17.500   0.8915   0.23679   0.23282  -0.0862  0.0371  1.0000  -1.7087   0.0000   0.0000   0.0000   0.3304
  17.600   0.8931   0.23872   0.23475  -0.0871  0.0370  1.0000  -1.7005   0.0000   0.0000   0.0000   0.3311
  17.700   0.8947   0.24060   0.23663  -0.0880  0.0369  1.0000  -1.6922   0.0000   0.0000   0.0000   0.3317
  17.800   0.8963   0.24242   0.23846  -0.0889  0.0368  1.0000  -1.6838   0.0000   0.0000   0.0000   0.3325
  17.900   0.8978   0.24418   0.24021  -0.0898  0.0367  1.0000  -1.6750   0.0000   0.0000   0.0000   0.3332
  18.000   0.8988   0.24581   0.24184  -0.0909  0.0366  1.0000  -1.6613   0.0000   0.0000   0.0000   0.3341
  18.100   0.8993   0.24730   0.24333  -0.0921  0.0363  1.0000  -1.6426   0.0000   0.0000   0.0000   0.3353
  18.200   0.8993   0.24868   0.24471  -0.0934  0.0361  1.0000  -1.6193   0.0000   0.0000   0.0000   0.3366
  18.300   0.8996   0.25006   0.24609  -0.0948  0.0357  1.0000  -1.5942   0.0000   0.0000   0.0000   0.3380
  18.400   0.9002   0.25157   0.24760  -0.0961  0.0352  1.0000  -1.5694   0.0000   0.0000   0.0000   0.3393
  18.500   0.9012   0.25331   0.24933  -0.0973  0.0346  1.0000  -1.5486   0.0000   0.0000   0.0000   0.3404
  18.600   0.9025   0.25522   0.25125  -0.0984  0.0340  1.0000  -1.5327   0.0000   0.0000   0.0000   0.3413
  18.700   0.9039   0.25722   0.25325  -0.0993  0.0334  1.0000  -1.5207   0.0000   0.0000   0.0000   0.3420
  18.800   0.9053   0.25928   0.25531  -0.1002  0.0328  1.0000  -1.5114   0.0000   0.0000   0.0000   0.3427
  18.900   0.9067   0.26135   0.25739  -0.1010  0.0323  1.0000  -1.5038   0.0000   0.0000   0.0000   0.3433
  19.000   0.9081   0.26344   0.25948  -0.1018  0.0318  1.0000  -1.4976   0.0000   0.0000   0.0000   0.3438
  19.100   0.9094   0.26554   0.26158  -0.1026  0.0314  1.0000  -1.4922   0.0000   0.0000   0.0000   0.3444
  19.200   0.9107   0.26763   0.26369  -0.1033  0.0309  1.0000  -1.4877   0.0000   0.0000   0.0000   0.3449
  19.300   0.9120   0.26973   0.26579  -0.1040  0.0305  1.0000  -1.4837   0.0000   0.0000   0.0000   0.3454
  19.400   0.9133   0.27183   0.26789  -0.1047  0.0301  1.0000  -1.4803   0.0000   0.0000   0.0000   0.3458
  19.500   0.9145   0.27393   0.27000  -0.1054  0.0297  1.0000  -1.4773   0.0000   0.0000   0.0000   0.3463
  19.600   0.9156   0.27602   0.27209  -0.1061  0.0293  1.0000  -1.4747   0.0000   0.0000   0.0000   0.3468
  19.700   0.9168   0.27811   0.27419  -0.1067  0.0289  1.0000  -1.4725   0.0000   0.0000   0.0000   0.3472
  19.800   0.9178   0.28019   0.27628  -0.1074  0.0286  1.0000  -1.4706   0.0000   0.0000   0.0000   0.3476
  19.900   0.9188   0.28227   0.27836  -0.1080  0.0282  1.0000  -1.4690   0.0000   0.0000   0.0000   0.3481
  20.000   0.9198   0.28434   0.28044  -0.1086  0.0279  1.0000  -1.4677   0.0000   0.0000   0.0000   0.3485
  20.100   0.9206   0.28640   0.28251  -0.1092  0.0276  1.0000  -1.4668   0.0000   0.0000   0.0000   0.3489
  20.200   0.9214   0.28844   0.28456  -0.1098  0.0273  1.0000  -1.4661   0.0000   0.0000   0.0000   0.3493
  20.300   0.9221   0.29048   0.28661  -0.1104  0.0270  1.0000  -1.4657   0.0000   0.0000   0.0000   0.3497
  20.400   0.9228   0.29250   0.28864  -0.1109  0.0267  1.0000  -1.4656   0.0000   0.0000   0.0000   0.3500
  20.500   0.9233   0.29451   0.29065  -0.1115  0.0264  1.0000  -1.4657   0.0000   0.0000   0.0000   0.3504
  20.600   0.9238   0.29649   0.29265  -0.1120  0.0261  1.0000  -1.4662   0.0000   0.0000   0.0000   0.3508
  20.700   0.9241   0.29845   0.29462  -0.1125  0.0259  1.0000  -1.4670   0.0000   0.0000   0.0000   0.3511
  20.800   0.9243   0.30039   0.29657  -0.1130  0.0256  1.0000  -1.4681   0.0000   0.0000   0.0000   0.3515
  20.900   0.9243   0.30230   0.29849  -0.1134  0.0253  1.0000  -1.4694   0.0000   0.0000   0.0000   0.3518
  21.000   0.9242   0.30417   0.30037  -0.1138  0.0251  1.0000  -1.4710   0.0000   0.0000   0.0000   0.3521
  21.100   0.9239   0.30600   0.30222  -0.1142  0.0249  1.0000  -1.4729   0.0000   0.0000   0.0000   0.3525
  21.200   0.9234   0.30779   0.30401  -0.1145  0.0246  1.0000  -1.4749   0.0000   0.0000   0.0000   0.3528
  21.300   0.9227   0.30951   0.30575  -0.1148  0.0244  1.0000  -1.4771   0.0000   0.0000   0.0000   0.3531
  21.400   0.9216   0.31116   0.30742  -0.1151  0.0242  1.0000  -1.4793   0.0000   0.0000   0.0000   0.3534
  21.500   0.9202   0.31272   0.30899  -0.1153  0.0240  1.0000  -1.4813   0.0000   0.0000   0.0000   0.3536
  21.600   0.9182   0.31415   0.31044  -0.1154  0.0238  1.0000  -1.4827   0.0000   0.0000   0.0000   0.3539
  21.700   0.9143   0.31517   0.31148  -0.1152  0.0236  1.0000  -1.4793   0.0000   0.0000   0.0000   0.3542
  21.800   0.8797   0.30859   0.30501  -0.1119  0.0237  1.0000  -1.3832   0.0000   0.0000   0.0000   0.3559
  21.900   0.8721   0.30783   0.30428  -0.1114  0.0235  1.0000  -1.3686   0.0000   0.0000   0.0000   0.3564
  22.000   0.8666   0.30753   0.30401  -0.1110  0.0234  1.0000  -1.3613   0.0000   0.0000   0.0000   0.3568
  22.100   0.8624   0.30747   0.30397  -0.1107  0.0232  1.0000  -1.3585   0.0000   0.0000   0.0000   0.3570
  22.200   0.8589   0.30758   0.30411  -0.1105  0.0230  1.0000  -1.3591   0.0000   0.0000   0.0000   0.3572
  22.300   0.8560   0.30787   0.30443  -0.1103  0.0228  1.0000  -1.3631   0.0000   0.0000   0.0000   0.3573
  22.400   0.8539   0.30839   0.30496  -0.1100  0.0226  1.0000  -1.3705   0.0000   0.0000   0.0000   0.3573
  22.500   0.8525   0.30928   0.30588  -0.1097  0.0224  1.0000  -1.3822   0.0000   0.0000   0.0000   0.3570
  22.600   0.8528   0.31125   0.30787  -0.1092  0.0221  1.0000  -1.4011   0.0000   0.0000   0.0000   0.3563
  23.700   0.8292   0.32003   0.31684  -0.1118  0.0214  1.0000  -1.2069   0.0000   0.0000   0.0000   0.3623
  23.800   0.8278   0.32038   0.31721  -0.1121  0.0214  1.0000  -1.1962   0.0000   0.0000   0.0000   0.3629
  23.900   0.8265   0.32075   0.31759  -0.1125  0.0214  1.0000  -1.1857   0.0000   0.0000   0.0000   0.3634
  24.000   0.8252   0.32111   0.31797  -0.1129  0.0213  1.0000  -1.1754   0.0000   0.0000   0.0000   0.3640
  24.100   0.8240   0.32149   0.31835  -0.1133  0.0213  1.0000  -1.1654   0.0000   0.0000   0.0000   0.3645
  24.200   0.8228   0.32186   0.31874  -0.1136  0.0213  1.0000  -1.1556   0.0000   0.0000   0.0000   0.3651
  24.300   0.8217   0.32224   0.31913  -0.1140  0.0213  1.0000  -1.1459   0.0000   0.0000   0.0000   0.3656
  24.400   0.8206   0.32259   0.31949  -0.1144  0.0213  1.0000  -1.1358   0.0000   0.0000   0.0000   0.3662
  24.500   0.8195   0.32294   0.31985  -0.1149  0.0213  1.0000  -1.1259   0.0000   0.0000   0.0000   0.3667
  24.600   0.8185   0.32329   0.32022  -0.1153  0.0212  1.0000  -1.1162   0.0000   0.0000   0.0000   0.3673
  24.700   0.8173   0.32357   0.32051  -0.1157  0.0212  1.0000  -1.1048   0.0000   0.0000   0.0000   0.3679
  24.800   0.8162   0.32385   0.32080  -0.1162  0.0212  1.0000  -1.0935   0.0000   0.0000   0.0000   0.3686
  24.900   0.8151   0.32414   0.32110  -0.1166  0.0212  1.0000  -1.0823   0.0000   0.0000   0.0000   0.3692
  25.000   0.8140   0.32444   0.32141  -0.1171  0.0211  1.0000  -1.0713   0.0000   0.0000   0.0000   0.3698
  25.100   0.8131   0.32474   0.32173  -0.1176  0.0211  1.0000  -1.0605   0.0000   0.0000   0.0000   0.3704
  25.200   0.8122   0.32506   0.32206  -0.1181  0.0211  1.0000  -1.0498   0.0000   0.0000   0.0000   0.3711
  25.300   0.8113   0.32539   0.32240  -0.1186  0.0210  1.0000  -1.0393   0.0000   0.0000   0.0000   0.3717
  25.400   0.8105   0.32572   0.32275  -0.1191  0.0210  1.0000  -1.0289   0.0000   0.0000   0.0000   0.3723
  25.500   0.8098   0.32607   0.32311  -0.1196  0.0209  1.0000  -1.0186   0.0000   0.0000   0.0000   0.3729
  25.600   0.8092   0.32643   0.32348  -0.1201  0.0209  1.0000  -1.0084   0.0000   0.0000   0.0000   0.3735
  25.700   0.8086   0.32681   0.32387  -0.1206  0.0208  1.0000  -0.9982   0.0000   0.0000   0.0000   0.3741
  25.800   0.8081   0.32721   0.32428  -0.1212  0.0208  1.0000  -0.9881   0.0000   0.0000   0.0000   0.3747
  25.900   0.8077   0.32763   0.32471  -0.1217  0.0207  1.0000  -0.9779   0.0000   0.0000   0.0000   0.3754
  26.000   0.8073   0.32807   0.32516  -0.1223  0.0206  1.0000  -0.9678   0.0000   0.0000   0.0000   0.3760
  26.100   0.8071   0.32855   0.32565  -0.1229  0.0205  1.0000  -0.9576   0.0000   0.0000   0.0000   0.3766
  26.200   0.8070   0.32907   0.32618  -0.1235  0.0204  1.0000  -0.9475   0.0000   0.0000   0.0000   0.3772
  26.300   0.8069   0.32963   0.32675  -0.1241  0.0203  1.0000  -0.9375   0.0000   0.0000   0.0000   0.3777
  26.400   0.8070   0.33024   0.32737  -0.1247  0.0201  1.0000  -0.9276   0.0000   0.0000   0.0000   0.3783
  26.500   0.8071   0.33089   0.32803  -0.1252  0.0199  1.0000  -0.9181   0.0000   0.0000   0.0000   0.3788
  26.600   0.8073   0.33157   0.32872  -0.1258  0.0198  1.0000  -0.9092   0.0000   0.0000   0.0000   0.3793
  26.700   0.8074   0.33226   0.32943  -0.1263  0.0195  1.0000  -0.9009   0.0000   0.0000   0.0000   0.3798
  26.800   0.8076   0.33297   0.33015  -0.1268  0.0193  1.0000  -0.8934   0.0000   0.0000   0.0000   0.3802
  26.900   0.8077   0.33368   0.33087  -0.1273  0.0191  1.0000  -0.8866   0.0000   0.0000   0.0000   0.3807
  27.000   0.8078   0.33438   0.33158  -0.1278  0.0189  1.0000  -0.8805   0.0000   0.0000   0.0000   0.3811
  27.100   0.8079   0.33508   0.33229  -0.1283  0.0186  1.0000  -0.8749   0.0000   0.0000   0.0000   0.3814
  27.200   0.8079   0.33577   0.33300  -0.1287  0.0184  1.0000  -0.8697   0.0000   0.0000   0.0000   0.3818
  27.300   0.8079   0.33646   0.33370  -0.1292  0.0182  1.0000  -0.8649   0.0000   0.0000   0.0000   0.3822
  27.400   0.8079   0.33714   0.33440  -0.1296  0.0180  1.0000  -0.8604   0.0000   0.0000   0.0000   0.3826
  27.500   0.8079   0.33783   0.33509  -0.1301  0.0178  1.0000  -0.8562   0.0000   0.0000   0.0000   0.3830
  27.600   0.8079   0.33850   0.33578  -0.1305  0.0176  1.0000  -0.8522   0.0000   0.0000   0.0000   0.3833
  27.700   0.8079   0.33918   0.33647  -0.1310  0.0174  1.0000  -0.8484   0.0000   0.0000   0.0000   0.3837
  27.800   0.8079   0.33985   0.33715  -0.1314  0.0172  1.0000  -0.8449   0.0000   0.0000   0.0000   0.3840
  27.900   0.8079   0.34052   0.33783  -0.1318  0.0170  1.0000  -0.8415   0.0000   0.0000   0.0000   0.3844
  28.000   0.8079   0.34119   0.33852  -0.1323  0.0168  1.0000  -0.8382   0.0000   0.0000   0.0000   0.3847
  28.100   0.8079   0.34186   0.33920  -0.1327  0.0166  1.0000  -0.8351   0.0000   0.0000   0.0000   0.3851
  28.200   0.8079   0.34253   0.33988  -0.1331  0.0165  1.0000  -0.8321   0.0000   0.0000   0.0000   0.3854
  28.300   0.8079   0.34320   0.34055  -0.1336  0.0163  1.0000  -0.8293   0.0000   0.0000   0.0000   0.3858
  28.400   0.8079   0.34386   0.34123  -0.1340  0.0161  1.0000  -0.8266   0.0000   0.0000   0.0000   0.3861
  28.500   0.8079   0.34453   0.34191  -0.1344  0.0160  1.0000  -0.8240   0.0000   0.0000   0.0000   0.3865
  28.600   0.8079   0.34519   0.34259  -0.1349  0.0158  1.0000  -0.8214   0.0000   0.0000   0.0000   0.3868
  28.700   0.8079   0.34586   0.34326  -0.1353  0.0157  1.0000  -0.8190   0.0000   0.0000   0.0000   0.3872
  28.800   0.8079   0.34652   0.34394  -0.1358  0.0155  1.0000  -0.8167   0.0000   0.0000   0.0000   0.3875
  28.900   0.8079   0.34718   0.34461  -0.1362  0.0154  1.0000  -0.8145   0.0000   0.0000   0.0000   0.3878
  29.000   0.8079   0.34785   0.34528  -0.1366  0.0152  1.0000  -0.8124   0.0000   0.0000   0.0000   0.3882
  29.100   0.8079   0.34851   0.34596  -0.1371  0.0151  1.0000  -0.8103   0.0000   0.0000   0.0000   0.3885
  29.200   0.8079   0.34917   0.34663  -0.1375  0.0149  1.0000  -0.8084   0.0000   0.0000   0.0000   0.3888
  29.300   0.8079   0.34983   0.34730  -0.1379  0.0148  1.0000  -0.8065   0.0000   0.0000   0.0000   0.3892
  29.400   0.8079   0.35049   0.34797  -0.1384  0.0147  1.0000  -0.8047   0.0000   0.0000   0.0000   0.3895
  29.500   0.8079   0.35114   0.34864  -0.1388  0.0145  1.0000  -0.8030   0.0000   0.0000   0.0000   0.3898
  29.600   0.8079   0.35180   0.34931  -0.1393  0.0144  1.0000  -0.8013   0.0000   0.0000   0.0000   0.3901
  29.700   0.8079   0.35246   0.34997  -0.1397  0.0143  1.0000  -0.7998   0.0000   0.0000   0.0000   0.3905
  29.800   0.8079   0.35311   0.35064  -0.1401  0.0142  1.0000  -0.7983   0.0000   0.0000   0.0000   0.3908
  29.900   0.8079   0.35377   0.35131  -0.1406  0.0141  1.0000  -0.7969   0.0000   0.0000   0.0000   0.3911
  30.000   0.8079   0.35443   0.35204  -0.1410  0.0139  1.0000  -0.7955   0.0000   0.0000   0.0000   0.3914


