xflr5 v6.61

 Calculated polar for: SD2030-086-88

 1 1 Reynolds number fixed          Mach number fixed         

 xtrf =   1.000 (top)        1.000 (bottom)
 Mach =   0.000     Re =     0.100 e 6     Ncrit =   9.000

  alpha     CL        CD       CDp       Cm    Top Xtr Bot Xtr   Cpmin    Chinge    XCp    
 ------- -------- --------- --------- -------- ------- ------- -------- --------- ---------
 -10.000  -0.4191   0.11416   0.10880  -0.0261  1.0000  0.0823  -1.2557   0.0000   0.0000   0.0000   0.1817
  -9.900  -0.4182   0.11301   0.10767  -0.0264  1.0000  0.0834  -1.2583   0.0000   0.0000   0.0000   0.1808
  -9.800  -0.4174   0.11188   0.10655  -0.0268  1.0000  0.0846  -1.2624   0.0000   0.0000   0.0000   0.1799
  -9.700  -0.4170   0.11077   0.10547  -0.0272  1.0000  0.0858  -1.2681   0.0000   0.0000   0.0000   0.1788
  -9.600  -0.4168   0.10972   0.10444  -0.0277  1.0000  0.0870  -1.2759   0.0000   0.0000   0.0000   0.1778
  -9.500  -0.4171   0.10873   0.10346  -0.0283  1.0000  0.0882  -1.2860   0.0000   0.0000   0.0000   0.1766
  -9.400  -0.4179   0.10783   0.10260  -0.0289  1.0000  0.0894  -1.2994   0.0000   0.0000   0.0000   0.1753
  -9.300  -0.4194   0.10710   0.10189  -0.0297  1.0000  0.0906  -1.3168   0.0000   0.0000   0.0000   0.1738
  -9.200  -0.4218   0.10658   0.10140  -0.0307  1.0000  0.0917  -1.3388   0.0000   0.0000   0.0000   0.1721
  -9.100  -0.4251   0.10629   0.10115  -0.0317  1.0000  0.0927  -1.3643   0.0000   0.0000   0.0000   0.1704
  -9.000  -0.4289   0.10613   0.10103  -0.0328  1.0000  0.0935  -1.3906   0.0000   0.0000   0.0000   0.1688
  -8.900  -0.4333   0.10590   0.10085  -0.0337  1.0000  0.0941  -1.4161   0.0000   0.0000   0.0000   0.1676
  -8.800  -0.4376   0.10557   0.10055  -0.0344  1.0000  0.0945  -1.4386   0.0000   0.0000   0.0000   0.1669
  -8.700  -0.4410   0.10512   0.10014  -0.0349  1.0000  0.0948  -1.4557   0.0000   0.0000   0.0000   0.1666
  -8.600  -0.4450   0.10455   0.09961  -0.0353  1.0000  0.0950  -1.4729   0.0000   0.0000   0.0000   0.1666
  -8.500  -0.4495   0.10390   0.09900  -0.0355  1.0000  0.0951  -1.4906   0.0000   0.0000   0.0000   0.1670
  -8.400  -0.4543   0.10318   0.09831  -0.0358  1.0000  0.0952  -1.5089   0.0000   0.0000   0.0000   0.1673
  -8.300  -0.4579   0.10230   0.09745  -0.0364  1.0000  0.0954  -1.5270   0.0000   0.0000   0.0000   0.1669
  -8.200  -0.4608   0.10140   0.09657  -0.0368  1.0000  0.0955  -1.5438   0.0000   0.0000   0.0000   0.1666
  -8.100  -0.4636   0.10049   0.09567  -0.0371  1.0000  0.0956  -1.5596   0.0000   0.0000   0.0000   0.1666
  -8.000  -0.4662   0.09956   0.09474  -0.0373  1.0000  0.0957  -1.5746   0.0000   0.0000   0.0000   0.1668
  -7.900  -0.4686   0.09860   0.09378  -0.0373  1.0000  0.0957  -1.5887   0.0000   0.0000   0.0000   0.1671
  -7.800  -0.4709   0.09762   0.09280  -0.0373  1.0000  0.0958  -1.6020   0.0000   0.0000   0.0000   0.1676
  -7.700  -0.4829   0.09145   0.08674  -0.0380  1.0000  0.0972  -1.6702   0.0000   0.0000   0.0000   0.1682
  -7.600  -0.4794   0.08740   0.08276  -0.0363  1.0000  0.0991  -1.6368   0.0000   0.0000   0.0000   0.1712
  -7.500  -0.4722   0.08559   0.08098  -0.0340  1.0000  0.1005  -1.5819   0.0000   0.0000   0.0000   0.1749
  -7.400  -0.4684   0.08431   0.07972  -0.0324  1.0000  0.1017  -1.5482   0.0000   0.0000   0.0000   0.1777
  -7.300  -0.4649   0.08320   0.07863  -0.0310  1.0000  0.1029  -1.5186   0.0000   0.0000   0.0000   0.1802
  -7.200  -0.4634   0.08215   0.07759  -0.0300  1.0000  0.1040  -1.5001   0.0000   0.0000   0.0000   0.1822
  -7.100  -0.4631   0.08112   0.07659  -0.0292  1.0000  0.1051  -1.4883   0.0000   0.0000   0.0000   0.1839
  -7.000  -0.4635   0.08011   0.07559  -0.0286  1.0000  0.1062  -1.4809   0.0000   0.0000   0.0000   0.1854
  -6.900  -0.4644   0.07909   0.07459  -0.0281  1.0000  0.1073  -1.4767   0.0000   0.0000   0.0000   0.1867
  -6.800  -0.4657   0.07806   0.07357  -0.0277  1.0000  0.1085  -1.4749   0.0000   0.0000   0.0000   0.1878
  -6.700  -0.4671   0.07702   0.07255  -0.0274  1.0000  0.1097  -1.4749   0.0000   0.0000   0.0000   0.1888
  -6.600  -0.4686   0.07597   0.07151  -0.0271  1.0000  0.1109  -1.4764   0.0000   0.0000   0.0000   0.1896
  -6.500  -0.4702   0.07490   0.07046  -0.0269  1.0000  0.1123  -1.4794   0.0000   0.0000   0.0000   0.1903
  -6.400  -0.4716   0.07382   0.06938  -0.0268  1.0000  0.1137  -1.4835   0.0000   0.0000   0.0000   0.1907
  -6.300  -0.4729   0.07273   0.06829  -0.0268  1.0000  0.1153  -1.4890   0.0000   0.0000   0.0000   0.1910
  -6.200  -0.4740   0.07163   0.06719  -0.0269  1.0000  0.1171  -1.4960   0.0000   0.0000   0.0000   0.1910
  -6.100  -0.4748   0.07057   0.06611  -0.0272  1.0000  0.1191  -1.5053   0.0000   0.0000   0.0000   0.1905
  -6.000  -0.4749   0.06965   0.06516  -0.0278  1.0000  0.1218  -1.5195   0.0000   0.0000   0.0000   0.1893
  -5.900  -0.4722   0.07154   0.06684  -0.0299  1.0000  0.1275  -1.5537   0.0000   0.0000   0.0000   0.1847
  -5.800  -0.4685   0.07277   0.06793  -0.0299  1.0000  0.1289  -1.5545   0.0000   0.0000   0.0000   0.1843
  -5.700  -0.4661   0.07241   0.06748  -0.0296  1.0000  0.1292  -1.5547   0.0000   0.0000   0.0000   0.1845
  -5.600  -0.4772   0.06608   0.06117  -0.0310  1.0000  0.1315  -1.6202   0.0000   0.0000   0.0000   0.1831
  -5.500  -0.4786   0.06260   0.05777  -0.0307  1.0000  0.1336  -1.6166   0.0000   0.0000   0.0000   0.1840
  -5.400  -0.4756   0.06083   0.05608  -0.0297  1.0000  0.1351  -1.5894   0.0000   0.0000   0.0000   0.1857
  -5.300  -0.4724   0.05950   0.05480  -0.0287  1.0000  0.1368  -1.5626   0.0000   0.0000   0.0000   0.1875
  -5.200  -0.4693   0.05839   0.05372  -0.0278  1.0000  0.1386  -1.5381   0.0000   0.0000   0.0000   0.1891
  -5.100  -0.4659   0.05737   0.05272  -0.0270  1.0000  0.1406  -1.5160   0.0000   0.0000   0.0000   0.1904
  -5.000  -0.4623   0.05641   0.05177  -0.0263  1.0000  0.1430  -1.4958   0.0000   0.0000   0.0000   0.1915
  -4.900  -0.4584   0.05546   0.05082  -0.0258  1.0000  0.1457  -1.4782   0.0000   0.0000   0.0000   0.1922
  -4.800  -0.4541   0.05452   0.04985  -0.0255  1.0000  0.1490  -1.4642   0.0000   0.0000   0.0000   0.1923
  -4.700  -0.4491   0.05363   0.04891  -0.0255  1.0000  0.1532  -1.4538   0.0000   0.0000   0.0000   0.1917
  -4.600  -0.4416   0.05337   0.04852  -0.0260  1.0000  0.1599  -1.4488   0.0000   0.0000   0.0000   0.1897
  -4.500  -0.4392   0.05191   0.04678  -0.0277  1.0000  0.1717  -1.4741   0.0000   0.0000   0.0000   0.1853
  -4.400  -0.4354   0.04987   0.04483  -0.0271  1.0000  0.1741  -1.4526   0.0000   0.0000   0.0000   0.1862
  -4.300  -0.4307   0.04850   0.04352  -0.0264  1.0000  0.1764  -1.4289   0.0000   0.0000   0.0000   0.1873
  -4.200  -0.4256   0.04740   0.04245  -0.0257  1.0000  0.1790  -1.4062   0.0000   0.0000   0.0000   0.1881
  -4.100  -0.4201   0.04643   0.04148  -0.0252  1.0000  0.1821  -1.3850   0.0000   0.0000   0.0000   0.1887
  -4.000  -0.4140   0.04553   0.04057  -0.0248  1.0000  0.1858  -1.3659   0.0000   0.0000   0.0000   0.1888
  -3.700  -0.3599   0.03544   0.02890  -0.0300  1.0000  0.0871  -1.7120   0.0000   0.0000   0.0000   0.1646
  -3.600  -0.3427   0.03259   0.02526  -0.0300  1.0000  0.0696  -1.8754   0.0000   0.0000   0.0000   0.1602
  -3.400  -0.3230   0.03092   0.02343  -0.0294  1.0000  0.0641  -1.8505   0.0000   0.0000   0.0000   0.1566
  -3.300  -0.3126   0.02934   0.02167  -0.0295  1.0000  0.0623  -1.8568   0.0000   0.0000   0.0000   0.1532
  -3.200  -0.3020   0.02809   0.02023  -0.0295  1.0000  0.0607  -1.8579   0.0000   0.0000   0.0000   0.1499
  -3.100  -0.2913   0.02700   0.01896  -0.0294  1.0000  0.0593  -1.8568   0.0000   0.0000   0.0000   0.1467
  -3.000  -0.2805   0.02602   0.01780  -0.0292  1.0000  0.0581  -1.8540   0.0000   0.0000   0.0000   0.1433
  -2.900  -0.2698   0.02512   0.01674  -0.0290  1.0000  0.0570  -1.8493   0.0000   0.0000   0.0000   0.1399
  -2.800  -0.2591   0.02431   0.01576  -0.0288  1.0000  0.0561  -1.8423   0.0000   0.0000   0.0000   0.1364
  -2.700  -0.2485   0.02356   0.01487  -0.0285  1.0000  0.0554  -1.8325   0.0000   0.0000   0.0000   0.1326
  -2.600  -0.2380   0.02287   0.01405  -0.0282  1.0000  0.0548  -1.8190   0.0000   0.0000   0.0000   0.1287
  -2.500  -0.2276   0.02225   0.01331  -0.0279  1.0000  0.0543  -1.8000   0.0000   0.0000   0.0000   0.1246
  -2.400  -0.2174   0.02167   0.01263  -0.0276  1.0000  0.0536  -1.7717   0.0000   0.0000   0.0000   0.1202
  -2.300  -0.2069   0.02112   0.01161  -0.0272  1.0000  0.0507  -1.7003   0.0000   0.0000   0.0000   0.1156
  -2.200  -0.1971   0.02068   0.01112  -0.0269  1.0000  0.0510  -1.6771   0.0000   0.0000   0.0000   0.1105
  -2.100  -0.1874   0.02027   0.01068  -0.0266  1.0000  0.0516  -1.6528   0.0000   0.0000   0.0000   0.1050
  -2.000  -0.1777   0.01990   0.01028  -0.0263  1.0000  0.0525  -1.6278   0.0000   0.0000   0.0000   0.0988
  -1.900  -0.1681   0.01956   0.00991  -0.0261  1.0000  0.0537  -1.6030   0.0000   0.0000   0.0000   0.0920
  -1.800  -0.1585   0.01926   0.00957  -0.0258  1.0000  0.0555  -1.5794   0.0000   0.0000   0.0000   0.0843
  -1.700  -0.1489   0.01898   0.00925  -0.0255  1.0000  0.0581  -1.5585   0.0000   0.0000   0.0000   0.0756
  -1.600  -0.1391   0.01873   0.00894  -0.0252  1.0000  0.0618  -1.5425   0.0000   0.0000   0.0000   0.0656
  -1.500  -0.1294   0.01853   0.00865  -0.0249  1.0000  0.0669  -1.5315   0.0000   0.0000   0.0000   0.0542
  -1.400  -0.1148   0.01652   0.00788  -0.0258  1.0000  0.3113  -1.6197   0.0000   0.0000   0.0000   0.0224
  -1.300  -0.1088   0.01528   0.00812  -0.0245  1.0000  0.6501  -1.5810   0.0000   0.0000   0.0000   0.0212
  -1.200  -0.1109   0.01493   0.00843  -0.0204  1.0000  0.8656  -1.5530   0.0000   0.0000   0.0000   0.0632
  -1.100  -0.0938   0.01470   0.00823  -0.0216  1.0000  1.0000  -1.4704   0.0000   0.0000   0.0000   0.0161
  -1.000  -0.0853   0.01479   0.00822  -0.0214  1.0000  1.0000  -1.4111   0.0000   0.0000   0.0000  -0.0044
  -0.900  -0.0768   0.01489   0.00822  -0.0212  1.0000  1.0000  -1.3505   0.0000   0.0000   0.0000  -0.0297
  -0.800  -0.0683   0.01499   0.00824  -0.0210  1.0000  1.0000  -1.2893   0.0000   0.0000   0.0000  -0.0615
  -0.700  -0.0597   0.01510   0.00826  -0.0209  1.0000  1.0000  -1.2279   0.0000   0.0000   0.0000  -0.1024
  -0.600  -0.0512   0.01522   0.00830  -0.0207  1.0000  1.0000  -1.1665   0.0000   0.0000   0.0000  -0.1569
  -0.500  -0.0428   0.01534   0.00836  -0.0205  1.0000  1.0000  -1.1054   0.0000   0.0000   0.0000  -0.2332
  -0.400  -0.0343   0.01546   0.00842  -0.0204  1.0000  1.0000  -1.0447   0.0000   0.0000   0.0000  -0.3469
  -0.300  -0.0259   0.01560   0.00849  -0.0202  1.0000  1.0000  -0.9846   0.0000   0.0000   0.0000  -0.5348
  -0.200  -0.0119   0.01580   0.00862  -0.0211  0.9982  1.0000  -0.9073   0.0000   0.0000   0.0000  -1.5292
  -0.100   0.0060   0.01606   0.00881  -0.0228  0.9951  1.0000  -0.8185   0.0000   0.0000   0.0000   4.0688
   0.000   0.0230   0.01630   0.00899  -0.0243  0.9917  1.0000  -0.7338   0.0000   0.0000   0.0000   1.3034
   0.100   0.0409   0.01658   0.00920  -0.0259  0.9888  1.0000  -0.6482   0.0000   0.0000   0.0000   0.8818
   0.200   0.0587   0.01686   0.00943  -0.0275  0.9859  1.0000  -0.5887   0.0000   0.0000   0.0000   0.7166
   0.300   0.0736   0.01702   0.00955  -0.0285  0.9816  1.0000  -0.5428   0.0000   0.0000   0.0000   0.6364
   0.400   0.0906   0.01724   0.00973  -0.0299  0.9777  1.0000  -0.4937   0.0000   0.0000   0.0000   0.5793
   0.500   0.1093   0.01751   0.00995  -0.0317  0.9744  1.0000  -0.4424   0.0000   0.0000   0.0000   0.5384
   0.600   0.1297   0.01784   0.01024  -0.0337  0.9717  1.0000  -0.3893   0.0000   0.0000   0.0000   0.5086
   0.700   0.1413   0.01791   0.01029  -0.0341  0.9667  1.0000  -0.3779   0.0000   0.0000   0.0000   0.4897
   0.800   0.1554   0.01805   0.01041  -0.0350  0.9621  1.0000  -0.3901   0.0000   0.0000   0.0000   0.4732
   0.900   0.1724   0.01824   0.01058  -0.0363  0.9580  1.0000  -0.4042   0.0000   0.0000   0.0000   0.4589
   1.000   0.1918   0.01847   0.01079  -0.0381  0.9545  1.0000  -0.4221   0.0000   0.0000   0.0000   0.4469
   1.100   0.2136   0.01874   0.01105  -0.0403  0.9516  1.0000  -0.4419   0.0000   0.0000   0.0000   0.4370
   1.200   0.2244   0.01880   0.01111  -0.0405  0.9461  1.0000  -0.4541   0.0000   0.0000   0.0000   0.4284
   1.300   0.2366   0.01887   0.01123  -0.0409  0.9403  1.0000  -0.4673   0.0000   0.0000   0.0000   0.4207
   1.400   0.2530   0.01898   0.01134  -0.0420  0.9356  1.0000  -0.4835   0.0000   0.0000   0.0000   0.4140
   1.500   0.2723   0.01912   0.01147  -0.0437  0.9316  1.0000  -0.5022   0.0000   0.0000   0.0000   0.4083
   1.600   0.2943   0.01927   0.01162  -0.0458  0.9282  1.0000  -0.5260   0.0000   0.0000   0.0000   0.4035
   1.700   0.3190   0.01946   0.01180  -0.0484  0.9255  1.0000  -0.5522   0.0000   0.0000   0.0000   0.3995
   1.800   0.3201   0.01941   0.01175  -0.0467  0.9174  1.0000  -0.5593   0.0000   0.0000   0.0000   0.3935
   1.900   0.3331   0.01944   0.01179  -0.0471  0.9114  1.0000  -0.5762   0.0000   0.0000   0.0000   0.3890
   2.000   0.3509   0.01947   0.01182  -0.0483  0.9064  1.0000  -0.5975   0.0000   0.0000   0.0000   0.3853
   2.100   0.3725   0.01948   0.01184  -0.0502  0.9023  1.0000  -0.6268   0.0000   0.0000   0.0000   0.3823
   2.200   0.3967   0.01946   0.01185  -0.0525  0.8988  1.0000  -0.6588   0.0000   0.0000   0.0000   0.3798
   2.300   0.4221   0.01946   0.01187  -0.0550  0.8961  1.0000  -0.6923   0.0000   0.0000   0.0000   0.3777
   2.400   0.4184   0.01950   0.01191  -0.0523  0.8864  1.0000  -0.6969   0.0000   0.0000   0.0000   0.3725
   2.500   0.4320   0.01945   0.01189  -0.0527  0.8798  1.0000  -0.7227   0.0000   0.0000   0.0000   0.3693
   2.600   0.4513   0.01934   0.01180  -0.0540  0.8745  1.0000  -0.7564   0.0000   0.0000   0.0000   0.3669
   2.700   0.4732   0.01918   0.01168  -0.0556  0.8702  1.0000  -0.7939   0.0000   0.0000   0.0000   0.3649
   2.800   0.4978   0.01896   0.01151  -0.0578  0.8668  1.0000  -0.8352   0.0000   0.0000   0.0000   0.3632
   2.900   0.5255   0.01866   0.01127  -0.0604  0.8640  1.0000  -0.8870   0.0000   0.0000   0.0000   0.3620
   3.000   0.5280   0.01873   0.01135  -0.0587  0.8551  1.0000  -0.9061   0.0000   0.0000   0.0000   0.3582
   3.100   0.5370   0.01865   0.01130  -0.0580  0.8466  1.0000  -0.9359   0.0000   0.0000   0.0000   0.3551
   3.200   0.5555   0.01839   0.01109  -0.0589  0.8407  1.0000  -0.9815   0.0000   0.0000   0.0000   0.3531
   3.300   0.5777   0.01802   0.01078  -0.0603  0.8360  1.0000  -1.0337   0.0000   0.0000   0.0000   0.3514
   3.400   0.6006   0.01760   0.01042  -0.0618  0.8319  1.0000  -1.0878   0.0000   0.0000   0.0000   0.3497
   3.500   0.6248   0.01714   0.01003  -0.0634  0.8280  1.0000  -1.1446   0.0000   0.0000   0.0000   0.3483
   3.600   0.6359   0.01701   0.00994  -0.0630  0.8206  1.0000  -1.1795   0.0000   0.0000   0.0000   0.3458
   3.700   0.6400   0.01700   0.00997  -0.0614  0.8097  1.0000  -1.2028   0.0000   0.0000   0.0000   0.3427
   3.800   0.6552   0.01668   0.00970  -0.0615  0.8015  1.0000  -1.2455   0.0000   0.0000   0.0000   0.3405
   3.900   0.6753   0.01622   0.00929  -0.0623  0.7943  1.0000  -1.2972   0.0000   0.0000   0.0000   0.3388
   4.000   0.6977   0.01570   0.00881  -0.0634  0.7875  1.0000  -1.3534   0.0000   0.0000   0.0000   0.3373
   4.100   0.7065   0.01565   0.00905  -0.0626  0.7791  1.0000  -1.3833   0.0000   0.0000   0.0000   0.3351
   4.200   0.7128   0.01559   0.00904  -0.0614  0.7668  1.0000  -1.4099   0.0000   0.0000   0.0000   0.3325
   4.300   0.7266   0.01531   0.00879  -0.0612  0.7556  1.0000  -1.4616   0.0000   0.0000   0.0000   0.3305
   4.400   0.7468   0.01488   0.00836  -0.0620  0.7446  1.0000  -1.5690   0.0000   0.0000   0.0000   0.3292
   4.500   0.7529   0.01487   0.00838  -0.0607  0.7296  1.0000  -1.6261   0.0000   0.0000   0.0000   0.3267
   4.600   0.7631   0.01472   0.00824  -0.0600  0.7126  1.0000  -1.6982   0.0000   0.0000   0.0000   0.3246
   4.700   0.7798   0.01445   0.00790  -0.0602  0.6951  1.0000  -1.7942   0.0000   0.0000   0.0000   0.3231
   4.800   0.7858   0.01447   0.00796  -0.0590  0.6744  1.0000  -1.8519   0.0000   0.0000   0.0000   0.3209
   5.000   0.8068   0.01439   0.00772  -0.0576  0.6242  1.0000  -2.0026   0.0000   0.0000   0.0000   0.3171
   5.100   0.8171   0.01444   0.00761  -0.0570  0.5944  1.0000  -2.0787   0.0000   0.0000   0.0000   0.3153
   5.200   0.8251   0.01458   0.00760  -0.0560  0.5618  1.0000  -2.1467   0.0000   0.0000   0.0000   0.3133
   5.300   0.8327   0.01479   0.00767  -0.0551  0.5301  1.0000  -2.2134   0.0000   0.0000   0.0000   0.3115
   5.400   0.8400   0.01508   0.00774  -0.0541  0.4985  1.0000  -2.2798   0.0000   0.0000   0.0000   0.3097
   5.500   0.8465   0.01538   0.00789  -0.0531  0.4671  1.0000  -2.3431   0.0000   0.0000   0.0000   0.3079
   5.600   0.8529   0.01572   0.00807  -0.0521  0.4377  1.0000  -2.4063   0.0000   0.0000   0.0000   0.3062
   5.700   0.8586   0.01614   0.00825  -0.0511  0.4081  1.0000  -2.4675   0.0000   0.0000   0.0000   0.3045
   5.800   0.8650   0.01648   0.00850  -0.0502  0.3808  1.0000  -2.5310   0.0000   0.0000   0.0000   0.3029
   5.900   0.8703   0.01698   0.00873  -0.0492  0.3540  1.0000  -2.5912   0.0000   0.0000   0.0000   0.3013
   6.000   0.8771   0.01730   0.00901  -0.0484  0.3298  1.0000  -2.6564   0.0000   0.0000   0.0000   0.2999
   6.100   0.8824   0.01784   0.00930  -0.0474  0.3060  1.0000  -2.7168   0.0000   0.0000   0.0000   0.2983
   6.200   0.8893   0.01814   0.00957  -0.0467  0.2843  1.0000  -2.7839   0.0000   0.0000   0.0000   0.2970
   6.300   0.8942   0.01872   0.00988  -0.0458  0.2621  1.0000  -2.8443   0.0000   0.0000   0.0000   0.2956
   6.400   0.9016   0.01894   0.01013  -0.0452  0.2435  1.0000  -2.9154   0.0000   0.0000   0.0000   0.2944
   6.500   0.9066   0.01945   0.01041  -0.0443  0.2242  1.0000  -2.9789   0.0000   0.0000   0.0000   0.2930
   6.600   0.9141   0.01970   0.01065  -0.0438  0.2073  1.0000  -3.0530   0.0000   0.0000   0.0000   0.2920
   6.700   0.9201   0.02005   0.01084  -0.0431  0.1904  1.0000  -3.1248   0.0000   0.0000   0.0000   0.2908
   6.800   0.9266   0.02044   0.01112  -0.0425  0.1750  1.0000  -3.1974   0.0000   0.0000   0.0000   0.2897
   6.900   0.9343   0.02064   0.01129  -0.0421  0.1602  1.0000  -3.2794   0.0000   0.0000   0.0000   0.2888
   7.000   0.9397   0.02113   0.01159  -0.0414  0.1463  1.0000  -3.3503   0.0000   0.0000   0.0000   0.2877
   7.100   0.9484   0.02133   0.01182  -0.0411  0.1359  1.0000  -3.4358   0.0000   0.0000   0.0000   0.2869
   7.200   0.9563   0.02161   0.01208  -0.0407  0.1263  1.0000  -3.5185   0.0000   0.0000   0.0000   0.2860
   7.300   0.9630   0.02202   0.01240  -0.0402  0.1179  1.0000  -3.5947   0.0000   0.0000   0.0000   0.2849
   7.400   0.9696   0.02249   0.01281  -0.0395  0.1097  1.0000  -3.6690   0.0000   0.0000   0.0000   0.2839
   7.500   0.9786   0.02269   0.01309  -0.0392  0.1020  1.0000  -3.7580   0.0000   0.0000   0.0000   0.2831
   7.600   0.9862   0.02301   0.01341  -0.0388  0.0939  1.0000  -3.8406   0.0000   0.0000   0.0000   0.2822
   7.700   0.9917   0.02356   0.01385  -0.0381  0.0853  1.0000  -3.9106   0.0000   0.0000   0.0000   0.2812
   7.800   1.0002   0.02380   0.01412  -0.0378  0.0745  1.0000  -3.9999   0.0000   0.0000   0.0000   0.2804
   7.900   1.0066   0.02429   0.01450  -0.0372  0.0627  1.0000  -4.0726   0.0000   0.0000   0.0000   0.2795
   8.000   1.0119   0.02536   0.01627  -0.0359  0.0731  1.0000  -4.1447   0.0000   0.0000   0.0000   0.2779
   8.100   1.0189   0.02572   0.01668  -0.0354  0.0676  1.0000  -4.2631   0.0000   0.0000   0.0000   0.2771
   8.200   1.0233   0.02642   0.01729  -0.0345  0.0611  1.0000  -4.3445   0.0000   0.0000   0.0000   0.2760
   8.300   1.0288   0.02727   0.01820  -0.0336  0.0539  1.0000  -4.3944   0.0000   0.0000   0.0000   0.2748
   8.400   1.0345   0.02784   0.01880  -0.0328  0.0450  1.0000  -4.4387   0.0000   0.0000   0.0000   0.2737
   8.500   1.0347   0.02947   0.02034  -0.0314  0.0380  1.0000  -4.4193   0.0000   0.0000   0.0000   0.2722
   8.600   1.0417   0.03029   0.02125  -0.0306  0.0346  1.0000  -4.4467   0.0000   0.0000   0.0000   0.2711
   8.700   1.0484   0.03117   0.02224  -0.0298  0.0317  1.0000  -4.4755   0.0000   0.0000   0.0000   0.2700
   8.800   1.0548   0.03206   0.02321  -0.0290  0.0294  1.0000  -4.5107   0.0000   0.0000   0.0000   0.2690
   8.900   1.0609   0.03293   0.02416  -0.0283  0.0278  1.0000  -4.5538   0.0000   0.0000   0.0000   0.2681
   9.000   1.0667   0.03381   0.02510  -0.0276  0.0265  1.0000  -4.6017   0.0000   0.0000   0.0000   0.2671
   9.100   1.0721   0.03478   0.02613  -0.0268  0.0254  1.0000  -4.6485   0.0000   0.0000   0.0000   0.2662
   9.200   1.0773   0.03591   0.02735  -0.0261  0.0246  1.0000  -4.6881   0.0000   0.0000   0.0000   0.2653
   9.300   1.0822   0.03726   0.02881  -0.0254  0.0239  1.0000  -4.7166   0.0000   0.0000   0.0000   0.2644
   9.400   1.0866   0.03881   0.03050  -0.0246  0.0233  1.0000  -4.7339   0.0000   0.0000   0.0000   0.2635
   9.500   1.0903   0.04051   0.03235  -0.0238  0.0230  1.0000  -4.7423   0.0000   0.0000   0.0000   0.2625
   9.600   1.0928   0.04224   0.03425  -0.0229  0.0227  1.0000  -4.7450   0.0000   0.0000   0.0000   0.2616
   9.700   1.0945   0.04397   0.03616  -0.0219  0.0225  1.0000  -4.7444   0.0000   0.0000   0.0000   0.2605
   9.800   1.0952   0.04566   0.03802  -0.0208  0.0224  1.0000  -4.7419   0.0000   0.0000   0.0000   0.2595
   9.900   1.0949   0.04728   0.03981  -0.0197  0.0223  1.0000  -4.7386   0.0000   0.0000   0.0000   0.2584
  10.000   1.0939   0.04884   0.04154  -0.0186  0.0223  1.0000  -4.7351   0.0000   0.0000   0.0000   0.2572
  10.100   1.0921   0.05033   0.04318  -0.0174  0.0222  1.0000  -4.7313   0.0000   0.0000   0.0000   0.2561
  10.200   1.0894   0.05172   0.04471  -0.0161  0.0222  1.0000  -4.7270   0.0000   0.0000   0.0000   0.2548
  10.300   1.0862   0.05308   0.04619  -0.0148  0.0222  1.0000  -4.7223   0.0000   0.0000   0.0000   0.2535
  10.400   1.0826   0.05442   0.04765  -0.0135  0.0223  1.0000  -4.7172   0.0000   0.0000   0.0000   0.2523
  10.500   1.0785   0.05574   0.04910  -0.0123  0.0223  1.0000  -4.7114   0.0000   0.0000   0.0000   0.2511
  10.600   1.0741   0.05706   0.05053  -0.0111  0.0223  1.0000  -4.7047   0.0000   0.0000   0.0000   0.2500
  10.700   1.0693   0.05838   0.05196  -0.0100  0.0224  1.0000  -4.6970   0.0000   0.0000   0.0000   0.2489
  10.800   1.0643   0.05973   0.05342  -0.0091  0.0224  1.0000  -4.6881   0.0000   0.0000   0.0000   0.2479
  10.900   1.0589   0.06110   0.05489  -0.0083  0.0225  1.0000  -4.6777   0.0000   0.0000   0.0000   0.2471
  11.000   1.0532   0.06250   0.05639  -0.0075  0.0225  1.0000  -4.6658   0.0000   0.0000   0.0000   0.2463
  11.100   1.0472   0.06394   0.05793  -0.0070  0.0226  1.0000  -4.6519   0.0000   0.0000   0.0000   0.2456
  11.200   1.0410   0.06545   0.05954  -0.0065  0.0227  1.0000  -4.6360   0.0000   0.0000   0.0000   0.2451
  11.300   1.0344   0.06702   0.06121  -0.0063  0.0227  1.0000  -4.6177   0.0000   0.0000   0.0000   0.2448
  11.400   1.0277   0.06869   0.06296  -0.0062  0.0228  1.0000  -4.5967   0.0000   0.0000   0.0000   0.2446
  11.500   1.0207   0.07044   0.06481  -0.0063  0.0229  1.0000  -4.5726   0.0000   0.0000   0.0000   0.2447
  11.600   1.0134   0.07229   0.06675  -0.0067  0.0230  1.0000  -4.5451   0.0000   0.0000   0.0000   0.2449
  11.700   1.0057   0.07426   0.06881  -0.0072  0.0231  1.0000  -4.5137   0.0000   0.0000   0.0000   0.2453
  11.800   0.9976   0.07633   0.07096  -0.0080  0.0232  1.0000  -4.4778   0.0000   0.0000   0.0000   0.2460
  11.900   0.9892   0.07857   0.07329  -0.0090  0.0233  1.0000  -4.4364   0.0000   0.0000   0.0000   0.2470
  12.000   0.9804   0.08103   0.07584  -0.0103  0.0234  1.0000  -4.3884   0.0000   0.0000   0.0000   0.2483
  12.100   0.9713   0.08377   0.07866  -0.0120  0.0235  1.0000  -4.3316   0.0000   0.0000   0.0000   0.2500
  12.200   0.9616   0.08686   0.08183  -0.0142  0.0237  1.0000  -4.2629   0.0000   0.0000   0.0000   0.2522
  12.300   0.9510   0.09043   0.08548  -0.0168  0.0239  1.0000  -4.1764   0.0000   0.0000   0.0000   0.2551
  12.400   0.9389   0.09477   0.08989  -0.0202  0.0242  1.0000  -4.0595   0.0000   0.0000   0.0000   0.2588
  12.500   0.9242   0.10046   0.09566  -0.0246  0.0247  1.0000  -3.8840   0.0000   0.0000   0.0000   0.2639
  12.600   0.9048   0.10852   0.10377  -0.0304  0.0256  1.0000  -3.6003   0.0000   0.0000   0.0000   0.2710
  12.700   0.8848   0.11781   0.11306  -0.0360  0.0269  1.0000  -3.2444   0.0000   0.0000   0.0000   0.2784
  12.800   0.8746   0.12328   0.11849  -0.0391  0.0277  1.0000  -3.0594   0.0000   0.0000   0.0000   0.2824
  12.900   0.8678   0.12744   0.12261  -0.0413  0.0282  1.0000  -2.9348   0.0000   0.0000   0.0000   0.2854
  13.000   0.8626   0.13107   0.12622  -0.0432  0.0286  1.0000  -2.8337   0.0000   0.0000   0.0000   0.2879
  13.100   0.8584   0.13439   0.12951  -0.0449  0.0290  1.0000  -2.7465   0.0000   0.0000   0.0000   0.2901
  13.200   0.8549   0.13749   0.13259  -0.0465  0.0294  1.0000  -2.6692   0.0000   0.0000   0.0000   0.2921
  13.300   0.8520   0.14042   0.13550  -0.0480  0.0297  1.0000  -2.5995   0.0000   0.0000   0.0000   0.2940
  13.400   0.8496   0.14321   0.13827  -0.0493  0.0301  1.0000  -2.5361   0.0000   0.0000   0.0000   0.2957
  13.500   0.8477   0.14588   0.14092  -0.0506  0.0305  1.0000  -2.4785   0.0000   0.0000   0.0000   0.2973
  13.600   0.8462   0.14838   0.14341  -0.0518  0.0308  1.0000  -2.4262   0.0000   0.0000   0.0000   0.2988
  13.700   0.8451   0.15076   0.14577  -0.0530  0.0312  1.0000  -2.3791   0.0000   0.0000   0.0000   0.3002
  13.800   0.8442   0.15305   0.14805  -0.0541  0.0317  1.0000  -2.3369   0.0000   0.0000   0.0000   0.3014
  13.900   0.8437   0.15528   0.15028  -0.0551  0.0321  1.0000  -2.2996   0.0000   0.0000   0.0000   0.3026
  14.000   0.8435   0.15747   0.15246  -0.0561  0.0326  1.0000  -2.2669   0.0000   0.0000   0.0000   0.3037
  14.100   0.8435   0.15962   0.15460  -0.0570  0.0331  1.0000  -2.2389   0.0000   0.0000   0.0000   0.3047
  14.200   0.8438   0.16174   0.15672  -0.0579  0.0337  1.0000  -2.2151   0.0000   0.0000   0.0000   0.3057
  14.300   0.8442   0.16385   0.15882  -0.0587  0.0343  1.0000  -2.1954   0.0000   0.0000   0.0000   0.3065
  14.400   0.8447   0.16597   0.16094  -0.0594  0.0350  1.0000  -2.1797   0.0000   0.0000   0.0000   0.3071
  14.500   0.8451   0.16820   0.16317  -0.0599  0.0358  1.0000  -2.1684   0.0000   0.0000   0.0000   0.3076
  14.700   0.8385   0.17726   0.17188  -0.0657  0.0473  1.0000  -1.7955   0.0000   0.0000   0.0000   0.3153
  15.200   0.8620   0.18842   0.18349  -0.0651  0.0602  1.0000  -1.8613   0.0000   0.0000   0.0000   0.3120
  15.300   0.8638   0.19055   0.18562  -0.0658  0.0601  1.0000  -1.8574   0.0000   0.0000   0.0000   0.3125
  15.400   0.8659   0.19275   0.18782  -0.0664  0.0599  1.0000  -1.8566   0.0000   0.0000   0.0000   0.3129
  15.500   0.8683   0.19505   0.19013  -0.0669  0.0597  1.0000  -1.8588   0.0000   0.0000   0.0000   0.3132
  15.600   0.8709   0.19757   0.19265  -0.0673  0.0594  1.0000  -1.8641   0.0000   0.0000   0.0000   0.3133
  15.700   0.8723   0.20070   0.19579  -0.0677  0.0590  1.0000  -1.8605   0.0000   0.0000   0.0000   0.3136
  15.800   0.8677   0.20783   0.20285  -0.0688  0.0580  1.0000  -1.7923   0.0000   0.0000   0.0000   0.3152
  15.900   0.8693   0.20997   0.20499  -0.0696  0.0579  1.0000  -1.7832   0.0000   0.0000   0.0000   0.3159
  16.000   0.8710   0.21209   0.20710  -0.0705  0.0579  1.0000  -1.7741   0.0000   0.0000   0.0000   0.3166
  16.100   0.8726   0.21418   0.20920  -0.0714  0.0579  1.0000  -1.7650   0.0000   0.0000   0.0000   0.3174
  16.200   0.8742   0.21626   0.21127  -0.0723  0.0579  1.0000  -1.7559   0.0000   0.0000   0.0000   0.3181
  16.300   0.8758   0.21831   0.21332  -0.0731  0.0578  1.0000  -1.7468   0.0000   0.0000   0.0000   0.3189
  16.400   0.8774   0.22033   0.21535  -0.0740  0.0578  1.0000  -1.7376   0.0000   0.0000   0.0000   0.3196
  16.500   0.8790   0.22234   0.21735  -0.0749  0.0578  1.0000  -1.7285   0.0000   0.0000   0.0000   0.3204
  16.600   0.8805   0.22431   0.21933  -0.0758  0.0577  1.0000  -1.7194   0.0000   0.0000   0.0000   0.3211
  16.700   0.8821   0.22625   0.22127  -0.0767  0.0577  1.0000  -1.7103   0.0000   0.0000   0.0000   0.3219
  16.800   0.8836   0.22816   0.22318  -0.0776  0.0576  1.0000  -1.7011   0.0000   0.0000   0.0000   0.3226
  16.900   0.8851   0.23003   0.22505  -0.0785  0.0575  1.0000  -1.6919   0.0000   0.0000   0.0000   0.3234
  17.000   0.8865   0.23185   0.22687  -0.0795  0.0575  1.0000  -1.6826   0.0000   0.0000   0.0000   0.3242
  17.100   0.8880   0.23362   0.22863  -0.0804  0.0574  1.0000  -1.6731   0.0000   0.0000   0.0000   0.3250
  17.200   0.8894   0.23531   0.23033  -0.0814  0.0573  1.0000  -1.6633   0.0000   0.0000   0.0000   0.3258
  17.300   0.8901   0.23685   0.23186  -0.0824  0.0571  1.0000  -1.6490   0.0000   0.0000   0.0000   0.3268
  17.400   0.8905   0.23825   0.23326  -0.0836  0.0569  1.0000  -1.6323   0.0000   0.0000   0.0000   0.3279
  17.500   0.8907   0.23948   0.23449  -0.0848  0.0567  1.0000  -1.6135   0.0000   0.0000   0.0000   0.3292
  17.600   0.8897   0.24043   0.23543  -0.0862  0.0564  1.0000  -1.5892   0.0000   0.0000   0.0000   0.3307
  17.700   0.8886   0.24128   0.23627  -0.0877  0.0560  1.0000  -1.5623   0.0000   0.0000   0.0000   0.3323
  17.800   0.8878   0.24220   0.23718  -0.0892  0.0555  1.0000  -1.5347   0.0000   0.0000   0.0000   0.3340
  17.900   0.8877   0.24338   0.23836  -0.0906  0.0547  1.0000  -1.5099   0.0000   0.0000   0.0000   0.3355
  18.000   0.8882   0.24489   0.23987  -0.0919  0.0539  1.0000  -1.4910   0.0000   0.0000   0.0000   0.3367
  18.100   0.8892   0.24662   0.24160  -0.0929  0.0531  1.0000  -1.4772   0.0000   0.0000   0.0000   0.3376
  18.200   0.8905   0.24849   0.24347  -0.0939  0.0523  1.0000  -1.4669   0.0000   0.0000   0.0000   0.3384
  18.300   0.8918   0.25041   0.24540  -0.0947  0.0516  1.0000  -1.4588   0.0000   0.0000   0.0000   0.3391
  18.400   0.8932   0.25238   0.24737  -0.0955  0.0509  1.0000  -1.4524   0.0000   0.0000   0.0000   0.3397
  18.500   0.8946   0.25437   0.24936  -0.0963  0.0503  1.0000  -1.4471   0.0000   0.0000   0.0000   0.3403
  18.600   0.8960   0.25637   0.25137  -0.0971  0.0496  1.0000  -1.4428   0.0000   0.0000   0.0000   0.3408
  18.700   0.8974   0.25839   0.25339  -0.0978  0.0490  1.0000  -1.4392   0.0000   0.0000   0.0000   0.3413
  18.800   0.8988   0.26041   0.25542  -0.0985  0.0484  1.0000  -1.4363   0.0000   0.0000   0.0000   0.3418
  18.900   0.9002   0.26243   0.25745  -0.0992  0.0478  1.0000  -1.4339   0.0000   0.0000   0.0000   0.3422
  19.000   0.9016   0.26445   0.25947  -0.0999  0.0473  1.0000  -1.4322   0.0000   0.0000   0.0000   0.3427
  19.100   0.9030   0.26648   0.26150  -0.1005  0.0467  1.0000  -1.4310   0.0000   0.0000   0.0000   0.3431
  19.200   0.9043   0.26850   0.26353  -0.1011  0.0462  1.0000  -1.4304   0.0000   0.0000   0.0000   0.3435
  19.300   0.9057   0.27052   0.26556  -0.1017  0.0456  1.0000  -1.4304   0.0000   0.0000   0.0000   0.3439
  19.400   0.9069   0.27253   0.26759  -0.1023  0.0451  1.0000  -1.4309   0.0000   0.0000   0.0000   0.3442
  19.500   0.9082   0.27455   0.26961  -0.1029  0.0446  1.0000  -1.4321   0.0000   0.0000   0.0000   0.3446
  19.600   0.9094   0.27655   0.27162  -0.1035  0.0441  1.0000  -1.4340   0.0000   0.0000   0.0000   0.3449
  19.700   0.9107   0.27856   0.27364  -0.1040  0.0436  1.0000  -1.4366   0.0000   0.0000   0.0000   0.3452
  19.800   0.9118   0.28056   0.27565  -0.1045  0.0432  1.0000  -1.4400   0.0000   0.0000   0.0000   0.3454
  19.900   0.9130   0.28256   0.27766  -0.1050  0.0427  1.0000  -1.4443   0.0000   0.0000   0.0000   0.3457
  20.000   0.9141   0.28456   0.27966  -0.1054  0.0423  1.0000  -1.4496   0.0000   0.0000   0.0000   0.3459
  20.100   0.9153   0.28656   0.28168  -0.1058  0.0418  1.0000  -1.4561   0.0000   0.0000   0.0000   0.3460
  20.200   0.9164   0.28857   0.28370  -0.1062  0.0414  1.0000  -1.4638   0.0000   0.0000   0.0000   0.3461
  20.300   0.9175   0.29060   0.28574  -0.1065  0.0410  1.0000  -1.4731   0.0000   0.0000   0.0000   0.3462
  20.400   0.9187   0.29266   0.28782  -0.1067  0.0406  1.0000  -1.4843   0.0000   0.0000   0.0000   0.3462
  20.500   0.9200   0.29479   0.28996  -0.1069  0.0402  1.0000  -1.4978   0.0000   0.0000   0.0000   0.3461
  20.600   0.9214   0.29703   0.29221  -0.1070  0.0398  1.0000  -1.5143   0.0000   0.0000   0.0000   0.3458
  20.700   0.9233   0.29948   0.29468  -0.1070  0.0394  1.0000  -1.5351   0.0000   0.0000   0.0000   0.3454
  20.800   0.9262   0.30240   0.29763  -0.1068  0.0390  1.0000  -1.5635   0.0000   0.0000   0.0000   0.3447
  20.900   0.9323   0.30708   0.30234  -0.1060  0.0384  1.0000  -1.6121   0.0000   0.0000   0.0000   0.3431
  21.000   0.9362   0.31772   0.31293  -0.1056  0.0375  1.0000  -1.5977   0.0000   0.0000   0.0000   0.3422
  21.100   0.9357   0.31954   0.31477  -0.1062  0.0375  1.0000  -1.5873   0.0000   0.0000   0.0000   0.3428
  21.200   0.9350   0.32133   0.31656  -0.1068  0.0375  1.0000  -1.5765   0.0000   0.0000   0.0000   0.3433
  21.300   0.9342   0.32304   0.31829  -0.1073  0.0374  1.0000  -1.5653   0.0000   0.0000   0.0000   0.3439
  21.400   0.9330   0.32467   0.31994  -0.1078  0.0374  1.0000  -1.5535   0.0000   0.0000   0.0000   0.3445
  21.500   0.9316   0.32623   0.32151  -0.1083  0.0374  1.0000  -1.5412   0.0000   0.0000   0.0000   0.3450
  21.600   0.9298   0.32768   0.32298  -0.1088  0.0374  1.0000  -1.5282   0.0000   0.0000   0.0000   0.3456
  21.700   0.9275   0.32898   0.32430  -0.1091  0.0373  1.0000  -1.5141   0.0000   0.0000   0.0000   0.3462
  21.800   0.9246   0.33011   0.32545  -0.1094  0.0373  1.0000  -1.4988   0.0000   0.0000   0.0000   0.3468
  21.900   0.9210   0.33101   0.32637  -0.1097  0.0373  1.0000  -1.4818   0.0000   0.0000   0.0000   0.3475
  22.000   0.8941   0.32564   0.32110  -0.1071  0.0373  1.0000  -1.4144   0.0000   0.0000   0.0000   0.3485
  22.100   0.8812   0.32319   0.31869  -0.1061  0.0373  1.0000  -1.3776   0.0000   0.0000   0.0000   0.3493
  22.200   0.8730   0.32190   0.31744  -0.1058  0.0373  1.0000  -1.3505   0.0000   0.0000   0.0000   0.3501
  22.300   0.8660   0.32085   0.31642  -0.1056  0.0372  1.0000  -1.3250   0.0000   0.0000   0.0000   0.3509
  22.400   0.8600   0.31997   0.31558  -0.1056  0.0372  1.0000  -1.3013   0.0000   0.0000   0.0000   0.3517
  22.500   0.8544   0.31917   0.31480  -0.1057  0.0372  1.0000  -1.2783   0.0000   0.0000   0.0000   0.3526
  22.600   0.8494   0.31849   0.31414  -0.1058  0.0371  1.0000  -1.2565   0.0000   0.0000   0.0000   0.3534
  22.700   0.8449   0.31788   0.31356  -0.1060  0.0371  1.0000  -1.2358   0.0000   0.0000   0.0000   0.3542
  22.800   0.8407   0.31735   0.31304  -0.1063  0.0370  1.0000  -1.2159   0.0000   0.0000   0.0000   0.3551
  22.900   0.8369   0.31686   0.31258  -0.1066  0.0370  1.0000  -1.1966   0.0000   0.0000   0.0000   0.3559
  23.000   0.8334   0.31642   0.31216  -0.1069  0.0369  1.0000  -1.1779   0.0000   0.0000   0.0000   0.3568
  23.100   0.8301   0.31602   0.31177  -0.1072  0.0369  1.0000  -1.1596   0.0000   0.0000   0.0000   0.3576
  23.200   0.8270   0.31566   0.31143  -0.1076  0.0368  1.0000  -1.1417   0.0000   0.0000   0.0000   0.3585
  23.300   0.8242   0.31534   0.31112  -0.1081  0.0367  1.0000  -1.1241   0.0000   0.0000   0.0000   0.3594
  23.400   0.8216   0.31506   0.31087  -0.1085  0.0366  1.0000  -1.1068   0.0000   0.0000   0.0000   0.3602
  23.500   0.8193   0.31485   0.31067  -0.1090  0.0365  1.0000  -1.0897   0.0000   0.0000   0.0000   0.3611
  23.600   0.8172   0.31470   0.31054  -0.1095  0.0363  1.0000  -1.0728   0.0000   0.0000   0.0000   0.3620
  23.700   0.8154   0.31464   0.31049  -0.1101  0.0362  1.0000  -1.0562   0.0000   0.0000   0.0000   0.3629
  23.800   0.8139   0.31468   0.31055  -0.1107  0.0360  1.0000  -1.0400   0.0000   0.0000   0.0000   0.3637
  23.900   0.8126   0.31485   0.31073  -0.1113  0.0357  1.0000  -1.0245   0.0000   0.0000   0.0000   0.3645
  24.000   0.8117   0.31514   0.31103  -0.1119  0.0354  1.0000  -1.0102   0.0000   0.0000   0.0000   0.3653
  24.100   0.8109   0.31554   0.31154  -0.1124  0.0351  1.0000  -0.9938   0.0000   0.0000   0.0000   0.3660
  24.200   0.8103   0.31602   0.31203  -0.1130  0.0347  1.0000  -0.9812   0.0000   0.0000   0.0000   0.3667
  24.300   0.8098   0.31656   0.31258  -0.1135  0.0343  1.0000  -0.9706   0.0000   0.0000   0.0000   0.3673
  24.400   0.8092   0.31712   0.31316  -0.1139  0.0339  1.0000  -0.9612   0.0000   0.0000   0.0000   0.3678
  24.500   0.8087   0.31771   0.31376  -0.1144  0.0336  1.0000  -0.9529   0.0000   0.0000   0.0000   0.3683
  24.600   0.8082   0.31830   0.31437  -0.1148  0.0332  1.0000  -0.9454   0.0000   0.0000   0.0000   0.3688
  24.700   0.8078   0.31889   0.31498  -0.1152  0.0328  1.0000  -0.9386   0.0000   0.0000   0.0000   0.3692
  24.800   0.8073   0.31949   0.31559  -0.1156  0.0324  1.0000  -0.9323   0.0000   0.0000   0.0000   0.3697
  24.900   0.8069   0.32009   0.31621  -0.1160  0.0321  1.0000  -0.9265   0.0000   0.0000   0.0000   0.3701
  25.000   0.8065   0.32069   0.31683  -0.1164  0.0317  1.0000  -0.9211   0.0000   0.0000   0.0000   0.3706
  25.100   0.8061   0.32130   0.31744  -0.1168  0.0314  1.0000  -0.9160   0.0000   0.0000   0.0000   0.3710
  25.200   0.8057   0.32190   0.31806  -0.1172  0.0310  1.0000  -0.9113   0.0000   0.0000   0.0000   0.3714
  25.300   0.8054   0.32250   0.31868  -0.1176  0.0307  1.0000  -0.9068   0.0000   0.0000   0.0000   0.3718
  25.400   0.8051   0.32311   0.31930  -0.1180  0.0303  1.0000  -0.9026   0.0000   0.0000   0.0000   0.3722
  25.500   0.8047   0.32371   0.31992  -0.1183  0.0300  1.0000  -0.8987   0.0000   0.0000   0.0000   0.3726
  25.600   0.8045   0.32432   0.32055  -0.1187  0.0297  1.0000  -0.8950   0.0000   0.0000   0.0000   0.3730
  25.700   0.8042   0.32493   0.32117  -0.1191  0.0294  1.0000  -0.8916   0.0000   0.0000   0.0000   0.3733
  25.800   0.8039   0.32553   0.32179  -0.1195  0.0291  1.0000  -0.8884   0.0000   0.0000   0.0000   0.3737
  25.900   0.8037   0.32614   0.32241  -0.1199  0.0288  1.0000  -0.8854   0.0000   0.0000   0.0000   0.3741
  26.000   0.8035   0.32675   0.32303  -0.1203  0.0285  1.0000  -0.8826   0.0000   0.0000   0.0000   0.3745
  26.100   0.8033   0.32735   0.32365  -0.1207  0.0282  1.0000  -0.8800   0.0000   0.0000   0.0000   0.3748
  26.200   0.8031   0.32796   0.32428  -0.1211  0.0279  1.0000  -0.8777   0.0000   0.0000   0.0000   0.3752
  26.300   0.8029   0.32856   0.32490  -0.1215  0.0276  1.0000  -0.8756   0.0000   0.0000   0.0000   0.3755
  26.400   0.8028   0.32917   0.32552  -0.1218  0.0274  1.0000  -0.8737   0.0000   0.0000   0.0000   0.3759
  26.500   0.8026   0.32977   0.32614  -0.1222  0.0271  1.0000  -0.8720   0.0000   0.0000   0.0000   0.3762
  26.600   0.8025   0.33038   0.32675  -0.1226  0.0268  1.0000  -0.8706   0.0000   0.0000   0.0000   0.3766
  26.700   0.8024   0.33098   0.32737  -0.1230  0.0266  1.0000  -0.8693   0.0000   0.0000   0.0000   0.3769
  26.800   0.8023   0.33158   0.32799  -0.1234  0.0263  1.0000  -0.8684   0.0000   0.0000   0.0000   0.3772
  26.900   0.8022   0.33218   0.32860  -0.1238  0.0261  1.0000  -0.8677   0.0000   0.0000   0.0000   0.3776
  27.000   0.8021   0.33278   0.32922  -0.1242  0.0259  1.0000  -0.8672   0.0000   0.0000   0.0000   0.3779
  27.100   0.8020   0.33337   0.32983  -0.1245  0.0256  1.0000  -0.8671   0.0000   0.0000   0.0000   0.3782
  27.200   0.8019   0.33397   0.33044  -0.1249  0.0254  1.0000  -0.8672   0.0000   0.0000   0.0000   0.3785
  27.300   0.8019   0.33456   0.33104  -0.1253  0.0252  1.0000  -0.8676   0.0000   0.0000   0.0000   0.3788
  27.400   0.8018   0.33515   0.33165  -0.1257  0.0249  1.0000  -0.8684   0.0000   0.0000   0.0000   0.3791
  27.500   0.8018   0.33574   0.33226  -0.1260  0.0247  1.0000  -0.8695   0.0000   0.0000   0.0000   0.3794
  27.600   0.8017   0.33633   0.33286  -0.1264  0.0245  1.0000  -0.8709   0.0000   0.0000   0.0000   0.3797
  27.700   0.8017   0.33692   0.33347  -0.1268  0.0243  1.0000  -0.8728   0.0000   0.0000   0.0000   0.3799
  27.800   0.8017   0.33751   0.33407  -0.1271  0.0241  1.0000  -0.8751   0.0000   0.0000   0.0000   0.3802
  27.900   0.8017   0.33810   0.33468  -0.1274  0.0239  1.0000  -0.8779   0.0000   0.0000   0.0000   0.3804
  28.000   0.8017   0.33870   0.33529  -0.1278  0.0237  1.0000  -0.8812   0.0000   0.0000   0.0000   0.3806
  28.100   0.8017   0.33931   0.33591  -0.1281  0.0235  1.0000  -0.8851   0.0000   0.0000   0.0000   0.3809
  28.200   0.8017   0.33993   0.33655  -0.1284  0.0233  1.0000  -0.8896   0.0000   0.0000   0.0000   0.3810
  28.300   0.8017   0.34058   0.33722  -0.1287  0.0232  1.0000  -0.8949   0.0000   0.0000   0.0000   0.3812
  28.400   0.8018   0.34126   0.33792  -0.1290  0.0230  1.0000  -0.9010   0.0000   0.0000   0.0000   0.3813
  28.500   0.8019   0.34201   0.33868  -0.1292  0.0228  1.0000  -0.9080   0.0000   0.0000   0.0000   0.3814
  28.600   0.8022   0.34287   0.33956  -0.1294  0.0226  1.0000  -0.9163   0.0000   0.0000   0.0000   0.3814
  28.700   0.8025   0.34390   0.34060  -0.1296  0.0224  1.0000  -0.9259   0.0000   0.0000   0.0000   0.3813
  28.800   0.8032   0.34525   0.34198  -0.1297  0.0223  1.0000  -0.9377   0.0000   0.0000   0.0000   0.3811
  28.900   0.8045   0.34731   0.34405  -0.1297  0.0221  1.0000  -0.9525   0.0000   0.0000   0.0000   0.3807
  29.000   0.8077   0.35177   0.34853  -0.1295  0.0218  1.0000  -0.9738   0.0000   0.0000   0.0000   0.3797


