xflr5 v6.61

 Calculated polar for: SD2030-086-88

 1 1 Reynolds number fixed          Mach number fixed         

 xtrf =   1.000 (top)        1.000 (bottom)
 Mach =   0.000     Re =     0.563 e 6     Ncrit =   9.000

  alpha     CL        CD       CDp       Cm    Top Xtr Bot Xtr   Cpmin    Chinge    XCp    
 ------- -------- --------- --------- -------- ------- ------- -------- --------- ---------
  -9.600  -0.4431   0.09267   0.09041  -0.0335  1.0000  0.0128  -2.2716   0.0000   0.0000   0.0000   0.1680
  -9.500  -0.4397   0.09248   0.09022  -0.0331  1.0000  0.0133  -2.1649   0.0000   0.0000   0.0000   0.1685
  -9.400  -0.4364   0.09221   0.08995  -0.0327  1.0000  0.0138  -2.0689   0.0000   0.0000   0.0000   0.1689
  -9.300  -0.4342   0.09170   0.08946  -0.0325  1.0000  0.0144  -1.9996   0.0000   0.0000   0.0000   0.1691
  -9.200  -0.4327   0.09102   0.08879  -0.0325  1.0000  0.0149  -1.9503   0.0000   0.0000   0.0000   0.1692
  -9.100  -0.4320   0.09022   0.08800  -0.0324  1.0000  0.0155  -1.9151   0.0000   0.0000   0.0000   0.1692
  -9.000  -0.4317   0.08933   0.08712  -0.0325  1.0000  0.0162  -1.8908   0.0000   0.0000   0.0000   0.1692
  -8.900  -0.4320   0.08837   0.08617  -0.0325  1.0000  0.0168  -1.8758   0.0000   0.0000   0.0000   0.1694
  -8.800  -0.4328   0.08737   0.08518  -0.0325  1.0000  0.0174  -1.8681   0.0000   0.0000   0.0000   0.1696
  -8.700  -0.4341   0.08634   0.08417  -0.0325  1.0000  0.0180  -1.8666   0.0000   0.0000   0.0000   0.1700
  -8.600  -0.4360   0.08531   0.08315  -0.0324  1.0000  0.0186  -1.8703   0.0000   0.0000   0.0000   0.1706
  -8.500  -0.4383   0.08427   0.08214  -0.0323  1.0000  0.0192  -1.8782   0.0000   0.0000   0.0000   0.1713
  -8.400  -0.4411   0.08326   0.08114  -0.0321  1.0000  0.0197  -1.8893   0.0000   0.0000   0.0000   0.1723
  -8.300  -0.4443   0.08228   0.08018  -0.0319  1.0000  0.0202  -1.9034   0.0000   0.0000   0.0000   0.1735
  -8.200  -0.4482   0.08135   0.07927  -0.0316  1.0000  0.0207  -1.9195   0.0000   0.0000   0.0000   0.1750
  -8.100  -0.4524   0.08052   0.07845  -0.0311  1.0000  0.0212  -1.9350   0.0000   0.0000   0.0000   0.1768
  -8.000  -0.4574   0.07975   0.07770  -0.0305  1.0000  0.0215  -1.9516   0.0000   0.0000   0.0000   0.1789
  -7.900  -0.4653   0.07892   0.07690  -0.0296  1.0000  0.0215  -1.9746   0.0000   0.0000   0.0000   0.1823
  -7.800  -0.4764   0.07808   0.07608  -0.0282  1.0000  0.0209  -2.0045   0.0000   0.0000   0.0000   0.1869
  -7.600  -0.4739   0.07796   0.07599  -0.0284  0.9997  0.0231  -1.9637   0.0000   0.0000   0.0000   0.1862
  -7.500  -0.4610   0.07582   0.07383  -0.0332  0.9984  0.0235  -1.9562   0.0000   0.0000   0.0000   0.1743
  -7.400  -0.4504   0.07328   0.07127  -0.0375  0.9970  0.0236  -1.9682   0.0000   0.0000   0.0000   0.1631
  -7.300  -0.4418   0.07087   0.06883  -0.0410  0.9957  0.0237  -1.9854   0.0000   0.0000   0.0000   0.1536
  -7.200  -0.4338   0.06850   0.06643  -0.0441  0.9942  0.0238  -2.0040   0.0000   0.0000   0.0000   0.1447
  -7.100  -0.4255   0.06614   0.06403  -0.0471  0.9926  0.0238  -2.0227   0.0000   0.0000   0.0000   0.1357
  -7.000  -0.4169   0.06380   0.06164  -0.0499  0.9912  0.0239  -2.0412   0.0000   0.0000   0.0000   0.1267
  -6.900  -0.4080   0.06148   0.05927  -0.0526  0.9899  0.0239  -2.0588   0.0000   0.0000   0.0000   0.1176
  -6.800  -0.3988   0.05921   0.05694  -0.0551  0.9888  0.0239  -2.0751   0.0000   0.0000   0.0000   0.1083
  -6.700  -0.3893   0.05699   0.05466  -0.0574  0.9879  0.0240  -2.0897   0.0000   0.0000   0.0000   0.0988
  -6.600  -0.3794   0.05482   0.05242  -0.0597  0.9871  0.0240  -2.1026   0.0000   0.0000   0.0000   0.0890
  -6.500  -0.3730   0.05302   0.05056  -0.0607  0.9852  0.0240  -2.1134   0.0000   0.0000   0.0000   0.0834
  -6.400  -0.3663   0.05127   0.04874  -0.0617  0.9829  0.0240  -2.1226   0.0000   0.0000   0.0000   0.0779
  -6.300  -0.3584   0.04948   0.04687  -0.0629  0.9810  0.0241  -2.1292   0.0000   0.0000   0.0000   0.0708
  -5.800  -0.3128   0.03840   0.03520  -0.0699  0.9742  0.0245  -2.2495   0.0000   0.0000   0.0000   0.0225
  -5.700  -0.3134   0.03083   0.02725  -0.0724  0.9725  0.0267  -2.4768   0.0000   0.0000   0.0000   0.0145
  -5.600  -0.3017   0.03023   0.02666  -0.0735  0.9721  0.0281  -2.3633   0.0000   0.0000   0.0000   0.0019
  -5.500  -0.2889   0.03029   0.02679  -0.0745  0.9718  0.0295  -2.2203   0.0000   0.0000   0.0000  -0.0122
  -5.400  -0.2761   0.03010   0.02661  -0.0754  0.9714  0.0311  -2.1100   0.0000   0.0000   0.0000  -0.0275
  -5.300  -0.2743   0.02977   0.02626  -0.0738  0.9672  0.0320  -2.0685   0.0000   0.0000   0.0000  -0.0231
  -5.200  -0.2654   0.02917   0.02561  -0.0737  0.9650  0.0333  -2.0182   0.0000   0.0000   0.0000  -0.0320
  -5.100  -0.2549   0.02841   0.02477  -0.0739  0.9634  0.0346  -1.9776   0.0000   0.0000   0.0000  -0.0442
  -5.000  -0.2435   0.02760   0.02388  -0.0742  0.9621  0.0359  -1.9418   0.0000   0.0000   0.0000  -0.0591
  -4.900  -0.2315   0.02684   0.02304  -0.0746  0.9609  0.0371  -1.9059   0.0000   0.0000   0.0000  -0.0766
  -4.800  -0.2188   0.02624   0.02237  -0.0750  0.9600  0.0385  -1.8645   0.0000   0.0000   0.0000  -0.0973
  -4.700  -0.2051   0.02595   0.02202  -0.0754  0.9592  0.0400  -1.8122   0.0000   0.0000   0.0000  -0.1222
  -4.600  -0.1897   0.02652   0.02258  -0.0758  0.9586  0.0417  -1.7288   0.0000   0.0000   0.0000  -0.1544
  -4.500  -0.1740   0.02728   0.02331  -0.0762  0.9581  0.0426  -1.6428   0.0000   0.0000   0.0000  -0.1930
  -4.400  -0.1607   0.02673   0.02268  -0.0767  0.9573  0.0428  -1.6023   0.0000   0.0000   0.0000  -0.2326
  -4.300  -0.1480   0.02592   0.02178  -0.0772  0.9564  0.0428  -1.5697   0.0000   0.0000   0.0000  -0.2774
  -4.200  -0.1353   0.02504   0.02080  -0.0776  0.9555  0.0429  -1.5394   0.0000   0.0000   0.0000  -0.3300
  -4.100  -0.1316   0.01919   0.01452  -0.0782  0.9539  0.0473  -1.6688   0.0000   0.0000   0.0000  -0.3510
  -4.000  -0.1188   0.01846   0.01375  -0.0787  0.9532  0.0487  -1.6154   0.0000   0.0000   0.0000  -0.4196
  -3.900  -0.1059   0.01789   0.01313  -0.0792  0.9524  0.0501  -1.5591   0.0000   0.0000   0.0000  -0.5056
  -3.800  -0.0930   0.01740   0.01261  -0.0797  0.9517  0.0515  -1.4966   0.0000   0.0000   0.0000  -0.6150
  -3.700  -0.0786   0.01405   0.00874  -0.0783  0.9509  0.0300  -1.7761   0.0000   0.0000   0.0000  -0.7559
  -3.600  -0.0690   0.01369   0.00820  -0.0774  0.9489  0.0265  -1.7686   0.0000   0.0000   0.0000  -0.8826
  -3.500  -0.0609   0.01359   0.00796  -0.0766  0.9463  0.0259  -1.7016   0.0000   0.0000   0.0000  -1.0200
  -3.400  -0.0504   0.01383   0.00822  -0.0763  0.9441  0.0250  -1.6261   0.0000   0.0000   0.0000  -1.2788
  -3.300  -0.0415   0.01244   0.00673  -0.0756  0.9419  0.0225  -1.6807   0.0000   0.0000   0.0000  -1.5896
  -3.200  -0.0314   0.01176   0.00597  -0.0752  0.9400  0.0217  -1.6722   0.0000   0.0000   0.0000  -2.1692
  -3.100  -0.0207   0.01123   0.00537  -0.0750  0.9382  0.0210  -1.6516   0.0000   0.0000   0.0000  -3.3997
  -3.000  -0.0096   0.01078   0.00487  -0.0748  0.9365  0.0204  -1.6234   0.0000   0.0000   0.0000  -7.6504
  -2.900   0.0019   0.01041   0.00443  -0.0748  0.9349  0.0198  -1.5892   0.0000   0.0000   0.0000  39.5254
  -2.800   0.0136   0.01009   0.00405  -0.0748  0.9333  0.0194  -1.5499   0.0000   0.0000   0.0000   5.7849
  -2.700   0.0255   0.00982   0.00372  -0.0748  0.9319  0.0190  -1.5065   0.0000   0.0000   0.0000   3.2079
  -2.600   0.0374   0.00960   0.00344  -0.0748  0.9305  0.0188  -1.4597   0.0000   0.0000   0.0000   2.2657
  -2.500   0.0493   0.00941   0.00320  -0.0749  0.9291  0.0185  -1.4101   0.0000   0.0000   0.0000   1.7790
  -2.400   0.0613   0.00926   0.00300  -0.0749  0.9276  0.0184  -1.3578   0.0000   0.0000   0.0000   1.4803
  -2.300   0.0736   0.00914   0.00284  -0.0750  0.9260  0.0184  -1.3021   0.0000   0.0000   0.0000   1.2765
  -2.200   0.0839   0.00905   0.00271  -0.0748  0.9240  0.0185  -1.2490   0.0000   0.0000   0.0000   1.1471
  -2.100   0.0933   0.00897   0.00259  -0.0743  0.9216  0.0187  -1.1968   0.0000   0.0000   0.0000   1.0510
  -2.000   0.1034   0.00890   0.00248  -0.0740  0.9190  0.0191  -1.1430   0.0000   0.0000   0.0000   0.9699
  -1.900   0.1139   0.00882   0.00237  -0.0738  0.9164  0.0198  -1.0888   0.0000   0.0000   0.0000   0.9014
  -1.800   0.1247   0.00873   0.00227  -0.0736  0.9138  0.0213  -1.0362   0.0000   0.0000   0.0000   0.8433
  -1.700   0.1357   0.00863   0.00218  -0.0735  0.9111  0.0244  -0.9834   0.0000   0.0000   0.0000   0.7940
  -1.600   0.1455   0.00825   0.00207  -0.0733  0.9084  0.0870  -0.9275   0.0000   0.0000   0.0000   0.7558
  -1.500   0.1563   0.00808   0.00200  -0.0733  0.9059  0.1149  -0.8622   0.0000   0.0000   0.0000   0.7203
  -1.400   0.1674   0.00791   0.00193  -0.0732  0.9035  0.1435  -0.7944   0.0000   0.0000   0.0000   0.6890
  -1.300   0.1787   0.00776   0.00187  -0.0733  0.9011  0.1726  -0.7257   0.0000   0.0000   0.0000   0.6613
  -1.200   0.1900   0.00760   0.00182  -0.0734  0.8985  0.2072  -0.6577   0.0000   0.0000   0.0000   0.6370
  -1.100   0.2011   0.00744   0.00178  -0.0734  0.8955  0.2467  -0.5917   0.0000   0.0000   0.0000   0.6159
  -1.000   0.2103   0.00727   0.00176  -0.0731  0.8928  0.2870  -0.5320   0.0000   0.0000   0.0000   0.5982
  -0.900   0.2197   0.00708   0.00173  -0.0728  0.8897  0.3375  -0.4728   0.0000   0.0000   0.0000   0.5820
  -0.800   0.2290   0.00685   0.00171  -0.0726  0.8865  0.3995  -0.4243   0.0000   0.0000   0.0000   0.5672
  -0.700   0.2383   0.00660   0.00168  -0.0723  0.8831  0.4692  -0.3927   0.0000   0.0000   0.0000   0.5535
  -0.600   0.2475   0.00634   0.00165  -0.0720  0.8797  0.5397  -0.4013   0.0000   0.0000   0.0000   0.5408
  -0.500   0.2570   0.00611   0.00163  -0.0717  0.8764  0.6065  -0.4102   0.0000   0.0000   0.0000   0.5287
  -0.400   0.2661   0.00587   0.00162  -0.0712  0.8731  0.6777  -0.4193   0.0000   0.0000   0.0000   0.5172
  -0.300   0.2752   0.00568   0.00164  -0.0706  0.8695  0.7411  -0.4294   0.0000   0.0000   0.0000   0.5062
  -0.200   0.2850   0.00559   0.00166  -0.0701  0.8655  0.7831  -0.4399   0.0000   0.0000   0.0000   0.4956
  -0.100   0.2950   0.00555   0.00168  -0.0697  0.8617  0.8125  -0.4505   0.0000   0.0000   0.0000   0.4859
   0.000   0.3033   0.00550   0.00173  -0.0690  0.8589  0.8408  -0.4602   0.0000   0.0000   0.0000   0.4767
   0.100   0.3109   0.00546   0.00178  -0.0679  0.8557  0.8704  -0.4711   0.0000   0.0000   0.0000   0.4678
   0.200   0.3175   0.00544   0.00184  -0.0666  0.8520  0.9004  -0.4814   0.0000   0.0000   0.0000   0.4590
   0.300   0.3220   0.00544   0.00192  -0.0646  0.8482  0.9323  -0.4904   0.0000   0.0000   0.0000   0.4497
   0.400   0.3296   0.00547   0.00201  -0.0632  0.8446  0.9597  -0.5017   0.0000   0.0000   0.0000   0.4407
   0.500   0.3412   0.00547   0.00199  -0.0631  0.8405  0.9650  -0.5153   0.0000   0.0000   0.0000   0.4340
   0.600   0.3521   0.00548   0.00197  -0.0629  0.8362  0.9700  -0.5285   0.0000   0.0000   0.0000   0.4276
   0.700   0.3684   0.00548   0.00194  -0.0639  0.8318  0.9726  -0.5453   0.0000   0.0000   0.0000   0.4224
   0.800   0.3844   0.00550   0.00192  -0.0649  0.8267  0.9750  -0.5647   0.0000   0.0000   0.0000   0.4177
   0.900   0.4001   0.00550   0.00191  -0.0659  0.8233  0.9776  -0.5840   0.0000   0.0000   0.0000   0.4134
   1.000   0.4157   0.00550   0.00191  -0.0668  0.8196  0.9804  -0.6033   0.0000   0.0000   0.0000   0.4094
   1.100   0.4312   0.00550   0.00191  -0.0678  0.8151  0.9831  -0.6228   0.0000   0.0000   0.0000   0.4057
   1.200   0.4458   0.00551   0.00191  -0.0685  0.8105  0.9858  -0.6421   0.0000   0.0000   0.0000   0.4021
   1.300   0.4620   0.00551   0.00189  -0.0696  0.8061  0.9873  -0.6664   0.0000   0.0000   0.0000   0.3990
   1.400   0.4785   0.00551   0.00187  -0.0707  0.8009  0.9887  -0.6911   0.0000   0.0000   0.0000   0.3962
   1.500   0.4944   0.00552   0.00184  -0.0717  0.7945  0.9901  -0.7154   0.0000   0.0000   0.0000   0.3934
   1.600   0.5098   0.00554   0.00181  -0.0726  0.7866  0.9918  -0.7414   0.0000   0.0000   0.0000   0.3907
   1.700   0.5251   0.00554   0.00181  -0.0736  0.7814  0.9937  -0.7705   0.0000   0.0000   0.0000   0.3883
   1.800   0.5400   0.00554   0.00181  -0.0744  0.7757  0.9957  -0.7993   0.0000   0.0000   0.0000   0.3859
   1.900   0.5551   0.00554   0.00181  -0.0753  0.7692  0.9973  -0.8286   0.0000   0.0000   0.0000   0.3837
   2.000   0.5702   0.00555   0.00179  -0.0762  0.7606  0.9989  -0.8583   0.0000   0.0000   0.0000   0.3816
   2.100   0.5831   0.00558   0.00176  -0.0766  0.7499  1.0000  -0.8855   0.0000   0.0000   0.0000   0.3792
   2.200   0.5914   0.00562   0.00176  -0.0760  0.7401  1.0000  -0.9130   0.0000   0.0000   0.0000   0.3764
   2.300   0.6000   0.00563   0.00176  -0.0755  0.7311  1.0000  -0.9423   0.0000   0.0000   0.0000   0.3736
   2.400   0.6083   0.00567   0.00176  -0.0749  0.7185  1.0000  -0.9712   0.0000   0.0000   0.0000   0.3709
   2.500   0.6159   0.00573   0.00175  -0.0742  0.7041  1.0000  -0.9994   0.0000   0.0000   0.0000   0.3681
   2.600   0.6237   0.00579   0.00176  -0.0735  0.6909  1.0000  -1.0281   0.0000   0.0000   0.0000   0.3654
   2.700   0.6316   0.00585   0.00177  -0.0729  0.6745  1.0000  -1.0571   0.0000   0.0000   0.0000   0.3628
   2.800   0.6380   0.00596   0.00178  -0.0719  0.6543  1.0000  -1.0839   0.0000   0.0000   0.0000   0.3600
   2.900   0.6457   0.00604   0.00180  -0.0712  0.6386  1.0000  -1.1129   0.0000   0.0000   0.0000   0.3576
   3.000   0.6530   0.00613   0.00183  -0.0704  0.6198  1.0000  -1.1414   0.0000   0.0000   0.0000   0.3551
   3.100   0.6592   0.00627   0.00187  -0.0694  0.6001  1.0000  -1.1683   0.0000   0.0000   0.0000   0.3525
   3.200   0.6670   0.00636   0.00190  -0.0688  0.5830  1.0000  -1.1979   0.0000   0.0000   0.0000   0.3502
   3.300   0.6732   0.00652   0.00196  -0.0678  0.5606  1.0000  -1.2252   0.0000   0.0000   0.0000   0.3477
   3.400   0.6805   0.00665   0.00201  -0.0670  0.5421  1.0000  -1.2542   0.0000   0.0000   0.0000   0.3454
   3.500   0.6874   0.00680   0.00207  -0.0662  0.5198  1.0000  -1.2828   0.0000   0.0000   0.0000   0.3432
   3.600   0.6939   0.00698   0.00214  -0.0653  0.4957  1.0000  -1.3108   0.0000   0.0000   0.0000   0.3409
   3.700   0.7007   0.00718   0.00221  -0.0645  0.4688  1.0000  -1.3397   0.0000   0.0000   0.0000   0.3388
   3.800   0.7066   0.00744   0.00239  -0.0636  0.4317  1.0000  -1.3676   0.0000   0.0000   0.0000   0.3366
   3.900   0.7062   0.00818   0.00258  -0.0616  0.3316  1.0000  -1.3837   0.0000   0.0000   0.0000   0.3338
   4.000   0.7082   0.00887   0.00278  -0.0602  0.2446  1.0000  -1.4039   0.0000   0.0000   0.0000   0.3315
   4.100   0.7138   0.00932   0.00293  -0.0594  0.1948  1.0000  -1.4373   0.0000   0.0000   0.0000   0.3296
   4.200   0.7222   0.00954   0.00302  -0.0590  0.1723  1.0000  -1.4784   0.0000   0.0000   0.0000   0.3280
   4.300   0.7302   0.00980   0.00314  -0.0586  0.1502  1.0000  -1.5192   0.0000   0.0000   0.0000   0.3264
   4.400   0.7394   0.00997   0.00322  -0.0583  0.1345  1.0000  -1.5631   0.0000   0.0000   0.0000   0.3249
   4.500   0.7477   0.01021   0.00334  -0.0579  0.1164  1.0000  -1.6056   0.0000   0.0000   0.0000   0.3234
   4.600   0.7572   0.01036   0.00343  -0.0577  0.1053  1.0000  -1.6659   0.0000   0.0000   0.0000   0.3221
   4.700   0.7663   0.01053   0.00353  -0.0574  0.0940  1.0000  -1.7325   0.0000   0.0000   0.0000   0.3207
   4.800   0.7753   0.01072   0.00363  -0.0571  0.0822  1.0000  -1.7995   0.0000   0.0000   0.0000   0.3194
   4.900   0.7850   0.01085   0.00373  -0.0569  0.0759  1.0000  -1.8696   0.0000   0.0000   0.0000   0.3181
   5.000   0.7943   0.01101   0.00383  -0.0566  0.0680  1.0000  -1.9395   0.0000   0.0000   0.0000   0.3169
   5.100   0.8035   0.01119   0.00394  -0.0564  0.0594  1.0000  -2.0099   0.0000   0.0000   0.0000   0.3156
   5.200   0.8134   0.01130   0.00403  -0.0562  0.0547  1.0000  -2.0839   0.0000   0.0000   0.0000   0.3145
   5.300   0.8230   0.01144   0.00413  -0.0560  0.0495  1.0000  -2.1582   0.0000   0.0000   0.0000   0.3133
   5.400   0.8321   0.01163   0.00426  -0.0557  0.0430  1.0000  -2.2323   0.0000   0.0000   0.0000   0.3121
   5.500   0.8415   0.01179   0.00437  -0.0555  0.0367  1.0000  -2.3083   0.0000   0.0000   0.0000   0.3110
   5.600   0.8512   0.01192   0.00448  -0.0553  0.0330  1.0000  -2.3874   0.0000   0.0000   0.0000   0.3099
   5.700   0.8607   0.01208   0.00460  -0.0550  0.0286  1.0000  -2.4673   0.0000   0.0000   0.0000   0.3088
   5.800   0.8695   0.01230   0.00475  -0.0547  0.0217  1.0000  -2.5464   0.0000   0.0000   0.0000   0.3077
   5.900   0.8784   0.01252   0.00492  -0.0544  0.0147  1.0000  -2.6278   0.0000   0.0000   0.0000   0.3066
   6.000   0.8871   0.01277   0.00511  -0.0540  0.0095  1.0000  -2.7114   0.0000   0.0000   0.0000   0.3055
   6.100   0.8968   0.01290   0.00522  -0.0538  0.0090  1.0000  -2.8035   0.0000   0.0000   0.0000   0.3045
   6.200   0.9065   0.01303   0.00534  -0.0536  0.0084  1.0000  -2.8994   0.0000   0.0000   0.0000   0.3035
   6.300   0.9161   0.01318   0.00547  -0.0534  0.0079  1.0000  -3.0002   0.0000   0.0000   0.0000   0.3026
   6.400   0.9258   0.01332   0.00560  -0.0531  0.0074  1.0000  -3.1063   0.0000   0.0000   0.0000   0.3016
   6.500   0.9354   0.01346   0.00574  -0.0529  0.0069  1.0000  -3.2174   0.0000   0.0000   0.0000   0.3006
   6.600   0.9450   0.01360   0.00590  -0.0527  0.0065  1.0000  -3.3313   0.0000   0.0000   0.0000   0.2997
   6.700   0.9546   0.01375   0.00606  -0.0524  0.0061  1.0000  -3.4473   0.0000   0.0000   0.0000   0.2988
   6.800   0.9642   0.01390   0.00623  -0.0522  0.0059  1.0000  -3.5643   0.0000   0.0000   0.0000   0.2978
   6.900   0.9738   0.01405   0.00641  -0.0519  0.0057  1.0000  -3.6814   0.0000   0.0000   0.0000   0.2969
   7.000   0.9833   0.01420   0.00661  -0.0516  0.0056  1.0000  -3.7986   0.0000   0.0000   0.0000   0.2960
   7.100   0.9927   0.01436   0.00681  -0.0514  0.0055  1.0000  -3.9159   0.0000   0.0000   0.0000   0.2951
   7.200   1.0021   0.01454   0.00702  -0.0511  0.0054  1.0000  -4.0332   0.0000   0.0000   0.0000   0.2942
   7.300   1.0114   0.01472   0.00724  -0.0508  0.0054  1.0000  -4.1502   0.0000   0.0000   0.0000   0.2934
   7.400   1.0206   0.01491   0.00748  -0.0504  0.0054  1.0000  -4.2669   0.0000   0.0000   0.0000   0.2925
   7.500   1.0297   0.01511   0.00773  -0.0501  0.0054  1.0000  -4.3831   0.0000   0.0000   0.0000   0.2916
   7.600   1.0395   0.01518   0.00798  -0.0500  0.0058  1.0000  -4.4091   0.0000   0.0000   0.0000   0.2909
   7.700   1.0486   0.01537   0.00823  -0.0497  0.0058  1.0000  -4.5162   0.0000   0.0000   0.0000   0.2901
   7.800   1.0575   0.01560   0.00851  -0.0493  0.0058  1.0000  -4.6303   0.0000   0.0000   0.0000   0.2892
   7.900   1.0662   0.01585   0.00882  -0.0489  0.0058  1.0000  -4.7455   0.0000   0.0000   0.0000   0.2883
   8.000   1.0746   0.01612   0.00916  -0.0484  0.0058  1.0000  -4.8600   0.0000   0.0000   0.0000   0.2874
   8.100   1.0827   0.01643   0.00953  -0.0479  0.0058  1.0000  -4.9720   0.0000   0.0000   0.0000   0.2864
   8.200   1.0906   0.01676   0.00993  -0.0473  0.0058  1.0000  -5.0801   0.0000   0.0000   0.0000   0.2855
   8.300   1.0982   0.01712   0.01037  -0.0467  0.0059  1.0000  -5.1830   0.0000   0.0000   0.0000   0.2845
   8.400   1.1053   0.01753   0.01086  -0.0460  0.0059  1.0000  -5.2792   0.0000   0.0000   0.0000   0.2834
   8.500   1.1120   0.01800   0.01141  -0.0452  0.0060  1.0000  -5.3666   0.0000   0.0000   0.0000   0.2823
   8.600   1.1181   0.01852   0.01202  -0.0443  0.0061  1.0000  -5.4447   0.0000   0.0000   0.0000   0.2812
   8.700   1.1237   0.01912   0.01272  -0.0433  0.0062  1.0000  -5.5137   0.0000   0.0000   0.0000   0.2800
   8.800   1.1288   0.01979   0.01349  -0.0423  0.0063  1.0000  -5.5737   0.0000   0.0000   0.0000   0.2788
   8.900   1.1335   0.02056   0.01437  -0.0412  0.0065  1.0000  -5.6248   0.0000   0.0000   0.0000   0.2775
   9.000   1.1380   0.02142   0.01535  -0.0400  0.0067  1.0000  -5.6667   0.0000   0.0000   0.0000   0.2763
   9.100   1.1423   0.02241   0.01647  -0.0389  0.0069  1.0000  -5.6994   0.0000   0.0000   0.0000   0.2750
   9.200   1.1465   0.02353   0.01773  -0.0377  0.0071  1.0000  -5.7224   0.0000   0.0000   0.0000   0.2738
   9.300   1.1505   0.02484   0.01920  -0.0366  0.0074  1.0000  -5.7313   0.0000   0.0000   0.0000   0.2725
   9.400   1.1539   0.02634   0.02087  -0.0354  0.0077  1.0000  -5.7257   0.0000   0.0000   0.0000   0.2713
   9.500   1.1565   0.02805   0.02276  -0.0341  0.0080  1.0000  -5.7047   0.0000   0.0000   0.0000   0.2700
   9.600   1.1577   0.02996   0.02487  -0.0327  0.0084  1.0000  -5.6668   0.0000   0.0000   0.0000   0.2687
   9.700   1.1566   0.03211   0.02723  -0.0311  0.0088  1.0000  -5.6073   0.0000   0.0000   0.0000   0.2672
   9.800   1.1523   0.03459   0.02995  -0.0291  0.0091  1.0000  -5.5159   0.0000   0.0000   0.0000   0.2656
   9.900   1.1415   0.03783   0.03346  -0.0267  0.0095  1.0000  -5.3528   0.0000   0.0000   0.0000   0.2636
  13.000   0.8936   0.12441   0.12238  -0.0447  0.0156  1.0000  -3.2156   0.0000   0.0000   0.0000   0.2875
  13.100   0.8868   0.12851   0.12647  -0.0469  0.0159  1.0000  -3.0937   0.0000   0.0000   0.0000   0.2903
  13.200   0.8798   0.13271   0.13066  -0.0490  0.0164  1.0000  -2.9574   0.0000   0.0000   0.0000   0.2932
  13.300   0.8730   0.13678   0.13471  -0.0511  0.0172  1.0000  -2.8224   0.0000   0.0000   0.0000   0.2960
  13.400   0.8665   0.14060   0.13852  -0.0530  0.0184  1.0000  -2.7000   0.0000   0.0000   0.0000   0.2986
  14.700   0.8471   0.17367   0.17152  -0.0686  0.0212  1.0000  -2.0618   0.0000   0.0000   0.0000   0.3175
  14.800   0.8485   0.17566   0.17352  -0.0695  0.0211  1.0000  -2.0477   0.0000   0.0000   0.0000   0.3184
  14.900   0.8500   0.17763   0.17549  -0.0705  0.0211  1.0000  -2.0351   0.0000   0.0000   0.0000   0.3192
  15.000   0.8517   0.17957   0.17742  -0.0714  0.0210  1.0000  -2.0243   0.0000   0.0000   0.0000   0.3201
  15.100   0.8536   0.18145   0.17931  -0.0724  0.0210  1.0000  -2.0159   0.0000   0.0000   0.0000   0.3209
  15.200   0.8557   0.18325   0.18111  -0.0733  0.0208  1.0000  -2.0111   0.0000   0.0000   0.0000   0.3216
  15.300   0.8583   0.18489   0.18275  -0.0742  0.0206  1.0000  -2.0127   0.0000   0.0000   0.0000   0.3223
  15.400   0.8618   0.18630   0.18416  -0.0750  0.0203  1.0000  -2.0230   0.0000   0.0000   0.0000   0.3228
  15.500   0.8652   0.18779   0.18565  -0.0759  0.0198  1.0000  -2.0294   0.0000   0.0000   0.0000   0.3234
  15.600   0.8676   0.18964   0.18750  -0.0770  0.0193  1.0000  -2.0179   0.0000   0.0000   0.0000   0.3242
  15.700   0.8692   0.19165   0.18951  -0.0781  0.0188  1.0000  -1.9988   0.0000   0.0000   0.0000   0.3252
  15.800   0.8707   0.19371   0.19157  -0.0791  0.0184  1.0000  -1.9795   0.0000   0.0000   0.0000   0.3262
  15.900   0.8723   0.19578   0.19364  -0.0802  0.0180  1.0000  -1.9622   0.0000   0.0000   0.0000   0.3271
  16.000   0.8738   0.19785   0.19570  -0.0812  0.0176  1.0000  -1.9470   0.0000   0.0000   0.0000   0.3280
  16.100   0.8754   0.19991   0.19776  -0.0821  0.0173  1.0000  -1.9336   0.0000   0.0000   0.0000   0.3288
  16.200   0.8771   0.20196   0.19982  -0.0831  0.0169  1.0000  -1.9220   0.0000   0.0000   0.0000   0.3296
  16.300   0.8787   0.20400   0.20186  -0.0840  0.0166  1.0000  -1.9120   0.0000   0.0000   0.0000   0.3304
  16.400   0.8804   0.20604   0.20389  -0.0849  0.0163  1.0000  -1.9033   0.0000   0.0000   0.0000   0.3311
  16.500   0.8821   0.20807   0.20592  -0.0858  0.0160  1.0000  -1.8959   0.0000   0.0000   0.0000   0.3318
  16.600   0.8839   0.21009   0.20794  -0.0867  0.0157  1.0000  -1.8897   0.0000   0.0000   0.0000   0.3325
  16.700   0.8856   0.21211   0.20996  -0.0875  0.0154  1.0000  -1.8845   0.0000   0.0000   0.0000   0.3332
  16.800   0.8874   0.21412   0.21197  -0.0884  0.0152  1.0000  -1.8804   0.0000   0.0000   0.0000   0.3338
  16.900   0.8892   0.21612   0.21398  -0.0893  0.0149  1.0000  -1.8772   0.0000   0.0000   0.0000   0.3344
  17.000   0.8911   0.21812   0.21598  -0.0901  0.0147  1.0000  -1.8751   0.0000   0.0000   0.0000   0.3351
  17.100   0.8929   0.22012   0.21798  -0.0909  0.0145  1.0000  -1.8738   0.0000   0.0000   0.0000   0.3356
  17.200   0.8948   0.22211   0.21997  -0.0917  0.0142  1.0000  -1.8734   0.0000   0.0000   0.0000   0.3362
  17.300   0.8966   0.22410   0.22196  -0.0926  0.0140  1.0000  -1.8739   0.0000   0.0000   0.0000   0.3368
  17.400   0.8985   0.22609   0.22395  -0.0934  0.0138  1.0000  -1.8752   0.0000   0.0000   0.0000   0.3373
  17.500   0.9004   0.22808   0.22594  -0.0942  0.0136  1.0000  -1.8772   0.0000   0.0000   0.0000   0.3379
  17.600   0.9023   0.23006   0.22792  -0.0949  0.0135  1.0000  -1.8801   0.0000   0.0000   0.0000   0.3384
  17.700   0.9042   0.23204   0.22990  -0.0957  0.0133  1.0000  -1.8838   0.0000   0.0000   0.0000   0.3389
  17.800   0.9063   0.23383   0.23169  -0.0964  0.0130  1.0000  -1.9016   0.0000   0.0000   0.0000   0.3393
  17.900   0.9085   0.23556   0.23342  -0.0971  0.0127  1.0000  -1.9243   0.0000   0.0000   0.0000   0.3396
  18.000   0.9108   0.23725   0.23512  -0.0978  0.0124  1.0000  -1.9507   0.0000   0.0000   0.0000   0.3399
  18.100   0.9131   0.23890   0.23677  -0.0984  0.0122  1.0000  -1.9811   0.0000   0.0000   0.0000   0.3401
  18.200   0.9155   0.24050   0.23838  -0.0989  0.0119  1.0000  -2.0159   0.0000   0.0000   0.0000   0.3403
  18.300   0.9179   0.24207   0.23995  -0.0995  0.0117  1.0000  -2.0556   0.0000   0.0000   0.0000   0.3404
  18.400   0.9205   0.24359   0.24147  -0.0999  0.0115  1.0000  -2.1008   0.0000   0.0000   0.0000   0.3404
  18.500   0.9232   0.24508   0.24297  -0.1003  0.0113  1.0000  -2.1521   0.0000   0.0000   0.0000   0.3402
  18.600   0.9255   0.24675   0.24464  -0.1008  0.0111  1.0000  -2.1945   0.0000   0.0000   0.0000   0.3403
  18.700   0.9269   0.24882   0.24672  -0.1014  0.0108  1.0000  -2.2146   0.0000   0.0000   0.0000   0.3406
  18.900   0.9175   0.26052   0.25839  -0.1039  0.0099  1.0000  -1.8732   0.0000   0.0000   0.0000   0.3446
  19.000   0.9189   0.26279   0.26066  -0.1047  0.0099  1.0000  -1.8633   0.0000   0.0000   0.0000   0.3451
  19.100   0.9203   0.26506   0.26294  -0.1055  0.0099  1.0000  -1.8536   0.0000   0.0000   0.0000   0.3457
  19.200   0.9217   0.26733   0.26521  -0.1063  0.0099  1.0000  -1.8440   0.0000   0.0000   0.0000   0.3463
  19.300   0.9231   0.26960   0.26748  -0.1071  0.0099  1.0000  -1.8347   0.0000   0.0000   0.0000   0.3468
  19.400   0.9244   0.27187   0.26975  -0.1079  0.0099  1.0000  -1.8256   0.0000   0.0000   0.0000   0.3474
  19.500   0.9257   0.27413   0.27201  -0.1087  0.0099  1.0000  -1.8166   0.0000   0.0000   0.0000   0.3479
  19.600   0.9269   0.27639   0.27428  -0.1094  0.0099  1.0000  -1.8078   0.0000   0.0000   0.0000   0.3485
  19.700   0.9281   0.27864   0.27653  -0.1102  0.0099  1.0000  -1.7990   0.0000   0.0000   0.0000   0.3490
  19.800   0.9292   0.28089   0.27879  -0.1110  0.0099  1.0000  -1.7903   0.0000   0.0000   0.0000   0.3495
  19.900   0.9303   0.28313   0.28103  -0.1117  0.0098  1.0000  -1.7818   0.0000   0.0000   0.0000   0.3501
  20.000   0.9313   0.28537   0.28327  -0.1125  0.0098  1.0000  -1.7735   0.0000   0.0000   0.0000   0.3506
  20.100   0.9322   0.28759   0.28550  -0.1132  0.0098  1.0000  -1.7652   0.0000   0.0000   0.0000   0.3512
  20.200   0.9331   0.28981   0.28772  -0.1139  0.0098  1.0000  -1.7572   0.0000   0.0000   0.0000   0.3517
  20.300   0.9340   0.29201   0.28992  -0.1147  0.0098  1.0000  -1.7492   0.0000   0.0000   0.0000   0.3522
  20.400   0.9347   0.29419   0.29211  -0.1154  0.0098  1.0000  -1.7415   0.0000   0.0000   0.0000   0.3528
  20.500   0.9354   0.29636   0.29429  -0.1161  0.0097  1.0000  -1.7336   0.0000   0.0000   0.0000   0.3533
  20.600   0.9360   0.29850   0.29643  -0.1168  0.0097  1.0000  -1.7258   0.0000   0.0000   0.0000   0.3538
  20.700   0.9365   0.30062   0.29856  -0.1175  0.0097  1.0000  -1.7182   0.0000   0.0000   0.0000   0.3544
  20.800   0.9368   0.30270   0.30065  -0.1182  0.0097  1.0000  -1.7109   0.0000   0.0000   0.0000   0.3549
  20.900   0.9372   0.30475   0.30270  -0.1188  0.0096  1.0000  -1.7038   0.0000   0.0000   0.0000   0.3555
  21.000   0.9374   0.30675   0.30471  -0.1195  0.0096  1.0000  -1.6972   0.0000   0.0000   0.0000   0.3560
  21.100   0.9375   0.30870   0.30666  -0.1201  0.0095  1.0000  -1.6907   0.0000   0.0000   0.0000   0.3565
  21.200   0.9375   0.31058   0.30855  -0.1208  0.0095  1.0000  -1.6839   0.0000   0.0000   0.0000   0.3571
  21.300   0.9374   0.31238   0.31036  -0.1214  0.0094  1.0000  -1.6778   0.0000   0.0000   0.0000   0.3577
  21.400   0.9372   0.31413   0.31211  -0.1221  0.0093  1.0000  -1.6685   0.0000   0.0000   0.0000   0.3583
  21.500   0.9369   0.31585   0.31384  -0.1228  0.0091  1.0000  -1.6550   0.0000   0.0000   0.0000   0.3590
  21.600   0.9365   0.31756   0.31555  -0.1235  0.0088  1.0000  -1.6387   0.0000   0.0000   0.0000   0.3596
  21.700   0.9355   0.31925   0.31726  -0.1240  0.0086  1.0000  -1.6193   0.0000   0.0000   0.0000   0.3603
  21.800   0.9336   0.32085   0.31887  -0.1244  0.0083  1.0000  -1.5984   0.0000   0.0000   0.0000   0.3609
  21.900   0.8813   0.31006   0.30818  -0.1195  0.0088  1.0000  -1.4639   0.0000   0.0000   0.0000   0.3641
  22.000   0.8770   0.31010   0.30823  -0.1196  0.0085  1.0000  -1.4383   0.0000   0.0000   0.0000   0.3648
  22.100   0.8732   0.31027   0.30842  -0.1198  0.0083  1.0000  -1.4148   0.0000   0.0000   0.0000   0.3655
  22.200   0.8698   0.31052   0.30868  -0.1199  0.0081  1.0000  -1.3938   0.0000   0.0000   0.0000   0.3662
  22.300   0.8667   0.31081   0.30897  -0.1201  0.0079  1.0000  -1.3752   0.0000   0.0000   0.0000   0.3668
  22.400   0.8638   0.31112   0.30930  -0.1203  0.0076  1.0000  -1.3586   0.0000   0.0000   0.0000   0.3674
  22.500   0.8612   0.31147   0.30966  -0.1205  0.0074  1.0000  -1.3438   0.0000   0.0000   0.0000   0.3680
  22.600   0.8588   0.31185   0.31005  -0.1207  0.0073  1.0000  -1.3305   0.0000   0.0000   0.0000   0.3686
  22.700   0.8565   0.31225   0.31046  -0.1209  0.0071  1.0000  -1.3185   0.0000   0.0000   0.0000   0.3692
  22.800   0.8545   0.31267   0.31089  -0.1212  0.0069  1.0000  -1.3076   0.0000   0.0000   0.0000   0.3697
  22.900   0.8526   0.31311   0.31134  -0.1215  0.0067  1.0000  -1.2977   0.0000   0.0000   0.0000   0.3702
  23.000   0.8508   0.31357   0.31181  -0.1217  0.0066  1.0000  -1.2886   0.0000   0.0000   0.0000   0.3708
  23.100   0.8492   0.31403   0.31228  -0.1220  0.0064  1.0000  -1.2803   0.0000   0.0000   0.0000   0.3713
  23.200   0.8477   0.31452   0.31277  -0.1223  0.0063  1.0000  -1.2728   0.0000   0.0000   0.0000   0.3718
  23.300   0.8463   0.31501   0.31327  -0.1226  0.0061  1.0000  -1.2658   0.0000   0.0000   0.0000   0.3723
  23.400   0.8449   0.31551   0.31378  -0.1229  0.0060  1.0000  -1.2595   0.0000   0.0000   0.0000   0.3727
  23.500   0.8437   0.31602   0.31430  -0.1232  0.0059  1.0000  -1.2538   0.0000   0.0000   0.0000   0.3732
  23.600   0.8426   0.31652   0.31484  -0.1235  0.0057  1.0000  -1.2534   0.0000   0.0000   0.0000   0.3737
  23.700   0.8416   0.31703   0.31536  -0.1239  0.0055  1.0000  -1.2509   0.0000   0.0000   0.0000   0.3741
  23.800   0.8406   0.31755   0.31589  -0.1242  0.0054  1.0000  -1.2479   0.0000   0.0000   0.0000   0.3746
  23.900   0.8396   0.31808   0.31642  -0.1245  0.0053  1.0000  -1.2452   0.0000   0.0000   0.0000   0.3750
  24.000   0.8387   0.31861   0.31696  -0.1249  0.0052  1.0000  -1.2428   0.0000   0.0000   0.0000   0.3755
  24.100   0.8379   0.31915   0.31751  -0.1252  0.0051  1.0000  -1.2407   0.0000   0.0000   0.0000   0.3759
  24.200   0.8371   0.31969   0.31806  -0.1256  0.0050  1.0000  -1.2389   0.0000   0.0000   0.0000   0.3763
  24.300   0.8364   0.32024   0.31861  -0.1259  0.0049  1.0000  -1.2375   0.0000   0.0000   0.0000   0.3767
  24.400   0.8357   0.32079   0.31917  -0.1263  0.0048  1.0000  -1.2365   0.0000   0.0000   0.0000   0.3771
  24.500   0.8350   0.32134   0.31973  -0.1266  0.0047  1.0000  -1.2358   0.0000   0.0000   0.0000   0.3775
  24.600   0.8344   0.32189   0.32029  -0.1270  0.0046  1.0000  -1.2356   0.0000   0.0000   0.0000   0.3779
  24.700   0.8338   0.32244   0.32085  -0.1274  0.0046  1.0000  -1.2357   0.0000   0.0000   0.0000   0.3783
  24.800   0.8333   0.32300   0.32141  -0.1277  0.0045  1.0000  -1.2362   0.0000   0.0000   0.0000   0.3787
  24.900   0.8328   0.32356   0.32198  -0.1281  0.0044  1.0000  -1.2370   0.0000   0.0000   0.0000   0.3791
  25.000   0.8323   0.32412   0.32254  -0.1285  0.0044  1.0000  -1.2382   0.0000   0.0000   0.0000   0.3795
  25.100   0.8318   0.32468   0.32311  -0.1288  0.0043  1.0000  -1.2398   0.0000   0.0000   0.0000   0.3799
  25.200   0.8314   0.32523   0.32367  -0.1292  0.0042  1.0000  -1.2417   0.0000   0.0000   0.0000   0.3803
  25.300   0.8310   0.32579   0.32424  -0.1296  0.0042  1.0000  -1.2440   0.0000   0.0000   0.0000   0.3806
  25.400   0.8306   0.32635   0.32480  -0.1300  0.0041  1.0000  -1.2467   0.0000   0.0000   0.0000   0.3810
  25.500   0.8303   0.32691   0.32537  -0.1304  0.0041  1.0000  -1.2497   0.0000   0.0000   0.0000   0.3813
  25.600   0.8299   0.32747   0.32593  -0.1307  0.0040  1.0000  -1.2531   0.0000   0.0000   0.0000   0.3817
  25.700   0.8296   0.32803   0.32650  -0.1311  0.0039  1.0000  -1.2569   0.0000   0.0000   0.0000   0.3821
  25.800   0.8293   0.32858   0.32706  -0.1315  0.0039  1.0000  -1.2610   0.0000   0.0000   0.0000   0.3824
  25.900   0.8290   0.32914   0.32762  -0.1319  0.0038  1.0000  -1.2655   0.0000   0.0000   0.0000   0.3827
  26.000   0.8288   0.32969   0.32818  -0.1323  0.0038  1.0000  -1.2703   0.0000   0.0000   0.0000   0.3831
  26.100   0.8285   0.33024   0.32874  -0.1327  0.0038  1.0000  -1.2755   0.0000   0.0000   0.0000   0.3834
  26.200   0.8283   0.33079   0.32929  -0.1330  0.0037  1.0000  -1.2810   0.0000   0.0000   0.0000   0.3837
  26.300   0.8280   0.33133   0.32985  -0.1334  0.0037  1.0000  -1.2869   0.0000   0.0000   0.0000   0.3841
  26.400   0.8278   0.33188   0.33040  -0.1338  0.0036  1.0000  -1.2931   0.0000   0.0000   0.0000   0.3844
  26.500   0.8276   0.33242   0.33094  -0.1342  0.0036  1.0000  -1.2996   0.0000   0.0000   0.0000   0.3847
  26.600   0.8274   0.33296   0.33149  -0.1346  0.0035  1.0000  -1.3064   0.0000   0.0000   0.0000   0.3850
  26.700   0.8272   0.33349   0.33203  -0.1349  0.0035  1.0000  -1.3135   0.0000   0.0000   0.0000   0.3853
  26.800   0.8270   0.33403   0.33257  -0.1353  0.0035  1.0000  -1.3208   0.0000   0.0000   0.0000   0.3856
  26.900   0.8268   0.33456   0.33311  -0.1357  0.0034  1.0000  -1.3282   0.0000   0.0000   0.0000   0.3859
  27.000   0.8266   0.33509   0.33365  -0.1361  0.0034  1.0000  -1.3358   0.0000   0.0000   0.0000   0.3862
  27.100   0.8264   0.33561   0.33418  -0.1364  0.0034  1.0000  -1.3434   0.0000   0.0000   0.0000   0.3865
  27.200   0.8262   0.33614   0.33471  -0.1368  0.0033  1.0000  -1.3510   0.0000   0.0000   0.0000   0.3868
  27.300   0.8260   0.33667   0.33525  -0.1371  0.0033  1.0000  -1.3582   0.0000   0.0000   0.0000   0.3870
  27.400   0.8258   0.33720   0.33578  -0.1375  0.0032  1.0000  -1.3651   0.0000   0.0000   0.0000   0.3873
  27.500   0.8255   0.33774   0.33634  -0.1378  0.0032  1.0000  -1.3698   0.0000   0.0000   0.0000   0.3876
  27.600   0.8251   0.33834   0.33694  -0.1382  0.0032  1.0000  -1.3690   0.0000   0.0000   0.0000   0.3879
  27.700   0.8247   0.33895   0.33755  -0.1385  0.0031  1.0000  -1.3655   0.0000   0.0000   0.0000   0.3882
  27.800   0.8241   0.33959   0.33820  -0.1389  0.0031  1.0000  -1.3577   0.0000   0.0000   0.0000   0.3886
  27.900   0.8234   0.34027   0.33889  -0.1392  0.0030  1.0000  -1.3428   0.0000   0.0000   0.0000   0.3889
  28.000   0.8223   0.34106   0.33969  -0.1395  0.0030  1.0000  -1.3124   0.0000   0.0000   0.0000   0.3893


