xflr5 v6.61

 Calculated polar for: SD2030-086-88

 1 1 Reynolds number fixed          Mach number fixed         

 xtrf =   1.000 (top)        1.000 (bottom)
 Mach =   0.000     Re =     0.200 e 6     Ncrit =   9.000

  alpha     CL        CD       CDp       Cm    Top Xtr Bot Xtr   Cpmin    Chinge    XCp    
 ------- -------- --------- --------- -------- ------- ------- -------- --------- ---------
 -10.000  -0.4199   0.10826   0.10440  -0.0284  1.0000  0.0350  -1.4661   0.0000   0.0000   0.0000   0.1760
  -9.900  -0.4192   0.10708   0.10323  -0.0289  1.0000  0.0361  -1.4706   0.0000   0.0000   0.0000   0.1748
  -9.800  -0.4186   0.10591   0.10208  -0.0295  1.0000  0.0372  -1.4793   0.0000   0.0000   0.0000   0.1734
  -9.700  -0.4182   0.10478   0.10097  -0.0301  1.0000  0.0382  -1.4934   0.0000   0.0000   0.0000   0.1718
  -9.600  -0.4182   0.10375   0.09996  -0.0310  1.0000  0.0393  -1.5136   0.0000   0.0000   0.0000   0.1699
  -9.500  -0.4182   0.10293   0.09916  -0.0320  1.0000  0.0403  -1.5390   0.0000   0.0000   0.0000   0.1675
  -9.400  -0.4182   0.10236   0.09861  -0.0332  1.0000  0.0412  -1.5640   0.0000   0.0000   0.0000   0.1649
  -9.300  -0.4169   0.10190   0.09816  -0.0340  1.0000  0.0418  -1.5734   0.0000   0.0000   0.0000   0.1628
  -9.200  -0.4163   0.10111   0.09739  -0.0346  1.0000  0.0421  -1.5825   0.0000   0.0000   0.0000   0.1614
  -9.100  -0.4162   0.10021   0.09651  -0.0351  1.0000  0.0423  -1.5926   0.0000   0.0000   0.0000   0.1602
  -9.000  -0.4164   0.09928   0.09560  -0.0356  1.0000  0.0424  -1.6039   0.0000   0.0000   0.0000   0.1591
  -8.900  -0.4170   0.09830   0.09465  -0.0361  1.0000  0.0426  -1.6166   0.0000   0.0000   0.0000   0.1582
  -8.800  -0.4180   0.09729   0.09366  -0.0366  1.0000  0.0426  -1.6306   0.0000   0.0000   0.0000   0.1574
  -8.700  -0.4195   0.09625   0.09263  -0.0370  1.0000  0.0427  -1.6457   0.0000   0.0000   0.0000   0.1568
  -8.600  -0.4215   0.09519   0.09160  -0.0374  1.0000  0.0428  -1.6620   0.0000   0.0000   0.0000   0.1565
  -8.500  -0.4241   0.09412   0.09055  -0.0377  1.0000  0.0428  -1.6794   0.0000   0.0000   0.0000   0.1565
  -8.400  -0.4273   0.09305   0.08951  -0.0379  1.0000  0.0428  -1.6978   0.0000   0.0000   0.0000   0.1568
  -8.300  -0.4314   0.09201   0.08850  -0.0380  1.0000  0.0429  -1.7174   0.0000   0.0000   0.0000   0.1576
  -8.200  -0.4364   0.09099   0.08751  -0.0380  1.0000  0.0429  -1.7380   0.0000   0.0000   0.0000   0.1588
  -8.100  -0.4420   0.08999   0.08653  -0.0379  1.0000  0.0429  -1.7596   0.0000   0.0000   0.0000   0.1602
  -8.000  -0.4469   0.08889   0.08545  -0.0379  1.0000  0.0429  -1.7816   0.0000   0.0000   0.0000   0.1612
  -7.900  -0.4504   0.08769   0.08425  -0.0381  1.0000  0.0429  -1.8028   0.0000   0.0000   0.0000   0.1617
  -7.800  -0.4538   0.08652   0.08308  -0.0381  1.0000  0.0429  -1.8234   0.0000   0.0000   0.0000   0.1624
  -7.700  -0.4572   0.08538   0.08194  -0.0380  1.0000  0.0430  -1.8435   0.0000   0.0000   0.0000   0.1633
  -7.600  -0.4634   0.08333   0.07994  -0.0380  1.0000  0.0431  -1.8897   0.0000   0.0000   0.0000   0.1645
  -7.500  -0.4707   0.08096   0.07756  -0.0380  1.0000  0.0433  -1.9447   0.0000   0.0000   0.0000   0.1659
  -7.400  -0.4780   0.07854   0.07515  -0.0379  1.0000  0.0435  -1.9985   0.0000   0.0000   0.0000   0.1674
  -7.300  -0.4852   0.07612   0.07273  -0.0377  1.0000  0.0438  -2.0489   0.0000   0.0000   0.0000   0.1689
  -7.200  -0.4920   0.07374   0.07034  -0.0375  1.0000  0.0442  -2.0920   0.0000   0.0000   0.0000   0.1706
  -7.000  -0.4893   0.07279   0.06956  -0.0313  1.0000  0.0490  -1.8326   0.0000   0.0000   0.0000   0.1830
  -6.900  -0.4895   0.07215   0.06893  -0.0304  1.0000  0.0500  -1.8018   0.0000   0.0000   0.0000   0.1851
  -6.800  -0.4908   0.07123   0.06802  -0.0299  1.0000  0.0507  -1.7921   0.0000   0.0000   0.0000   0.1864
  -6.700  -0.4924   0.07021   0.06700  -0.0295  1.0000  0.0513  -1.7886   0.0000   0.0000   0.0000   0.1874
  -6.600  -0.4938   0.06914   0.06592  -0.0292  1.0000  0.0519  -1.7882   0.0000   0.0000   0.0000   0.1883
  -6.500  -0.4950   0.06801   0.06479  -0.0290  1.0000  0.0524  -1.7897   0.0000   0.0000   0.0000   0.1889
  -6.400  -0.4960   0.06684   0.06361  -0.0288  1.0000  0.0530  -1.7924   0.0000   0.0000   0.0000   0.1894
  -6.300  -0.4966   0.06564   0.06240  -0.0287  1.0000  0.0536  -1.7960   0.0000   0.0000   0.0000   0.1898
  -6.200  -0.4967   0.06440   0.06114  -0.0286  1.0000  0.0542  -1.8002   0.0000   0.0000   0.0000   0.1901
  -6.100  -0.4965   0.06314   0.05985  -0.0285  1.0000  0.0548  -1.8043   0.0000   0.0000   0.0000   0.1902
  -6.000  -0.4958   0.06187   0.05856  -0.0285  1.0000  0.0554  -1.8082   0.0000   0.0000   0.0000   0.1903
  -5.900  -0.4946   0.06058   0.05724  -0.0285  1.0000  0.0562  -1.8121   0.0000   0.0000   0.0000   0.1902
  -5.800  -0.4928   0.05929   0.05591  -0.0285  1.0000  0.0570  -1.8158   0.0000   0.0000   0.0000   0.1900
  -5.700  -0.4906   0.05801   0.05458  -0.0285  1.0000  0.0579  -1.8196   0.0000   0.0000   0.0000   0.1897
  -5.600  -0.4877   0.05674   0.05326  -0.0286  1.0000  0.0590  -1.8238   0.0000   0.0000   0.0000   0.1892
  -5.500  -0.4839   0.05551   0.05197  -0.0287  1.0000  0.0602  -1.8286   0.0000   0.0000   0.0000   0.1886
  -5.400  -0.4792   0.05445   0.05082  -0.0288  1.0000  0.0617  -1.8343   0.0000   0.0000   0.0000   0.1879
  -5.300  -0.4721   0.05400   0.05027  -0.0287  1.0000  0.0637  -1.8333   0.0000   0.0000   0.0000   0.1871
  -5.200  -0.4565   0.05556   0.05167  -0.0289  0.9993  0.0661  -1.7946   0.0000   0.0000   0.0000   0.1846
  -5.100  -0.4421   0.05504   0.05101  -0.0303  0.9978  0.0666  -1.7728   0.0000   0.0000   0.0000   0.1793
  -5.000  -0.4291   0.05388   0.04972  -0.0317  0.9964  0.0668  -1.7581   0.0000   0.0000   0.0000   0.1740
  -4.800  -0.4221   0.04320   0.03875  -0.0362  0.9933  0.0708  -1.8751   0.0000   0.0000   0.0000   0.1620
  -4.700  -0.4115   0.04166   0.03722  -0.0371  0.9919  0.0723  -1.8311   0.0000   0.0000   0.0000   0.1576
  -4.600  -0.3998   0.04049   0.03607  -0.0379  0.9905  0.0737  -1.7812   0.0000   0.0000   0.0000   0.1529
  -4.500  -0.3874   0.03944   0.03500  -0.0389  0.9892  0.0753  -1.7335   0.0000   0.0000   0.0000   0.1474
  -4.400  -0.3744   0.03844   0.03396  -0.0399  0.9880  0.0772  -1.6895   0.0000   0.0000   0.0000   0.1411
  -4.300  -0.3606   0.03745   0.03291  -0.0411  0.9869  0.0794  -1.6501   0.0000   0.0000   0.0000   0.1339
  -4.200  -0.3500   0.03655   0.03193  -0.0414  0.9851  0.0816  -1.6205   0.0000   0.0000   0.0000   0.1294
  -4.100  -0.3388   0.03570   0.03099  -0.0418  0.9833  0.0841  -1.5936   0.0000   0.0000   0.0000   0.1242
  -4.000  -0.3265   0.03495   0.03014  -0.0423  0.9816  0.0870  -1.5677   0.0000   0.0000   0.0000   0.1182
  -3.900  -0.3132   0.03449   0.02956  -0.0427  0.9800  0.0900  -1.5391   0.0000   0.0000   0.0000   0.1113
  -3.800  -0.2930   0.03812   0.03309  -0.0424  0.9777  0.0956  -1.4461   0.0000   0.0000   0.0000   0.1029
  -3.700  -0.2899   0.03151   0.02621  -0.0446  0.9771  0.1018  -1.5068   0.0000   0.0000   0.0000   0.0938
  -3.600  -0.2778   0.03037   0.02507  -0.0452  0.9761  0.1040  -1.4685   0.0000   0.0000   0.0000   0.0848
  -3.500  -0.2533   0.02533   0.01885  -0.0434  0.9764  0.0446  -1.8845   0.0000   0.0000   0.0000   0.0756
  -3.400  -0.2398   0.02427   0.01773  -0.0437  0.9756  0.0409  -1.8753   0.0000   0.0000   0.0000   0.0644
  -3.300  -0.2266   0.02273   0.01599  -0.0441  0.9750  0.0393  -1.8882   0.0000   0.0000   0.0000   0.0518
  -3.200  -0.2126   0.02161   0.01470  -0.0445  0.9744  0.0379  -1.8854   0.0000   0.0000   0.0000   0.0369
  -3.100  -0.1981   0.02066   0.01359  -0.0450  0.9737  0.0367  -1.8758   0.0000   0.0000   0.0000   0.0190
  -3.000  -0.1832   0.01982   0.01261  -0.0455  0.9730  0.0356  -1.8607   0.0000   0.0000   0.0000  -0.0026
  -2.900  -0.1679   0.01909   0.01173  -0.0461  0.9723  0.0345  -1.8383   0.0000   0.0000   0.0000  -0.0289
  -2.800  -0.1524   0.01842   0.01067  -0.0467  0.9716  0.0324  -1.7688   0.0000   0.0000   0.0000  -0.0613
  -2.700  -0.1409   0.01789   0.01008  -0.0466  0.9698  0.0318  -1.7458   0.0000   0.0000   0.0000  -0.0858
  -2.600  -0.1305   0.01743   0.00955  -0.0464  0.9675  0.0314  -1.7203   0.0000   0.0000   0.0000  -0.1104
  -2.500  -0.1187   0.01701   0.00908  -0.0464  0.9654  0.0311  -1.6892   0.0000   0.0000   0.0000  -0.1464
  -2.400  -0.1063   0.01665   0.00867  -0.0466  0.9635  0.0310  -1.6537   0.0000   0.0000   0.0000  -0.1942
  -2.300  -0.0935   0.01634   0.00831  -0.0469  0.9618  0.0310  -1.6147   0.0000   0.0000   0.0000  -0.2574
  -2.200  -0.0804   0.01607   0.00800  -0.0473  0.9602  0.0313  -1.5729   0.0000   0.0000   0.0000  -0.3446
  -2.100  -0.0668   0.01584   0.00771  -0.0478  0.9587  0.0318  -1.5289   0.0000   0.0000   0.0000  -0.4733
  -2.000  -0.0523   0.01564   0.00745  -0.0484  0.9572  0.0328  -1.4830   0.0000   0.0000   0.0000  -0.6841
  -1.900  -0.0372   0.01546   0.00721  -0.0492  0.9558  0.0345  -1.4370   0.0000   0.0000   0.0000  -1.0840
  -1.800  -0.0214   0.01529   0.00698  -0.0500  0.9544  0.0378  -1.3949   0.0000   0.0000   0.0000  -2.1105
  -1.700  -0.0053   0.01493   0.00671  -0.0509  0.9533  0.0685  -1.3872   0.0000   0.0000   0.0000  -9.4703
  -1.600   0.0093   0.01422   0.00662  -0.0522  0.9524  0.2136  -1.3396   0.0000   0.0000   0.0000   5.8746
  -1.500   0.0219   0.01332   0.00667  -0.0532  0.9515  0.4378  -1.2732   0.0000   0.0000   0.0000   2.6907
  -1.400   0.0309   0.01264   0.00682  -0.0528  0.9502  0.6355  -1.2108   0.0000   0.0000   0.0000   1.9688
  -1.300   0.0316   0.01240   0.00687  -0.0504  0.9462  0.7162  -1.1731   0.0000   0.0000   0.0000   1.8532
  -1.200   0.0368   0.01228   0.00697  -0.0488  0.9430  0.7839  -1.1204   0.0000   0.0000   0.0000   1.5824
  -1.100   0.0451   0.01224   0.00704  -0.0478  0.9403  0.8320  -1.0578   0.0000   0.0000   0.0000   1.3162
  -1.000   0.0557   0.01223   0.00708  -0.0473  0.9378  0.8709  -0.9875   0.0000   0.0000   0.0000   1.1033
  -0.900   0.0694   0.01223   0.00712  -0.0475  0.9359  0.9053  -0.9081   0.0000   0.0000   0.0000   0.9369
  -0.800   0.0885   0.01223   0.00714  -0.0488  0.9348  0.9430  -0.8130   0.0000   0.0000   0.0000   0.8033
  -0.700   0.1359   0.01221   0.00711  -0.0561  0.9380  1.0000  -0.6337   0.0000   0.0000   0.0000   0.6636
  -0.600   0.1514   0.01221   0.00707  -0.0570  0.9357  1.0000  -0.5555   0.0000   0.0000   0.0000   0.6272
  -0.500   0.1678   0.01220   0.00703  -0.0581  0.9336  1.0000  -0.4995   0.0000   0.0000   0.0000   0.5967
  -0.400   0.1848   0.01219   0.00699  -0.0593  0.9319  1.0000  -0.4506   0.0000   0.0000   0.0000   0.5713
  -0.300   0.2029   0.01218   0.00695  -0.0608  0.9303  1.0000  -0.4006   0.0000   0.0000   0.0000   0.5494
  -0.200   0.2220   0.01216   0.00690  -0.0624  0.9290  1.0000  -0.3967   0.0000   0.0000   0.0000   0.5307
  -0.100   0.2416   0.01213   0.00685  -0.0641  0.9278  1.0000  -0.4128   0.0000   0.0000   0.0000   0.5148
   0.000   0.2621   0.01210   0.00680  -0.0660  0.9268  1.0000  -0.4293   0.0000   0.0000   0.0000   0.5011
   0.100   0.2839   0.01205   0.00674  -0.0681  0.9260  1.0000  -0.4469   0.0000   0.0000   0.0000   0.4891
   0.300   0.2830   0.01204   0.00670  -0.0635  0.9130  1.0000  -0.4564   0.0000   0.0000   0.0000   0.4737
   0.400   0.2980   0.01199   0.00664  -0.0643  0.9101  1.0000  -0.4720   0.0000   0.0000   0.0000   0.4648
   0.500   0.3154   0.01191   0.00661  -0.0655  0.9078  1.0000  -0.4893   0.0000   0.0000   0.0000   0.4565
   0.600   0.3344   0.01182   0.00650  -0.0669  0.9059  1.0000  -0.5079   0.0000   0.0000   0.0000   0.4491
   0.700   0.3535   0.01171   0.00639  -0.0684  0.9042  1.0000  -0.5266   0.0000   0.0000   0.0000   0.4425
   0.800   0.3724   0.01158   0.00626  -0.0699  0.9024  1.0000  -0.5462   0.0000   0.0000   0.0000   0.4364
   0.900   0.3919   0.01143   0.00610  -0.0714  0.9007  1.0000  -0.5686   0.0000   0.0000   0.0000   0.4308
   1.000   0.4111   0.01128   0.00594  -0.0728  0.8990  1.0000  -0.5910   0.0000   0.0000   0.0000   0.4257
   1.100   0.4298   0.01115   0.00581  -0.0741  0.8974  1.0000  -0.6130   0.0000   0.0000   0.0000   0.4210
   1.200   0.4415   0.01109   0.00574  -0.0741  0.8941  1.0000  -0.6296   0.0000   0.0000   0.0000   0.4164
   1.300   0.4384   0.01116   0.00581  -0.0713  0.8863  1.0000  -0.6347   0.0000   0.0000   0.0000   0.4110
   1.400   0.4484   0.01109   0.00574  -0.0709  0.8817  1.0000  -0.6532   0.0000   0.0000   0.0000   0.4065
   1.500   0.4612   0.01098   0.00563  -0.0711  0.8779  1.0000  -0.6745   0.0000   0.0000   0.0000   0.4024
   1.600   0.4756   0.01084   0.00549  -0.0715  0.8746  1.0000  -0.6975   0.0000   0.0000   0.0000   0.3986
   1.700   0.4914   0.01068   0.00533  -0.0722  0.8715  1.0000  -0.7221   0.0000   0.0000   0.0000   0.3951
   1.800   0.5075   0.01051   0.00516  -0.0729  0.8684  1.0000  -0.7510   0.0000   0.0000   0.0000   0.3917
   1.900   0.5235   0.01036   0.00501  -0.0736  0.8654  1.0000  -0.7812   0.0000   0.0000   0.0000   0.3886
   2.000   0.5386   0.01024   0.00489  -0.0741  0.8619  1.0000  -0.8107   0.0000   0.0000   0.0000   0.3856
   2.100   0.5402   0.01029   0.00496  -0.0722  0.8549  1.0000  -0.8243   0.0000   0.0000   0.0000   0.3816
   2.200   0.5480   0.01026   0.00492  -0.0714  0.8487  1.0000  -0.8454   0.0000   0.0000   0.0000   0.3781
   2.300   0.5587   0.01018   0.00485  -0.0711  0.8433  1.0000  -0.8702   0.0000   0.0000   0.0000   0.3750
   2.400   0.5707   0.01008   0.00476  -0.0711  0.8384  1.0000  -0.9020   0.0000   0.0000   0.0000   0.3722
   2.500   0.5840   0.00996   0.00463  -0.0712  0.8336  1.0000  -0.9387   0.0000   0.0000   0.0000   0.3696
   2.600   0.5991   0.00983   0.00449  -0.0717  0.8286  1.0000  -0.9788   0.0000   0.0000   0.0000   0.3672
   2.700   0.6099   0.00979   0.00445  -0.0714  0.8225  1.0000  -1.0121   0.0000   0.0000   0.0000   0.3646
   2.800   0.6156   0.00980   0.00448  -0.0703  0.8146  1.0000  -1.0375   0.0000   0.0000   0.0000   0.3615
   2.900   0.6242   0.00977   0.00446  -0.0696  0.8067  1.0000  -1.0677   0.0000   0.0000   0.0000   0.3588
   3.000   0.6352   0.00970   0.00438  -0.0693  0.7990  1.0000  -1.1021   0.0000   0.0000   0.0000   0.3563
   3.100   0.6482   0.00961   0.00427  -0.0694  0.7916  1.0000  -1.1401   0.0000   0.0000   0.0000   0.3542
   3.200   0.6607   0.00956   0.00419  -0.0694  0.7835  1.0000  -1.1775   0.0000   0.0000   0.0000   0.3521
   3.300   0.6670   0.00958   0.00425  -0.0683  0.7737  1.0000  -1.2045   0.0000   0.0000   0.0000   0.3495
   3.400   0.6760   0.00956   0.00423  -0.0677  0.7625  1.0000  -1.2365   0.0000   0.0000   0.0000   0.3471
   3.500   0.6872   0.00952   0.00415  -0.0674  0.7511  1.0000  -1.2724   0.0000   0.0000   0.0000   0.3450
   3.600   0.6985   0.00950   0.00409  -0.0672  0.7398  1.0000  -1.3086   0.0000   0.0000   0.0000   0.3431
   3.700   0.7060   0.00953   0.00413  -0.0664  0.7269  1.0000  -1.3385   0.0000   0.0000   0.0000   0.3408
   3.800   0.7157   0.00954   0.00429  -0.0660  0.7151  1.0000  -1.3722   0.0000   0.0000   0.0000   0.3388
   3.900   0.7265   0.00955   0.00422  -0.0656  0.7007  1.0000  -1.4062   0.0000   0.0000   0.0000   0.3369
   4.000   0.7353   0.00959   0.00425  -0.0651  0.6855  1.0000  -1.4377   0.0000   0.0000   0.0000   0.3350
   4.100   0.7442   0.00964   0.00424  -0.0644  0.6657  1.0000  -1.4697   0.0000   0.0000   0.0000   0.3330
   4.200   0.7534   0.00973   0.00421  -0.0639  0.6455  1.0000  -1.5285   0.0000   0.0000   0.0000   0.3311
   4.300   0.7618   0.00983   0.00425  -0.0632  0.6231  1.0000  -1.5930   0.0000   0.0000   0.0000   0.3292
   4.400   0.7699   0.00998   0.00425  -0.0625  0.6001  1.0000  -1.6571   0.0000   0.0000   0.0000   0.3273
   4.500   0.7777   0.01013   0.00431  -0.0617  0.5729  1.0000  -1.7201   0.0000   0.0000   0.0000   0.3254
   4.600   0.7840   0.01037   0.00435  -0.0607  0.5382  1.0000  -1.7790   0.0000   0.0000   0.0000   0.3233
   4.700   0.7888   0.01070   0.00442  -0.0594  0.4979  1.0000  -1.8339   0.0000   0.0000   0.0000   0.3212
   4.900   0.7979   0.01144   0.00465  -0.0570  0.4124  1.0000  -1.9424   0.0000   0.0000   0.0000   0.3171
   5.000   0.8028   0.01182   0.00479  -0.0559  0.3711  1.0000  -1.9985   0.0000   0.0000   0.0000   0.3152
   5.100   0.8079   0.01221   0.00494  -0.0549  0.3321  1.0000  -2.0555   0.0000   0.0000   0.0000   0.3134
   5.200   0.8131   0.01261   0.00510  -0.0540  0.2957  1.0000  -2.1136   0.0000   0.0000   0.0000   0.3118
   5.300   0.8186   0.01302   0.00526  -0.0532  0.2611  1.0000  -2.1733   0.0000   0.0000   0.0000   0.3102
   5.400   0.8255   0.01335   0.00542  -0.0526  0.2325  1.0000  -2.2388   0.0000   0.0000   0.0000   0.3089
   5.500   0.8329   0.01365   0.00557  -0.0521  0.2100  1.0000  -2.3067   0.0000   0.0000   0.0000   0.3076
   5.600   0.8409   0.01390   0.00573  -0.0516  0.1930  1.0000  -2.3775   0.0000   0.0000   0.0000   0.3064
   5.700   0.8490   0.01416   0.00589  -0.0512  0.1800  1.0000  -2.4492   0.0000   0.0000   0.0000   0.3052
   5.800   0.8582   0.01432   0.00604  -0.0509  0.1706  1.0000  -2.5264   0.0000   0.0000   0.0000   0.3041
   5.900   0.8668   0.01453   0.00619  -0.0506  0.1595  1.0000  -2.6029   0.0000   0.0000   0.0000   0.3030
   6.000   0.8749   0.01479   0.00637  -0.0502  0.1480  1.0000  -2.6783   0.0000   0.0000   0.0000   0.3019
   6.100   0.8839   0.01497   0.00653  -0.0499  0.1396  1.0000  -2.7580   0.0000   0.0000   0.0000   0.3009
   6.200   0.8928   0.01516   0.00670  -0.0495  0.1310  1.0000  -2.8392   0.0000   0.0000   0.0000   0.2999
   6.300   0.9013   0.01540   0.00687  -0.0492  0.1216  1.0000  -2.9203   0.0000   0.0000   0.0000   0.2989
   6.400   0.9095   0.01566   0.00706  -0.0488  0.1119  1.0000  -3.0014   0.0000   0.0000   0.0000   0.2978
   6.500   0.9186   0.01583   0.00724  -0.0485  0.1060  1.0000  -3.0882   0.0000   0.0000   0.0000   0.2969
   6.600   0.9274   0.01604   0.00742  -0.0482  0.0989  1.0000  -3.1754   0.0000   0.0000   0.0000   0.2959
   6.700   0.9357   0.01629   0.00762  -0.0478  0.0913  1.0000  -3.2625   0.0000   0.0000   0.0000   0.2950
   6.800   0.9440   0.01657   0.00784  -0.0474  0.0832  1.0000  -3.3504   0.0000   0.0000   0.0000   0.2940
   6.900   0.9530   0.01676   0.00804  -0.0471  0.0783  1.0000  -3.4446   0.0000   0.0000   0.0000   0.2931
   7.000   0.9611   0.01704   0.00826  -0.0467  0.0684  1.0000  -3.5381   0.0000   0.0000   0.0000   0.2921
   7.100   0.9682   0.01744   0.00852  -0.0462  0.0548  1.0000  -3.6288   0.0000   0.0000   0.0000   0.2912
   7.200   0.9757   0.01780   0.00880  -0.0458  0.0435  1.0000  -3.7225   0.0000   0.0000   0.0000   0.2902
   7.300   0.9832   0.01818   0.00911  -0.0452  0.0341  1.0000  -3.8148   0.0000   0.0000   0.0000   0.2892
   7.400   0.9901   0.01864   0.00948  -0.0446  0.0235  1.0000  -3.9035   0.0000   0.0000   0.0000   0.2882
   7.500   0.9975   0.01904   0.00987  -0.0440  0.0187  1.0000  -3.9903   0.0000   0.0000   0.0000   0.2871
   7.600   1.0050   0.01943   0.01027  -0.0434  0.0162  1.0000  -4.0773   0.0000   0.0000   0.0000   0.2861
   7.700   1.0125   0.01985   0.01069  -0.0428  0.0144  1.0000  -4.1626   0.0000   0.0000   0.0000   0.2850
   7.800   1.0247   0.01954   0.01092  -0.0431  0.0237  1.0000  -4.3151   0.0000   0.0000   0.0000   0.2847
   7.900   1.0318   0.02000   0.01142  -0.0424  0.0200  1.0000  -4.3999   0.0000   0.0000   0.0000   0.2836
   8.000   1.0389   0.02043   0.01192  -0.0417  0.0177  1.0000  -4.4786   0.0000   0.0000   0.0000   0.2825
   8.100   1.0457   0.02090   0.01244  -0.0410  0.0159  1.0000  -4.5532   0.0000   0.0000   0.0000   0.2815
   8.200   1.0522   0.02140   0.01298  -0.0402  0.0147  1.0000  -4.6265   0.0000   0.0000   0.0000   0.2804
   8.300   1.0585   0.02192   0.01357  -0.0394  0.0138  1.0000  -4.6964   0.0000   0.0000   0.0000   0.2793
   8.400   1.0642   0.02249   0.01421  -0.0386  0.0131  1.0000  -4.7608   0.0000   0.0000   0.0000   0.2781
   8.500   1.0694   0.02311   0.01492  -0.0376  0.0125  1.0000  -4.8201   0.0000   0.0000   0.0000   0.2769
   8.600   1.0743   0.02378   0.01568  -0.0366  0.0122  1.0000  -4.8760   0.0000   0.0000   0.0000   0.2757
   8.700   1.0788   0.02450   0.01648  -0.0356  0.0119  1.0000  -4.9293   0.0000   0.0000   0.0000   0.2745
   8.800   1.0832   0.02526   0.01733  -0.0346  0.0116  1.0000  -4.9808   0.0000   0.0000   0.0000   0.2733
   8.900   1.0877   0.02607   0.01824  -0.0336  0.0115  1.0000  -5.0314   0.0000   0.0000   0.0000   0.2722
   9.000   1.0924   0.02692   0.01918  -0.0326  0.0113  1.0000  -5.0819   0.0000   0.0000   0.0000   0.2710
   9.100   1.0972   0.02781   0.02017  -0.0317  0.0113  1.0000  -5.1327   0.0000   0.0000   0.0000   0.2699
   9.200   1.1022   0.02874   0.02120  -0.0308  0.0112  1.0000  -5.1838   0.0000   0.0000   0.0000   0.2689
   9.300   1.1074   0.02970   0.02226  -0.0300  0.0112  1.0000  -5.2354   0.0000   0.0000   0.0000   0.2679
   9.400   1.1125   0.03068   0.02335  -0.0292  0.0112  1.0000  -5.2870   0.0000   0.0000   0.0000   0.2669
   9.500   1.1176   0.03167   0.02446  -0.0284  0.0112  1.0000  -5.3381   0.0000   0.0000   0.0000   0.2660
   9.600   1.1225   0.03269   0.02559  -0.0276  0.0112  1.0000  -5.3880   0.0000   0.0000   0.0000   0.2650
   9.700   1.1271   0.03371   0.02673  -0.0267  0.0113  1.0000  -5.4359   0.0000   0.0000   0.0000   0.2641
   9.800   1.1312   0.03475   0.02789  -0.0258  0.0114  1.0000  -5.4810   0.0000   0.0000   0.0000   0.2631
   9.900   1.1348   0.03580   0.02907  -0.0249  0.0115  1.0000  -5.5223   0.0000   0.0000   0.0000   0.2620
  10.000   1.1377   0.03687   0.03027  -0.0239  0.0116  1.0000  -5.5583   0.0000   0.0000   0.0000   0.2610
  10.100   1.1398   0.03799   0.03152  -0.0228  0.0117  1.0000  -5.5878   0.0000   0.0000   0.0000   0.2598
  10.200   1.1412   0.03916   0.03283  -0.0216  0.0118  1.0000  -5.6089   0.0000   0.0000   0.0000   0.2587
  10.300   1.1415   0.04040   0.03423  -0.0203  0.0120  1.0000  -5.6196   0.0000   0.0000   0.0000   0.2574
  10.400   1.1406   0.04173   0.03572  -0.0190  0.0121  1.0000  -5.6181   0.0000   0.0000   0.0000   0.2562
  10.500   1.1384   0.04317   0.03732  -0.0175  0.0123  1.0000  -5.6033   0.0000   0.0000   0.0000   0.2548
  10.600   1.1347   0.04470   0.03903  -0.0160  0.0125  1.0000  -5.5760   0.0000   0.0000   0.0000   0.2535
  10.700   1.1298   0.04632   0.04082  -0.0145  0.0127  1.0000  -5.5388   0.0000   0.0000   0.0000   0.2521
  10.800   1.1238   0.04798   0.04265  -0.0131  0.0129  1.0000  -5.4954   0.0000   0.0000   0.0000   0.2507
  10.900   1.1169   0.04969   0.04451  -0.0117  0.0130  1.0000  -5.4486   0.0000   0.0000   0.0000   0.2495
  11.000   1.1095   0.05143   0.04641  -0.0105  0.0132  1.0000  -5.4008   0.0000   0.0000   0.0000   0.2483
  11.100   1.1016   0.05319   0.04830  -0.0094  0.0134  1.0000  -5.3535   0.0000   0.0000   0.0000   0.2473
  11.200   1.0933   0.05494   0.05018  -0.0085  0.0135  1.0000  -5.3079   0.0000   0.0000   0.0000   0.2464
  11.300   1.0849   0.05677   0.05212  -0.0077  0.0136  1.0000  -5.2623   0.0000   0.0000   0.0000   0.2457
  11.400   1.0764   0.05864   0.05411  -0.0073  0.0137  1.0000  -5.2177   0.0000   0.0000   0.0000   0.2451
  11.500   1.0678   0.06059   0.05616  -0.0070  0.0138  1.0000  -5.1734   0.0000   0.0000   0.0000   0.2448
  11.600   1.0592   0.06259   0.05826  -0.0070  0.0139  1.0000  -5.1302   0.0000   0.0000   0.0000   0.2447
  11.700   1.0504   0.06467   0.06043  -0.0072  0.0140  1.0000  -5.0870   0.0000   0.0000   0.0000   0.2448
  11.800   1.0415   0.06683   0.06269  -0.0076  0.0140  1.0000  -5.0429   0.0000   0.0000   0.0000   0.2451
  11.900   1.0324   0.06905   0.06499  -0.0083  0.0141  1.0000  -4.9988   0.0000   0.0000   0.0000   0.2457
  12.000   1.0234   0.07136   0.06738  -0.0092  0.0141  1.0000  -4.9541   0.0000   0.0000   0.0000   0.2465
  12.100   1.0144   0.07382   0.06992  -0.0104  0.0141  1.0000  -4.9085   0.0000   0.0000   0.0000   0.2476
  12.200   1.0056   0.07646   0.07263  -0.0119  0.0141  1.0000  -4.8606   0.0000   0.0000   0.0000   0.2490
  12.300   0.9969   0.07930   0.07554  -0.0136  0.0141  1.0000  -4.8096   0.0000   0.0000   0.0000   0.2507
  12.400   0.9882   0.08234   0.07865  -0.0157  0.0141  1.0000  -4.7551   0.0000   0.0000   0.0000   0.2528
  12.500   0.9797   0.08562   0.08199  -0.0181  0.0141  1.0000  -4.6958   0.0000   0.0000   0.0000   0.2553
  12.600   0.9711   0.08917   0.08560  -0.0208  0.0141  1.0000  -4.6293   0.0000   0.0000   0.0000   0.2581
  12.700   0.9625   0.09303   0.08951  -0.0237  0.0141  1.0000  -4.5528   0.0000   0.0000   0.0000   0.2612
  12.800   0.9536   0.09727   0.09380  -0.0269  0.0141  1.0000  -4.4616   0.0000   0.0000   0.0000   0.2647
  12.900   0.9442   0.10198   0.09856  -0.0303  0.0141  1.0000  -4.3483   0.0000   0.0000   0.0000   0.2686
  13.000   0.9336   0.10736   0.10396  -0.0340  0.0141  1.0000  -4.1991   0.0000   0.0000   0.0000   0.2729
  13.100   0.9210   0.11363   0.11026  -0.0378  0.0141  1.0000  -3.9915   0.0000   0.0000   0.0000   0.2776
  13.200   0.9062   0.12080   0.11742  -0.0416  0.0144  1.0000  -3.7062   0.0000   0.0000   0.0000   0.2826
  13.300   0.8951   0.12648   0.12308  -0.0444  0.0147  1.0000  -3.4850   0.0000   0.0000   0.0000   0.2865
  13.400   0.8868   0.13114   0.12772  -0.0468  0.0149  1.0000  -3.3161   0.0000   0.0000   0.0000   0.2896
  13.500   0.8802   0.13523   0.13179  -0.0488  0.0152  1.0000  -3.1758   0.0000   0.0000   0.0000   0.2924
  13.600   0.8749   0.13893   0.13548  -0.0507  0.0155  1.0000  -3.0556   0.0000   0.0000   0.0000   0.2949
  13.700   0.8706   0.14234   0.13887  -0.0524  0.0158  1.0000  -2.9507   0.0000   0.0000   0.0000   0.2971
  13.800   0.8671   0.14546   0.14197  -0.0540  0.0161  1.0000  -2.8586   0.0000   0.0000   0.0000   0.2991
  13.900   0.8643   0.14828   0.14478  -0.0554  0.0164  1.0000  -2.7780   0.0000   0.0000   0.0000   0.3009
  14.000   0.8620   0.15093   0.14742  -0.0567  0.0168  1.0000  -2.7072   0.0000   0.0000   0.0000   0.3026
  14.100   0.8602   0.15348   0.14995  -0.0580  0.0171  1.0000  -2.6438   0.0000   0.0000   0.0000   0.3042
  14.200   0.8589   0.15594   0.15241  -0.0592  0.0175  1.0000  -2.5869   0.0000   0.0000   0.0000   0.3056
  14.300   0.8578   0.15835   0.15481  -0.0604  0.0179  1.0000  -2.5358   0.0000   0.0000   0.0000   0.3070
  14.400   0.8570   0.16071   0.15716  -0.0615  0.0183  1.0000  -2.4897   0.0000   0.0000   0.0000   0.3082
  14.500   0.8564   0.16303   0.15947  -0.0625  0.0187  1.0000  -2.4477   0.0000   0.0000   0.0000   0.3094
  14.600   0.8559   0.16534   0.16178  -0.0635  0.0192  1.0000  -2.4085   0.0000   0.0000   0.0000   0.3106
  14.700   0.8552   0.16771   0.16414  -0.0645  0.0197  1.0000  -2.3692   0.0000   0.0000   0.0000   0.3117
  15.400   0.8548   0.19161   0.18804  -0.0706  0.0370  1.0000  -1.8517   0.0000   0.0000   0.0000   0.3186
  15.500   0.8565   0.19360   0.19003  -0.0715  0.0369  1.0000  -1.8406   0.0000   0.0000   0.0000   0.3194
  15.600   0.8582   0.19555   0.19198  -0.0724  0.0369  1.0000  -1.8299   0.0000   0.0000   0.0000   0.3202
  15.700   0.8599   0.19746   0.19389  -0.0734  0.0368  1.0000  -1.8196   0.0000   0.0000   0.0000   0.3210
  15.800   0.8617   0.19931   0.19573  -0.0743  0.0367  1.0000  -1.8096   0.0000   0.0000   0.0000   0.3218
  15.900   0.8636   0.20104   0.19746  -0.0753  0.0365  1.0000  -1.7999   0.0000   0.0000   0.0000   0.3227
  16.000   0.8657   0.20256   0.19899  -0.0764  0.0362  1.0000  -1.7898   0.0000   0.0000   0.0000   0.3236
  16.100   0.8668   0.20390   0.20032  -0.0780  0.0355  1.0000  -1.7630   0.0000   0.0000   0.0000   0.3252
  16.200   0.8670   0.20545   0.20186  -0.0796  0.0347  1.0000  -1.7296   0.0000   0.0000   0.0000   0.3270
  16.300   0.8680   0.20727   0.20368  -0.0809  0.0340  1.0000  -1.7057   0.0000   0.0000   0.0000   0.3283
  16.400   0.8693   0.20919   0.20560  -0.0820  0.0334  1.0000  -1.6880   0.0000   0.0000   0.0000   0.3293
  16.500   0.8707   0.21116   0.20757  -0.0831  0.0329  1.0000  -1.6741   0.0000   0.0000   0.0000   0.3302
  16.600   0.8723   0.21313   0.20954  -0.0840  0.0324  1.0000  -1.6627   0.0000   0.0000   0.0000   0.3310
  16.700   0.8740   0.21512   0.21153  -0.0849  0.0319  1.0000  -1.6533   0.0000   0.0000   0.0000   0.3318
  16.800   0.8756   0.21711   0.21352  -0.0858  0.0314  1.0000  -1.6453   0.0000   0.0000   0.0000   0.3325
  16.900   0.8773   0.21910   0.21551  -0.0867  0.0310  1.0000  -1.6386   0.0000   0.0000   0.0000   0.3331
  17.000   0.8791   0.22109   0.21750  -0.0875  0.0305  1.0000  -1.6329   0.0000   0.0000   0.0000   0.3338
  17.100   0.8808   0.22308   0.21949  -0.0883  0.0301  1.0000  -1.6281   0.0000   0.0000   0.0000   0.3344
  17.200   0.8826   0.22507   0.22148  -0.0891  0.0297  1.0000  -1.6242   0.0000   0.0000   0.0000   0.3350
  17.300   0.8844   0.22705   0.22347  -0.0899  0.0293  1.0000  -1.6210   0.0000   0.0000   0.0000   0.3355
  17.400   0.8862   0.22904   0.22546  -0.0907  0.0290  1.0000  -1.6185   0.0000   0.0000   0.0000   0.3361
  17.500   0.8880   0.23103   0.22746  -0.0915  0.0286  1.0000  -1.6167   0.0000   0.0000   0.0000   0.3366
  17.600   0.8898   0.23302   0.22945  -0.0922  0.0282  1.0000  -1.6156   0.0000   0.0000   0.0000   0.3371
  17.700   0.8916   0.23501   0.23144  -0.0930  0.0279  1.0000  -1.6151   0.0000   0.0000   0.0000   0.3376
  17.800   0.8934   0.23700   0.23343  -0.0937  0.0276  1.0000  -1.6153   0.0000   0.0000   0.0000   0.3381
  17.900   0.8952   0.23899   0.23542  -0.0945  0.0272  1.0000  -1.6161   0.0000   0.0000   0.0000   0.3386
  18.000   0.8970   0.24097   0.23741  -0.0952  0.0269  1.0000  -1.6175   0.0000   0.0000   0.0000   0.3390
  18.100   0.8988   0.24296   0.23940  -0.0959  0.0266  1.0000  -1.6196   0.0000   0.0000   0.0000   0.3394
  18.200   0.9006   0.24495   0.24139  -0.0966  0.0263  1.0000  -1.6224   0.0000   0.0000   0.0000   0.3399
  18.300   0.9024   0.24693   0.24338  -0.0972  0.0261  1.0000  -1.6259   0.0000   0.0000   0.0000   0.3402
  18.400   0.9042   0.24891   0.24536  -0.0979  0.0258  1.0000  -1.6302   0.0000   0.0000   0.0000   0.3406
  18.500   0.9060   0.25089   0.24735  -0.0985  0.0255  1.0000  -1.6353   0.0000   0.0000   0.0000   0.3410
  18.600   0.9078   0.25288   0.24934  -0.0992  0.0253  1.0000  -1.6413   0.0000   0.0000   0.0000   0.3413
  18.700   0.9096   0.25486   0.25132  -0.0998  0.0250  1.0000  -1.6482   0.0000   0.0000   0.0000   0.3416
  18.800   0.9114   0.25684   0.25331  -0.1004  0.0248  1.0000  -1.6561   0.0000   0.0000   0.0000   0.3419
  18.900   0.9132   0.25882   0.25529  -0.1009  0.0246  1.0000  -1.6651   0.0000   0.0000   0.0000   0.3422
  19.000   0.9150   0.26080   0.25728  -0.1015  0.0243  1.0000  -1.6754   0.0000   0.0000   0.0000   0.3424
  19.100   0.9168   0.26279   0.25927  -0.1020  0.0241  1.0000  -1.6871   0.0000   0.0000   0.0000   0.3426
  19.200   0.9187   0.26478   0.26128  -0.1025  0.0239  1.0000  -1.7003   0.0000   0.0000   0.0000   0.3427
  19.300   0.9205   0.26680   0.26330  -0.1029  0.0237  1.0000  -1.7151   0.0000   0.0000   0.0000   0.3428
  19.400   0.9225   0.26884   0.26534  -0.1033  0.0235  1.0000  -1.7317   0.0000   0.0000   0.0000   0.3429
  19.500   0.9245   0.27092   0.26744  -0.1037  0.0232  1.0000  -1.7504   0.0000   0.0000   0.0000   0.3429
  19.600   0.9266   0.27308   0.26960  -0.1039  0.0230  1.0000  -1.7716   0.0000   0.0000   0.0000   0.3427
  19.700   0.9289   0.27536   0.27190  -0.1041  0.0228  1.0000  -1.7956   0.0000   0.0000   0.0000   0.3425
  19.800   0.9316   0.27791   0.27445  -0.1042  0.0226  1.0000  -1.8231   0.0000   0.0000   0.0000   0.3421
  19.900   0.9331   0.28101   0.27757  -0.1043  0.0223  1.0000  -1.8346   0.0000   0.0000   0.0000   0.3419
  20.000   0.9271   0.28955   0.28607  -0.1050  0.0215  1.0000  -1.7031   0.0000   0.0000   0.0000   0.3434
  20.100   0.9278   0.29175   0.28827  -0.1057  0.0215  1.0000  -1.6944   0.0000   0.0000   0.0000   0.3440
  20.200   0.9284   0.29393   0.29046  -0.1063  0.0215  1.0000  -1.6856   0.0000   0.0000   0.0000   0.3445
  20.300   0.9290   0.29610   0.29263  -0.1070  0.0215  1.0000  -1.6767   0.0000   0.0000   0.0000   0.3450
  20.400   0.9294   0.29825   0.29479  -0.1077  0.0215  1.0000  -1.6677   0.0000   0.0000   0.0000   0.3455
  20.500   0.9298   0.30038   0.29693  -0.1083  0.0214  1.0000  -1.6585   0.0000   0.0000   0.0000   0.3461
  20.600   0.9300   0.30249   0.29905  -0.1089  0.0214  1.0000  -1.6491   0.0000   0.0000   0.0000   0.3466
  20.700   0.9301   0.30457   0.30113  -0.1096  0.0214  1.0000  -1.6395   0.0000   0.0000   0.0000   0.3471
  20.800   0.9301   0.30661   0.30319  -0.1102  0.0214  1.0000  -1.6296   0.0000   0.0000   0.0000   0.3476
  20.900   0.9299   0.30862   0.30520  -0.1108  0.0214  1.0000  -1.6193   0.0000   0.0000   0.0000   0.3482
  21.000   0.9294   0.31059   0.30718  -0.1113  0.0214  1.0000  -1.6088   0.0000   0.0000   0.0000   0.3487
  21.100   0.9288   0.31250   0.30911  -0.1119  0.0214  1.0000  -1.5978   0.0000   0.0000   0.0000   0.3493
  21.200   0.9280   0.31436   0.31098  -0.1124  0.0214  1.0000  -1.5864   0.0000   0.0000   0.0000   0.3498
  21.300   0.9268   0.31615   0.31277  -0.1129  0.0213  1.0000  -1.5744   0.0000   0.0000   0.0000   0.3504
  21.400   0.9253   0.31783   0.31447  -0.1133  0.0213  1.0000  -1.5615   0.0000   0.0000   0.0000   0.3510
  21.500   0.9233   0.31939   0.31604  -0.1137  0.0213  1.0000  -1.5475   0.0000   0.0000   0.0000   0.3516
  21.600   0.9206   0.32078   0.31745  -0.1140  0.0213  1.0000  -1.5322   0.0000   0.0000   0.0000   0.3522
  21.700   0.9141   0.32128   0.31797  -0.1139  0.0213  1.0000  -1.5081   0.0000   0.0000   0.0000   0.3529
  21.800   0.8761   0.31287   0.30967  -0.1102  0.0213  1.0000  -1.4107   0.0000   0.0000   0.0000   0.3547
  21.900   0.8690   0.31216   0.30900  -0.1100  0.0213  1.0000  -1.3858   0.0000   0.0000   0.0000   0.3554
  22.000   0.8636   0.31183   0.30868  -0.1099  0.0213  1.0000  -1.3648   0.0000   0.0000   0.0000   0.3561
  22.100   0.8591   0.31165   0.30853  -0.1099  0.0212  1.0000  -1.3456   0.0000   0.0000   0.0000   0.3568
  22.200   0.8551   0.31160   0.30850  -0.1101  0.0212  1.0000  -1.3280   0.0000   0.0000   0.0000   0.3575
  22.300   0.8517   0.31164   0.30855  -0.1102  0.0212  1.0000  -1.3116   0.0000   0.0000   0.0000   0.3582
  22.400   0.8485   0.31173   0.30866  -0.1104  0.0212  1.0000  -1.2962   0.0000   0.0000   0.0000   0.3588
  22.500   0.8457   0.31187   0.30881  -0.1107  0.0212  1.0000  -1.2814   0.0000   0.0000   0.0000   0.3594
  22.600   0.8430   0.31201   0.30897  -0.1109  0.0211  1.0000  -1.2665   0.0000   0.0000   0.0000   0.3601
  22.700   0.8405   0.31217   0.30915  -0.1112  0.0211  1.0000  -1.2520   0.0000   0.0000   0.0000   0.3608
  22.800   0.8379   0.31229   0.30928  -0.1116  0.0211  1.0000  -1.2355   0.0000   0.0000   0.0000   0.3615
  22.900   0.8356   0.31244   0.30944  -0.1119  0.0210  1.0000  -1.2196   0.0000   0.0000   0.0000   0.3622
  23.000   0.8334   0.31262   0.30963  -0.1123  0.0210  1.0000  -1.2041   0.0000   0.0000   0.0000   0.3630
  23.100   0.8314   0.31282   0.30985  -0.1128  0.0209  1.0000  -1.1890   0.0000   0.0000   0.0000   0.3637
  23.200   0.8295   0.31305   0.31009  -0.1132  0.0209  1.0000  -1.1741   0.0000   0.0000   0.0000   0.3644
  23.300   0.8279   0.31330   0.31035  -0.1137  0.0208  1.0000  -1.1595   0.0000   0.0000   0.0000   0.3652
  23.400   0.8264   0.31358   0.31065  -0.1141  0.0207  1.0000  -1.1450   0.0000   0.0000   0.0000   0.3659
  23.500   0.8251   0.31390   0.31098  -0.1146  0.0206  1.0000  -1.1307   0.0000   0.0000   0.0000   0.3666
  23.600   0.8239   0.31426   0.31135  -0.1152  0.0205  1.0000  -1.1163   0.0000   0.0000   0.0000   0.3673
  23.700   0.8230   0.31467   0.31177  -0.1157  0.0204  1.0000  -1.1019   0.0000   0.0000   0.0000   0.3681
  23.800   0.8223   0.31515   0.31226  -0.1163  0.0202  1.0000  -1.0876   0.0000   0.0000   0.0000   0.3688
  23.900   0.8218   0.31569   0.31287  -0.1169  0.0200  1.0000  -1.0737   0.0000   0.0000   0.0000   0.3694
  24.000   0.8214   0.31629   0.31348  -0.1174  0.0198  1.0000  -1.0604   0.0000   0.0000   0.0000   0.3701
  24.100   0.8210   0.31692   0.31412  -0.1180  0.0195  1.0000  -1.0480   0.0000   0.0000   0.0000   0.3707
  24.200   0.8206   0.31757   0.31478  -0.1185  0.0193  1.0000  -1.0368   0.0000   0.0000   0.0000   0.3712
  24.300   0.8202   0.31823   0.31545  -0.1189  0.0190  1.0000  -1.0267   0.0000   0.0000   0.0000   0.3717
  24.400   0.8198   0.31887   0.31611  -0.1194  0.0187  1.0000  -1.0176   0.0000   0.0000   0.0000   0.3722
  24.500   0.8194   0.31951   0.31676  -0.1198  0.0185  1.0000  -1.0094   0.0000   0.0000   0.0000   0.3726
  24.600   0.8189   0.32015   0.31740  -0.1202  0.0182  1.0000  -1.0018   0.0000   0.0000   0.0000   0.3731
  24.700   0.8185   0.32078   0.31805  -0.1206  0.0179  1.0000  -0.9948   0.0000   0.0000   0.0000   0.3735
  24.800   0.8180   0.32141   0.31868  -0.1210  0.0177  1.0000  -0.9884   0.0000   0.0000   0.0000   0.3740
  24.900   0.8176   0.32203   0.31932  -0.1214  0.0175  1.0000  -0.9823   0.0000   0.0000   0.0000   0.3744
  25.000   0.8172   0.32265   0.31996  -0.1218  0.0172  1.0000  -0.9767   0.0000   0.0000   0.0000   0.3748
  25.100   0.8168   0.32328   0.32059  -0.1221  0.0170  1.0000  -0.9713   0.0000   0.0000   0.0000   0.3752
  25.200   0.8164   0.32390   0.32122  -0.1225  0.0168  1.0000  -0.9663   0.0000   0.0000   0.0000   0.3756
  25.300   0.8160   0.32452   0.32186  -0.1229  0.0166  1.0000  -0.9615   0.0000   0.0000   0.0000   0.3760
  25.400   0.8157   0.32514   0.32249  -0.1233  0.0164  1.0000  -0.9570   0.0000   0.0000   0.0000   0.3764
  25.500   0.8154   0.32577   0.32312  -0.1237  0.0161  1.0000  -0.9527   0.0000   0.0000   0.0000   0.3768
  25.600   0.8151   0.32639   0.32376  -0.1241  0.0160  1.0000  -0.9486   0.0000   0.0000   0.0000   0.3772
  25.700   0.8148   0.32701   0.32439  -0.1245  0.0158  1.0000  -0.9448   0.0000   0.0000   0.0000   0.3776
  25.800   0.8145   0.32763   0.32503  -0.1249  0.0156  1.0000  -0.9411   0.0000   0.0000   0.0000   0.3780
  25.900   0.8142   0.32826   0.32566  -0.1253  0.0154  1.0000  -0.9376   0.0000   0.0000   0.0000   0.3783
  26.000   0.8140   0.32888   0.32630  -0.1257  0.0152  1.0000  -0.9343   0.0000   0.0000   0.0000   0.3787
  26.100   0.8138   0.32951   0.32693  -0.1261  0.0150  1.0000  -0.9312   0.0000   0.0000   0.0000   0.3791
  26.200   0.8136   0.33013   0.32757  -0.1265  0.0149  1.0000  -0.9284   0.0000   0.0000   0.0000   0.3795
  26.300   0.8134   0.33075   0.32820  -0.1269  0.0147  1.0000  -0.9263   0.0000   0.0000   0.0000   0.3798
  26.400   0.8132   0.33137   0.32883  -0.1273  0.0145  1.0000  -0.9245   0.0000   0.0000   0.0000   0.3802
  26.500   0.8131   0.33199   0.32946  -0.1277  0.0143  1.0000  -0.9228   0.0000   0.0000   0.0000   0.3806
  26.600   0.8129   0.33261   0.33009  -0.1281  0.0141  1.0000  -0.9215   0.0000   0.0000   0.0000   0.3809
  26.700   0.8128   0.33322   0.33071  -0.1285  0.0139  1.0000  -0.9203   0.0000   0.0000   0.0000   0.3813
  26.800   0.8126   0.33384   0.33134  -0.1289  0.0137  1.0000  -0.9194   0.0000   0.0000   0.0000   0.3816
  26.900   0.8125   0.33445   0.33196  -0.1293  0.0135  1.0000  -0.9187   0.0000   0.0000   0.0000   0.3820
  27.000   0.8124   0.33506   0.33258  -0.1297  0.0134  1.0000  -0.9183   0.0000   0.0000   0.0000   0.3823
  27.100   0.8123   0.33567   0.33320  -0.1301  0.0132  1.0000  -0.9181   0.0000   0.0000   0.0000   0.3826
  27.200   0.8122   0.33628   0.33382  -0.1305  0.0131  1.0000  -0.9182   0.0000   0.0000   0.0000   0.3830
  27.300   0.8121   0.33688   0.33444  -0.1309  0.0129  1.0000  -0.9185   0.0000   0.0000   0.0000   0.3833
  27.400   0.8121   0.33748   0.33505  -0.1313  0.0128  1.0000  -0.9191   0.0000   0.0000   0.0000   0.3836
  27.500   0.8120   0.33808   0.33566  -0.1318  0.0126  1.0000  -0.9200   0.0000   0.0000   0.0000   0.3840
  27.600   0.8119   0.33868   0.33627  -0.1322  0.0125  1.0000  -0.9212   0.0000   0.0000   0.0000   0.3843
  27.700   0.8118   0.33927   0.33687  -0.1326  0.0123  1.0000  -0.9226   0.0000   0.0000   0.0000   0.3846
  27.800   0.8118   0.33987   0.33748  -0.1330  0.0122  1.0000  -0.9244   0.0000   0.0000   0.0000   0.3849
  27.900   0.8117   0.34045   0.33807  -0.1334  0.0121  1.0000  -0.9264   0.0000   0.0000   0.0000   0.3852
  28.000   0.8117   0.34104   0.33867  -0.1338  0.0120  1.0000  -0.9288   0.0000   0.0000   0.0000   0.3855
  28.100   0.8116   0.34161   0.33926  -0.1342  0.0118  1.0000  -0.9315   0.0000   0.0000   0.0000   0.3858
  28.200   0.8116   0.34219   0.33984  -0.1345  0.0117  1.0000  -0.9346   0.0000   0.0000   0.0000   0.3861
  28.300   0.8115   0.34276   0.34042  -0.1349  0.0116  1.0000  -0.9381   0.0000   0.0000   0.0000   0.3864
  28.400   0.8114   0.34333   0.34100  -0.1353  0.0115  1.0000  -0.9419   0.0000   0.0000   0.0000   0.3867
  28.500   0.8114   0.34389   0.34158  -0.1357  0.0114  1.0000  -0.9462   0.0000   0.0000   0.0000   0.3869
  28.600   0.8113   0.34445   0.34215  -0.1361  0.0113  1.0000  -0.9509   0.0000   0.0000   0.0000   0.3872
  28.700   0.8113   0.34501   0.34271  -0.1364  0.0112  1.0000  -0.9560   0.0000   0.0000   0.0000   0.3874
  28.800   0.8112   0.34556   0.34328  -0.1368  0.0111  1.0000  -0.9617   0.0000   0.0000   0.0000   0.3877
  28.900   0.8111   0.34612   0.34384  -0.1371  0.0110  1.0000  -0.9678   0.0000   0.0000   0.0000   0.3879
  29.000   0.8111   0.34667   0.34441  -0.1375  0.0109  1.0000  -0.9744   0.0000   0.0000   0.0000   0.3881
  29.100   0.8110   0.34724   0.34499  -0.1378  0.0108  1.0000  -0.9815   0.0000   0.0000   0.0000   0.3883
  29.200   0.8109   0.34783   0.34559  -0.1381  0.0108  1.0000  -0.9891   0.0000   0.0000   0.0000   0.3884
  29.300   0.8109   0.34844   0.34622  -0.1383  0.0107  1.0000  -0.9972   0.0000   0.0000   0.0000   0.3885
  29.400   0.8109   0.34910   0.34689  -0.1386  0.0106  1.0000  -1.0056   0.0000   0.0000   0.0000   0.3886
  29.500   0.8109   0.34985   0.34765  -0.1388  0.0105  1.0000  -1.0142   0.0000   0.0000   0.0000   0.3887
  29.600   0.8109   0.35077   0.34864  -0.1390  0.0104  1.0000  -1.0226   0.0000   0.0000   0.0000   0.3887
  29.700   0.8111   0.35202   0.34990  -0.1390  0.0103  1.0000  -1.0296   0.0000   0.0000   0.0000   0.3885
  29.800   0.8112   0.35482   0.35272  -0.1389  0.0101  1.0000  -1.0154   0.0000   0.0000   0.0000   0.3882


