xflr5 v6.61

 Calculated polar for: SD2030-086-88

 1 1 Reynolds number fixed          Mach number fixed         

 xtrf =   1.000 (top)        1.000 (bottom)
 Mach =   0.000     Re =     1.000 e 6     Ncrit =   9.000

  alpha     CL        CD       CDp       Cm    Top Xtr Bot Xtr   Cpmin    Chinge    XCp    
 ------- -------- --------- --------- -------- ------- ------- -------- --------- ---------
 -10.000  -0.4388   0.09748   0.09578  -0.0310  1.0000  0.0092  -2.2949   0.0000   0.0000   0.0000   0.1724
  -9.400  -0.4452   0.08876   0.08706  -0.0330  1.0000  0.0090  -2.4850   0.0000   0.0000   0.0000   0.1696
  -9.300  -0.4443   0.08784   0.08615  -0.0330  1.0000  0.0092  -2.4617   0.0000   0.0000   0.0000   0.1695
  -9.200  -0.4434   0.08700   0.08531  -0.0330  1.0000  0.0094  -2.4327   0.0000   0.0000   0.0000   0.1696
  -9.100  -0.4423   0.08627   0.08459  -0.0328  1.0000  0.0096  -2.3954   0.0000   0.0000   0.0000   0.1699
  -9.000  -0.4405   0.08571   0.08405  -0.0326  1.0000  0.0098  -2.3434   0.0000   0.0000   0.0000   0.1703
  -8.900  -0.4365   0.08559   0.08393  -0.0322  1.0000  0.0101  -2.2511   0.0000   0.0000   0.0000   0.1706
  -8.800  -0.4309   0.08579   0.08414  -0.0317  1.0000  0.0103  -2.1331   0.0000   0.0000   0.0000   0.1708
  -8.700  -0.4309   0.08510   0.08345  -0.0315  1.0000  0.0104  -2.1082   0.0000   0.0000   0.0000   0.1715
  -8.600  -0.4326   0.08419   0.08256  -0.0312  1.0000  0.0105  -2.1061   0.0000   0.0000   0.0000   0.1726
  -8.500  -0.4352   0.08324   0.08162  -0.0308  1.0000  0.0105  -2.1126   0.0000   0.0000   0.0000   0.1740
  -8.400  -0.4385   0.08227   0.08067  -0.0304  1.0000  0.0105  -2.1238   0.0000   0.0000   0.0000   0.1756
  -8.300  -0.4425   0.08131   0.07972  -0.0299  1.0000  0.0105  -2.1381   0.0000   0.0000   0.0000   0.1775
  -8.200  -0.4471   0.08037   0.07879  -0.0294  1.0000  0.0105  -2.1548   0.0000   0.0000   0.0000   0.1796
  -8.100  -0.4445   0.07862   0.07705  -0.0312  0.9995  0.0106  -2.1680   0.0000   0.0000   0.0000   0.1752
  -8.000  -0.4392   0.07647   0.07490  -0.0341  0.9986  0.0106  -2.1851   0.0000   0.0000   0.0000   0.1677
  -7.900  -0.4340   0.07415   0.07258  -0.0376  0.9974  0.0106  -2.2088   0.0000   0.0000   0.0000   0.1588
  -7.800  -0.4290   0.07156   0.06999  -0.0420  0.9958  0.0106  -2.2418   0.0000   0.0000   0.0000   0.1477
  -7.700  -0.4216   0.06837   0.06679  -0.0475  0.9938  0.0106  -2.2828   0.0000   0.0000   0.0000   0.1330
  -7.600  -0.4140   0.06545   0.06384  -0.0518  0.9923  0.0106  -2.3207   0.0000   0.0000   0.0000   0.1206
  -7.500  -0.4063   0.06259   0.06096  -0.0557  0.9911  0.0107  -2.3590   0.0000   0.0000   0.0000   0.1087
  -7.400  -0.3982   0.05977   0.05809  -0.0593  0.9900  0.0107  -2.3976   0.0000   0.0000   0.0000   0.0969
  -7.300  -0.3898   0.05700   0.05527  -0.0625  0.9891  0.0107  -2.4359   0.0000   0.0000   0.0000   0.0852
  -7.200  -0.3810   0.05428   0.05250  -0.0655  0.9883  0.0107  -2.4737   0.0000   0.0000   0.0000   0.0736
  -7.100  -0.3721   0.05163   0.04980  -0.0683  0.9876  0.0107  -2.5107   0.0000   0.0000   0.0000   0.0621
  -6.800  -0.3812   0.03207   0.02944  -0.0768  0.9780  0.0119  -3.5036   0.0000   0.0000   0.0000   0.0435
  -6.700  -0.3730   0.03026   0.02752  -0.0779  0.9770  0.0125  -3.4802   0.0000   0.0000   0.0000   0.0362
  -6.600  -0.3622   0.02951   0.02672  -0.0787  0.9764  0.0129  -3.3809   0.0000   0.0000   0.0000   0.0276
  -6.500  -0.3508   0.02900   0.02618  -0.0796  0.9759  0.0133  -3.2674   0.0000   0.0000   0.0000   0.0182
  -6.400  -0.3391   0.02855   0.02569  -0.0803  0.9753  0.0138  -3.1547   0.0000   0.0000   0.0000   0.0082
  -6.300  -0.3273   0.02814   0.02524  -0.0811  0.9747  0.0142  -3.0427   0.0000   0.0000   0.0000  -0.0026
  -6.200  -0.3154   0.02781   0.02489  -0.0818  0.9741  0.0147  -2.9271   0.0000   0.0000   0.0000  -0.0143
  -6.100  -0.3036   0.02739   0.02445  -0.0824  0.9734  0.0153  -2.8229   0.0000   0.0000   0.0000  -0.0266
  -6.000  -0.2919   0.02691   0.02392  -0.0831  0.9727  0.0159  -2.7296   0.0000   0.0000   0.0000  -0.0396
  -5.900  -0.2805   0.02638   0.02334  -0.0836  0.9719  0.0166  -2.6462   0.0000   0.0000   0.0000  -0.0530
  -5.800  -0.2719   0.02587   0.02280  -0.0834  0.9702  0.0174  -2.5801   0.0000   0.0000   0.0000  -0.0617
  -5.700  -0.2650   0.02540   0.02228  -0.0827  0.9678  0.0181  -2.5235   0.0000   0.0000   0.0000  -0.0672
  -5.600  -0.2562   0.02494   0.02177  -0.0824  0.9659  0.0191  -2.4625   0.0000   0.0000   0.0000  -0.0768
  -5.500  -0.2463   0.02458   0.02138  -0.0823  0.9642  0.0202  -2.3954   0.0000   0.0000   0.0000  -0.0894
  -5.400  -0.2348   0.02458   0.02136  -0.0823  0.9628  0.0215  -2.3099   0.0000   0.0000   0.0000  -0.1057
  -5.300  -0.2153   0.02753   0.02448  -0.0826  0.9632  0.0237  -2.0631   0.0000   0.0000   0.0000  -0.1391
  -4.700  -0.1697   0.01793   0.01397  -0.0812  0.9505  0.0269  -2.1339   0.0000   0.0000   0.0000  -0.2350
  -4.600  -0.1619   0.01740   0.01343  -0.0808  0.9487  0.0281  -2.0663   0.0000   0.0000   0.0000  -0.2555
  -4.500  -0.1533   0.01710   0.01312  -0.0805  0.9466  0.0291  -1.9929   0.0000   0.0000   0.0000  -0.2818
  -4.400  -0.1440   0.01680   0.01281  -0.0802  0.9444  0.0301  -1.9229   0.0000   0.0000   0.0000  -0.3138
  -4.300  -0.1344   0.01650   0.01249  -0.0800  0.9422  0.0311  -1.8554   0.0000   0.0000   0.0000  -0.3523
  -4.200  -0.1246   0.01620   0.01217  -0.0799  0.9402  0.0323  -1.7900   0.0000   0.0000   0.0000  -0.3984
  -4.100  -0.1145   0.01582   0.01176  -0.0796  0.9382  0.0334  -1.7343   0.0000   0.0000   0.0000  -0.4531
  -4.000  -0.1044   0.01544   0.01133  -0.0794  0.9363  0.0345  -1.6822   0.0000   0.0000   0.0000  -0.5189
  -3.900  -0.0941   0.01509   0.01093  -0.0792  0.9344  0.0358  -1.6290   0.0000   0.0000   0.0000  -0.5997
  -3.800  -0.0835   0.01482   0.01062  -0.0790  0.9325  0.0373  -1.5697   0.0000   0.0000   0.0000  -0.7056
  -3.700  -0.0722   0.01491   0.01061  -0.0789  0.9306  0.0397  -1.4825   0.0000   0.0000   0.0000  -0.8541
  -3.600  -0.0606   0.01504   0.01073  -0.0788  0.9286  0.0412  -1.4160   0.0000   0.0000   0.0000  -1.0631
  -3.500  -0.0477   0.01599   0.01172  -0.0789  0.9264  0.0425  -1.3198   0.0000   0.0000   0.0000  -1.4184
  -3.300  -0.0319   0.01242   0.00781  -0.0779  0.9219  0.0470  -1.3437   0.0000   0.0000   0.0000  -2.2102
  -3.200  -0.0221   0.01188   0.00728  -0.0777  0.9197  0.0490  -1.2992   0.0000   0.0000   0.0000  -3.2881
  -3.100  -0.0119   0.01151   0.00690  -0.0774  0.9173  0.0505  -1.2526   0.0000   0.0000   0.0000  -6.2854
  -3.000  -0.0008   0.00922   0.00421  -0.0753  0.9147  0.0216  -1.5290   0.0000   0.0000   0.0000  -92.0080
  -2.900   0.0083   0.00856   0.00344  -0.0746  0.9119  0.0195  -1.5465   0.0000   0.0000   0.0000   9.3172
  -2.800   0.0182   0.00815   0.00293  -0.0741  0.9092  0.0180  -1.5386   0.0000   0.0000   0.0000   4.3515
  -2.700   0.0287   0.00788   0.00256  -0.0738  0.9065  0.0169  -1.5159   0.0000   0.0000   0.0000   2.8442
  -2.600   0.0394   0.00769   0.00230  -0.0735  0.9037  0.0161  -1.4750   0.0000   0.0000   0.0000   2.1297
  -2.500   0.0503   0.00756   0.00211  -0.0734  0.9007  0.0156  -1.4210   0.0000   0.0000   0.0000   1.7180
  -2.400   0.0615   0.00746   0.00196  -0.0733  0.8970  0.0151  -1.3613   0.0000   0.0000   0.0000   1.4501
  -2.300   0.0723   0.00737   0.00183  -0.0732  0.8945  0.0148  -1.3009   0.0000   0.0000   0.0000   1.2690
  -2.200   0.0829   0.00728   0.00172  -0.0730  0.8922  0.0145  -1.2404   0.0000   0.0000   0.0000   1.1363
  -2.100   0.0935   0.00721   0.00162  -0.0729  0.8894  0.0143  -1.1796   0.0000   0.0000   0.0000   1.0331
  -2.000   0.1043   0.00714   0.00153  -0.0727  0.8864  0.0141  -1.1190   0.0000   0.0000   0.0000   0.9506
  -1.900   0.1152   0.00708   0.00143  -0.0726  0.8831  0.0140  -1.0587   0.0000   0.0000   0.0000   0.8831
  -1.800   0.1261   0.00702   0.00134  -0.0725  0.8797  0.0140  -0.9992   0.0000   0.0000   0.0000   0.8271
  -1.700   0.1371   0.00697   0.00125  -0.0724  0.8761  0.0141  -0.9411   0.0000   0.0000   0.0000   0.7799
  -1.600   0.1481   0.00693   0.00116  -0.0722  0.8722  0.0145  -0.8862   0.0000   0.0000   0.0000   0.7396
  -1.500   0.1592   0.00689   0.00107  -0.0721  0.8681  0.0170  -0.8448   0.0000   0.0000   0.0000   0.7045
  -1.400   0.1704   0.00686   0.00106  -0.0721  0.8635  0.0214  -0.7874   0.0000   0.0000   0.0000   0.6743
  -1.300   0.1813   0.00682   0.00105  -0.0720  0.8611  0.0235  -0.7212   0.0000   0.0000   0.0000   0.6483
  -1.200   0.1919   0.00670   0.00102  -0.0720  0.8589  0.0404  -0.6564   0.0000   0.0000   0.0000   0.6258
  -1.100   0.2026   0.00663   0.00101  -0.0719  0.8563  0.0534  -0.5911   0.0000   0.0000   0.0000   0.6055
  -1.000   0.2133   0.00657   0.00099  -0.0718  0.8530  0.0638  -0.5265   0.0000   0.0000   0.0000   0.5871
  -0.900   0.2240   0.00649   0.00096  -0.0717  0.8491  0.0808  -0.4634   0.0000   0.0000   0.0000   0.5706
  -0.800   0.2347   0.00643   0.00094  -0.0717  0.8451  0.0941  -0.4011   0.0000   0.0000   0.0000   0.5554
  -0.700   0.2453   0.00635   0.00092  -0.0716  0.8410  0.1159  -0.3976   0.0000   0.0000   0.0000   0.5418
  -0.600   0.2560   0.00629   0.00089  -0.0715  0.8366  0.1364  -0.4070   0.0000   0.0000   0.0000   0.5292
  -0.500   0.2665   0.00620   0.00087  -0.0714  0.8319  0.1626  -0.4162   0.0000   0.0000   0.0000   0.5178
  -0.400   0.2772   0.00613   0.00086  -0.0714  0.8269  0.1889  -0.4268   0.0000   0.0000   0.0000   0.5072
  -0.300   0.2881   0.00606   0.00086  -0.0714  0.8242  0.2096  -0.4377   0.0000   0.0000   0.0000   0.4973
  -0.100   0.3092   0.00583   0.00085  -0.0713  0.8189  0.2772  -0.4593   0.0000   0.0000   0.0000   0.4799
   0.000   0.3196   0.00571   0.00084  -0.0712  0.8152  0.3179  -0.4715   0.0000   0.0000   0.0000   0.4721
   0.100   0.3295   0.00549   0.00084  -0.0711  0.8109  0.3873  -0.4837   0.0000   0.0000   0.0000   0.4650
   0.200   0.3378   0.00502   0.00084  -0.0708  0.8064  0.5479  -0.4949   0.0000   0.0000   0.0000   0.4588
   0.300   0.3420   0.00437   0.00096  -0.0694  0.8014  0.7863  -0.5037   0.0000   0.0000   0.0000   0.4520
   0.400   0.3502   0.00429   0.00101  -0.0686  0.7956  0.8387  -0.5151   0.0000   0.0000   0.0000   0.4449
   0.500   0.3583   0.00427   0.00106  -0.0677  0.7888  0.8719  -0.5265   0.0000   0.0000   0.0000   0.4380
   0.600   0.3671   0.00427   0.00109  -0.0671  0.7842  0.8938  -0.5384   0.0000   0.0000   0.0000   0.4316
   0.700   0.3756   0.00426   0.00113  -0.0663  0.7817  0.9108  -0.5507   0.0000   0.0000   0.0000   0.4254
   0.800   0.3854   0.00427   0.00116  -0.0660  0.7787  0.9197  -0.5655   0.0000   0.0000   0.0000   0.4198
   0.900   0.3948   0.00427   0.00117  -0.0654  0.7751  0.9275  -0.5800   0.0000   0.0000   0.0000   0.4144
   1.000   0.4042   0.00427   0.00118  -0.0649  0.7703  0.9345  -0.5945   0.0000   0.0000   0.0000   0.4093
   1.100   0.4137   0.00430   0.00119  -0.0645  0.7641  0.9403  -0.6092   0.0000   0.0000   0.0000   0.4044
   1.200   0.4232   0.00433   0.00119  -0.0641  0.7563  0.9448  -0.6240   0.0000   0.0000   0.0000   0.3999
   1.300   0.4326   0.00438   0.00119  -0.0636  0.7467  0.9488  -0.6395   0.0000   0.0000   0.0000   0.3955
   1.400   0.4426   0.00440   0.00120  -0.0633  0.7401  0.9534  -0.6581   0.0000   0.0000   0.0000   0.3914
   1.500   0.4530   0.00440   0.00121  -0.0631  0.7353  0.9580  -0.6771   0.0000   0.0000   0.0000   0.3875
   1.600   0.4631   0.00442   0.00122  -0.0628  0.7294  0.9628  -0.6959   0.0000   0.0000   0.0000   0.3838
   1.700   0.4727   0.00445   0.00122  -0.0624  0.7217  0.9676  -0.7142   0.0000   0.0000   0.0000   0.3801
   1.800   0.4832   0.00449   0.00122  -0.0622  0.7111  0.9715  -0.7362   0.0000   0.0000   0.0000   0.3768
   1.900   0.4953   0.00456   0.00123  -0.0624  0.6967  0.9746  -0.7617   0.0000   0.0000   0.0000   0.3739
   2.000   0.5083   0.00459   0.00124  -0.0628  0.6873  0.9774  -0.7884   0.0000   0.0000   0.0000   0.3714
   2.100   0.5203   0.00466   0.00125  -0.0630  0.6706  0.9806  -0.8141   0.0000   0.0000   0.0000   0.3689
   2.200   0.5313   0.00478   0.00127  -0.0629  0.6493  0.9841  -0.8389   0.0000   0.0000   0.0000   0.3663
   2.300   0.5436   0.00485   0.00129  -0.0632  0.6331  0.9867  -0.8654   0.0000   0.0000   0.0000   0.3640
   2.400   0.5570   0.00503   0.00132  -0.0638  0.6022  0.9883  -0.8953   0.0000   0.0000   0.0000   0.3622
   2.500   0.5712   0.00513   0.00135  -0.0646  0.5823  0.9895  -0.9329   0.0000   0.0000   0.0000   0.3606
   2.600   0.5847   0.00530   0.00139  -0.0652  0.5557  0.9910  -0.9695   0.0000   0.0000   0.0000   0.3590
   2.700   0.5987   0.00539   0.00143  -0.0659  0.5390  0.9925  -1.0074   0.0000   0.0000   0.0000   0.3575
   2.800   0.6116   0.00555   0.00148  -0.0664  0.5145  0.9942  -1.0438   0.0000   0.0000   0.0000   0.3560
   2.900   0.6247   0.00567   0.00152  -0.0670  0.4945  0.9958  -1.0808   0.0000   0.0000   0.0000   0.3545
   3.000   0.6372   0.00588   0.00159  -0.0674  0.4637  0.9974  -1.1171   0.0000   0.0000   0.0000   0.3530
   3.100   0.6501   0.00606   0.00165  -0.0680  0.4329  0.9989  -1.1543   0.0000   0.0000   0.0000   0.3517
   3.200   0.6607   0.00630   0.00172  -0.0681  0.3990  1.0000  -1.1881   0.0000   0.0000   0.0000   0.3501
   3.300   0.6670   0.00645   0.00178  -0.0672  0.3777  1.0000  -1.2152   0.0000   0.0000   0.0000   0.3477
   3.400   0.6731   0.00663   0.00185  -0.0663  0.3528  1.0000  -1.2422   0.0000   0.0000   0.0000   0.3454
   3.500   0.6805   0.00674   0.00190  -0.0656  0.3376  1.0000  -1.2716   0.0000   0.0000   0.0000   0.3432
   3.600   0.6871   0.00693   0.00197  -0.0648  0.3163  1.0000  -1.2996   0.0000   0.0000   0.0000   0.3410
   3.700   0.6954   0.00703   0.00203  -0.0643  0.3018  1.0000  -1.3306   0.0000   0.0000   0.0000   0.3391
   3.800   0.7010   0.00735   0.00220  -0.0633  0.2609  1.0000  -1.3582   0.0000   0.0000   0.0000   0.3369
   3.900   0.6989   0.00837   0.00251  -0.0613  0.1329  1.0000  -1.3708   0.0000   0.0000   0.0000   0.3342
   4.000   0.7056   0.00873   0.00266  -0.0606  0.0969  1.0000  -1.4061   0.0000   0.0000   0.0000   0.3323
   4.100   0.7139   0.00898   0.00277  -0.0601  0.0746  1.0000  -1.4462   0.0000   0.0000   0.0000   0.3306
   4.200   0.7224   0.00921   0.00288  -0.0598  0.0569  1.0000  -1.4877   0.0000   0.0000   0.0000   0.3290
   4.300   0.7316   0.00938   0.00299  -0.0595  0.0466  1.0000  -1.5316   0.0000   0.0000   0.0000   0.3275
   4.400   0.7407   0.00956   0.00309  -0.0592  0.0352  1.0000  -1.5756   0.0000   0.0000   0.0000   0.3260
   4.500   0.7504   0.00970   0.00318  -0.0590  0.0298  1.0000  -1.6218   0.0000   0.0000   0.0000   0.3246
   4.600   0.7600   0.00984   0.00328  -0.0587  0.0241  1.0000  -1.6684   0.0000   0.0000   0.0000   0.3232
   4.700   0.7701   0.00994   0.00335  -0.0586  0.0205  1.0000  -1.7241   0.0000   0.0000   0.0000   0.3219
   4.800   0.7803   0.01002   0.00341  -0.0585  0.0194  1.0000  -1.7950   0.0000   0.0000   0.0000   0.3207
   4.900   0.7890   0.01027   0.00359  -0.0581  0.0099  1.0000  -1.8608   0.0000   0.0000   0.0000   0.3193
   5.000   0.7992   0.01036   0.00367  -0.0579  0.0094  1.0000  -1.9337   0.0000   0.0000   0.0000   0.3181
   5.100   0.8093   0.01045   0.00374  -0.0578  0.0090  1.0000  -2.0079   0.0000   0.0000   0.0000   0.3169
   5.200   0.8196   0.01053   0.00381  -0.0577  0.0086  1.0000  -2.0836   0.0000   0.0000   0.0000   0.3158
   5.300   0.8298   0.01061   0.00387  -0.0576  0.0081  1.0000  -2.1610   0.0000   0.0000   0.0000   0.3147
   5.400   0.8401   0.01069   0.00394  -0.0575  0.0077  1.0000  -2.2400   0.0000   0.0000   0.0000   0.3136
   5.500   0.8502   0.01078   0.00401  -0.0573  0.0072  1.0000  -2.3207   0.0000   0.0000   0.0000   0.3125
   5.600   0.8604   0.01087   0.00409  -0.0572  0.0067  1.0000  -2.4038   0.0000   0.0000   0.0000   0.3115
   5.700   0.8706   0.01096   0.00416  -0.0571  0.0062  1.0000  -2.4899   0.0000   0.0000   0.0000   0.3105
   5.800   0.8807   0.01106   0.00425  -0.0569  0.0056  1.0000  -2.5796   0.0000   0.0000   0.0000   0.3095
   5.900   0.8908   0.01116   0.00434  -0.0568  0.0051  1.0000  -2.6743   0.0000   0.0000   0.0000   0.3085
   6.000   0.9008   0.01126   0.00444  -0.0566  0.0047  1.0000  -2.7756   0.0000   0.0000   0.0000   0.3075
   6.100   0.9109   0.01137   0.00456  -0.0565  0.0044  1.0000  -2.8835   0.0000   0.0000   0.0000   0.3065
   6.200   0.9209   0.01148   0.00468  -0.0563  0.0041  1.0000  -2.9953   0.0000   0.0000   0.0000   0.3055
   6.300   0.9309   0.01159   0.00481  -0.0561  0.0039  1.0000  -3.1088   0.0000   0.0000   0.0000   0.3045
   6.400   0.9409   0.01170   0.00494  -0.0559  0.0038  1.0000  -3.2227   0.0000   0.0000   0.0000   0.3036
   6.500   0.9509   0.01182   0.00509  -0.0557  0.0037  1.0000  -3.3367   0.0000   0.0000   0.0000   0.3027
   6.600   0.9608   0.01195   0.00524  -0.0555  0.0037  1.0000  -3.4510   0.0000   0.0000   0.0000   0.3017
   6.700   0.9706   0.01208   0.00540  -0.0553  0.0036  1.0000  -3.5654   0.0000   0.0000   0.0000   0.3008
   6.800   0.9804   0.01222   0.00557  -0.0551  0.0036  1.0000  -3.6800   0.0000   0.0000   0.0000   0.2999
   6.900   0.9901   0.01237   0.00575  -0.0548  0.0036  1.0000  -3.7947   0.0000   0.0000   0.0000   0.2990
   7.000   0.9997   0.01253   0.00595  -0.0545  0.0037  1.0000  -3.9096   0.0000   0.0000   0.0000   0.2981
   7.100   1.0091   0.01270   0.00615  -0.0542  0.0037  1.0000  -4.0245   0.0000   0.0000   0.0000   0.2971
   7.200   1.0185   0.01289   0.00638  -0.0539  0.0037  1.0000  -4.1397   0.0000   0.0000   0.0000   0.2962
   7.300   1.0278   0.01309   0.00661  -0.0536  0.0038  1.0000  -4.2554   0.0000   0.0000   0.0000   0.2953
   7.400   1.0369   0.01329   0.00685  -0.0533  0.0038  1.0000  -4.3715   0.0000   0.0000   0.0000   0.2944
   7.500   1.0469   0.01337   0.00706  -0.0532  0.0039  1.0000  -4.4367   0.0000   0.0000   0.0000   0.2937
   7.600   1.0562   0.01356   0.00729  -0.0529  0.0040  1.0000  -4.5461   0.0000   0.0000   0.0000   0.2928
   7.700   1.0652   0.01378   0.00755  -0.0525  0.0040  1.0000  -4.6616   0.0000   0.0000   0.0000   0.2920
   7.800   1.0740   0.01402   0.00783  -0.0521  0.0041  1.0000  -4.7792   0.0000   0.0000   0.0000   0.2911
   7.900   1.0827   0.01427   0.00812  -0.0517  0.0042  1.0000  -4.8977   0.0000   0.0000   0.0000   0.2902
   8.000   1.0913   0.01453   0.00843  -0.0512  0.0043  1.0000  -5.0164   0.0000   0.0000   0.0000   0.2893
   8.100   1.0997   0.01481   0.00876  -0.0508  0.0044  1.0000  -5.1344   0.0000   0.0000   0.0000   0.2883
   8.200   1.1079   0.01511   0.00911  -0.0503  0.0045  1.0000  -5.2508   0.0000   0.0000   0.0000   0.2874
   8.300   1.1158   0.01544   0.00950  -0.0497  0.0047  1.0000  -5.3640   0.0000   0.0000   0.0000   0.2865
   8.400   1.1234   0.01581   0.00993  -0.0491  0.0049  1.0000  -5.4712   0.0000   0.0000   0.0000   0.2855
   8.500   1.1305   0.01624   0.01044  -0.0484  0.0051  1.0000  -5.5668   0.0000   0.0000   0.0000   0.2844
   8.600   1.1365   0.01680   0.01111  -0.0474  0.0054  1.0000  -5.6358   0.0000   0.0000   0.0000   0.2833
   8.700   1.1402   0.01771   0.01218  -0.0459  0.0059  1.0000  -5.6370   0.0000   0.0000   0.0000   0.2817
   8.800   1.1411   0.01925   0.01395  -0.0439  0.0067  1.0000  -5.5530   0.0000   0.0000   0.0000   0.2798
   8.900   1.1403   0.02187   0.01688  -0.0415  0.0080  1.0000  -5.3772   0.0000   0.0000   0.0000   0.2776
  14.000   0.8680   0.15377   0.15220  -0.0609  0.0146  1.0000  -2.5725   0.0000   0.0000   0.0000   0.3071
  14.100   0.8679   0.15565   0.15408  -0.0620  0.0144  1.0000  -2.5541   0.0000   0.0000   0.0000   0.3083
  14.200   0.8680   0.15752   0.15594  -0.0631  0.0142  1.0000  -2.5381   0.0000   0.0000   0.0000   0.3094
  14.300   0.8684   0.15938   0.15780  -0.0641  0.0140  1.0000  -2.5246   0.0000   0.0000   0.0000   0.3105
  14.400   0.8688   0.16124   0.15966  -0.0652  0.0138  1.0000  -2.5135   0.0000   0.0000   0.0000   0.3115
  14.500   0.8695   0.16308   0.16150  -0.0662  0.0136  1.0000  -2.5046   0.0000   0.0000   0.0000   0.3125
  14.600   0.8703   0.16491   0.16333  -0.0671  0.0135  1.0000  -2.4978   0.0000   0.0000   0.0000   0.3135
  14.700   0.8712   0.16673   0.16514  -0.0681  0.0133  1.0000  -2.4932   0.0000   0.0000   0.0000   0.3144
  14.800   0.8723   0.16853   0.16694  -0.0691  0.0131  1.0000  -2.4907   0.0000   0.0000   0.0000   0.3153
  14.900   0.8742   0.16991   0.16832  -0.0698  0.0128  1.0000  -2.5199   0.0000   0.0000   0.0000   0.3158
  15.000   0.8765   0.17112   0.16954  -0.0705  0.0126  1.0000  -2.5616   0.0000   0.0000   0.0000   0.3162
  15.100   0.8791   0.17223   0.17065  -0.0711  0.0123  1.0000  -2.6115   0.0000   0.0000   0.0000   0.3165
  15.200   0.8817   0.17329   0.17171  -0.0717  0.0120  1.0000  -2.6667   0.0000   0.0000   0.0000   0.3167
  15.300   0.8836   0.17466   0.17308  -0.0725  0.0118  1.0000  -2.7021   0.0000   0.0000   0.0000   0.3173
  15.400   0.8855   0.17603   0.17445  -0.0732  0.0115  1.0000  -2.7388   0.0000   0.0000   0.0000   0.3178
  15.500   0.8870   0.17747   0.17589  -0.0740  0.0113  1.0000  -2.7714   0.0000   0.0000   0.0000   0.3184
  15.600   0.8876   0.17926   0.17768  -0.0749  0.0109  1.0000  -2.7821   0.0000   0.0000   0.0000   0.3192
  15.700   0.8653   0.19070   0.18908  -0.0792  0.0099  1.0000  -2.1726   0.0000   0.0000   0.0000   0.3268
  15.800   0.8669   0.19286   0.19124  -0.0802  0.0099  1.0000  -2.1551   0.0000   0.0000   0.0000   0.3276
  15.900   0.8684   0.19501   0.19339  -0.0811  0.0099  1.0000  -2.1387   0.0000   0.0000   0.0000   0.3284
  16.000   0.8701   0.19716   0.19553  -0.0821  0.0099  1.0000  -2.1232   0.0000   0.0000   0.0000   0.3292
  16.100   0.8718   0.19929   0.19767  -0.0830  0.0099  1.0000  -2.1088   0.0000   0.0000   0.0000   0.3300
  16.200   0.8735   0.20142   0.19980  -0.0839  0.0099  1.0000  -2.0953   0.0000   0.0000   0.0000   0.3307
  16.300   0.8753   0.20354   0.20192  -0.0848  0.0099  1.0000  -2.0828   0.0000   0.0000   0.0000   0.3315
  16.400   0.8771   0.20565   0.20402  -0.0857  0.0099  1.0000  -2.0715   0.0000   0.0000   0.0000   0.3322
  16.500   0.8790   0.20774   0.20611  -0.0867  0.0098  1.0000  -2.0615   0.0000   0.0000   0.0000   0.3329
  16.600   0.8809   0.20981   0.20819  -0.0875  0.0098  1.0000  -2.0529   0.0000   0.0000   0.0000   0.3336
  16.700   0.8829   0.21186   0.21023  -0.0884  0.0098  1.0000  -2.0461   0.0000   0.0000   0.0000   0.3343
  16.800   0.8850   0.21386   0.21224  -0.0893  0.0098  1.0000  -2.0419   0.0000   0.0000   0.0000   0.3349
  16.900   0.8872   0.21581   0.21419  -0.0902  0.0097  1.0000  -2.0414   0.0000   0.0000   0.0000   0.3355
  17.000   0.8897   0.21764   0.21602  -0.0911  0.0097  1.0000  -2.0478   0.0000   0.0000   0.0000   0.3360
  17.100   0.8928   0.21919   0.21757  -0.0919  0.0095  1.0000  -2.0700   0.0000   0.0000   0.0000   0.3365
  17.200   0.8973   0.22017   0.21856  -0.0925  0.0092  1.0000  -2.1250   0.0000   0.0000   0.0000   0.3365
  17.300   0.9017   0.22142   0.21981  -0.0932  0.0086  1.0000  -2.1643   0.0000   0.0000   0.0000   0.3367
  17.400   0.9043   0.22344   0.22183  -0.0942  0.0081  1.0000  -2.1580   0.0000   0.0000   0.0000   0.3373
  17.500   0.9065   0.22563   0.22401  -0.0951  0.0077  1.0000  -2.1449   0.0000   0.0000   0.0000   0.3380
  17.600   0.9084   0.22782   0.22620  -0.0960  0.0073  1.0000  -2.1350   0.0000   0.0000   0.0000   0.3386
  17.700   0.9103   0.22998   0.22837  -0.0969  0.0069  1.0000  -2.1292   0.0000   0.0000   0.0000   0.3393
  17.800   0.9122   0.23211   0.23050  -0.0978  0.0066  1.0000  -2.1272   0.0000   0.0000   0.0000   0.3399
  17.900   0.9140   0.23421   0.23260  -0.0987  0.0063  1.0000  -2.1287   0.0000   0.0000   0.0000   0.3405
  18.000   0.9159   0.23628   0.23467  -0.0995  0.0061  1.0000  -2.1332   0.0000   0.0000   0.0000   0.3411
  18.100   0.9178   0.23832   0.23671  -0.1003  0.0058  1.0000  -2.1405   0.0000   0.0000   0.0000   0.3416
  18.200   0.9197   0.24034   0.23873  -0.1012  0.0056  1.0000  -2.1503   0.0000   0.0000   0.0000   0.3421
  18.300   0.9216   0.24234   0.24073  -0.1020  0.0054  1.0000  -2.1625   0.0000   0.0000   0.0000   0.3427
  18.400   0.9235   0.24432   0.24271  -0.1028  0.0052  1.0000  -2.1772   0.0000   0.0000   0.0000   0.3432
  18.500   0.9254   0.24627   0.24467  -0.1036  0.0050  1.0000  -2.1942   0.0000   0.0000   0.0000   0.3436
  18.600   0.9273   0.24821   0.24661  -0.1044  0.0049  1.0000  -2.2135   0.0000   0.0000   0.0000   0.3441
  18.700   0.9292   0.25012   0.24852  -0.1052  0.0047  1.0000  -2.2353   0.0000   0.0000   0.0000   0.3445
  18.800   0.9312   0.25201   0.25041  -0.1059  0.0046  1.0000  -2.2594   0.0000   0.0000   0.0000   0.3450
  18.900   0.9331   0.25388   0.25228  -0.1067  0.0044  1.0000  -2.2860   0.0000   0.0000   0.0000   0.3454
  19.000   0.9350   0.25572   0.25413  -0.1074  0.0043  1.0000  -2.3151   0.0000   0.0000   0.0000   0.3458
  19.100   0.9370   0.25754   0.25595  -0.1082  0.0042  1.0000  -2.3467   0.0000   0.0000   0.0000   0.3462
  19.200   0.9389   0.25934   0.25775  -0.1089  0.0041  1.0000  -2.3808   0.0000   0.0000   0.0000   0.3465
  19.300   0.9409   0.26111   0.25953  -0.1096  0.0040  1.0000  -2.4174   0.0000   0.0000   0.0000   0.3469
  19.400   0.9428   0.26286   0.26128  -0.1103  0.0039  1.0000  -2.4564   0.0000   0.0000   0.0000   0.3472
  19.500   0.9447   0.26464   0.26306  -0.1110  0.0038  1.0000  -2.4947   0.0000   0.0000   0.0000   0.3475
  19.600   0.9464   0.26652   0.26494  -0.1118  0.0037  1.0000  -2.5257   0.0000   0.0000   0.0000   0.3479
  19.700   0.9480   0.26842   0.26684  -0.1125  0.0037  1.0000  -2.5558   0.0000   0.0000   0.0000   0.3483
  19.800   0.9495   0.27035   0.26878  -0.1133  0.0036  1.0000  -2.5842   0.0000   0.0000   0.0000   0.3488
  19.900   0.9509   0.27233   0.27076  -0.1140  0.0035  1.0000  -2.6095   0.0000   0.0000   0.0000   0.3492
  20.000   0.9520   0.27441   0.27285  -0.1148  0.0034  1.0000  -2.6276   0.0000   0.0000   0.0000   0.3497
  20.100   0.9525   0.27683   0.27527  -0.1155  0.0033  1.0000  -2.6213   0.0000   0.0000   0.0000   0.3503
  20.200   0.9400   0.28752   0.28593  -0.1173  0.0028  1.0000  -1.9819   0.0000   0.0000   0.0000   0.3542
  20.300   0.9409   0.28988   0.28830  -0.1181  0.0028  1.0000  -1.9689   0.0000   0.0000   0.0000   0.3547
  20.400   0.9417   0.29224   0.29066  -0.1188  0.0028  1.0000  -1.9560   0.0000   0.0000   0.0000   0.3552
  20.500   0.9424   0.29459   0.29301  -0.1195  0.0028  1.0000  -1.9430   0.0000   0.0000   0.0000   0.3558
  20.600   0.9430   0.29693   0.29536  -0.1202  0.0028  1.0000  -1.9301   0.0000   0.0000   0.0000   0.3563
  20.700   0.9435   0.29926   0.29769  -0.1209  0.0028  1.0000  -1.9171   0.0000   0.0000   0.0000   0.3568
  20.800   0.9439   0.30157   0.30001  -0.1216  0.0028  1.0000  -1.9041   0.0000   0.0000   0.0000   0.3574
  20.900   0.9442   0.30387   0.30231  -0.1222  0.0028  1.0000  -1.8908   0.0000   0.0000   0.0000   0.3579
  21.000   0.9442   0.30615   0.30459  -0.1229  0.0028  1.0000  -1.8772   0.0000   0.0000   0.0000   0.3585
  21.100   0.9442   0.30839   0.30685  -0.1235  0.0028  1.0000  -1.8634   0.0000   0.0000   0.0000   0.3590
  21.200   0.9439   0.31061   0.30907  -0.1241  0.0028  1.0000  -1.8493   0.0000   0.0000   0.0000   0.3596
  21.300   0.9434   0.31278   0.31124  -0.1247  0.0028  1.0000  -1.8347   0.0000   0.0000   0.0000   0.3602
  21.400   0.9426   0.31489   0.31336  -0.1253  0.0028  1.0000  -1.8196   0.0000   0.0000   0.0000   0.3607
  21.500   0.9414   0.31693   0.31541  -0.1258  0.0028  1.0000  -1.8038   0.0000   0.0000   0.0000   0.3613
  21.600   0.9398   0.31887   0.31735  -0.1263  0.0028  1.0000  -1.7869   0.0000   0.0000   0.0000   0.3620
  21.700   0.9376   0.32066   0.31916  -0.1267  0.0028  1.0000  -1.7686   0.0000   0.0000   0.0000   0.3626


