xflr5 v6.61

 Calculated polar for: SD2030-086-88

 1 1 Reynolds number fixed          Mach number fixed         

 xtrf =   1.000 (top)        1.000 (bottom)
 Mach =   0.000     Re =     0.719 e 6     Ncrit =   9.000

  alpha     CL        CD       CDp       Cm    Top Xtr Bot Xtr   Cpmin    Chinge    XCp    
 ------- -------- --------- --------- -------- ------- ------- -------- --------- ---------
  -8.900  -0.4387   0.08445   0.08252  -0.0346  1.0000  0.0111  -2.3556   0.0000   0.0000   0.0000   0.1654
  -8.800  -0.4507   0.08167   0.07976  -0.0350  1.0000  0.0113  -2.5090   0.0000   0.0000   0.0000   0.1667
  -8.700  -0.4592   0.07976   0.07787  -0.0350  1.0000  0.0114  -2.5946   0.0000   0.0000   0.0000   0.1683
  -7.600  -0.4705   0.05908   0.05716  -0.0532  0.9919  0.0133  -2.8346   0.0000   0.0000   0.0000   0.1329
  -7.500  -0.4615   0.05866   0.05673  -0.0542  0.9911  0.0137  -2.7113   0.0000   0.0000   0.0000   0.1287
  -7.400  -0.4523   0.05777   0.05582  -0.0556  0.9903  0.0142  -2.6189   0.0000   0.0000   0.0000   0.1232
  -7.300  -0.4430   0.05654   0.05457  -0.0574  0.9895  0.0148  -2.5486   0.0000   0.0000   0.0000   0.1166
  -7.200  -0.4334   0.05514   0.05314  -0.0593  0.9887  0.0154  -2.4912   0.0000   0.0000   0.0000   0.1093
  -7.100  -0.4236   0.05354   0.05150  -0.0614  0.9880  0.0161  -2.4488   0.0000   0.0000   0.0000   0.1012
  -7.000  -0.4133   0.05179   0.04970  -0.0636  0.9874  0.0168  -2.4176   0.0000   0.0000   0.0000   0.0923
  -6.900  -0.4039   0.05003   0.04789  -0.0655  0.9864  0.0176  -2.3969   0.0000   0.0000   0.0000   0.0842
  -6.800  -0.3981   0.04850   0.04631  -0.0662  0.9840  0.0184  -2.3881   0.0000   0.0000   0.0000   0.0800
  -6.700  -0.3896   0.04688   0.04462  -0.0673  0.9822  0.0194  -2.3785   0.0000   0.0000   0.0000   0.0735
  -6.600  -0.3790   0.04550   0.04319  -0.0684  0.9807  0.0206  -2.3600   0.0000   0.0000   0.0000   0.0658
  -6.500  -0.3561   0.04821   0.04593  -0.0675  0.9812  0.0234  -2.1626   0.0000   0.0000   0.0000   0.0565
  -6.400  -0.3450   0.04719   0.04486  -0.0685  0.9800  0.0237  -2.1340   0.0000   0.0000   0.0000   0.0475
  -6.300  -0.3347   0.04572   0.04332  -0.0697  0.9787  0.0238  -2.1241   0.0000   0.0000   0.0000   0.0377
  -6.200  -0.3243   0.04416   0.04168  -0.0710  0.9776  0.0238  -2.1174   0.0000   0.0000   0.0000   0.0272
  -6.100  -0.3137   0.04257   0.04000  -0.0722  0.9765  0.0239  -2.1115   0.0000   0.0000   0.0000   0.0157
  -6.000  -0.3028   0.04098   0.03833  -0.0734  0.9757  0.0240  -2.1044   0.0000   0.0000   0.0000   0.0032
  -5.900  -0.2916   0.03943   0.03668  -0.0746  0.9749  0.0240  -2.0958   0.0000   0.0000   0.0000  -0.0103
  -5.800  -0.2800   0.03794   0.03509  -0.0758  0.9742  0.0240  -2.0846   0.0000   0.0000   0.0000  -0.0251
  -5.700  -0.2681   0.03655   0.03360  -0.0769  0.9736  0.0241  -2.0693   0.0000   0.0000   0.0000  -0.0414
  -5.600  -0.2561   0.03525   0.03219  -0.0780  0.9731  0.0241  -2.0509   0.0000   0.0000   0.0000  -0.0592
  -5.500  -0.2440   0.03400   0.03083  -0.0790  0.9725  0.0242  -2.0310   0.0000   0.0000   0.0000  -0.0785
  -5.400  -0.2468   0.02788   0.02431  -0.0792  0.9691  0.0251  -2.2733   0.0000   0.0000   0.0000  -0.0760
  -5.300  -0.2482   0.02446   0.02068  -0.0784  0.9648  0.0268  -2.3531   0.0000   0.0000   0.0000  -0.0708
  -5.200  -0.2386   0.02390   0.02012  -0.0787  0.9633  0.0281  -2.2612   0.0000   0.0000   0.0000  -0.0849
  -5.100  -0.2277   0.02371   0.01997  -0.0791  0.9621  0.0294  -2.1541   0.0000   0.0000   0.0000  -0.1025
  -5.000  -0.2167   0.02349   0.01975  -0.0795  0.9609  0.0307  -2.0595   0.0000   0.0000   0.0000  -0.1221
  -4.900  -0.2055   0.02304   0.01927  -0.0798  0.9598  0.0318  -1.9901   0.0000   0.0000   0.0000  -0.1436
  -4.800  -0.1941   0.02242   0.01860  -0.0800  0.9587  0.0329  -1.9382   0.0000   0.0000   0.0000  -0.1677
  -4.700  -0.1825   0.02177   0.01787  -0.0803  0.9576  0.0339  -1.8919   0.0000   0.0000   0.0000  -0.1957
  -4.600  -0.1706   0.02114   0.01718  -0.0806  0.9565  0.0350  -1.8460   0.0000   0.0000   0.0000  -0.2282
  -4.500  -0.1584   0.02056   0.01654  -0.0808  0.9555  0.0362  -1.7996   0.0000   0.0000   0.0000  -0.2662
  -4.400  -0.1461   0.02007   0.01599  -0.0810  0.9545  0.0376  -1.7515   0.0000   0.0000   0.0000  -0.3110
  -4.300  -0.1337   0.01972   0.01558  -0.0812  0.9535  0.0390  -1.6995   0.0000   0.0000   0.0000  -0.3645
  -4.200  -0.1210   0.01961   0.01545  -0.0814  0.9524  0.0404  -1.6390   0.0000   0.0000   0.0000  -0.4299
  -4.100  -0.1069   0.02045   0.01631  -0.0816  0.9515  0.0421  -1.5419   0.0000   0.0000   0.0000  -0.5210
  -4.000  -0.0942   0.02098   0.01682  -0.0815  0.9502  0.0427  -1.4633   0.0000   0.0000   0.0000  -0.6236
  -3.900  -0.0860   0.02083   0.01649  -0.0808  0.9479  0.0429  -1.4024   0.0000   0.0000   0.0000  -0.6987
  -3.800  -0.0775   0.02025   0.01584  -0.0802  0.9455  0.0429  -1.3749   0.0000   0.0000   0.0000  -0.7944
  -3.700  -0.0768   0.01548   0.01073  -0.0794  0.9419  0.0484  -1.4757   0.0000   0.0000   0.0000  -0.7939
  -3.600  -0.0665   0.01500   0.01023  -0.0793  0.9399  0.0497  -1.4279   0.0000   0.0000   0.0000  -0.9525
  -3.400  -0.0430   0.01174   0.00643  -0.0773  0.9364  0.0274  -1.6458   0.0000   0.0000   0.0000  -1.5639
  -3.300  -0.0305   0.01203   0.00673  -0.0773  0.9348  0.0254  -1.5683   0.0000   0.0000   0.0000  -2.3082
  -3.200  -0.0209   0.01073   0.00532  -0.0766  0.9329  0.0216  -1.6341   0.0000   0.0000   0.0000  -3.4415
  -3.100  -0.0108   0.01012   0.00463  -0.0762  0.9311  0.0205  -1.6271   0.0000   0.0000   0.0000  -6.8422
  -3.000  -0.0003   0.00965   0.00409  -0.0759  0.9293  0.0195  -1.6081   0.0000   0.0000   0.0000  -250.9136
  -2.900   0.0106   0.00930   0.00366  -0.0757  0.9275  0.0188  -1.5800   0.0000   0.0000   0.0000   7.4600
  -2.800   0.0217   0.00902   0.00331  -0.0756  0.9253  0.0181  -1.5455   0.0000   0.0000   0.0000   3.7535
  -2.700   0.0312   0.00881   0.00304  -0.0751  0.9234  0.0177  -1.5089   0.0000   0.0000   0.0000   2.6750
  -2.600   0.0410   0.00864   0.00282  -0.0747  0.9212  0.0173  -1.4671   0.0000   0.0000   0.0000   2.0844
  -2.500   0.0512   0.00849   0.00263  -0.0744  0.9188  0.0169  -1.4191   0.0000   0.0000   0.0000   1.7134
  -2.400   0.0616   0.00837   0.00247  -0.0741  0.9163  0.0167  -1.3656   0.0000   0.0000   0.0000   1.4609
  -2.300   0.0723   0.00826   0.00232  -0.0739  0.9138  0.0165  -1.3087   0.0000   0.0000   0.0000   1.2795
  -2.200   0.0830   0.00816   0.00218  -0.0738  0.9113  0.0164  -1.2498   0.0000   0.0000   0.0000   1.1437
  -2.100   0.0939   0.00807   0.00205  -0.0736  0.9087  0.0163  -1.1903   0.0000   0.0000   0.0000   1.0386
  -2.000   0.1049   0.00799   0.00192  -0.0735  0.9061  0.0164  -1.1302   0.0000   0.0000   0.0000   0.9539
  -1.900   0.1163   0.00791   0.00180  -0.0734  0.9035  0.0166  -1.0706   0.0000   0.0000   0.0000   0.8846
  -1.800   0.1277   0.00784   0.00169  -0.0734  0.9006  0.0171  -1.0130   0.0000   0.0000   0.0000   0.8271
  -1.700   0.1393   0.00779   0.00159  -0.0734  0.8975  0.0187  -0.9603   0.0000   0.0000   0.0000   0.7788
  -1.600   0.1502   0.00771   0.00155  -0.0733  0.8948  0.0222  -0.9096   0.0000   0.0000   0.0000   0.7395
  -1.500   0.1601   0.00755   0.00152  -0.0730  0.8923  0.0450  -0.8502   0.0000   0.0000   0.0000   0.7076
  -1.400   0.1702   0.00742   0.00147  -0.0728  0.8894  0.0675  -0.7869   0.0000   0.0000   0.0000   0.6792
  -1.300   0.1804   0.00728   0.00144  -0.0727  0.8862  0.0914  -0.7224   0.0000   0.0000   0.0000   0.6539
  -1.200   0.1907   0.00716   0.00140  -0.0725  0.8828  0.1156  -0.6577   0.0000   0.0000   0.0000   0.6312
  -1.100   0.2014   0.00707   0.00137  -0.0724  0.8795  0.1348  -0.5924   0.0000   0.0000   0.0000   0.6103
  -1.000   0.2120   0.00694   0.00132  -0.0723  0.8761  0.1607  -0.5285   0.0000   0.0000   0.0000   0.5918
  -0.900   0.2227   0.00682   0.00129  -0.0723  0.8726  0.1890  -0.4653   0.0000   0.0000   0.0000   0.5749
  -0.800   0.2335   0.00672   0.00125  -0.0722  0.8690  0.2191  -0.4103   0.0000   0.0000   0.0000   0.5596
  -0.700   0.2443   0.00658   0.00122  -0.0722  0.8649  0.2582  -0.3965   0.0000   0.0000   0.0000   0.5458
  -0.600   0.2547   0.00644   0.00121  -0.0722  0.8614  0.3004  -0.4057   0.0000   0.0000   0.0000   0.5334
  -0.500   0.2646   0.00628   0.00120  -0.0720  0.8586  0.3438  -0.4147   0.0000   0.0000   0.0000   0.5220
  -0.300   0.2844   0.00594   0.00118  -0.0717  0.8519  0.4455  -0.4350   0.0000   0.0000   0.0000   0.5017
  -0.200   0.2941   0.00574   0.00117  -0.0715  0.8481  0.5109  -0.4453   0.0000   0.0000   0.0000   0.4926
   0.000   0.3117   0.00519   0.00119  -0.0706  0.8403  0.6878  -0.4658   0.0000   0.0000   0.0000   0.4760
   0.100   0.3204   0.00503   0.00123  -0.0700  0.8361  0.7596  -0.4774   0.0000   0.0000   0.0000   0.4678
   0.200   0.3288   0.00492   0.00128  -0.0692  0.8314  0.8133  -0.4889   0.0000   0.0000   0.0000   0.4598
   0.300   0.3288   0.00484   0.00150  -0.0660  0.8260  0.9141  -0.4952   0.0000   0.0000   0.0000   0.4498
   0.400   0.3365   0.00484   0.00153  -0.0650  0.8233  0.9282  -0.5063   0.0000   0.0000   0.0000   0.4422
   0.500   0.3445   0.00485   0.00156  -0.0641  0.8202  0.9393  -0.5175   0.0000   0.0000   0.0000   0.4350
   0.600   0.3533   0.00486   0.00157  -0.0635  0.8165  0.9461  -0.5293   0.0000   0.0000   0.0000   0.4286
   0.700   0.3637   0.00485   0.00157  -0.0632  0.8122  0.9512  -0.5422   0.0000   0.0000   0.0000   0.4226
   0.800   0.3746   0.00486   0.00156  -0.0630  0.8072  0.9560  -0.5574   0.0000   0.0000   0.0000   0.4170
   0.900   0.3854   0.00487   0.00155  -0.0628  0.8019  0.9609  -0.5729   0.0000   0.0000   0.0000   0.4117
   1.000   0.3958   0.00489   0.00154  -0.0626  0.7964  0.9657  -0.5882   0.0000   0.0000   0.0000   0.4067
   1.100   0.4061   0.00492   0.00154  -0.0623  0.7911  0.9702  -0.6035   0.0000   0.0000   0.0000   0.4020
   1.200   0.4207   0.00494   0.00153  -0.0630  0.7856  0.9728  -0.6221   0.0000   0.0000   0.0000   0.3983
   1.300   0.4353   0.00495   0.00154  -0.0638  0.7827  0.9756  -0.6420   0.0000   0.0000   0.0000   0.3949
   1.400   0.4497   0.00495   0.00155  -0.0644  0.7785  0.9785  -0.6646   0.0000   0.0000   0.0000   0.3917
   1.500   0.4639   0.00496   0.00155  -0.0651  0.7725  0.9813  -0.6872   0.0000   0.0000   0.0000   0.3886
   1.600   0.4776   0.00498   0.00155  -0.0656  0.7649  0.9839  -0.7093   0.0000   0.0000   0.0000   0.3856
   1.700   0.4906   0.00501   0.00154  -0.0660  0.7568  0.9863  -0.7324   0.0000   0.0000   0.0000   0.3827
   1.800   0.5062   0.00505   0.00153  -0.0670  0.7488  0.9873  -0.7616   0.0000   0.0000   0.0000   0.3804
   1.900   0.5218   0.00508   0.00153  -0.0680  0.7410  0.9885  -0.7912   0.0000   0.0000   0.0000   0.3783
   2.000   0.5373   0.00509   0.00154  -0.0689  0.7341  0.9897  -0.8209   0.0000   0.0000   0.0000   0.3763
   2.100   0.5522   0.00512   0.00154  -0.0698  0.7223  0.9912  -0.8503   0.0000   0.0000   0.0000   0.3743
   2.200   0.5662   0.00519   0.00153  -0.0704  0.7065  0.9929  -0.8789   0.0000   0.0000   0.0000   0.3722
   2.300   0.5799   0.00525   0.00153  -0.0710  0.6921  0.9946  -0.9130   0.0000   0.0000   0.0000   0.3702
   2.400   0.5936   0.00531   0.00154  -0.0716  0.6755  0.9963  -0.9499   0.0000   0.0000   0.0000   0.3683
   2.500   0.6067   0.00545   0.00154  -0.0721  0.6504  0.9979  -0.9864   0.0000   0.0000   0.0000   0.3664
   2.600   0.6209   0.00552   0.00156  -0.0728  0.6313  0.9994  -1.0247   0.0000   0.0000   0.0000   0.3648
   2.700   0.6299   0.00565   0.00158  -0.0725  0.6087  1.0000  -1.0553   0.0000   0.0000   0.0000   0.3625
   2.800   0.6373   0.00574   0.00161  -0.0718  0.5930  1.0000  -1.0835   0.0000   0.0000   0.0000   0.3600
   2.900   0.6444   0.00584   0.00164  -0.0710  0.5740  1.0000  -1.1115   0.0000   0.0000   0.0000   0.3574
   3.000   0.6502   0.00600   0.00169  -0.0700  0.5518  1.0000  -1.1375   0.0000   0.0000   0.0000   0.3548
   3.100   0.6578   0.00608   0.00173  -0.0693  0.5359  1.0000  -1.1666   0.0000   0.0000   0.0000   0.3525
   3.200   0.6638   0.00625   0.00178  -0.0683  0.5128  1.0000  -1.1932   0.0000   0.0000   0.0000   0.3499
   3.300   0.6705   0.00639   0.00184  -0.0675  0.4910  1.0000  -1.2211   0.0000   0.0000   0.0000   0.3476
   3.400   0.6762   0.00660   0.00191  -0.0664  0.4630  1.0000  -1.2476   0.0000   0.0000   0.0000   0.3452
   3.500   0.6830   0.00676   0.00197  -0.0656  0.4388  1.0000  -1.2759   0.0000   0.0000   0.0000   0.3429
   3.600   0.6889   0.00700   0.00206  -0.0647  0.4092  1.0000  -1.3029   0.0000   0.0000   0.0000   0.3406
   3.700   0.6965   0.00715   0.00212  -0.0641  0.3861  1.0000  -1.3329   0.0000   0.0000   0.0000   0.3386
   3.800   0.7024   0.00746   0.00231  -0.0632  0.3460  1.0000  -1.3610   0.0000   0.0000   0.0000   0.3365
   3.900   0.7003   0.00844   0.00257  -0.0611  0.2170  1.0000  -1.3740   0.0000   0.0000   0.0000   0.3337
   4.000   0.7048   0.00898   0.00275  -0.0601  0.1561  1.0000  -1.4000   0.0000   0.0000   0.0000   0.3317
   4.100   0.7132   0.00921   0.00285  -0.0597  0.1320  1.0000  -1.4401   0.0000   0.0000   0.0000   0.3300
   4.200   0.7213   0.00946   0.00296  -0.0592  0.1095  1.0000  -1.4807   0.0000   0.0000   0.0000   0.3284
   4.300   0.7302   0.00966   0.00306  -0.0589  0.0950  1.0000  -1.5236   0.0000   0.0000   0.0000   0.3269
   4.400   0.7392   0.00985   0.00316  -0.0586  0.0804  1.0000  -1.5670   0.0000   0.0000   0.0000   0.3254
   4.500   0.7487   0.00999   0.00324  -0.0584  0.0723  1.0000  -1.6125   0.0000   0.0000   0.0000   0.3240
   4.600   0.7577   0.01018   0.00336  -0.0581  0.0618  1.0000  -1.6592   0.0000   0.0000   0.0000   0.3226
   4.700   0.7675   0.01030   0.00344  -0.0579  0.0553  1.0000  -1.7277   0.0000   0.0000   0.0000   0.3213
   4.800   0.7773   0.01042   0.00353  -0.0577  0.0500  1.0000  -1.7971   0.0000   0.0000   0.0000   0.3200
   4.900   0.7863   0.01062   0.00364  -0.0574  0.0410  1.0000  -1.8648   0.0000   0.0000   0.0000   0.3187
   5.000   0.7960   0.01075   0.00373  -0.0572  0.0351  1.0000  -1.9359   0.0000   0.0000   0.0000   0.3174
   5.100   0.8059   0.01086   0.00383  -0.0570  0.0317  1.0000  -2.0087   0.0000   0.0000   0.0000   0.3162
   5.200   0.8152   0.01104   0.00395  -0.0568  0.0264  1.0000  -2.0806   0.0000   0.0000   0.0000   0.3150
   5.300   0.8248   0.01119   0.00406  -0.0565  0.0212  1.0000  -2.1547   0.0000   0.0000   0.0000   0.3138
   5.400   0.8348   0.01128   0.00414  -0.0564  0.0196  1.0000  -2.2323   0.0000   0.0000   0.0000   0.3127
   5.500   0.8432   0.01157   0.00434  -0.0560  0.0098  1.0000  -2.3044   0.0000   0.0000   0.0000   0.3115
   5.600   0.8531   0.01168   0.00443  -0.0558  0.0094  1.0000  -2.3853   0.0000   0.0000   0.0000   0.3104
   5.700   0.8631   0.01179   0.00453  -0.0556  0.0089  1.0000  -2.4684   0.0000   0.0000   0.0000   0.3094
   5.800   0.8731   0.01189   0.00461  -0.0555  0.0084  1.0000  -2.5545   0.0000   0.0000   0.0000   0.3084
   5.900   0.8830   0.01200   0.00471  -0.0553  0.0079  1.0000  -2.6434   0.0000   0.0000   0.0000   0.3073
   6.000   0.8930   0.01211   0.00480  -0.0551  0.0073  1.0000  -2.7360   0.0000   0.0000   0.0000   0.3064
   6.100   0.9028   0.01223   0.00491  -0.0549  0.0067  1.0000  -2.8336   0.0000   0.0000   0.0000   0.3054
   6.200   0.9127   0.01235   0.00502  -0.0548  0.0061  1.0000  -2.9368   0.0000   0.0000   0.0000   0.3044
   6.300   0.9225   0.01248   0.00515  -0.0546  0.0057  1.0000  -3.0456   0.0000   0.0000   0.0000   0.3034
   6.400   0.9323   0.01260   0.00529  -0.0543  0.0053  1.0000  -3.1584   0.0000   0.0000   0.0000   0.3025
   6.500   0.9421   0.01273   0.00543  -0.0541  0.0050  1.0000  -3.2732   0.0000   0.0000   0.0000   0.3015
   6.600   0.9519   0.01286   0.00559  -0.0539  0.0049  1.0000  -3.3889   0.0000   0.0000   0.0000   0.3006
   6.700   0.9617   0.01299   0.00575  -0.0537  0.0047  1.0000  -3.5051   0.0000   0.0000   0.0000   0.2997
   6.800   0.9714   0.01313   0.00591  -0.0534  0.0046  1.0000  -3.6215   0.0000   0.0000   0.0000   0.2988
   6.900   0.9811   0.01327   0.00609  -0.0532  0.0046  1.0000  -3.7382   0.0000   0.0000   0.0000   0.2979
   7.000   0.9907   0.01343   0.00627  -0.0529  0.0045  1.0000  -3.8550   0.0000   0.0000   0.0000   0.2970
   7.100   1.0002   0.01359   0.00648  -0.0527  0.0045  1.0000  -3.9717   0.0000   0.0000   0.0000   0.2961
   7.200   1.0096   0.01377   0.00669  -0.0524  0.0045  1.0000  -4.0884   0.0000   0.0000   0.0000   0.2952
   7.300   1.0189   0.01395   0.00691  -0.0521  0.0045  1.0000  -4.2051   0.0000   0.0000   0.0000   0.2943
   7.400   1.0280   0.01415   0.00715  -0.0517  0.0045  1.0000  -4.3217   0.0000   0.0000   0.0000   0.2934
   7.500   1.0378   0.01425   0.00741  -0.0516  0.0047  1.0000  -4.3826   0.0000   0.0000   0.0000   0.2926
   7.600   1.0471   0.01442   0.00761  -0.0513  0.0048  1.0000  -4.4788   0.0000   0.0000   0.0000   0.2918
   7.700   1.0562   0.01463   0.00787  -0.0510  0.0048  1.0000  -4.5915   0.0000   0.0000   0.0000   0.2909
   7.800   1.0650   0.01485   0.00814  -0.0506  0.0049  1.0000  -4.7080   0.0000   0.0000   0.0000   0.2901
   7.900   1.0738   0.01510   0.00844  -0.0502  0.0049  1.0000  -4.8256   0.0000   0.0000   0.0000   0.2892
   8.000   1.0823   0.01536   0.00876  -0.0497  0.0049  1.0000  -4.9430   0.0000   0.0000   0.0000   0.2883
   8.100   1.0906   0.01565   0.00911  -0.0492  0.0050  1.0000  -5.0588   0.0000   0.0000   0.0000   0.2873
   8.200   1.0986   0.01597   0.00948  -0.0487  0.0051  1.0000  -5.1723   0.0000   0.0000   0.0000   0.2864
   8.300   1.1064   0.01631   0.00989  -0.0481  0.0052  1.0000  -5.2823   0.0000   0.0000   0.0000   0.2854
   8.400   1.1139   0.01668   0.01034  -0.0475  0.0053  1.0000  -5.3870   0.0000   0.0000   0.0000   0.2845
   8.500   1.1209   0.01710   0.01084  -0.0468  0.0054  1.0000  -5.4840   0.0000   0.0000   0.0000   0.2834
   8.600   1.1274   0.01759   0.01141  -0.0460  0.0055  1.0000  -5.5692   0.0000   0.0000   0.0000   0.2823
   8.700   1.1331   0.01817   0.01210  -0.0450  0.0057  1.0000  -5.6364   0.0000   0.0000   0.0000   0.2811
   8.800   1.1380   0.01889   0.01294  -0.0438  0.0059  1.0000  -5.6825   0.0000   0.0000   0.0000   0.2798
   8.900   1.1420   0.01978   0.01396  -0.0425  0.0062  1.0000  -5.7081   0.0000   0.0000   0.0000   0.2784
   9.000   1.1456   0.02087   0.01520  -0.0412  0.0065  1.0000  -5.7147   0.0000   0.0000   0.0000   0.2770
   9.100   1.1489   0.02220   0.01669  -0.0398  0.0070  1.0000  -5.7029   0.0000   0.0000   0.0000   0.2756
   9.200   1.1518   0.02387   0.01857  -0.0383  0.0075  1.0000  -5.6638   0.0000   0.0000   0.0000   0.2741
   9.300   1.1536   0.02599   0.02091  -0.0368  0.0081  1.0000  -5.5934   0.0000   0.0000   0.0000   0.2727
   9.400   1.1525   0.02879   0.02398  -0.0349  0.0088  1.0000  -5.4718   0.0000   0.0000   0.0000   0.2710
  14.200   0.8581   0.16012   0.15824  -0.0635  0.0186  1.0000  -2.3281   0.0000   0.0000   0.0000   0.3108
  14.300   0.8589   0.16212   0.16025  -0.0645  0.0183  1.0000  -2.3060   0.0000   0.0000   0.0000   0.3119
  14.400   0.8594   0.16421   0.16233  -0.0656  0.0180  1.0000  -2.2807   0.0000   0.0000   0.0000   0.3131
  14.500   0.8601   0.16629   0.16441  -0.0667  0.0177  1.0000  -2.2565   0.0000   0.0000   0.0000   0.3142
  14.600   0.8608   0.16837   0.16648  -0.0678  0.0174  1.0000  -2.2339   0.0000   0.0000   0.0000   0.3153
  14.700   0.8617   0.17043   0.16855  -0.0689  0.0171  1.0000  -2.2130   0.0000   0.0000   0.0000   0.3164
  14.800   0.8625   0.17249   0.17060  -0.0699  0.0168  1.0000  -2.1931   0.0000   0.0000   0.0000   0.3174
  14.900   0.8634   0.17453   0.17264  -0.0710  0.0165  1.0000  -2.1749   0.0000   0.0000   0.0000   0.3185
  15.000   0.8644   0.17656   0.17467  -0.0720  0.0162  1.0000  -2.1581   0.0000   0.0000   0.0000   0.3195
  15.100   0.8654   0.17856   0.17667  -0.0730  0.0159  1.0000  -2.1433   0.0000   0.0000   0.0000   0.3204
  15.200   0.8666   0.18056   0.17866  -0.0740  0.0156  1.0000  -2.1304   0.0000   0.0000   0.0000   0.3214
  15.300   0.8678   0.18253   0.18064  -0.0750  0.0154  1.0000  -2.1192   0.0000   0.0000   0.0000   0.3223
  15.400   0.8691   0.18450   0.18260  -0.0759  0.0151  1.0000  -2.1096   0.0000   0.0000   0.0000   0.3231
  15.500   0.8705   0.18645   0.18456  -0.0769  0.0149  1.0000  -2.1016   0.0000   0.0000   0.0000   0.3239
  15.600   0.8720   0.18839   0.18650  -0.0778  0.0147  1.0000  -2.0951   0.0000   0.0000   0.0000   0.3247
  15.700   0.8735   0.19032   0.18842  -0.0787  0.0144  1.0000  -2.0900   0.0000   0.0000   0.0000   0.3255
  15.800   0.8751   0.19224   0.19034  -0.0796  0.0142  1.0000  -2.0863   0.0000   0.0000   0.0000   0.3262
  15.900   0.8768   0.19415   0.19225  -0.0805  0.0140  1.0000  -2.0840   0.0000   0.0000   0.0000   0.3269
  16.000   0.8785   0.19605   0.19415  -0.0814  0.0138  1.0000  -2.0830   0.0000   0.0000   0.0000   0.3276
  16.100   0.8802   0.19794   0.19604  -0.0822  0.0136  1.0000  -2.0833   0.0000   0.0000   0.0000   0.3283
  16.200   0.8820   0.19982   0.19793  -0.0831  0.0134  1.0000  -2.0848   0.0000   0.0000   0.0000   0.3289
  16.300   0.8839   0.20169   0.19980  -0.0839  0.0132  1.0000  -2.0875   0.0000   0.0000   0.0000   0.3296
  16.400   0.8857   0.20356   0.20167  -0.0847  0.0131  1.0000  -2.0915   0.0000   0.0000   0.0000   0.3302
  16.500   0.8877   0.20539   0.20350  -0.0855  0.0129  1.0000  -2.0983   0.0000   0.0000   0.0000   0.3307
  16.600   0.8901   0.20690   0.20501  -0.0862  0.0126  1.0000  -2.1301   0.0000   0.0000   0.0000   0.3310
  16.700   0.8927   0.20833   0.20644  -0.0868  0.0123  1.0000  -2.1676   0.0000   0.0000   0.0000   0.3313
  16.800   0.8955   0.20969   0.20781  -0.0874  0.0121  1.0000  -2.2117   0.0000   0.0000   0.0000   0.3314
  16.900   0.8984   0.21097   0.20909  -0.0878  0.0118  1.0000  -2.2633   0.0000   0.0000   0.0000   0.3314
  17.000   0.9013   0.21225   0.21038  -0.0883  0.0116  1.0000  -2.3161   0.0000   0.0000   0.0000   0.3315
  17.100   0.9038   0.21368   0.21180  -0.0889  0.0114  1.0000  -2.3610   0.0000   0.0000   0.0000   0.3316
  17.200   0.9057   0.21534   0.21347  -0.0896  0.0111  1.0000  -2.3919   0.0000   0.0000   0.0000   0.3320
  17.300   0.9068   0.21731   0.21544  -0.0903  0.0108  1.0000  -2.4086   0.0000   0.0000   0.0000   0.3326
  17.400   0.8933   0.22717   0.22526  -0.0929  0.0099  1.0000  -1.9851   0.0000   0.0000   0.0000   0.3373
  17.500   0.8951   0.22938   0.22747  -0.0938  0.0099  1.0000  -1.9735   0.0000   0.0000   0.0000   0.3379
  17.600   0.8969   0.23159   0.22968  -0.0947  0.0099  1.0000  -1.9623   0.0000   0.0000   0.0000   0.3385
  17.700   0.8986   0.23379   0.23189  -0.0955  0.0099  1.0000  -1.9516   0.0000   0.0000   0.0000   0.3392
  17.800   0.9004   0.23600   0.23410  -0.0964  0.0099  1.0000  -1.9413   0.0000   0.0000   0.0000   0.3398
  17.900   0.9022   0.23821   0.23630  -0.0972  0.0099  1.0000  -1.9314   0.0000   0.0000   0.0000   0.3404
  18.000   0.9039   0.24041   0.23851  -0.0981  0.0099  1.0000  -1.9220   0.0000   0.0000   0.0000   0.3410
  18.100   0.9057   0.24261   0.24071  -0.0989  0.0099  1.0000  -1.9129   0.0000   0.0000   0.0000   0.3416
  18.200   0.9074   0.24481   0.24291  -0.0998  0.0099  1.0000  -1.9043   0.0000   0.0000   0.0000   0.3422
  18.300   0.9091   0.24700   0.24510  -0.1006  0.0098  1.0000  -1.8962   0.0000   0.0000   0.0000   0.3428
  18.400   0.9109   0.24919   0.24729  -0.1015  0.0098  1.0000  -1.8887   0.0000   0.0000   0.0000   0.3434
  18.500   0.9126   0.25137   0.24947  -0.1023  0.0098  1.0000  -1.8817   0.0000   0.0000   0.0000   0.3439
  18.600   0.9144   0.25353   0.25164  -0.1031  0.0098  1.0000  -1.8754   0.0000   0.0000   0.0000   0.3445
  18.700   0.9161   0.25569   0.25380  -0.1039  0.0098  1.0000  -1.8698   0.0000   0.0000   0.0000   0.3450
  18.800   0.9179   0.25782   0.25593  -0.1048  0.0097  1.0000  -1.8651   0.0000   0.0000   0.0000   0.3456
  18.900   0.9196   0.25992   0.25804  -0.1056  0.0097  1.0000  -1.8618   0.0000   0.0000   0.0000   0.3461
  19.000   0.9215   0.26199   0.26010  -0.1064  0.0097  1.0000  -1.8603   0.0000   0.0000   0.0000   0.3466
  19.100   0.9234   0.26398   0.26210  -0.1072  0.0096  1.0000  -1.8615   0.0000   0.0000   0.0000   0.3471
  19.200   0.9255   0.26587   0.26399  -0.1081  0.0095  1.0000  -1.8665   0.0000   0.0000   0.0000   0.3476
  19.300   0.9281   0.26757   0.26569  -0.1089  0.0093  1.0000  -1.8785   0.0000   0.0000   0.0000   0.3480
  19.400   0.9308   0.26924   0.26737  -0.1098  0.0090  1.0000  -1.8869   0.0000   0.0000   0.0000   0.3485
  19.500   0.9332   0.27125   0.26938  -0.1107  0.0086  1.0000  -1.8765   0.0000   0.0000   0.0000   0.3491
  19.600   0.9352   0.27346   0.27159  -0.1116  0.0082  1.0000  -1.8618   0.0000   0.0000   0.0000   0.3497
  19.700   0.9369   0.27575   0.27388  -0.1124  0.0078  1.0000  -1.8491   0.0000   0.0000   0.0000   0.3503
  19.800   0.9383   0.27804   0.27618  -0.1132  0.0075  1.0000  -1.8396   0.0000   0.0000   0.0000   0.3508
  19.900   0.9397   0.28032   0.27846  -0.1140  0.0072  1.0000  -1.8328   0.0000   0.0000   0.0000   0.3513
  20.000   0.9409   0.28258   0.28072  -0.1148  0.0069  1.0000  -1.8281   0.0000   0.0000   0.0000   0.3518
  20.100   0.9421   0.28482   0.28297  -0.1155  0.0066  1.0000  -1.8252   0.0000   0.0000   0.0000   0.3523
  20.200   0.9432   0.28705   0.28520  -0.1162  0.0064  1.0000  -1.8236   0.0000   0.0000   0.0000   0.3528
  20.300   0.9442   0.28926   0.28741  -0.1170  0.0062  1.0000  -1.8231   0.0000   0.0000   0.0000   0.3533
  20.400   0.9452   0.29145   0.28961  -0.1177  0.0060  1.0000  -1.8237   0.0000   0.0000   0.0000   0.3538
  20.500   0.9461   0.29363   0.29179  -0.1184  0.0058  1.0000  -1.8252   0.0000   0.0000   0.0000   0.3543
  20.600   0.9469   0.29579   0.29396  -0.1191  0.0056  1.0000  -1.8276   0.0000   0.0000   0.0000   0.3548
  20.700   0.9476   0.29793   0.29610  -0.1198  0.0055  1.0000  -1.8307   0.0000   0.0000   0.0000   0.3552
  20.800   0.9482   0.30005   0.29823  -0.1204  0.0053  1.0000  -1.8346   0.0000   0.0000   0.0000   0.3557
  20.900   0.9488   0.30215   0.30033  -0.1211  0.0052  1.0000  -1.8392   0.0000   0.0000   0.0000   0.3562
  21.000   0.9492   0.30422   0.30240  -0.1217  0.0050  1.0000  -1.8444   0.0000   0.0000   0.0000   0.3567
  21.100   0.9495   0.30626   0.30445  -0.1224  0.0049  1.0000  -1.8502   0.0000   0.0000   0.0000   0.3571
  21.200   0.9496   0.30827   0.30647  -0.1230  0.0048  1.0000  -1.8565   0.0000   0.0000   0.0000   0.3576
  21.300   0.9496   0.31025   0.30845  -0.1236  0.0047  1.0000  -1.8631   0.0000   0.0000   0.0000   0.3581
  21.400   0.9494   0.31218   0.31039  -0.1241  0.0046  1.0000  -1.8700   0.0000   0.0000   0.0000   0.3586
  21.500   0.9490   0.31406   0.31228  -0.1247  0.0045  1.0000  -1.8771   0.0000   0.0000   0.0000   0.3591
  21.600   0.9483   0.31588   0.31411  -0.1252  0.0044  1.0000  -1.8842   0.0000   0.0000   0.0000   0.3596
  21.700   0.9473   0.31763   0.31586  -0.1257  0.0043  1.0000  -1.8909   0.0000   0.0000   0.0000   0.3601
  21.800   0.9459   0.31928   0.31752  -0.1261  0.0042  1.0000  -1.8969   0.0000   0.0000   0.0000   0.3606
  21.900   0.9439   0.32080   0.31905  -0.1265  0.0041  1.0000  -1.9015   0.0000   0.0000   0.0000   0.3611
  22.000   0.8922   0.31105   0.30939  -0.1220  0.0042  1.0000  -1.7041   0.0000   0.0000   0.0000   0.3647
  22.100   0.8862   0.31064   0.30900  -0.1218  0.0042  1.0000  -1.6914   0.0000   0.0000   0.0000   0.3654
  22.200   0.8816   0.31050   0.30887  -0.1218  0.0041  1.0000  -1.6847   0.0000   0.0000   0.0000   0.3661
  22.300   0.8777   0.31050   0.30888  -0.1219  0.0040  1.0000  -1.6818   0.0000   0.0000   0.0000   0.3667
  22.400   0.8744   0.31058   0.30897  -0.1220  0.0040  1.0000  -1.6816   0.0000   0.0000   0.0000   0.3673
  22.500   0.8715   0.31072   0.30912  -0.1222  0.0039  1.0000  -1.6837   0.0000   0.0000   0.0000   0.3678
  22.600   0.8689   0.31089   0.30931  -0.1223  0.0038  1.0000  -1.6878   0.0000   0.0000   0.0000   0.3684
  22.700   0.8666   0.31110   0.30952  -0.1225  0.0038  1.0000  -1.6937   0.0000   0.0000   0.0000   0.3688
  22.800   0.8645   0.31134   0.30977  -0.1227  0.0037  1.0000  -1.7013   0.0000   0.0000   0.0000   0.3693
  22.900   0.8625   0.31159   0.31003  -0.1230  0.0037  1.0000  -1.7104   0.0000   0.0000   0.0000   0.3698
  23.000   0.8613   0.31166   0.31014  -0.1232  0.0036  1.0000  -1.7533   0.0000   0.0000   0.0000   0.3700
  23.100   0.8598   0.31187   0.31036  -0.1234  0.0035  1.0000  -1.7738   0.0000   0.0000   0.0000   0.3704
  23.200   0.8581   0.31216   0.31066  -0.1236  0.0034  1.0000  -1.7849   0.0000   0.0000   0.0000   0.3708
  23.300   0.8564   0.31249   0.31099  -0.1238  0.0034  1.0000  -1.7916   0.0000   0.0000   0.0000   0.3712
  23.400   0.8546   0.31284   0.31135  -0.1241  0.0033  1.0000  -1.7952   0.0000   0.0000   0.0000   0.3717
  23.500   0.8527   0.31321   0.31173  -0.1243  0.0032  1.0000  -1.7925   0.0000   0.0000   0.0000   0.3722
  23.600   0.8500   0.31365   0.31218  -0.1245  0.0031  1.0000  -1.7692   0.0000   0.0000   0.0000   0.3727
  23.700   0.8361   0.31557   0.31408  -0.1241  0.0028  1.0000  -1.3903   0.0000   0.0000   0.0000   0.3751
  23.800   0.8351   0.31614   0.31466  -0.1244  0.0028  1.0000  -1.3787   0.0000   0.0000   0.0000   0.3756
  23.900   0.8341   0.31673   0.31525  -0.1247  0.0028  1.0000  -1.3674   0.0000   0.0000   0.0000   0.3761
  24.000   0.8332   0.31731   0.31585  -0.1251  0.0028  1.0000  -1.3565   0.0000   0.0000   0.0000   0.3765
  24.100   0.8323   0.31791   0.31645  -0.1254  0.0028  1.0000  -1.3458   0.0000   0.0000   0.0000   0.3770
  24.200   0.8315   0.31851   0.31706  -0.1258  0.0028  1.0000  -1.3354   0.0000   0.0000   0.0000   0.3774
  24.300   0.8307   0.31911   0.31767  -0.1261  0.0028  1.0000  -1.3253   0.0000   0.0000   0.0000   0.3778
  24.400   0.8300   0.31972   0.31828  -0.1265  0.0028  1.0000  -1.3154   0.0000   0.0000   0.0000   0.3783
  24.500   0.8293   0.32034   0.31890  -0.1268  0.0028  1.0000  -1.3058   0.0000   0.0000   0.0000   0.3787
  24.600   0.8287   0.32095   0.31953  -0.1272  0.0028  1.0000  -1.2964   0.0000   0.0000   0.0000   0.3791
  24.700   0.8281   0.32157   0.32015  -0.1276  0.0028  1.0000  -1.2872   0.0000   0.0000   0.0000   0.3796
  24.800   0.8275   0.32220   0.32079  -0.1279  0.0028  1.0000  -1.2783   0.0000   0.0000   0.0000   0.3800
  24.900   0.8269   0.32283   0.32142  -0.1283  0.0028  1.0000  -1.2695   0.0000   0.0000   0.0000   0.3804
  25.000   0.8264   0.32346   0.32206  -0.1287  0.0028  1.0000  -1.2609   0.0000   0.0000   0.0000   0.3808
  25.100   0.8259   0.32409   0.32269  -0.1290  0.0028  1.0000  -1.2525   0.0000   0.0000   0.0000   0.3812
  25.200   0.8255   0.32473   0.32334  -0.1294  0.0028  1.0000  -1.2443   0.0000   0.0000   0.0000   0.3816
  25.300   0.8250   0.32536   0.32398  -0.1298  0.0028  1.0000  -1.2363   0.0000   0.0000   0.0000   0.3820
  25.400   0.8246   0.32600   0.32463  -0.1302  0.0028  1.0000  -1.2284   0.0000   0.0000   0.0000   0.3824
  25.500   0.8242   0.32665   0.32528  -0.1306  0.0028  1.0000  -1.2207   0.0000   0.0000   0.0000   0.3828
  25.600   0.8239   0.32729   0.32593  -0.1309  0.0028  1.0000  -1.2132   0.0000   0.0000   0.0000   0.3831
  25.700   0.8235   0.32794   0.32658  -0.1313  0.0028  1.0000  -1.2058   0.0000   0.0000   0.0000   0.3835
  25.800   0.8232   0.32859   0.32723  -0.1317  0.0028  1.0000  -1.1986   0.0000   0.0000   0.0000   0.3839
  25.900   0.8229   0.32924   0.32789  -0.1321  0.0028  1.0000  -1.1915   0.0000   0.0000   0.0000   0.3843
  26.000   0.8226   0.32989   0.32855  -0.1325  0.0028  1.0000  -1.1845   0.0000   0.0000   0.0000   0.3847
  26.100   0.8223   0.33054   0.32921  -0.1329  0.0028  1.0000  -1.1777   0.0000   0.0000   0.0000   0.3850
  26.200   0.8220   0.33120   0.32987  -0.1333  0.0028  1.0000  -1.1710   0.0000   0.0000   0.0000   0.3854
  26.300   0.8218   0.33185   0.33053  -0.1337  0.0028  1.0000  -1.1644   0.0000   0.0000   0.0000   0.3858
  26.400   0.8216   0.33251   0.33119  -0.1341  0.0028  1.0000  -1.1579   0.0000   0.0000   0.0000   0.3861
  26.500   0.8213   0.33317   0.33186  -0.1345  0.0028  1.0000  -1.1516   0.0000   0.0000   0.0000   0.3865
  26.600   0.8211   0.33383   0.33252  -0.1349  0.0028  1.0000  -1.1454   0.0000   0.0000   0.0000   0.3868
  26.700   0.8209   0.33449   0.33319  -0.1353  0.0028  1.0000  -1.1393   0.0000   0.0000   0.0000   0.3872
  26.800   0.8208   0.33515   0.33386  -0.1357  0.0028  1.0000  -1.1333   0.0000   0.0000   0.0000   0.3875
  26.900   0.8206   0.33582   0.33452  -0.1361  0.0028  1.0000  -1.1273   0.0000   0.0000   0.0000   0.3879
  27.000   0.8204   0.33648   0.33519  -0.1365  0.0028  1.0000  -1.1214   0.0000   0.0000   0.0000   0.3882


