xflr5 v6.61

 Calculated polar for: SD2030-086-88

 1 1 Reynolds number fixed          Mach number fixed         

 xtrf =   1.000 (top)        1.000 (bottom)
 Mach =   0.000     Re =     0.130 e 6     Ncrit =   9.000

  alpha     CL        CD       CDp       Cm    Top Xtr Bot Xtr   Cpmin    Chinge    XCp    
 ------- -------- --------- --------- -------- ------- ------- -------- --------- ---------
 -10.000  -0.4201   0.11228   0.10755  -0.0279  1.0000  0.0607  -1.3449   0.0000   0.0000   0.0000   0.1773
  -9.900  -0.4211   0.11163   0.10692  -0.0291  1.0000  0.0625  -1.3678   0.0000   0.0000   0.0000   0.1750
  -9.800  -0.4227   0.11121   0.10653  -0.0304  1.0000  0.0638  -1.3968   0.0000   0.0000   0.0000   0.1722
  -9.700  -0.4245   0.11105   0.10639  -0.0318  1.0000  0.0648  -1.4263   0.0000   0.0000   0.0000   0.1694
  -9.600  -0.4267   0.11084   0.10622  -0.0330  1.0000  0.0655  -1.4532   0.0000   0.0000   0.0000   0.1671
  -9.500  -0.4275   0.11076   0.10616  -0.0340  1.0000  0.0660  -1.4697   0.0000   0.0000   0.0000   0.1650
  -9.400  -0.4284   0.11028   0.10571  -0.0348  1.0000  0.0663  -1.4847   0.0000   0.0000   0.0000   0.1635
  -9.300  -0.4296   0.10957   0.10502  -0.0355  1.0000  0.0665  -1.4993   0.0000   0.0000   0.0000   0.1622
  -9.200  -0.4309   0.10871   0.10419  -0.0361  1.0000  0.0666  -1.5140   0.0000   0.0000   0.0000   0.1612
  -9.100  -0.4325   0.10776   0.10327  -0.0367  1.0000  0.0667  -1.5289   0.0000   0.0000   0.0000   0.1604
  -9.000  -0.4344   0.10676   0.10230  -0.0372  1.0000  0.0668  -1.5441   0.0000   0.0000   0.0000   0.1597
  -8.900  -0.4366   0.10573   0.10129  -0.0376  1.0000  0.0668  -1.5598   0.0000   0.0000   0.0000   0.1593
  -8.800  -0.4393   0.10467   0.10026  -0.0380  1.0000  0.0669  -1.5763   0.0000   0.0000   0.0000   0.1590
  -8.700  -0.4426   0.10362   0.09924  -0.0383  1.0000  0.0669  -1.5938   0.0000   0.0000   0.0000   0.1591
  -8.400  -0.4492   0.09238   0.08810  -0.0367  1.0000  0.0701  -1.6380   0.0000   0.0000   0.0000   0.1640
  -8.300  -0.4442   0.09092   0.08665  -0.0355  1.0000  0.0711  -1.5969   0.0000   0.0000   0.0000   0.1659
  -8.200  -0.4415   0.08972   0.08546  -0.0346  1.0000  0.0718  -1.5696   0.0000   0.0000   0.0000   0.1675
  -8.100  -0.4393   0.08862   0.08437  -0.0337  1.0000  0.0726  -1.5462   0.0000   0.0000   0.0000   0.1691
  -8.000  -0.4387   0.08759   0.08336  -0.0331  1.0000  0.0733  -1.5315   0.0000   0.0000   0.0000   0.1706
  -7.900  -0.4392   0.08660   0.08239  -0.0325  1.0000  0.0739  -1.5226   0.0000   0.0000   0.0000   0.1721
  -7.800  -0.4408   0.08565   0.08147  -0.0319  1.0000  0.0745  -1.5181   0.0000   0.0000   0.0000   0.1738
  -7.700  -0.4434   0.08475   0.08059  -0.0313  1.0000  0.0751  -1.5174   0.0000   0.0000   0.0000   0.1757
  -7.600  -0.4470   0.08387   0.07974  -0.0306  1.0000  0.0756  -1.5199   0.0000   0.0000   0.0000   0.1778
  -7.500  -0.4513   0.08301   0.07891  -0.0300  1.0000  0.0760  -1.5251   0.0000   0.0000   0.0000   0.1801
  -7.400  -0.4555   0.08209   0.07803  -0.0295  1.0000  0.0765  -1.5310   0.0000   0.0000   0.0000   0.1819
  -7.300  -0.4585   0.08104   0.07701  -0.0293  1.0000  0.0771  -1.5355   0.0000   0.0000   0.0000   0.1828
  -7.200  -0.4612   0.07997   0.07595  -0.0292  1.0000  0.0777  -1.5405   0.0000   0.0000   0.0000   0.1836
  -7.100  -0.4640   0.07889   0.07489  -0.0290  1.0000  0.0783  -1.5461   0.0000   0.0000   0.0000   0.1844
  -7.000  -0.4667   0.07781   0.07383  -0.0289  1.0000  0.0790  -1.5523   0.0000   0.0000   0.0000   0.1852
  -6.900  -0.4694   0.07672   0.07276  -0.0288  1.0000  0.0797  -1.5589   0.0000   0.0000   0.0000   0.1859
  -6.800  -0.4719   0.07561   0.07166  -0.0287  1.0000  0.0804  -1.5659   0.0000   0.0000   0.0000   0.1866
  -6.700  -0.4742   0.07449   0.07055  -0.0286  1.0000  0.0812  -1.5733   0.0000   0.0000   0.0000   0.1871
  -6.600  -0.4763   0.07335   0.06941  -0.0285  1.0000  0.0820  -1.5810   0.0000   0.0000   0.0000   0.1876
  -6.500  -0.4781   0.07220   0.06826  -0.0285  1.0000  0.0830  -1.5889   0.0000   0.0000   0.0000   0.1879
  -6.400  -0.4795   0.07103   0.06708  -0.0285  1.0000  0.0840  -1.5972   0.0000   0.0000   0.0000   0.1881
  -6.300  -0.4806   0.06985   0.06589  -0.0286  1.0000  0.0851  -1.6061   0.0000   0.0000   0.0000   0.1881
  -6.200  -0.4811   0.06866   0.06469  -0.0288  1.0000  0.0863  -1.6159   0.0000   0.0000   0.0000   0.1879
  -6.100  -0.4812   0.06751   0.06351  -0.0290  1.0000  0.0878  -1.6274   0.0000   0.0000   0.0000   0.1874
  -6.000  -0.4802   0.06648   0.06243  -0.0295  1.0000  0.0897  -1.6423   0.0000   0.0000   0.0000   0.1864
  -5.900  -0.4773   0.06626   0.06209  -0.0304  1.0000  0.0925  -1.6670   0.0000   0.0000   0.0000   0.1841
  -5.800  -0.4701   0.06802   0.06368  -0.0305  1.0000  0.0949  -1.6633   0.0000   0.0000   0.0000   0.1830
  -5.700  -0.4670   0.06778   0.06336  -0.0302  1.0000  0.0954  -1.6618   0.0000   0.0000   0.0000   0.1832
  -5.600  -0.4643   0.06711   0.06261  -0.0299  1.0000  0.0956  -1.6606   0.0000   0.0000   0.0000   0.1835
  -5.500  -0.4614   0.06626   0.06169  -0.0296  1.0000  0.0958  -1.6592   0.0000   0.0000   0.0000   0.1838
  -5.400  -0.4736   0.05872   0.05412  -0.0314  1.0000  0.0982  -1.7567   0.0000   0.0000   0.0000   0.1817
  -5.300  -0.4734   0.05595   0.05138  -0.0313  1.0000  0.0998  -1.7521   0.0000   0.0000   0.0000   0.1819
  -5.200  -0.4699   0.05442   0.04991  -0.0307  1.0000  0.1010  -1.7236   0.0000   0.0000   0.0000   0.1827
  -5.100  -0.4660   0.05320   0.04872  -0.0301  1.0000  0.1022  -1.6948   0.0000   0.0000   0.0000   0.1836
  -5.000  -0.4619   0.05211   0.04766  -0.0295  1.0000  0.1035  -1.6672   0.0000   0.0000   0.0000   0.1843
  -4.900  -0.4577   0.05111   0.04666  -0.0289  1.0000  0.1050  -1.6414   0.0000   0.0000   0.0000   0.1849
  -4.800  -0.4532   0.05015   0.04569  -0.0285  1.0000  0.1066  -1.6178   0.0000   0.0000   0.0000   0.1853
  -4.700  -0.4483   0.04920   0.04472  -0.0281  1.0000  0.1085  -1.5963   0.0000   0.0000   0.0000   0.1855
  -4.600  -0.4430   0.04826   0.04375  -0.0279  1.0000  0.1107  -1.5767   0.0000   0.0000   0.0000   0.1854
  -4.500  -0.4371   0.04734   0.04279  -0.0277  1.0000  0.1134  -1.5591   0.0000   0.0000   0.0000   0.1850
  -4.400  -0.4306   0.04648   0.04186  -0.0276  1.0000  0.1166  -1.5443   0.0000   0.0000   0.0000   0.1842
  -4.300  -0.4230   0.04590   0.04116  -0.0276  1.0000  0.1208  -1.5321   0.0000   0.0000   0.0000   0.1831
  -4.200  -0.4072   0.05081   0.04581  -0.0261  1.0000  0.1290  -1.4781   0.0000   0.0000   0.0000   0.1843
  -4.100  -0.4101   0.04332   0.03821  -0.0286  1.0000  0.1345  -1.5359   0.0000   0.0000   0.0000   0.1785
  -4.000  -0.4044   0.04176   0.03670  -0.0284  1.0000  0.1367  -1.5089   0.0000   0.0000   0.0000   0.1782
  -3.900  -0.3981   0.04065   0.03563  -0.0280  1.0000  0.1388  -1.4798   0.0000   0.0000   0.0000   0.1780
  -3.800  -0.3913   0.03971   0.03471  -0.0277  1.0000  0.1412  -1.4524   0.0000   0.0000   0.0000   0.1777
  -3.700  -0.3840   0.03886   0.03384  -0.0274  1.0000  0.1440  -1.4274   0.0000   0.0000   0.0000   0.1771
  -3.600  -0.3762   0.03805   0.03299  -0.0272  1.0000  0.1470  -1.4051   0.0000   0.0000   0.0000   0.1761
  -3.500  -0.3396   0.03174   0.02509  -0.0288  1.0000  0.0692  -1.8086   0.0000   0.0000   0.0000   0.1630
  -3.400  -0.3288   0.02963   0.02293  -0.0288  1.0000  0.0609  -1.8267   0.0000   0.0000   0.0000   0.1600
  -3.300  -0.3177   0.02792   0.02099  -0.0289  1.0000  0.0573  -1.8488   0.0000   0.0000   0.0000   0.1566
  -3.200  -0.3058   0.02635   0.01914  -0.0288  1.0000  0.0537  -1.8823   0.0000   0.0000   0.0000   0.1532
  -3.100  -0.2934   0.02488   0.01734  -0.0286  1.0000  0.0501  -1.9282   0.0000   0.0000   0.0000   0.1500
  -3.000  -0.2819   0.02392   0.01612  -0.0282  1.0000  0.0478  -1.9488   0.0000   0.0000   0.0000   0.1472
  -2.900  -0.2715   0.02337   0.01541  -0.0279  1.0000  0.0464  -1.9408   0.0000   0.0000   0.0000   0.1448
  -2.800  -0.2617   0.02299   0.01492  -0.0275  1.0000  0.0455  -1.9171   0.0000   0.0000   0.0000   0.1423
  -2.700  -0.2521   0.02267   0.01452  -0.0271  1.0000  0.0448  -1.8863   0.0000   0.0000   0.0000   0.1397
  -2.600  -0.2426   0.02238   0.01416  -0.0268  1.0000  0.0443  -1.8516   0.0000   0.0000   0.0000   0.1369
  -2.500  -0.2332   0.02211   0.01383  -0.0265  1.0000  0.0438  -1.8130   0.0000   0.0000   0.0000   0.1339
  -2.400  -0.2240   0.02193   0.01360  -0.0261  1.0000  0.0432  -1.7651   0.0000   0.0000   0.0000   0.1308
  -2.300  -0.2132   0.02094   0.01218  -0.0260  1.0000  0.0417  -1.6997   0.0000   0.0000   0.0000   0.1253
  -2.200  -0.2031   0.02038   0.01155  -0.0258  1.0000  0.0416  -1.6787   0.0000   0.0000   0.0000   0.1204
  -2.100  -0.1932   0.01989   0.01100  -0.0255  1.0000  0.0416  -1.6556   0.0000   0.0000   0.0000   0.1150
  -2.000  -0.1801   0.01942   0.01048  -0.0259  0.9992  0.0417  -1.6263   0.0000   0.0000   0.0000   0.1034
  -1.900  -0.1649   0.01901   0.01002  -0.0266  0.9978  0.0419  -1.5917   0.0000   0.0000   0.0000   0.0855
  -1.800  -0.1493   0.01868   0.00964  -0.0275  0.9963  0.0424  -1.5544   0.0000   0.0000   0.0000   0.0629
  -1.700  -0.1342   0.01838   0.00932  -0.0283  0.9944  0.0430  -1.5168   0.0000   0.0000   0.0000   0.0361
  -1.600  -0.1189   0.01774   0.00855  -0.0290  0.9928  0.0462  -1.5133   0.0000   0.0000   0.0000   0.0023
  -1.500  -0.1029   0.01738   0.00815  -0.0300  0.9909  0.0537  -1.4986   0.0000   0.0000   0.0000  -0.0451
  -1.400  -0.0873   0.01643   0.00772  -0.0309  0.9898  0.1656  -1.5404   0.0000   0.0000   0.0000  -0.1081
  -1.300  -0.0747   0.01535   0.00778  -0.0319  0.9889  0.4252  -1.4947   0.0000   0.0000   0.0000  -0.1809
  -1.200  -0.0713   0.01442   0.00821  -0.0295  0.9880  0.7526  -1.4494   0.0000   0.0000   0.0000  -0.1686
  -1.100  -0.0585   0.01432   0.00848  -0.0285  0.9865  0.9329  -1.3731   0.0000   0.0000   0.0000  -0.2435
  -1.000  -0.0357   0.01425   0.00835  -0.0312  0.9841  1.0000  -1.2669   0.0000   0.0000   0.0000  -0.6306
  -0.900  -0.0221   0.01436   0.00837  -0.0319  0.9814  1.0000  -1.1887   0.0000   0.0000   0.0000  -1.2046
  -0.800  -0.0072   0.01449   0.00843  -0.0329  0.9787  1.0000  -1.1062   0.0000   0.0000   0.0000  -4.3449
  -0.700   0.0090   0.01465   0.00850  -0.0341  0.9762  1.0000  -1.0199   0.0000   0.0000   0.0000   4.0709
  -0.600   0.0264   0.01483   0.00861  -0.0355  0.9739  1.0000  -0.9301   0.0000   0.0000   0.0000   1.5990
  -0.500   0.0451   0.01505   0.00876  -0.0372  0.9719  1.0000  -0.8378   0.0000   0.0000   0.0000   1.0772
  -0.400   0.0574   0.01511   0.00877  -0.0376  0.9684  1.0000  -0.7668   0.0000   0.0000   0.0000   0.9067
  -0.300   0.0696   0.01517   0.00878  -0.0380  0.9645  1.0000  -0.6970   0.0000   0.0000   0.0000   0.7968
  -0.200   0.0842   0.01527   0.00883  -0.0389  0.9611  1.0000  -0.6213   0.0000   0.0000   0.0000   0.7120
  -0.100   0.1002   0.01539   0.00891  -0.0400  0.9581  1.0000  -0.5615   0.0000   0.0000   0.0000   0.6493
   0.000   0.1176   0.01553   0.00900  -0.0414  0.9555  1.0000  -0.5108   0.0000   0.0000   0.0000   0.6017
   0.100   0.1364   0.01568   0.00912  -0.0430  0.9532  1.0000  -0.4588   0.0000   0.0000   0.0000   0.5650
   0.200   0.1563   0.01586   0.00926  -0.0449  0.9513  1.0000  -0.4058   0.0000   0.0000   0.0000   0.5365
   0.300   0.1653   0.01588   0.00926  -0.0446  0.9468  1.0000  -0.3794   0.0000   0.0000   0.0000   0.5191
   0.400   0.1756   0.01590   0.00926  -0.0446  0.9421  1.0000  -0.3894   0.0000   0.0000   0.0000   0.5030
   0.500   0.1895   0.01596   0.00930  -0.0453  0.9382  1.0000  -0.4017   0.0000   0.0000   0.0000   0.4878
   0.600   0.2055   0.01603   0.00935  -0.0463  0.9349  1.0000  -0.4154   0.0000   0.0000   0.0000   0.4742
   0.700   0.2235   0.01610   0.00941  -0.0477  0.9319  1.0000  -0.4320   0.0000   0.0000   0.0000   0.4622
   0.800   0.2435   0.01617   0.00947  -0.0495  0.9293  1.0000  -0.4507   0.0000   0.0000   0.0000   0.4518
   0.900   0.2648   0.01625   0.00954  -0.0515  0.9271  1.0000  -0.4705   0.0000   0.0000   0.0000   0.4429
   1.000   0.2838   0.01633   0.00967  -0.0530  0.9247  1.0000  -0.4888   0.0000   0.0000   0.0000   0.4353
   1.100   0.2839   0.01630   0.00963  -0.0510  0.9175  1.0000  -0.4939   0.0000   0.0000   0.0000   0.4280
   1.200   0.2962   0.01630   0.00962  -0.0513  0.9126  1.0000  -0.5076   0.0000   0.0000   0.0000   0.4213
   1.300   0.3122   0.01629   0.00960  -0.0522  0.9085  1.0000  -0.5256   0.0000   0.0000   0.0000   0.4153
   1.400   0.3305   0.01627   0.00958  -0.0535  0.9051  1.0000  -0.5468   0.0000   0.0000   0.0000   0.4100
   1.500   0.3500   0.01624   0.00954  -0.0550  0.9023  1.0000  -0.5691   0.0000   0.0000   0.0000   0.4053
   1.600   0.3716   0.01617   0.00948  -0.0569  0.8997  1.0000  -0.5934   0.0000   0.0000   0.0000   0.4011
   1.700   0.3951   0.01607   0.00940  -0.0591  0.8976  1.0000  -0.6208   0.0000   0.0000   0.0000   0.3976
   1.900   0.4097   0.01609   0.00942  -0.0576  0.8856  1.0000  -0.6520   0.0000   0.0000   0.0000   0.3883
   2.000   0.4230   0.01602   0.00936  -0.0579  0.8804  1.0000  -0.6737   0.0000   0.0000   0.0000   0.3846
   2.100   0.4404   0.01589   0.00925  -0.0588  0.8762  1.0000  -0.6996   0.0000   0.0000   0.0000   0.3813
   2.200   0.4605   0.01572   0.00909  -0.0603  0.8728  1.0000  -0.7315   0.0000   0.0000   0.0000   0.3786
   2.300   0.4823   0.01550   0.00891  -0.0620  0.8701  1.0000  -0.7684   0.0000   0.0000   0.0000   0.3762
   2.400   0.5045   0.01525   0.00868  -0.0637  0.8675  1.0000  -0.8063   0.0000   0.0000   0.0000   0.3739
   2.500   0.5269   0.01497   0.00843  -0.0654  0.8650  1.0000  -0.8452   0.0000   0.0000   0.0000   0.3717
   2.600   0.5493   0.01469   0.00819  -0.0671  0.8627  1.0000  -0.8883   0.0000   0.0000   0.0000   0.3697
   2.700   0.5435   0.01489   0.00839  -0.0640  0.8521  1.0000  -0.8949   0.0000   0.0000   0.0000   0.3651
   2.800   0.5550   0.01476   0.00828  -0.0637  0.8456  1.0000  -0.9287   0.0000   0.0000   0.0000   0.3622
   2.900   0.5706   0.01453   0.00809  -0.0642  0.8405  1.0000  -0.9696   0.0000   0.0000   0.0000   0.3597
   3.000   0.5881   0.01427   0.00785  -0.0649  0.8360  1.0000  -1.0139   0.0000   0.0000   0.0000   0.3575
   3.100   0.6071   0.01397   0.00760  -0.0659  0.8319  1.0000  -1.0610   0.0000   0.0000   0.0000   0.3556
   3.200   0.6268   0.01366   0.00732  -0.0669  0.8278  1.0000  -1.1098   0.0000   0.0000   0.0000   0.3539
   3.300   0.6364   0.01359   0.00727  -0.0663  0.8206  1.0000  -1.1422   0.0000   0.0000   0.0000   0.3512
   3.400   0.6420   0.01357   0.00727  -0.0650  0.8110  1.0000  -1.1680   0.0000   0.0000   0.0000   0.3482
   3.500   0.6543   0.01338   0.00712  -0.0648  0.8027  1.0000  -1.2054   0.0000   0.0000   0.0000   0.3459
   3.600   0.6695   0.01312   0.00688  -0.0650  0.7950  1.0000  -1.2481   0.0000   0.0000   0.0000   0.3439
   3.700   0.6882   0.01283   0.00659  -0.0658  0.7878  1.0000  -1.2970   0.0000   0.0000   0.0000   0.3424
   3.800   0.6964   0.01279   0.00658  -0.0650  0.7776  1.0000  -1.3280   0.0000   0.0000   0.0000   0.3400
   3.900   0.7035   0.01275   0.00656  -0.0640  0.7652  1.0000  -1.3574   0.0000   0.0000   0.0000   0.3375
   4.000   0.7154   0.01263   0.00668  -0.0637  0.7565  1.0000  -1.3929   0.0000   0.0000   0.0000   0.3356
   4.100   0.7314   0.01243   0.00644  -0.0641  0.7457  1.0000  -1.4364   0.0000   0.0000   0.0000   0.3340
   4.200   0.7398   0.01241   0.00645  -0.0633  0.7326  1.0000  -1.4790   0.0000   0.0000   0.0000   0.3319
   4.300   0.7486   0.01237   0.00642  -0.0626  0.7169  1.0000  -1.5456   0.0000   0.0000   0.0000   0.3298
   4.400   0.7621   0.01226   0.00623  -0.0625  0.7007  1.0000  -1.6285   0.0000   0.0000   0.0000   0.3282
   4.500   0.7703   0.01228   0.00625  -0.0617  0.6829  1.0000  -1.6930   0.0000   0.0000   0.0000   0.3262
   4.600   0.7804   0.01227   0.00616  -0.0611  0.6605  1.0000  -1.7650   0.0000   0.0000   0.0000   0.3243
   4.700   0.7899   0.01231   0.00613  -0.0605  0.6374  1.0000  -1.8352   0.0000   0.0000   0.0000   0.3224
   4.800   0.7989   0.01239   0.00608  -0.0597  0.6097  1.0000  -1.9048   0.0000   0.0000   0.0000   0.3206
   4.900   0.8072   0.01253   0.00611  -0.0590  0.5826  1.0000  -1.9720   0.0000   0.0000   0.0000   0.3187
   5.100   0.8226   0.01292   0.00622  -0.0573  0.5249  1.0000  -2.1041   0.0000   0.0000   0.0000   0.3151
   5.200   0.8294   0.01319   0.00631  -0.0563  0.4959  1.0000  -2.1681   0.0000   0.0000   0.0000   0.3133
   5.300   0.8359   0.01347   0.00644  -0.0554  0.4658  1.0000  -2.2310   0.0000   0.0000   0.0000   0.3116
   5.400   0.8423   0.01378   0.00659  -0.0545  0.4369  1.0000  -2.2942   0.0000   0.0000   0.0000   0.3099
   5.600   0.8534   0.01448   0.00692  -0.0524  0.3744  1.0000  -2.4168   0.0000   0.0000   0.0000   0.3065
   5.700   0.8586   0.01487   0.00710  -0.0514  0.3442  1.0000  -2.4779   0.0000   0.0000   0.0000   0.3048
   5.800   0.8636   0.01528   0.00728  -0.0505  0.3138  1.0000  -2.5391   0.0000   0.0000   0.0000   0.3033
   5.900   0.8700   0.01560   0.00746  -0.0497  0.2855  1.0000  -2.6062   0.0000   0.0000   0.0000   0.3019
   6.000   0.8752   0.01603   0.00766  -0.0489  0.2588  1.0000  -2.6699   0.0000   0.0000   0.0000   0.3004
   6.100   0.8819   0.01636   0.00783  -0.0483  0.2335  1.0000  -2.7402   0.0000   0.0000   0.0000   0.2992
   6.200   0.8884   0.01671   0.00804  -0.0476  0.2113  1.0000  -2.8104   0.0000   0.0000   0.0000   0.2980
   6.300   0.8951   0.01707   0.00823  -0.0470  0.1900  1.0000  -2.8826   0.0000   0.0000   0.0000   0.2969
   6.400   0.9024   0.01739   0.00844  -0.0466  0.1730  1.0000  -2.9578   0.0000   0.0000   0.0000   0.2958
   6.500   0.9102   0.01768   0.00865  -0.0461  0.1584  1.0000  -3.0357   0.0000   0.0000   0.0000   0.2948
   6.600   0.9173   0.01804   0.00891  -0.0456  0.1471  1.0000  -3.1105   0.0000   0.0000   0.0000   0.2937
   6.700   0.9259   0.01827   0.00915  -0.0452  0.1393  1.0000  -3.1922   0.0000   0.0000   0.0000   0.2927
   6.800   0.9345   0.01851   0.00939  -0.0448  0.1314  1.0000  -3.2753   0.0000   0.0000   0.0000   0.2917
   6.900   0.9423   0.01881   0.00964  -0.0444  0.1229  1.0000  -3.3571   0.0000   0.0000   0.0000   0.2907
   7.000   0.9494   0.01918   0.00994  -0.0438  0.1141  1.0000  -3.4355   0.0000   0.0000   0.0000   0.2897
   7.100   0.9578   0.01943   0.01021  -0.0434  0.1077  1.0000  -3.5217   0.0000   0.0000   0.0000   0.2888
   7.200   0.9665   0.01967   0.01046  -0.0431  0.1004  1.0000  -3.6112   0.0000   0.0000   0.0000   0.2879
   7.300   0.9742   0.01999   0.01072  -0.0426  0.0920  1.0000  -3.6986   0.0000   0.0000   0.0000   0.2870
   7.400   0.9808   0.02042   0.01105  -0.0421  0.0823  1.0000  -3.7801   0.0000   0.0000   0.0000   0.2860
   7.500   0.9898   0.02063   0.01127  -0.0418  0.0721  1.0000  -3.8792   0.0000   0.0000   0.0000   0.2852
   7.600   0.9964   0.02110   0.01160  -0.0413  0.0604  1.0000  -3.9634   0.0000   0.0000   0.0000   0.2843
   7.700   1.0041   0.02146   0.01199  -0.0408  0.0510  1.0000  -4.0449   0.0000   0.0000   0.0000   0.2834
   7.800   1.0092   0.02219   0.01257  -0.0399  0.0377  1.0000  -4.1007   0.0000   0.0000   0.0000   0.2822
   7.900   1.0167   0.02240   0.01348  -0.0392  0.0574  1.0000  -4.2438   0.0000   0.0000   0.0000   0.2811
   8.000   1.0250   0.02269   0.01389  -0.0388  0.0534  1.0000  -4.3628   0.0000   0.0000   0.0000   0.2802
   8.100   1.0322   0.02312   0.01432  -0.0382  0.0451  1.0000  -4.4566   0.0000   0.0000   0.0000   0.2793
   8.200   1.0346   0.02413   0.01525  -0.0369  0.0357  1.0000  -4.4737   0.0000   0.0000   0.0000   0.2778
   8.300   1.0405   0.02477   0.01595  -0.0360  0.0294  1.0000  -4.5090   0.0000   0.0000   0.0000   0.2766
   8.400   1.0455   0.02548   0.01664  -0.0351  0.0256  1.0000  -4.5551   0.0000   0.0000   0.0000   0.2755
   8.500   1.0469   0.02664   0.01784  -0.0336  0.0230  1.0000  -4.5544   0.0000   0.0000   0.0000   0.2739
   8.600   1.0478   0.02819   0.01947  -0.0321  0.0214  1.0000  -4.5292   0.0000   0.0000   0.0000   0.2723
   8.700   1.0545   0.02886   0.02024  -0.0314  0.0208  1.0000  -4.5899   0.0000   0.0000   0.0000   0.2713
   8.800   1.0609   0.02967   0.02115  -0.0306  0.0202  1.0000  -4.6415   0.0000   0.0000   0.0000   0.2703
   8.900   1.0672   0.03059   0.02217  -0.0299  0.0196  1.0000  -4.6879   0.0000   0.0000   0.0000   0.2694
   9.000   1.0736   0.03159   0.02329  -0.0292  0.0192  1.0000  -4.7310   0.0000   0.0000   0.0000   0.2684
   9.100   1.0800   0.03269   0.02451  -0.0285  0.0188  1.0000  -4.7712   0.0000   0.0000   0.0000   0.2675
   9.200   1.0860   0.03385   0.02581  -0.0277  0.0185  1.0000  -4.8074   0.0000   0.0000   0.0000   0.2666
   9.300   1.0918   0.03509   0.02720  -0.0270  0.0182  1.0000  -4.8397   0.0000   0.0000   0.0000   0.2656
   9.400   1.0970   0.03640   0.02866  -0.0262  0.0181  1.0000  -4.8672   0.0000   0.0000   0.0000   0.2647
   9.500   1.1012   0.03775   0.03017  -0.0253  0.0180  1.0000  -4.8893   0.0000   0.0000   0.0000   0.2637
   9.600   1.1046   0.03915   0.03174  -0.0244  0.0179  1.0000  -4.9060   0.0000   0.0000   0.0000   0.2627
   9.700   1.1070   0.04058   0.03335  -0.0234  0.0179  1.0000  -4.9174   0.0000   0.0000   0.0000   0.2616
   9.800   1.1084   0.04205   0.03499  -0.0223  0.0178  1.0000  -4.9238   0.0000   0.0000   0.0000   0.2605
   9.900   1.1089   0.04353   0.03663  -0.0211  0.0179  1.0000  -4.9260   0.0000   0.0000   0.0000   0.2593
  10.000   1.1084   0.04501   0.03828  -0.0199  0.0179  1.0000  -4.9241   0.0000   0.0000   0.0000   0.2581
  10.100   1.1064   0.04643   0.03985  -0.0185  0.0179  1.0000  -4.9186   0.0000   0.0000   0.0000   0.2568
  10.200   1.1035   0.04783   0.04141  -0.0171  0.0180  1.0000  -4.9100   0.0000   0.0000   0.0000   0.2555
  10.300   1.0998   0.04924   0.04295  -0.0157  0.0181  1.0000  -4.8990   0.0000   0.0000   0.0000   0.2541
  10.400   1.0954   0.05064   0.04449  -0.0143  0.0181  1.0000  -4.8857   0.0000   0.0000   0.0000   0.2528
  10.500   1.0903   0.05206   0.04604  -0.0129  0.0182  1.0000  -4.8703   0.0000   0.0000   0.0000   0.2515
  10.600   1.0847   0.05349   0.04759  -0.0117  0.0182  1.0000  -4.8531   0.0000   0.0000   0.0000   0.2503
  10.700   1.0787   0.05495   0.04916  -0.0105  0.0183  1.0000  -4.8342   0.0000   0.0000   0.0000   0.2492
  10.800   1.0722   0.05645   0.05078  -0.0095  0.0184  1.0000  -4.8137   0.0000   0.0000   0.0000   0.2482
  10.900   1.0654   0.05798   0.05242  -0.0086  0.0184  1.0000  -4.7915   0.0000   0.0000   0.0000   0.2473
  11.000   1.0582   0.05954   0.05409  -0.0079  0.0185  1.0000  -4.7679   0.0000   0.0000   0.0000   0.2465
  11.100   1.0507   0.06118   0.05582  -0.0073  0.0185  1.0000  -4.7427   0.0000   0.0000   0.0000   0.2459
  11.200   1.0430   0.06288   0.05762  -0.0070  0.0186  1.0000  -4.7157   0.0000   0.0000   0.0000   0.2455
  11.300   1.0351   0.06468   0.05952  -0.0068  0.0186  1.0000  -4.6870   0.0000   0.0000   0.0000   0.2453
  11.400   1.0271   0.06656   0.06148  -0.0069  0.0187  1.0000  -4.6563   0.0000   0.0000   0.0000   0.2453
  11.500   1.0188   0.06854   0.06355  -0.0072  0.0187  1.0000  -4.6236   0.0000   0.0000   0.0000   0.2455
  11.600   1.0105   0.07062   0.06571  -0.0077  0.0188  1.0000  -4.5887   0.0000   0.0000   0.0000   0.2459
  11.700   1.0019   0.07278   0.06795  -0.0085  0.0188  1.0000  -4.5515   0.0000   0.0000   0.0000   0.2466
  11.800   0.9932   0.07505   0.07030  -0.0094  0.0189  1.0000  -4.5116   0.0000   0.0000   0.0000   0.2475
  11.900   0.9844   0.07750   0.07282  -0.0107  0.0189  1.0000  -4.4683   0.0000   0.0000   0.0000   0.2487
  12.000   0.9756   0.08015   0.07554  -0.0122  0.0190  1.0000  -4.4207   0.0000   0.0000   0.0000   0.2502
  12.100   0.9669   0.08301   0.07847  -0.0141  0.0190  1.0000  -4.3683   0.0000   0.0000   0.0000   0.2521
  12.200   0.9581   0.08611   0.08163  -0.0163  0.0191  1.0000  -4.3099   0.0000   0.0000   0.0000   0.2544
  12.300   0.9492   0.08948   0.08505  -0.0187  0.0191  1.0000  -4.2441   0.0000   0.0000   0.0000   0.2570
  12.400   0.9403   0.09314   0.08877  -0.0215  0.0192  1.0000  -4.1692   0.0000   0.0000   0.0000   0.2600
  12.500   0.9313   0.09712   0.09279  -0.0244  0.0193  1.0000  -4.0831   0.0000   0.0000   0.0000   0.2633
  12.600   0.9223   0.10140   0.09711  -0.0276  0.0194  1.0000  -3.9842   0.0000   0.0000   0.0000   0.2670
  12.700   0.9132   0.10594   0.10168  -0.0307  0.0195  1.0000  -3.8721   0.0000   0.0000   0.0000   0.2707
  12.800   0.9043   0.11061   0.10636  -0.0338  0.0197  1.0000  -3.7493   0.0000   0.0000   0.0000   0.2744
  12.900   0.8959   0.11521   0.11096  -0.0366  0.0199  1.0000  -3.6225   0.0000   0.0000   0.0000   0.2779
  13.000   0.8884   0.11956   0.11531  -0.0391  0.0201  1.0000  -3.4996   0.0000   0.0000   0.0000   0.2810
  13.100   0.8818   0.12360   0.11934  -0.0412  0.0203  1.0000  -3.3847   0.0000   0.0000   0.0000   0.2838
  13.200   0.8759   0.12737   0.12309  -0.0431  0.0204  1.0000  -3.2784   0.0000   0.0000   0.0000   0.2863
  13.300   0.8708   0.13089   0.12660  -0.0449  0.0206  1.0000  -3.1810   0.0000   0.0000   0.0000   0.2885
  13.400   0.8663   0.13423   0.12992  -0.0465  0.0208  1.0000  -3.0910   0.0000   0.0000   0.0000   0.2906
  13.500   0.8621   0.13743   0.13311  -0.0480  0.0210  1.0000  -3.0056   0.0000   0.0000   0.0000   0.2926
  13.600   0.8579   0.14057   0.13624  -0.0493  0.0213  1.0000  -2.9204   0.0000   0.0000   0.0000   0.2944
  13.900   0.8601   0.14633   0.14204  -0.0519  0.0220  1.0000  -2.8638   0.0000   0.0000   0.0000   0.2969
  14.000   0.8622   0.14820   0.14391  -0.0528  0.0223  1.0000  -2.8467   0.0000   0.0000   0.0000   0.2978
  14.100   0.8629   0.15091   0.14661  -0.0542  0.0230  1.0000  -2.7744   0.0000   0.0000   0.0000   0.2993
  14.200   0.8526   0.15839   0.15403  -0.0581  0.0255  1.0000  -2.3976   0.0000   0.0000   0.0000   0.3050
  14.300   0.8479   0.16272   0.15832  -0.0603  0.0271  1.0000  -2.2255   0.0000   0.0000   0.0000   0.3081
  14.400   0.8459   0.16594   0.16152  -0.0619  0.0285  1.0000  -2.1283   0.0000   0.0000   0.0000   0.3100
  14.500   0.8452   0.16869   0.16425  -0.0631  0.0299  1.0000  -2.0672   0.0000   0.0000   0.0000   0.3115
  14.600   0.8453   0.17114   0.16670  -0.0640  0.0313  1.0000  -2.0255   0.0000   0.0000   0.0000   0.3125
  14.700   0.8462   0.17336   0.16892  -0.0647  0.0329  1.0000  -2.0023   0.0000   0.0000   0.0000   0.3131
  14.800   0.8481   0.17545   0.17102  -0.0646  0.0350  1.0000  -2.0120   0.0000   0.0000   0.0000   0.3127
  15.000   0.8462   0.18221   0.17749  -0.0687  0.0437  1.0000  -1.7911   0.0000   0.0000   0.0000   0.3178
  15.100   0.8463   0.18450   0.17978  -0.0699  0.0443  1.0000  -1.7561   0.0000   0.0000   0.0000   0.3191
  15.200   0.8470   0.18664   0.18192  -0.0710  0.0447  1.0000  -1.7317   0.0000   0.0000   0.0000   0.3202
  15.600   0.8513   0.19497   0.19052  -0.0748  0.0463  1.0000  -1.6451   0.0000   0.0000   0.0000   0.3239
  15.700   0.8529   0.19687   0.19242  -0.0756  0.0462  1.0000  -1.6374   0.0000   0.0000   0.0000   0.3246
  15.800   0.8546   0.19876   0.19431  -0.0765  0.0459  1.0000  -1.6312   0.0000   0.0000   0.0000   0.3253
  15.900   0.8563   0.20064   0.19620  -0.0772  0.0456  1.0000  -1.6260   0.0000   0.0000   0.0000   0.3259
  16.000   0.8580   0.20251   0.19808  -0.0780  0.0453  1.0000  -1.6230   0.0000   0.0000   0.0000   0.3265
  16.100   0.8598   0.20439   0.19996  -0.0788  0.0450  1.0000  -1.6216   0.0000   0.0000   0.0000   0.3271
  16.200   0.8617   0.20627   0.20184  -0.0795  0.0447  1.0000  -1.6207   0.0000   0.0000   0.0000   0.3276
  16.300   0.8636   0.20814   0.20371  -0.0803  0.0443  1.0000  -1.6206   0.0000   0.0000   0.0000   0.3281
  16.400   0.8655   0.21002   0.20559  -0.0810  0.0440  1.0000  -1.6211   0.0000   0.0000   0.0000   0.3286
  16.500   0.8675   0.21189   0.20747  -0.0817  0.0437  1.0000  -1.6223   0.0000   0.0000   0.0000   0.3291
  16.600   0.8695   0.21377   0.20935  -0.0823  0.0433  1.0000  -1.6244   0.0000   0.0000   0.0000   0.3295
  16.700   0.8716   0.21565   0.21124  -0.0830  0.0430  1.0000  -1.6273   0.0000   0.0000   0.0000   0.3299
  16.800   0.8737   0.21754   0.21313  -0.0836  0.0426  1.0000  -1.6311   0.0000   0.0000   0.0000   0.3303
  16.900   0.8758   0.21943   0.21502  -0.0842  0.0423  1.0000  -1.6360   0.0000   0.0000   0.0000   0.3306
  17.000   0.8781   0.22132   0.21692  -0.0848  0.0420  1.0000  -1.6421   0.0000   0.0000   0.0000   0.3309
  17.100   0.8803   0.22323   0.21883  -0.0854  0.0417  1.0000  -1.6496   0.0000   0.0000   0.0000   0.3311
  17.200   0.8827   0.22515   0.22076  -0.0859  0.0413  1.0000  -1.6586   0.0000   0.0000   0.0000   0.3313
  17.300   0.8852   0.22709   0.22270  -0.0864  0.0410  1.0000  -1.6694   0.0000   0.0000   0.0000   0.3315
  17.400   0.8878   0.22907   0.22468  -0.0868  0.0407  1.0000  -1.6823   0.0000   0.0000   0.0000   0.3315
  17.500   0.8906   0.23109   0.22671  -0.0872  0.0403  1.0000  -1.6977   0.0000   0.0000   0.0000   0.3315
  17.600   0.8937   0.23318   0.22882  -0.0874  0.0400  1.0000  -1.7165   0.0000   0.0000   0.0000   0.3313
  17.700   0.8971   0.23541   0.23105  -0.0876  0.0397  1.0000  -1.7395   0.0000   0.0000   0.0000   0.3309
  17.800   0.9012   0.23788   0.23353  -0.0876  0.0393  1.0000  -1.7684   0.0000   0.0000   0.0000   0.3304
  17.900   0.9054   0.24071   0.23637  -0.0875  0.0389  1.0000  -1.7987   0.0000   0.0000   0.0000   0.3297
  18.000   0.9084   0.24438   0.24006  -0.0874  0.0384  1.0000  -1.8182   0.0000   0.0000   0.0000   0.3291
  18.100   0.9040   0.25245   0.24807  -0.0883  0.0375  1.0000  -1.7320   0.0000   0.0000   0.0000   0.3306
  18.200   0.9055   0.25460   0.25023  -0.0891  0.0375  1.0000  -1.7240   0.0000   0.0000   0.0000   0.3312
  18.300   0.9070   0.25675   0.25237  -0.0899  0.0375  1.0000  -1.7160   0.0000   0.0000   0.0000   0.3318
  18.400   0.9084   0.25888   0.25451  -0.0907  0.0374  1.0000  -1.7080   0.0000   0.0000   0.0000   0.3324
  18.500   0.9099   0.26100   0.25663  -0.0915  0.0374  1.0000  -1.7001   0.0000   0.0000   0.0000   0.3330
  18.600   0.9112   0.26310   0.25874  -0.0923  0.0374  1.0000  -1.6921   0.0000   0.0000   0.0000   0.3336
  18.700   0.9125   0.26519   0.26083  -0.0931  0.0374  1.0000  -1.6841   0.0000   0.0000   0.0000   0.3342
  18.800   0.9138   0.26726   0.26290  -0.0939  0.0373  1.0000  -1.6761   0.0000   0.0000   0.0000   0.3348
  18.900   0.9151   0.26931   0.26496  -0.0947  0.0373  1.0000  -1.6680   0.0000   0.0000   0.0000   0.3354
  19.000   0.9162   0.27134   0.26699  -0.0955  0.0373  1.0000  -1.6600   0.0000   0.0000   0.0000   0.3360
  19.100   0.9174   0.27334   0.26900  -0.0963  0.0372  1.0000  -1.6518   0.0000   0.0000   0.0000   0.3367
  19.200   0.9184   0.27533   0.27099  -0.0971  0.0372  1.0000  -1.6435   0.0000   0.0000   0.0000   0.3373
  19.300   0.9195   0.27728   0.27295  -0.0979  0.0372  1.0000  -1.6352   0.0000   0.0000   0.0000   0.3379
  19.400   0.9204   0.27919   0.27486  -0.0987  0.0371  1.0000  -1.6266   0.0000   0.0000   0.0000   0.3385
  19.500   0.9213   0.28108   0.27675  -0.0995  0.0371  1.0000  -1.6180   0.0000   0.0000   0.0000   0.3391
  19.600   0.9220   0.28291   0.27859  -0.1003  0.0370  1.0000  -1.6089   0.0000   0.0000   0.0000   0.3398
  19.700   0.9223   0.28465   0.28033  -0.1011  0.0369  1.0000  -1.5970   0.0000   0.0000   0.0000   0.3405
  19.800   0.9223   0.28629   0.28198  -0.1020  0.0368  1.0000  -1.5825   0.0000   0.0000   0.0000   0.3414
  19.900   0.9218   0.28783   0.28353  -0.1030  0.0367  1.0000  -1.5654   0.0000   0.0000   0.0000   0.3423
  20.000   0.9212   0.28932   0.28502  -0.1040  0.0366  1.0000  -1.5473   0.0000   0.0000   0.0000   0.3433
  20.100   0.9205   0.29077   0.28647  -0.1050  0.0365  1.0000  -1.5284   0.0000   0.0000   0.0000   0.3444
  20.200   0.9198   0.29217   0.28788  -0.1060  0.0363  1.0000  -1.5086   0.0000   0.0000   0.0000   0.3454
  20.300   0.9192   0.29356   0.28927  -0.1070  0.0360  1.0000  -1.4878   0.0000   0.0000   0.0000   0.3465
  20.400   0.9187   0.29498   0.29069  -0.1081  0.0357  1.0000  -1.4665   0.0000   0.0000   0.0000   0.3476
  20.500   0.9184   0.29648   0.29220  -0.1091  0.0354  1.0000  -1.4457   0.0000   0.0000   0.0000   0.3486
  20.600   0.9182   0.29812   0.29385  -0.1100  0.0349  1.0000  -1.4268   0.0000   0.0000   0.0000   0.3495
  20.700   0.9182   0.29988   0.29562  -0.1109  0.0344  1.0000  -1.4107   0.0000   0.0000   0.0000   0.3503
  20.800   0.9181   0.30172   0.29746  -0.1116  0.0340  1.0000  -1.3969   0.0000   0.0000   0.0000   0.3510
  20.900   0.9178   0.30358   0.29933  -0.1122  0.0335  1.0000  -1.3850   0.0000   0.0000   0.0000   0.3516
  21.000   0.9174   0.30543   0.30120  -0.1128  0.0330  1.0000  -1.3743   0.0000   0.0000   0.0000   0.3522
  21.100   0.9167   0.30725   0.30304  -0.1133  0.0326  1.0000  -1.3641   0.0000   0.0000   0.0000   0.3527
  21.200   0.9158   0.30903   0.30482  -0.1138  0.0322  1.0000  -1.3543   0.0000   0.0000   0.0000   0.3532
  21.300   0.9145   0.31073   0.30654  -0.1142  0.0318  1.0000  -1.3443   0.0000   0.0000   0.0000   0.3538
  21.400   0.9128   0.31234   0.30816  -0.1146  0.0314  1.0000  -1.3341   0.0000   0.0000   0.0000   0.3543
  21.500   0.9105   0.31380   0.30965  -0.1148  0.0311  1.0000  -1.3231   0.0000   0.0000   0.0000   0.3548
  21.600   0.9064   0.31485   0.31072  -0.1149  0.0308  1.0000  -1.3084   0.0000   0.0000   0.0000   0.3554
  21.700   0.8763   0.30931   0.30528  -0.1118  0.0309  1.0000  -1.2362   0.0000   0.0000   0.0000   0.3567
  21.800   0.8676   0.30839   0.30440  -0.1113  0.0306  1.0000  -1.2117   0.0000   0.0000   0.0000   0.3573
  21.900   0.8615   0.30804   0.30408  -0.1110  0.0304  1.0000  -1.1933   0.0000   0.0000   0.0000   0.3580
  22.000   0.8566   0.30793   0.30400  -0.1109  0.0301  1.0000  -1.1778   0.0000   0.0000   0.0000   0.3585
  22.100   0.8526   0.30796   0.30406  -0.1109  0.0298  1.0000  -1.1643   0.0000   0.0000   0.0000   0.3591
  22.200   0.8490   0.30809   0.30421  -0.1109  0.0295  1.0000  -1.1522   0.0000   0.0000   0.0000   0.3596
  22.300   0.8459   0.30829   0.30443  -0.1110  0.0292  1.0000  -1.1413   0.0000   0.0000   0.0000   0.3601
  22.400   0.8430   0.30853   0.30469  -0.1111  0.0289  1.0000  -1.1314   0.0000   0.0000   0.0000   0.3606
  22.500   0.8404   0.30881   0.30498  -0.1113  0.0286  1.0000  -1.1223   0.0000   0.0000   0.0000   0.3611
  22.600   0.8381   0.30912   0.30531  -0.1114  0.0283  1.0000  -1.1140   0.0000   0.0000   0.0000   0.3616
  22.700   0.8359   0.30945   0.30567  -0.1116  0.0280  1.0000  -1.1063   0.0000   0.0000   0.0000   0.3621
  22.800   0.8340   0.30981   0.30605  -0.1118  0.0277  1.0000  -1.0994   0.0000   0.0000   0.0000   0.3625
  22.900   0.8322   0.31019   0.30645  -0.1120  0.0274  1.0000  -1.0931   0.0000   0.0000   0.0000   0.3630
  23.000   0.8305   0.31059   0.30686  -0.1122  0.0272  1.0000  -1.0874   0.0000   0.0000   0.0000   0.3634
  23.100   0.8289   0.31100   0.30728  -0.1124  0.0269  1.0000  -1.0822   0.0000   0.0000   0.0000   0.3638
  23.200   0.8275   0.31142   0.30772  -0.1126  0.0266  1.0000  -1.0776   0.0000   0.0000   0.0000   0.3642
  23.300   0.8261   0.31184   0.30816  -0.1129  0.0264  1.0000  -1.0736   0.0000   0.0000   0.0000   0.3646
  23.400   0.8249   0.31228   0.30862  -0.1131  0.0261  1.0000  -1.0702   0.0000   0.0000   0.0000   0.3650
  23.500   0.8237   0.31273   0.30908  -0.1134  0.0258  1.0000  -1.0673   0.0000   0.0000   0.0000   0.3654
  23.600   0.8226   0.31318   0.30954  -0.1136  0.0256  1.0000  -1.0650   0.0000   0.0000   0.0000   0.3658
  23.700   0.8216   0.31363   0.31002  -0.1139  0.0253  1.0000  -1.0633   0.0000   0.0000   0.0000   0.3661
  23.800   0.8207   0.31409   0.31049  -0.1141  0.0251  1.0000  -1.0623   0.0000   0.0000   0.0000   0.3665
  23.900   0.8198   0.31455   0.31097  -0.1144  0.0249  1.0000  -1.0619   0.0000   0.0000   0.0000   0.3668
  24.000   0.8190   0.31502   0.31153  -0.1146  0.0246  1.0000  -1.0587   0.0000   0.0000   0.0000   0.3671
  24.100   0.8182   0.31549   0.31201  -0.1149  0.0244  1.0000  -1.0590   0.0000   0.0000   0.0000   0.3674
  24.200   0.8175   0.31596   0.31250  -0.1151  0.0242  1.0000  -1.0605   0.0000   0.0000   0.0000   0.3677
  24.300   0.8169   0.31645   0.31300  -0.1153  0.0240  1.0000  -1.0630   0.0000   0.0000   0.0000   0.3680
  24.400   0.8163   0.31694   0.31351  -0.1155  0.0237  1.0000  -1.0665   0.0000   0.0000   0.0000   0.3682
  24.500   0.8158   0.31745   0.31403  -0.1157  0.0235  1.0000  -1.0711   0.0000   0.0000   0.0000   0.3684
  24.600   0.8153   0.31798   0.31458  -0.1159  0.0233  1.0000  -1.0769   0.0000   0.0000   0.0000   0.3685
  24.700   0.8150   0.31856   0.31517  -0.1160  0.0231  1.0000  -1.0841   0.0000   0.0000   0.0000   0.3686
  24.800   0.8148   0.31920   0.31583  -0.1161  0.0229  1.0000  -1.0929   0.0000   0.0000   0.0000   0.3687
  24.900   0.8147   0.31997   0.31661  -0.1162  0.0227  1.0000  -1.1037   0.0000   0.0000   0.0000   0.3686
  25.000   0.8149   0.32095   0.31761  -0.1162  0.0225  1.0000  -1.1169   0.0000   0.0000   0.0000   0.3684
  25.100   0.8157   0.32239   0.31908  -0.1161  0.0223  1.0000  -1.1336   0.0000   0.0000   0.0000   0.3680
  25.200   0.8181   0.32541   0.32212  -0.1158  0.0220  1.0000  -1.1572   0.0000   0.0000   0.0000   0.3671


