xflr5 v6.61

 Calculated polar for: SD2030-086-88

 1 1 Reynolds number fixed          Mach number fixed         

 xtrf =   1.000 (top)        1.000 (bottom)
 Mach =   0.000     Re =     0.688 e 6     Ncrit =   9.000

  alpha     CL        CD       CDp       Cm    Top Xtr Bot Xtr   Cpmin    Chinge    XCp    
 ------- -------- --------- --------- -------- ------- ------- -------- --------- ---------
 -10.000  -0.4290   0.09987   0.09775  -0.0306  1.0000  0.0099  -2.1316   0.0000   0.0000   0.0000   0.1718
  -9.900  -0.4238   0.09954   0.09743  -0.0307  1.0000  0.0102  -2.0483   0.0000   0.0000   0.0000   0.1707
  -9.800  -0.4193   0.09913   0.09702  -0.0310  1.0000  0.0105  -1.9796   0.0000   0.0000   0.0000   0.1693
  -9.700  -0.4171   0.09821   0.09610  -0.0314  1.0000  0.0106  -1.9587   0.0000   0.0000   0.0000   0.1680
  -7.800  -0.4883   0.06573   0.06387  -0.0443  0.9959  0.0132  -2.7421   0.0000   0.0000   0.0000   0.1553
  -7.700  -0.4800   0.06525   0.06339  -0.0452  0.9950  0.0136  -2.6216   0.0000   0.0000   0.0000   0.1518
  -7.600  -0.4718   0.06426   0.06238  -0.0468  0.9939  0.0141  -2.5361   0.0000   0.0000   0.0000   0.1469
  -7.500  -0.4636   0.06300   0.06110  -0.0488  0.9927  0.0147  -2.4687   0.0000   0.0000   0.0000   0.1410
  -7.400  -0.4550   0.06147   0.05954  -0.0510  0.9916  0.0152  -2.4184   0.0000   0.0000   0.0000   0.1342
  -7.300  -0.4462   0.05971   0.05776  -0.0534  0.9905  0.0159  -2.3825   0.0000   0.0000   0.0000   0.1265
  -7.200  -0.4370   0.05781   0.05582  -0.0560  0.9895  0.0166  -2.3570   0.0000   0.0000   0.0000   0.1181
  -7.100  -0.4272   0.05580   0.05377  -0.0586  0.9886  0.0174  -2.3399   0.0000   0.0000   0.0000   0.1091
  -7.000  -0.4170   0.05374   0.05166  -0.0612  0.9878  0.0183  -2.3295   0.0000   0.0000   0.0000   0.0996
  -6.900  -0.4059   0.05170   0.04955  -0.0636  0.9871  0.0194  -2.3242   0.0000   0.0000   0.0000   0.0896
  -6.800  -0.3972   0.05010   0.04791  -0.0648  0.9855  0.0206  -2.3203   0.0000   0.0000   0.0000   0.0831
  -6.700  -0.3725   0.05262   0.05044  -0.0642  0.9862  0.0234  -2.1317   0.0000   0.0000   0.0000   0.0737
  -6.600  -0.3649   0.05144   0.04921  -0.0649  0.9840  0.0236  -2.1191   0.0000   0.0000   0.0000   0.0683
  -5.400  -0.2608   0.02580   0.02206  -0.0777  0.9672  0.0265  -2.3900   0.0000   0.0000   0.0000  -0.0527
  -5.300  -0.2529   0.02502   0.02127  -0.0777  0.9652  0.0277  -2.3127   0.0000   0.0000   0.0000  -0.0623
  -5.200  -0.2425   0.02479   0.02108  -0.0781  0.9638  0.0290  -2.2059   0.0000   0.0000   0.0000  -0.0769
  -5.100  -0.2316   0.02463   0.02094  -0.0785  0.9626  0.0303  -2.1025   0.0000   0.0000   0.0000  -0.0939
  -5.000  -0.2204   0.02426   0.02054  -0.0789  0.9614  0.0316  -2.0242   0.0000   0.0000   0.0000  -0.1128
  -4.900  -0.2091   0.02367   0.01990  -0.0792  0.9602  0.0327  -1.9678   0.0000   0.0000   0.0000  -0.1337
  -4.800  -0.1976   0.02299   0.01916  -0.0794  0.9591  0.0337  -1.9217   0.0000   0.0000   0.0000  -0.1572
  -4.700  -0.1859   0.02232   0.01841  -0.0797  0.9580  0.0348  -1.8779   0.0000   0.0000   0.0000  -0.1841
  -4.600  -0.1738   0.02170   0.01772  -0.0800  0.9570  0.0360  -1.8334   0.0000   0.0000   0.0000  -0.2157
  -4.500  -0.1614   0.02115   0.01711  -0.0803  0.9560  0.0373  -1.7870   0.0000   0.0000   0.0000  -0.2532
  -4.400  -0.1486   0.02073   0.01664  -0.0805  0.9551  0.0387  -1.7366   0.0000   0.0000   0.0000  -0.2981
  -4.300  -0.1355   0.02055   0.01642  -0.0808  0.9542  0.0402  -1.6778   0.0000   0.0000   0.0000  -0.3531
  -4.200  -0.1211   0.02114   0.01702  -0.0811  0.9534  0.0418  -1.5900   0.0000   0.0000   0.0000  -0.4264
  -4.100  -0.1069   0.02191   0.01778  -0.0813  0.9526  0.0427  -1.5008   0.0000   0.0000   0.0000  -0.5183
  -4.000  -0.0950   0.02149   0.01728  -0.0814  0.9514  0.0428  -1.4563   0.0000   0.0000   0.0000  -0.6152
  -3.900  -0.0850   0.02111   0.01670  -0.0811  0.9497  0.0429  -1.3987   0.0000   0.0000   0.0000  -0.7134
  -3.800  -0.0871   0.01624   0.01157  -0.0796  0.9455  0.0469  -1.5447   0.0000   0.0000   0.0000  -0.6731
  -3.700  -0.0780   0.01572   0.01094  -0.0794  0.9433  0.0493  -1.4662   0.0000   0.0000   0.0000  -0.7777
  -3.600  -0.0679   0.01528   0.01047  -0.0792  0.9413  0.0506  -1.4195   0.0000   0.0000   0.0000  -0.9281
  -3.400  -0.0437   0.01213   0.00676  -0.0772  0.9378  0.0264  -1.6430   0.0000   0.0000   0.0000  -1.5334
  -3.300  -0.0321   0.01177   0.00639  -0.0770  0.9361  0.0228  -1.6294   0.0000   0.0000   0.0000  -2.1735
  -3.200  -0.0220   0.01085   0.00537  -0.0765  0.9343  0.0215  -1.6440   0.0000   0.0000   0.0000  -3.2533
  -3.100  -0.0117   0.01027   0.00471  -0.0762  0.9326  0.0205  -1.6326   0.0000   0.0000   0.0000  -6.3401
  -3.000  -0.0012   0.00982   0.00419  -0.0758  0.9308  0.0196  -1.6111   0.0000   0.0000   0.0000  -63.9152
  -2.900   0.0096   0.00946   0.00376  -0.0756  0.9291  0.0189  -1.5814   0.0000   0.0000   0.0000   8.1568
  -2.800   0.0209   0.00917   0.00340  -0.0755  0.9273  0.0183  -1.5456   0.0000   0.0000   0.0000   3.8997
  -2.700   0.0322   0.00896   0.00312  -0.0754  0.9253  0.0178  -1.5048   0.0000   0.0000   0.0000   2.6104
  -2.600   0.0417   0.00878   0.00290  -0.0750  0.9233  0.0175  -1.4633   0.0000   0.0000   0.0000   2.0606
  -2.500   0.0516   0.00864   0.00272  -0.0746  0.9210  0.0172  -1.4167   0.0000   0.0000   0.0000   1.7066
  -2.400   0.0618   0.00852   0.00255  -0.0743  0.9186  0.0170  -1.3648   0.0000   0.0000   0.0000   1.4607
  -2.300   0.0723   0.00841   0.00240  -0.0741  0.9161  0.0168  -1.3090   0.0000   0.0000   0.0000   1.2815
  -2.200   0.0830   0.00832   0.00227  -0.0739  0.9136  0.0167  -1.2510   0.0000   0.0000   0.0000   1.1459
  -2.100   0.0938   0.00823   0.00214  -0.0737  0.9111  0.0167  -1.1919   0.0000   0.0000   0.0000   1.0405
  -2.000   0.1047   0.00814   0.00201  -0.0736  0.9085  0.0168  -1.1329   0.0000   0.0000   0.0000   0.9565
  -1.900   0.1158   0.00806   0.00189  -0.0735  0.9059  0.0171  -1.0742   0.0000   0.0000   0.0000   0.8874
  -1.800   0.1272   0.00798   0.00177  -0.0734  0.9032  0.0178  -1.0174   0.0000   0.0000   0.0000   0.8296
  -1.700   0.1387   0.00791   0.00167  -0.0734  0.9005  0.0197  -0.9656   0.0000   0.0000   0.0000   0.7811
  -1.600   0.1502   0.00782   0.00162  -0.0734  0.8975  0.0233  -0.9102   0.0000   0.0000   0.0000   0.7402
  -1.500   0.1604   0.00760   0.00157  -0.0732  0.8947  0.0599  -0.8497   0.0000   0.0000   0.0000   0.7081
  -1.400   0.1703   0.00748   0.00154  -0.0730  0.8922  0.0832  -0.7864   0.0000   0.0000   0.0000   0.6800
  -1.300   0.1805   0.00737   0.00150  -0.0728  0.8892  0.1042  -0.7218   0.0000   0.0000   0.0000   0.6546
  -1.200   0.1907   0.00725   0.00147  -0.0727  0.8859  0.1264  -0.6573   0.0000   0.0000   0.0000   0.6319
  -1.100   0.2009   0.00712   0.00143  -0.0725  0.8826  0.1545  -0.5936   0.0000   0.0000   0.0000   0.6116
  -1.000   0.2115   0.00702   0.00140  -0.0724  0.8793  0.1778  -0.5294   0.0000   0.0000   0.0000   0.5929
  -0.900   0.2222   0.00689   0.00136  -0.0723  0.8759  0.2055  -0.4664   0.0000   0.0000   0.0000   0.5760
  -0.800   0.2327   0.00674   0.00132  -0.0723  0.8724  0.2440  -0.4127   0.0000   0.0000   0.0000   0.5608
  -0.500   0.2642   0.00625   0.00125  -0.0721  0.8612  0.3871  -0.4144   0.0000   0.0000   0.0000   0.5229
  -0.400   0.2739   0.00607   0.00124  -0.0719  0.8584  0.4397  -0.4242   0.0000   0.0000   0.0000   0.5124
  -0.300   0.2835   0.00589   0.00123  -0.0717  0.8552  0.4969  -0.4344   0.0000   0.0000   0.0000   0.5026
  -0.200   0.2928   0.00565   0.00123  -0.0714  0.8516  0.5707  -0.4445   0.0000   0.0000   0.0000   0.4935
  -0.100   0.3014   0.00538   0.00125  -0.0709  0.8478  0.6592  -0.4542   0.0000   0.0000   0.0000   0.4848
   0.000   0.3098   0.00517   0.00128  -0.0703  0.8439  0.7347  -0.4645   0.0000   0.0000   0.0000   0.4763
   0.100   0.3186   0.00505   0.00132  -0.0696  0.8400  0.7874  -0.4762   0.0000   0.0000   0.0000   0.4679
   0.200   0.3268   0.00497   0.00137  -0.0688  0.8357  0.8350  -0.4876   0.0000   0.0000   0.0000   0.4597
   0.300   0.3263   0.00493   0.00158  -0.0654  0.8309  0.9224  -0.4936   0.0000   0.0000   0.0000   0.4495
   0.400   0.3344   0.00496   0.00161  -0.0644  0.8255  0.9359  -0.5050   0.0000   0.0000   0.0000   0.4417
   0.500   0.3425   0.00496   0.00163  -0.0636  0.8229  0.9448  -0.5163   0.0000   0.0000   0.0000   0.4346
   0.600   0.3524   0.00496   0.00163  -0.0632  0.8197  0.9504  -0.5287   0.0000   0.0000   0.0000   0.4283
   0.700   0.3635   0.00495   0.00163  -0.0631  0.8160  0.9553  -0.5420   0.0000   0.0000   0.0000   0.4224
   0.800   0.3744   0.00496   0.00163  -0.0629  0.8114  0.9603  -0.5571   0.0000   0.0000   0.0000   0.4168
   0.900   0.3849   0.00497   0.00162  -0.0627  0.8062  0.9653  -0.5725   0.0000   0.0000   0.0000   0.4115
   1.000   0.3950   0.00498   0.00161  -0.0624  0.8009  0.9700  -0.5875   0.0000   0.0000   0.0000   0.4065
   1.100   0.4097   0.00500   0.00159  -0.0631  0.7958  0.9726  -0.6062   0.0000   0.0000   0.0000   0.4025
   1.200   0.4243   0.00502   0.00159  -0.0638  0.7907  0.9753  -0.6250   0.0000   0.0000   0.0000   0.3988
   1.300   0.4390   0.00506   0.00159  -0.0645  0.7850  0.9780  -0.6454   0.0000   0.0000   0.0000   0.3954
   1.400   0.4536   0.00506   0.00160  -0.0653  0.7817  0.9808  -0.6682   0.0000   0.0000   0.0000   0.3922
   1.500   0.4678   0.00506   0.00160  -0.0659  0.7767  0.9834  -0.6907   0.0000   0.0000   0.0000   0.3892
   1.600   0.4813   0.00508   0.00160  -0.0664  0.7698  0.9859  -0.7128   0.0000   0.0000   0.0000   0.3862
   1.700   0.4967   0.00510   0.00159  -0.0673  0.7619  0.9872  -0.7390   0.0000   0.0000   0.0000   0.3837
   1.800   0.5124   0.00512   0.00158  -0.0683  0.7543  0.9883  -0.7686   0.0000   0.0000   0.0000   0.3815
   1.900   0.5276   0.00517   0.00157  -0.0692  0.7454  0.9896  -0.7978   0.0000   0.0000   0.0000   0.3792
   2.000   0.5428   0.00518   0.00158  -0.0701  0.7381  0.9911  -0.8272   0.0000   0.0000   0.0000   0.3772
   2.100   0.5577   0.00520   0.00158  -0.0710  0.7282  0.9927  -0.8566   0.0000   0.0000   0.0000   0.3752
   2.200   0.5717   0.00525   0.00157  -0.0716  0.7139  0.9944  -0.8852   0.0000   0.0000   0.0000   0.3731
   2.300   0.5848   0.00534   0.00156  -0.0721  0.6967  0.9962  -0.9201   0.0000   0.0000   0.0000   0.3710
   2.400   0.5993   0.00537   0.00157  -0.0728  0.6834  0.9976  -0.9584   0.0000   0.0000   0.0000   0.3692
   2.500   0.6129   0.00548   0.00157  -0.0734  0.6604  0.9992  -0.9957   0.0000   0.0000   0.0000   0.3674
   2.600   0.6234   0.00557   0.00158  -0.0734  0.6415  1.0000  -1.0285   0.0000   0.0000   0.0000   0.3652
   2.700   0.6307   0.00566   0.00161  -0.0726  0.6224  1.0000  -1.0565   0.0000   0.0000   0.0000   0.3626
   2.800   0.6368   0.00579   0.00163  -0.0716  0.6018  1.0000  -1.0826   0.0000   0.0000   0.0000   0.3599
   2.900   0.6446   0.00586   0.00166  -0.0710  0.5869  1.0000  -1.1118   0.0000   0.0000   0.0000   0.3574
   3.000   0.6511   0.00600   0.00170  -0.0701  0.5659  1.0000  -1.1389   0.0000   0.0000   0.0000   0.3549
   3.100   0.6576   0.00612   0.00175  -0.0692  0.5467  1.0000  -1.1663   0.0000   0.0000   0.0000   0.3524
   3.200   0.6648   0.00624   0.00179  -0.0685  0.5280  1.0000  -1.1949   0.0000   0.0000   0.0000   0.3500
   3.300   0.6704   0.00643   0.00186  -0.0674  0.5022  1.0000  -1.2209   0.0000   0.0000   0.0000   0.3475
   3.400   0.6776   0.00656   0.00191  -0.0667  0.4806  1.0000  -1.2498   0.0000   0.0000   0.0000   0.3453
   3.500   0.6831   0.00679   0.00199  -0.0656  0.4512  1.0000  -1.2761   0.0000   0.0000   0.0000   0.3429
   3.600   0.6903   0.00695   0.00206  -0.0649  0.4274  1.0000  -1.3052   0.0000   0.0000   0.0000   0.3407
   3.700   0.6967   0.00718   0.00214  -0.0641  0.3987  1.0000  -1.3332   0.0000   0.0000   0.0000   0.3386
   3.800   0.7026   0.00748   0.00233  -0.0631  0.3597  1.0000  -1.3614   0.0000   0.0000   0.0000   0.3364
   3.900   0.7011   0.00840   0.00257  -0.0611  0.2360  1.0000  -1.3753   0.0000   0.0000   0.0000   0.3337
   4.000   0.7052   0.00898   0.00276  -0.0601  0.1673  1.0000  -1.4000   0.0000   0.0000   0.0000   0.3316
   4.100   0.7130   0.00925   0.00286  -0.0596  0.1403  1.0000  -1.4391   0.0000   0.0000   0.0000   0.3299
   4.200   0.7211   0.00951   0.00298  -0.0592  0.1191  1.0000  -1.4796   0.0000   0.0000   0.0000   0.3283
   4.300   0.7303   0.00968   0.00306  -0.0589  0.1032  1.0000  -1.5229   0.0000   0.0000   0.0000   0.3268
   4.400   0.7387   0.00991   0.00319  -0.0585  0.0872  1.0000  -1.5653   0.0000   0.0000   0.0000   0.3253
   4.500   0.7484   0.01004   0.00327  -0.0583  0.0780  1.0000  -1.6108   0.0000   0.0000   0.0000   0.3239
   4.600   0.7578   0.01019   0.00335  -0.0580  0.0699  1.0000  -1.6613   0.0000   0.0000   0.0000   0.3225
   4.700   0.7669   0.01038   0.00346  -0.0577  0.0596  1.0000  -1.7273   0.0000   0.0000   0.0000   0.3211
   4.800   0.7768   0.01049   0.00355  -0.0576  0.0544  1.0000  -1.7971   0.0000   0.0000   0.0000   0.3199
   4.900   0.7865   0.01061   0.00364  -0.0574  0.0491  1.0000  -1.8673   0.0000   0.0000   0.0000   0.3186
   5.000   0.7956   0.01081   0.00376  -0.0571  0.0403  1.0000  -1.9360   0.0000   0.0000   0.0000   0.3173
   5.100   0.8053   0.01094   0.00385  -0.0569  0.0350  1.0000  -2.0084   0.0000   0.0000   0.0000   0.3161
   5.200   0.8151   0.01106   0.00394  -0.0567  0.0316  1.0000  -2.0823   0.0000   0.0000   0.0000   0.3149
   5.300   0.8244   0.01124   0.00407  -0.0564  0.0261  1.0000  -2.1552   0.0000   0.0000   0.0000   0.3137
   5.400   0.8339   0.01139   0.00418  -0.0562  0.0209  1.0000  -2.2305   0.0000   0.0000   0.0000   0.3126
   5.500   0.8439   0.01149   0.00427  -0.0561  0.0195  1.0000  -2.3096   0.0000   0.0000   0.0000   0.3115
   5.600   0.8522   0.01179   0.00448  -0.0556  0.0097  1.0000  -2.3829   0.0000   0.0000   0.0000   0.3103
   5.700   0.8621   0.01190   0.00457  -0.0554  0.0093  1.0000  -2.4657   0.0000   0.0000   0.0000   0.3092
   5.800   0.8721   0.01201   0.00467  -0.0553  0.0088  1.0000  -2.5511   0.0000   0.0000   0.0000   0.3082
   5.900   0.8820   0.01211   0.00476  -0.0551  0.0083  1.0000  -2.6396   0.0000   0.0000   0.0000   0.3072
   6.000   0.8919   0.01223   0.00486  -0.0549  0.0077  1.0000  -2.7314   0.0000   0.0000   0.0000   0.3062
   6.100   0.9017   0.01235   0.00496  -0.0547  0.0071  1.0000  -2.8278   0.0000   0.0000   0.0000   0.3052
   6.200   0.9116   0.01247   0.00507  -0.0545  0.0065  1.0000  -2.9296   0.0000   0.0000   0.0000   0.3042
   6.300   0.9214   0.01260   0.00520  -0.0543  0.0060  1.0000  -3.0370   0.0000   0.0000   0.0000   0.3033
   6.400   0.9311   0.01273   0.00534  -0.0541  0.0056  1.0000  -3.1489   0.0000   0.0000   0.0000   0.3023
   6.500   0.9409   0.01286   0.00548  -0.0539  0.0053  1.0000  -3.2636   0.0000   0.0000   0.0000   0.3014
   6.600   0.9507   0.01299   0.00564  -0.0537  0.0051  1.0000  -3.3792   0.0000   0.0000   0.0000   0.3004
   6.700   0.9604   0.01313   0.00580  -0.0535  0.0049  1.0000  -3.4954   0.0000   0.0000   0.0000   0.2995
   6.800   0.9701   0.01327   0.00597  -0.0532  0.0048  1.0000  -3.6119   0.0000   0.0000   0.0000   0.2986
   6.900   0.9798   0.01341   0.00615  -0.0530  0.0047  1.0000  -3.7287   0.0000   0.0000   0.0000   0.2977
   7.000   0.9894   0.01356   0.00633  -0.0527  0.0047  1.0000  -3.8457   0.0000   0.0000   0.0000   0.2968
   7.100   0.9989   0.01372   0.00653  -0.0524  0.0047  1.0000  -3.9628   0.0000   0.0000   0.0000   0.2959
   7.200   1.0083   0.01390   0.00674  -0.0522  0.0046  1.0000  -4.0797   0.0000   0.0000   0.0000   0.2950
   7.300   1.0176   0.01408   0.00696  -0.0518  0.0046  1.0000  -4.1965   0.0000   0.0000   0.0000   0.2941
   7.400   1.0267   0.01428   0.00720  -0.0515  0.0047  1.0000  -4.3131   0.0000   0.0000   0.0000   0.2932
   7.500   1.0364   0.01439   0.00747  -0.0513  0.0049  1.0000  -4.3762   0.0000   0.0000   0.0000   0.2925
   7.600   1.0458   0.01455   0.00767  -0.0511  0.0050  1.0000  -4.4675   0.0000   0.0000   0.0000   0.2917
   7.700   1.0548   0.01476   0.00792  -0.0507  0.0050  1.0000  -4.5795   0.0000   0.0000   0.0000   0.2908
   7.800   1.0637   0.01498   0.00820  -0.0504  0.0050  1.0000  -4.6957   0.0000   0.0000   0.0000   0.2899
   7.900   1.0724   0.01523   0.00850  -0.0500  0.0050  1.0000  -4.8130   0.0000   0.0000   0.0000   0.2890
   8.000   1.0809   0.01549   0.00882  -0.0495  0.0051  1.0000  -4.9301   0.0000   0.0000   0.0000   0.2881
   8.100   1.0892   0.01578   0.00917  -0.0490  0.0051  1.0000  -5.0457   0.0000   0.0000   0.0000   0.2872
   8.200   1.0973   0.01610   0.00954  -0.0485  0.0052  1.0000  -5.1587   0.0000   0.0000   0.0000   0.2863
   8.300   1.1050   0.01644   0.00996  -0.0479  0.0053  1.0000  -5.2678   0.0000   0.0000   0.0000   0.2853
   8.400   1.1124   0.01682   0.01041  -0.0473  0.0054  1.0000  -5.3714   0.0000   0.0000   0.0000   0.2843
   8.500   1.1194   0.01724   0.01092  -0.0465  0.0055  1.0000  -5.4670   0.0000   0.0000   0.0000   0.2833
   8.600   1.1259   0.01773   0.01150  -0.0457  0.0056  1.0000  -5.5511   0.0000   0.0000   0.0000   0.2821
   8.700   1.1316   0.01832   0.01219  -0.0447  0.0058  1.0000  -5.6187   0.0000   0.0000   0.0000   0.2810
   8.800   1.1365   0.01903   0.01301  -0.0436  0.0060  1.0000  -5.6686   0.0000   0.0000   0.0000   0.2797
   8.900   1.1408   0.01988   0.01398  -0.0424  0.0062  1.0000  -5.7011   0.0000   0.0000   0.0000   0.2783
   9.000   1.1446   0.02089   0.01514  -0.0410  0.0065  1.0000  -5.7173   0.0000   0.0000   0.0000   0.2769
   9.100   1.1481   0.02212   0.01653  -0.0397  0.0069  1.0000  -5.7174   0.0000   0.0000   0.0000   0.2755
   9.200   1.1514   0.02362   0.01821  -0.0383  0.0073  1.0000  -5.6966   0.0000   0.0000   0.0000   0.2742
   9.300   1.1540   0.02548   0.02027  -0.0369  0.0078  1.0000  -5.6496   0.0000   0.0000   0.0000   0.2727
   9.400   1.1549   0.02777   0.02279  -0.0353  0.0084  1.0000  -5.5713   0.0000   0.0000   0.0000   0.2713
   9.500   1.1514   0.03083   0.02614  -0.0333  0.0091  1.0000  -5.4307   0.0000   0.0000   0.0000   0.2695
  14.500   0.8589   0.16640   0.16448  -0.0666  0.0185  1.0000  -2.2477   0.0000   0.0000   0.0000   0.3142
  14.600   0.8598   0.16848   0.16655  -0.0677  0.0182  1.0000  -2.2245   0.0000   0.0000   0.0000   0.3153
  14.700   0.8607   0.17056   0.16863  -0.0688  0.0179  1.0000  -2.2022   0.0000   0.0000   0.0000   0.3163
  14.800   0.8617   0.17263   0.17070  -0.0698  0.0175  1.0000  -2.1811   0.0000   0.0000   0.0000   0.3174
  14.900   0.8627   0.17470   0.17277  -0.0709  0.0172  1.0000  -2.1608   0.0000   0.0000   0.0000   0.3184
  15.000   0.8636   0.17676   0.17483  -0.0719  0.0169  1.0000  -2.1418   0.0000   0.0000   0.0000   0.3195
  15.100   0.8646   0.17881   0.17687  -0.0730  0.0166  1.0000  -2.1243   0.0000   0.0000   0.0000   0.3205
  15.200   0.8658   0.18083   0.17890  -0.0740  0.0163  1.0000  -2.1087   0.0000   0.0000   0.0000   0.3214
  15.300   0.8670   0.18284   0.18091  -0.0750  0.0160  1.0000  -2.0949   0.0000   0.0000   0.0000   0.3223
  15.400   0.8682   0.18484   0.18290  -0.0759  0.0158  1.0000  -2.0830   0.0000   0.0000   0.0000   0.3232
  15.500   0.8696   0.18682   0.18489  -0.0769  0.0155  1.0000  -2.0728   0.0000   0.0000   0.0000   0.3241
  15.600   0.8710   0.18880   0.18686  -0.0778  0.0153  1.0000  -2.0640   0.0000   0.0000   0.0000   0.3249
  15.700   0.8725   0.19076   0.18882  -0.0788  0.0150  1.0000  -2.0567   0.0000   0.0000   0.0000   0.3257
  15.800   0.8741   0.19271   0.19077  -0.0797  0.0148  1.0000  -2.0508   0.0000   0.0000   0.0000   0.3264
  15.900   0.8757   0.19465   0.19271  -0.0806  0.0145  1.0000  -2.0462   0.0000   0.0000   0.0000   0.3272
  16.000   0.8774   0.19658   0.19464  -0.0815  0.0143  1.0000  -2.0430   0.0000   0.0000   0.0000   0.3279
  16.100   0.8791   0.19850   0.19656  -0.0823  0.0141  1.0000  -2.0409   0.0000   0.0000   0.0000   0.3286
  16.200   0.8808   0.20041   0.19848  -0.0832  0.0139  1.0000  -2.0401   0.0000   0.0000   0.0000   0.3292
  16.300   0.8826   0.20232   0.20038  -0.0840  0.0137  1.0000  -2.0404   0.0000   0.0000   0.0000   0.3299
  16.400   0.8845   0.20422   0.20228  -0.0849  0.0135  1.0000  -2.0420   0.0000   0.0000   0.0000   0.3305
  16.500   0.8863   0.20611   0.20418  -0.0857  0.0133  1.0000  -2.0446   0.0000   0.0000   0.0000   0.3311
  16.600   0.8882   0.20800   0.20606  -0.0865  0.0131  1.0000  -2.0485   0.0000   0.0000   0.0000   0.3317
  16.700   0.8901   0.20988   0.20794  -0.0873  0.0130  1.0000  -2.0534   0.0000   0.0000   0.0000   0.3323
  16.800   0.8925   0.21147   0.20953  -0.0880  0.0127  1.0000  -2.0800   0.0000   0.0000   0.0000   0.3326
  16.900   0.8950   0.21297   0.21104  -0.0886  0.0124  1.0000  -2.1139   0.0000   0.0000   0.0000   0.3329
  17.000   0.8977   0.21440   0.21247  -0.0892  0.0121  1.0000  -2.1535   0.0000   0.0000   0.0000   0.3331
  17.100   0.9004   0.21576   0.21384  -0.0897  0.0119  1.0000  -2.1997   0.0000   0.0000   0.0000   0.3331
  17.200   0.9034   0.21706   0.21514  -0.0902  0.0117  1.0000  -2.2526   0.0000   0.0000   0.0000   0.3331
  17.300   0.9063   0.21838   0.21646  -0.0907  0.0114  1.0000  -2.3065   0.0000   0.0000   0.0000   0.3331
  17.400   0.9084   0.21999   0.21808  -0.0913  0.0112  1.0000  -2.3415   0.0000   0.0000   0.0000   0.3334
  17.500   0.9099   0.22181   0.21990  -0.0920  0.0109  1.0000  -2.3669   0.0000   0.0000   0.0000   0.3338
  17.600   0.8967   0.23153   0.22958  -0.0944  0.0099  1.0000  -1.9703   0.0000   0.0000   0.0000   0.3382
  17.700   0.8985   0.23375   0.23180  -0.0953  0.0099  1.0000  -1.9589   0.0000   0.0000   0.0000   0.3389
  17.800   0.9002   0.23597   0.23403  -0.0961  0.0099  1.0000  -1.9480   0.0000   0.0000   0.0000   0.3395
  17.900   0.9019   0.23820   0.23625  -0.0970  0.0099  1.0000  -1.9374   0.0000   0.0000   0.0000   0.3401
  18.000   0.9037   0.24042   0.23847  -0.0978  0.0099  1.0000  -1.9272   0.0000   0.0000   0.0000   0.3407
  18.100   0.9054   0.24264   0.24069  -0.0987  0.0099  1.0000  -1.9174   0.0000   0.0000   0.0000   0.3413
  18.200   0.9071   0.24485   0.24291  -0.0995  0.0099  1.0000  -1.9079   0.0000   0.0000   0.0000   0.3419
  18.300   0.9088   0.24707   0.24513  -0.1003  0.0099  1.0000  -1.8988   0.0000   0.0000   0.0000   0.3425
  18.400   0.9105   0.24928   0.24734  -0.1012  0.0099  1.0000  -1.8901   0.0000   0.0000   0.0000   0.3431
  18.500   0.9122   0.25149   0.24955  -0.1020  0.0098  1.0000  -1.8818   0.0000   0.0000   0.0000   0.3437
  18.600   0.9139   0.25370   0.25176  -0.1028  0.0098  1.0000  -1.8739   0.0000   0.0000   0.0000   0.3442
  18.700   0.9155   0.25590   0.25396  -0.1037  0.0098  1.0000  -1.8665   0.0000   0.0000   0.0000   0.3448
  18.800   0.9172   0.25809   0.25616  -0.1045  0.0098  1.0000  -1.8596   0.0000   0.0000   0.0000   0.3454
  18.900   0.9188   0.26027   0.25834  -0.1053  0.0098  1.0000  -1.8531   0.0000   0.0000   0.0000   0.3459
  19.000   0.9205   0.26244   0.26051  -0.1061  0.0098  1.0000  -1.8473   0.0000   0.0000   0.0000   0.3465
  19.100   0.9221   0.26459   0.26267  -0.1069  0.0097  1.0000  -1.8424   0.0000   0.0000   0.0000   0.3470
  19.200   0.9238   0.26672   0.26480  -0.1077  0.0097  1.0000  -1.8386   0.0000   0.0000   0.0000   0.3475
  19.300   0.9255   0.26880   0.26689  -0.1085  0.0097  1.0000  -1.8363   0.0000   0.0000   0.0000   0.3480
  19.400   0.9272   0.27084   0.26892  -0.1093  0.0096  1.0000  -1.8355   0.0000   0.0000   0.0000   0.3486
  19.500   0.9291   0.27279   0.27088  -0.1102  0.0095  1.0000  -1.8379   0.0000   0.0000   0.0000   0.3491
  19.600   0.9312   0.27460   0.27269  -0.1110  0.0094  1.0000  -1.8453   0.0000   0.0000   0.0000   0.3495
  19.700   0.9337   0.27630   0.27439  -0.1118  0.0091  1.0000  -1.8538   0.0000   0.0000   0.0000   0.3500
  19.800   0.9359   0.27823   0.27633  -0.1128  0.0088  1.0000  -1.8455   0.0000   0.0000   0.0000   0.3506
  19.900   0.9380   0.28039   0.27849  -0.1137  0.0084  1.0000  -1.8311   0.0000   0.0000   0.0000   0.3512
  20.000   0.9396   0.28266   0.28076  -0.1145  0.0080  1.0000  -1.8170   0.0000   0.0000   0.0000   0.3517
  20.100   0.9409   0.28495   0.28306  -0.1153  0.0076  1.0000  -1.8058   0.0000   0.0000   0.0000   0.3522
  20.200   0.9421   0.28723   0.28534  -0.1160  0.0073  1.0000  -1.7974   0.0000   0.0000   0.0000   0.3528
  20.300   0.9432   0.28950   0.28761  -0.1168  0.0071  1.0000  -1.7912   0.0000   0.0000   0.0000   0.3533
  20.400   0.9442   0.29175   0.28987  -0.1175  0.0068  1.0000  -1.7865   0.0000   0.0000   0.0000   0.3538
  20.500   0.9450   0.29398   0.29210  -0.1182  0.0066  1.0000  -1.7832   0.0000   0.0000   0.0000   0.3543
  20.600   0.9458   0.29619   0.29431  -0.1189  0.0064  1.0000  -1.7808   0.0000   0.0000   0.0000   0.3548
  20.700   0.9465   0.29838   0.29651  -0.1196  0.0062  1.0000  -1.7794   0.0000   0.0000   0.0000   0.3553
  20.800   0.9470   0.30055   0.29868  -0.1203  0.0060  1.0000  -1.7787   0.0000   0.0000   0.0000   0.3558
  20.900   0.9475   0.30269   0.30083  -0.1209  0.0058  1.0000  -1.7786   0.0000   0.0000   0.0000   0.3562
  21.000   0.9478   0.30481   0.30296  -0.1216  0.0056  1.0000  -1.7790   0.0000   0.0000   0.0000   0.3567
  21.100   0.9480   0.30690   0.30505  -0.1222  0.0055  1.0000  -1.7799   0.0000   0.0000   0.0000   0.3572
  21.200   0.9480   0.30896   0.30712  -0.1228  0.0053  1.0000  -1.7811   0.0000   0.0000   0.0000   0.3577
  21.300   0.9479   0.31098   0.30914  -0.1234  0.0052  1.0000  -1.7826   0.0000   0.0000   0.0000   0.3582
  21.400   0.9476   0.31295   0.31112  -0.1240  0.0051  1.0000  -1.7843   0.0000   0.0000   0.0000   0.3587
  21.500   0.9470   0.31487   0.31305  -0.1245  0.0049  1.0000  -1.7859   0.0000   0.0000   0.0000   0.3593
  21.600   0.9461   0.31672   0.31491  -0.1250  0.0048  1.0000  -1.7873   0.0000   0.0000   0.0000   0.3598
  21.700   0.9449   0.31849   0.31668  -0.1255  0.0047  1.0000  -1.7881   0.0000   0.0000   0.0000   0.3603
  21.800   0.9432   0.32015   0.31835  -0.1259  0.0046  1.0000  -1.7880   0.0000   0.0000   0.0000   0.3609
  21.900   0.9408   0.32164   0.31986  -0.1262  0.0045  1.0000  -1.7860   0.0000   0.0000   0.0000   0.3615
  22.000   0.8883   0.31112   0.30942  -0.1215  0.0047  1.0000  -1.6020   0.0000   0.0000   0.0000   0.3650
  22.100   0.8828   0.31085   0.30917  -0.1215  0.0046  1.0000  -1.5882   0.0000   0.0000   0.0000   0.3657
  22.200   0.8784   0.31079   0.30913  -0.1215  0.0045  1.0000  -1.5788   0.0000   0.0000   0.0000   0.3664
  22.300   0.8747   0.31086   0.30920  -0.1216  0.0044  1.0000  -1.5724   0.0000   0.0000   0.0000   0.3670
  22.400   0.8714   0.31099   0.30935  -0.1217  0.0044  1.0000  -1.5682   0.0000   0.0000   0.0000   0.3676
  22.500   0.8686   0.31118   0.30955  -0.1219  0.0043  1.0000  -1.5660   0.0000   0.0000   0.0000   0.3682
  22.600   0.8660   0.31142   0.30979  -0.1221  0.0042  1.0000  -1.5654   0.0000   0.0000   0.0000   0.3687
  22.700   0.8637   0.31168   0.31007  -0.1223  0.0041  1.0000  -1.5665   0.0000   0.0000   0.0000   0.3692
  22.800   0.8616   0.31197   0.31037  -0.1225  0.0041  1.0000  -1.5689   0.0000   0.0000   0.0000   0.3697
  22.900   0.8597   0.31228   0.31068  -0.1228  0.0040  1.0000  -1.5728   0.0000   0.0000   0.0000   0.3702
  23.000   0.8580   0.31261   0.31102  -0.1230  0.0039  1.0000  -1.5779   0.0000   0.0000   0.0000   0.3707
  23.100   0.8564   0.31294   0.31136  -0.1233  0.0039  1.0000  -1.5843   0.0000   0.0000   0.0000   0.3711
  23.200   0.8554   0.31312   0.31158  -0.1235  0.0037  1.0000  -1.6201   0.0000   0.0000   0.0000   0.3714
  23.300   0.8541   0.31343   0.31190  -0.1238  0.0037  1.0000  -1.6352   0.0000   0.0000   0.0000   0.3718
  23.400   0.8528   0.31375   0.31223  -0.1241  0.0036  1.0000  -1.6494   0.0000   0.0000   0.0000   0.3722
  23.500   0.8517   0.31408   0.31256  -0.1243  0.0036  1.0000  -1.6638   0.0000   0.0000   0.0000   0.3725
  23.600   0.8506   0.31441   0.31290  -0.1246  0.0035  1.0000  -1.6785   0.0000   0.0000   0.0000   0.3729
  23.700   0.8495   0.31475   0.31324  -0.1248  0.0034  1.0000  -1.6934   0.0000   0.0000   0.0000   0.3732
  23.800   0.8483   0.31513   0.31363  -0.1251  0.0034  1.0000  -1.7027   0.0000   0.0000   0.0000   0.3736
  23.900   0.8471   0.31554   0.31405  -0.1254  0.0033  1.0000  -1.7085   0.0000   0.0000   0.0000   0.3740
  24.000   0.8458   0.31596   0.31448  -0.1257  0.0033  1.0000  -1.7111   0.0000   0.0000   0.0000   0.3744
  24.100   0.8443   0.31641   0.31494  -0.1259  0.0032  1.0000  -1.7071   0.0000   0.0000   0.0000   0.3749
  24.200   0.8420   0.31694   0.31548  -0.1261  0.0031  1.0000  -1.6804   0.0000   0.0000   0.0000   0.3754
  24.300   0.8305   0.31894   0.31746  -0.1258  0.0028  1.0000  -1.3380   0.0000   0.0000   0.0000   0.3775
  24.400   0.8298   0.31955   0.31808  -0.1262  0.0028  1.0000  -1.3280   0.0000   0.0000   0.0000   0.3779
  24.500   0.8291   0.32017   0.31870  -0.1265  0.0028  1.0000  -1.3182   0.0000   0.0000   0.0000   0.3784
  24.600   0.8284   0.32079   0.31933  -0.1269  0.0028  1.0000  -1.3087   0.0000   0.0000   0.0000   0.3788
  24.700   0.8278   0.32141   0.31995  -0.1273  0.0028  1.0000  -1.2993   0.0000   0.0000   0.0000   0.3792
  24.800   0.8272   0.32203   0.32059  -0.1276  0.0028  1.0000  -1.2902   0.0000   0.0000   0.0000   0.3796
  24.900   0.8267   0.32266   0.32122  -0.1280  0.0028  1.0000  -1.2813   0.0000   0.0000   0.0000   0.3801
  25.000   0.8262   0.32329   0.32186  -0.1284  0.0028  1.0000  -1.2726   0.0000   0.0000   0.0000   0.3805
  25.100   0.8257   0.32392   0.32250  -0.1287  0.0028  1.0000  -1.2641   0.0000   0.0000   0.0000   0.3809
  25.200   0.8252   0.32456   0.32314  -0.1291  0.0028  1.0000  -1.2557   0.0000   0.0000   0.0000   0.3813
  25.300   0.8248   0.32520   0.32378  -0.1295  0.0028  1.0000  -1.2476   0.0000   0.0000   0.0000   0.3817
  25.400   0.8243   0.32584   0.32443  -0.1299  0.0028  1.0000  -1.2396   0.0000   0.0000   0.0000   0.3821
  25.500   0.8240   0.32648   0.32508  -0.1303  0.0028  1.0000  -1.2318   0.0000   0.0000   0.0000   0.3825
  25.600   0.8236   0.32713   0.32573  -0.1306  0.0028  1.0000  -1.2241   0.0000   0.0000   0.0000   0.3828
  25.700   0.8232   0.32778   0.32639  -0.1310  0.0028  1.0000  -1.2166   0.0000   0.0000   0.0000   0.3832
  25.800   0.8229   0.32843   0.32704  -0.1314  0.0028  1.0000  -1.2092   0.0000   0.0000   0.0000   0.3836
  25.900   0.8226   0.32908   0.32770  -0.1318  0.0028  1.0000  -1.2020   0.0000   0.0000   0.0000   0.3840
  26.000   0.8223   0.32973   0.32836  -0.1322  0.0028  1.0000  -1.1949   0.0000   0.0000   0.0000   0.3844
  26.100   0.8220   0.33038   0.32901  -0.1326  0.0028  1.0000  -1.1880   0.0000   0.0000   0.0000   0.3847
  26.200   0.8217   0.33104   0.32968  -0.1330  0.0028  1.0000  -1.1812   0.0000   0.0000   0.0000   0.3851
  26.300   0.8215   0.33169   0.33034  -0.1334  0.0028  1.0000  -1.1745   0.0000   0.0000   0.0000   0.3855
  26.400   0.8213   0.33235   0.33100  -0.1338  0.0028  1.0000  -1.1680   0.0000   0.0000   0.0000   0.3858
  26.500   0.8210   0.33301   0.33167  -0.1342  0.0028  1.0000  -1.1616   0.0000   0.0000   0.0000   0.3862
  26.600   0.8208   0.33367   0.33233  -0.1346  0.0028  1.0000  -1.1553   0.0000   0.0000   0.0000   0.3866
  26.700   0.8206   0.33433   0.33300  -0.1350  0.0028  1.0000  -1.1491   0.0000   0.0000   0.0000   0.3869
  26.800   0.8204   0.33500   0.33367  -0.1354  0.0028  1.0000  -1.1430   0.0000   0.0000   0.0000   0.3873
  26.900   0.8203   0.33566   0.33434  -0.1358  0.0028  1.0000  -1.1370   0.0000   0.0000   0.0000   0.3876
  27.000   0.8201   0.33632   0.33501  -0.1362  0.0028  1.0000  -1.1312   0.0000   0.0000   0.0000   0.3880
  27.100   0.8200   0.33699   0.33568  -0.1366  0.0028  1.0000  -1.1254   0.0000   0.0000   0.0000   0.3883
  27.200   0.8198   0.33765   0.33635  -0.1370  0.0028  1.0000  -1.1198   0.0000   0.0000   0.0000   0.3887


