xflr5 v6.61

 Calculated polar for: SD2030-086-88

 1 1 Reynolds number fixed          Mach number fixed         

 xtrf =   1.000 (top)        1.000 (bottom)
 Mach =   0.000     Re =     0.625 e 6     Ncrit =   9.000

  alpha     CL        CD       CDp       Cm    Top Xtr Bot Xtr   Cpmin    Chinge    XCp    
 ------- -------- --------- --------- -------- ------- ------- -------- --------- ---------
 -10.000  -0.4453   0.09673   0.09461  -0.0327  1.0000  0.0121  -2.3337   0.0000   0.0000   0.0000   0.1696
  -9.900  -0.4449   0.09569   0.09358  -0.0329  1.0000  0.0124  -2.3046   0.0000   0.0000   0.0000   0.1693
  -9.800  -0.4444   0.09464   0.09254  -0.0331  1.0000  0.0126  -2.2828   0.0000   0.0000   0.0000   0.1689
  -9.200  -0.4497   0.08638   0.08428  -0.0349  1.0000  0.0126  -2.4154   0.0000   0.0000   0.0000   0.1663
  -9.100  -0.4500   0.08557   0.08348  -0.0349  1.0000  0.0128  -2.3771   0.0000   0.0000   0.0000   0.1667
  -9.000  -0.4484   0.08522   0.08314  -0.0344  1.0000  0.0132  -2.2980   0.0000   0.0000   0.0000   0.1676
  -8.900  -0.4474   0.08475   0.08268  -0.0340  1.0000  0.0135  -2.2339   0.0000   0.0000   0.0000   0.1685
  -8.800  -0.4469   0.08423   0.08217  -0.0336  1.0000  0.0139  -2.1788   0.0000   0.0000   0.0000   0.1695
  -8.700  -0.4473   0.08358   0.08154  -0.0332  1.0000  0.0142  -2.1399   0.0000   0.0000   0.0000   0.1705
  -8.600  -0.4485   0.08285   0.08082  -0.0328  1.0000  0.0146  -2.1137   0.0000   0.0000   0.0000   0.1717
  -8.500  -0.4505   0.08205   0.08003  -0.0325  1.0000  0.0149  -2.0980   0.0000   0.0000   0.0000   0.1730
  -8.400  -0.4535   0.08121   0.07921  -0.0320  1.0000  0.0151  -2.0912   0.0000   0.0000   0.0000   0.1746
  -8.300  -0.4573   0.08035   0.07836  -0.0315  1.0000  0.0153  -2.0923   0.0000   0.0000   0.0000   0.1764
  -8.200  -0.4622   0.07947   0.07751  -0.0309  1.0000  0.0155  -2.1009   0.0000   0.0000   0.0000   0.1786
  -8.100  -0.4685   0.07860   0.07665  -0.0302  1.0000  0.0156  -2.1178   0.0000   0.0000   0.0000   0.1812
  -8.000  -0.4766   0.07775   0.07582  -0.0292  1.0000  0.0155  -2.1463   0.0000   0.0000   0.0000   0.1844
  -7.900  -0.4880   0.07691   0.07501  -0.0280  1.0000  0.0153  -2.1953   0.0000   0.0000   0.0000   0.1886
  -7.800  -0.4960   0.07568   0.07381  -0.0281  0.9996  0.0152  -2.2371   0.0000   0.0000   0.0000   0.1894
  -7.700  -0.4868   0.07351   0.07163  -0.0323  0.9983  0.0159  -2.2046   0.0000   0.0000   0.0000   0.1798
  -7.600  -0.4772   0.07114   0.06924  -0.0366  0.9970  0.0167  -2.1849   0.0000   0.0000   0.0000   0.1696
  -7.500  -0.4693   0.06882   0.06690  -0.0403  0.9956  0.0174  -2.1809   0.0000   0.0000   0.0000   0.1605
  -7.400  -0.4616   0.06645   0.06451  -0.0439  0.9940  0.0183  -2.1851   0.0000   0.0000   0.0000   0.1514
  -7.300  -0.4529   0.06406   0.06209  -0.0473  0.9925  0.0192  -2.1925   0.0000   0.0000   0.0000   0.1420
  -7.200  -0.4425   0.06177   0.05975  -0.0507  0.9911  0.0205  -2.2014   0.0000   0.0000   0.0000   0.1320
  -7.100  -0.4182   0.06342   0.06139  -0.0511  0.9910  0.0234  -2.0587   0.0000   0.0000   0.0000   0.1242
  -7.000  -0.4077   0.06152   0.05945  -0.0537  0.9899  0.0236  -2.0581   0.0000   0.0000   0.0000   0.1147
  -6.900  -0.3977   0.05943   0.05730  -0.0562  0.9889  0.0237  -2.0660   0.0000   0.0000   0.0000   0.1049
  -6.800  -0.3877   0.05730   0.05512  -0.0587  0.9880  0.0238  -2.0758   0.0000   0.0000   0.0000   0.0949
  -6.700  -0.3775   0.05519   0.05295  -0.0610  0.9873  0.0238  -2.0857   0.0000   0.0000   0.0000   0.0846
  -6.600  -0.3697   0.05331   0.05100  -0.0625  0.9858  0.0239  -2.0953   0.0000   0.0000   0.0000   0.0771
  -6.500  -0.3636   0.05162   0.04925  -0.0634  0.9835  0.0239  -2.1038   0.0000   0.0000   0.0000   0.0719
  -6.400  -0.3558   0.04984   0.04741  -0.0645  0.9815  0.0240  -2.1108   0.0000   0.0000   0.0000   0.0648
  -6.300  -0.3471   0.04807   0.04555  -0.0658  0.9799  0.0240  -2.1154   0.0000   0.0000   0.0000   0.0566
  -5.600  -0.2856   0.02885   0.02521  -0.0761  0.9719  0.0260  -2.4434   0.0000   0.0000   0.0000  -0.0212
  -5.500  -0.2748   0.02747   0.02380  -0.0773  0.9715  0.0276  -2.3682   0.0000   0.0000   0.0000  -0.0359
  -5.400  -0.2726   0.02724   0.02358  -0.0758  0.9676  0.0284  -2.3016   0.0000   0.0000   0.0000  -0.0327
  -5.300  -0.2634   0.02719   0.02357  -0.0759  0.9658  0.0296  -2.1907   0.0000   0.0000   0.0000  -0.0426
  -5.200  -0.2529   0.02698   0.02337  -0.0762  0.9643  0.0309  -2.0959   0.0000   0.0000   0.0000  -0.0558
  -5.100  -0.2419   0.02649   0.02285  -0.0766  0.9630  0.0322  -2.0265   0.0000   0.0000   0.0000  -0.0711
  -5.000  -0.2304   0.02581   0.02211  -0.0769  0.9619  0.0335  -1.9755   0.0000   0.0000   0.0000  -0.0886
  -4.900  -0.2186   0.02506   0.02128  -0.0773  0.9608  0.0346  -1.9331   0.0000   0.0000   0.0000  -0.1086
  -4.800  -0.2065   0.02432   0.02046  -0.0777  0.9598  0.0358  -1.8930   0.0000   0.0000   0.0000  -0.1311
  -4.700  -0.1942   0.02367   0.01974  -0.0780  0.9588  0.0370  -1.8512   0.0000   0.0000   0.0000  -0.1569
  -4.600  -0.1815   0.02316   0.01916  -0.0784  0.9579  0.0384  -1.8053   0.0000   0.0000   0.0000  -0.1872
  -4.500  -0.1682   0.02289   0.01884  -0.0787  0.9570  0.0399  -1.7508   0.0000   0.0000   0.0000  -0.2236
  -4.400  -0.1536   0.02327   0.01921  -0.0790  0.9563  0.0415  -1.6720   0.0000   0.0000   0.0000  -0.2703
  -4.300  -0.1382   0.02425   0.02020  -0.0794  0.9557  0.0426  -1.5753   0.0000   0.0000   0.0000  -0.3308
  -4.200  -0.1252   0.02380   0.01967  -0.0797  0.9548  0.0428  -1.5313   0.0000   0.0000   0.0000  -0.3937
  -4.100  -0.1127   0.02309   0.01887  -0.0801  0.9539  0.0429  -1.4958   0.0000   0.0000   0.0000  -0.4677
  -4.000  -0.1079   0.01800   0.01334  -0.0802  0.9522  0.0462  -1.6187   0.0000   0.0000   0.0000  -0.5011
  -3.500  -0.0585   0.01273   0.00725  -0.0769  0.9426  0.0272  -1.7059   0.0000   0.0000   0.0000  -1.0790
  -3.400  -0.0465   0.01296   0.00749  -0.0768  0.9408  0.0255  -1.6323   0.0000   0.0000   0.0000  -1.4206
  -3.300  -0.0361   0.01197   0.00642  -0.0764  0.9389  0.0225  -1.6620   0.0000   0.0000   0.0000  -1.8874
  -3.200  -0.0257   0.01122   0.00559  -0.0760  0.9371  0.0214  -1.6598   0.0000   0.0000   0.0000  -2.7404
  -3.100  -0.0149   0.01067   0.00498  -0.0758  0.9354  0.0206  -1.6422   0.0000   0.0000   0.0000  -4.8802
  -3.000  -0.0039   0.01023   0.00447  -0.0756  0.9337  0.0199  -1.6164   0.0000   0.0000   0.0000  -19.0861
  -2.900   0.0072   0.00987   0.00404  -0.0755  0.9321  0.0193  -1.5838   0.0000   0.0000   0.0000  10.8622
  -2.800   0.0184   0.00957   0.00367  -0.0753  0.9305  0.0188  -1.5463   0.0000   0.0000   0.0000   4.3852
  -2.700   0.0297   0.00932   0.00336  -0.0752  0.9289  0.0184  -1.5044   0.0000   0.0000   0.0000   2.8035
  -2.600   0.0414   0.00912   0.00311  -0.0752  0.9273  0.0180  -1.4581   0.0000   0.0000   0.0000   2.0802
  -2.500   0.0533   0.00897   0.00291  -0.0753  0.9255  0.0178  -1.4081   0.0000   0.0000   0.0000   1.6729
  -2.400   0.0628   0.00885   0.00274  -0.0748  0.9234  0.0176  -1.3596   0.0000   0.0000   0.0000   1.4494
  -2.300   0.0726   0.00875   0.00260  -0.0745  0.9210  0.0175  -1.3076   0.0000   0.0000   0.0000   1.2819
  -2.200   0.0828   0.00866   0.00247  -0.0742  0.9186  0.0175  -1.2525   0.0000   0.0000   0.0000   1.1510
  -2.100   0.0934   0.00857   0.00234  -0.0740  0.9160  0.0176  -1.1956   0.0000   0.0000   0.0000   1.0466
  -2.000   0.1042   0.00849   0.00222  -0.0738  0.9135  0.0178  -1.1381   0.0000   0.0000   0.0000   0.9622
  -1.900   0.1151   0.00841   0.00210  -0.0737  0.9109  0.0183  -1.0811   0.0000   0.0000   0.0000   0.8929
  -1.800   0.1262   0.00832   0.00199  -0.0735  0.9083  0.0194  -1.0266   0.0000   0.0000   0.0000   0.8354
  -1.700   0.1372   0.00822   0.00190  -0.0734  0.9057  0.0218  -0.9751   0.0000   0.0000   0.0000   0.7870
  -1.600   0.1482   0.00802   0.00181  -0.0733  0.9031  0.0452  -0.9176   0.0000   0.0000   0.0000   0.7466
  -1.500   0.1591   0.00779   0.00173  -0.0733  0.9005  0.0846  -0.8538   0.0000   0.0000   0.0000   0.7125
  -1.400   0.1704   0.00766   0.00169  -0.0734  0.8977  0.1106  -0.7857   0.0000   0.0000   0.0000   0.6819
  -1.300   0.1811   0.00755   0.00165  -0.0733  0.8949  0.1342  -0.7192   0.0000   0.0000   0.0000   0.6559
  -1.200   0.1908   0.00741   0.00163  -0.0731  0.8922  0.1620  -0.6563   0.0000   0.0000   0.0000   0.6338
  -1.100   0.2006   0.00727   0.00159  -0.0729  0.8891  0.1934  -0.5938   0.0000   0.0000   0.0000   0.6138
  -1.000   0.2108   0.00715   0.00157  -0.0727  0.8859  0.2214  -0.5311   0.0000   0.0000   0.0000   0.5953
  -0.900   0.2210   0.00702   0.00153  -0.0725  0.8826  0.2549  -0.4694   0.0000   0.0000   0.0000   0.5786
  -0.800   0.2311   0.00683   0.00149  -0.0724  0.8792  0.3030  -0.4180   0.0000   0.0000   0.0000   0.5635
  -0.700   0.2412   0.00661   0.00146  -0.0723  0.8759  0.3614  -0.3945   0.0000   0.0000   0.0000   0.5497
  -0.600   0.2514   0.00639   0.00142  -0.0722  0.8725  0.4219  -0.4037   0.0000   0.0000   0.0000   0.5370
  -0.500   0.2616   0.00617   0.00139  -0.0720  0.8689  0.4832  -0.4128   0.0000   0.0000   0.0000   0.5253
  -0.400   0.2718   0.00597   0.00136  -0.0719  0.8646  0.5479  -0.4228   0.0000   0.0000   0.0000   0.5143
  -0.300   0.2811   0.00574   0.00137  -0.0716  0.8612  0.6220  -0.4329   0.0000   0.0000   0.0000   0.5044
  -0.200   0.2891   0.00550   0.00141  -0.0709  0.8583  0.7014  -0.4423   0.0000   0.0000   0.0000   0.4949
  -0.100   0.2976   0.00536   0.00145  -0.0703  0.8550  0.7579  -0.4520   0.0000   0.0000   0.0000   0.4856
   0.000   0.3064   0.00527   0.00149  -0.0696  0.8514  0.7980  -0.4622   0.0000   0.0000   0.0000   0.4766
   0.100   0.3151   0.00521   0.00153  -0.0689  0.8476  0.8302  -0.4739   0.0000   0.0000   0.0000   0.4680
   0.200   0.3227   0.00515   0.00159  -0.0678  0.8438  0.8699  -0.4848   0.0000   0.0000   0.0000   0.4594
   0.400   0.3292   0.00517   0.00178  -0.0631  0.8353  0.9491  -0.5015   0.0000   0.0000   0.0000   0.4408
   0.500   0.3411   0.00518   0.00177  -0.0631  0.8306  0.9542  -0.5153   0.0000   0.0000   0.0000   0.4341
   0.600   0.3531   0.00521   0.00176  -0.0632  0.8254  0.9590  -0.5292   0.0000   0.0000   0.0000   0.4279
   0.700   0.3637   0.00521   0.00177  -0.0630  0.8227  0.9644  -0.5422   0.0000   0.0000   0.0000   0.4220
   0.800   0.3735   0.00521   0.00177  -0.0626  0.8193  0.9697  -0.5564   0.0000   0.0000   0.0000   0.4164
   0.900   0.3884   0.00521   0.00176  -0.0634  0.8151  0.9724  -0.5751   0.0000   0.0000   0.0000   0.4119
   1.000   0.4034   0.00521   0.00175  -0.0642  0.8101  0.9751  -0.5940   0.0000   0.0000   0.0000   0.4077
   1.100   0.4186   0.00522   0.00174  -0.0650  0.8051  0.9778  -0.6130   0.0000   0.0000   0.0000   0.4038
   1.200   0.4338   0.00523   0.00173  -0.0658  0.8005  0.9805  -0.6323   0.0000   0.0000   0.0000   0.4003
   1.300   0.4488   0.00525   0.00172  -0.0666  0.7957  0.9829  -0.6544   0.0000   0.0000   0.0000   0.3969
   1.400   0.4630   0.00528   0.00171  -0.0673  0.7895  0.9853  -0.6769   0.0000   0.0000   0.0000   0.3937
   1.500   0.4780   0.00530   0.00171  -0.0681  0.7837  0.9870  -0.7002   0.0000   0.0000   0.0000   0.3908
   1.600   0.4943   0.00529   0.00171  -0.0693  0.7787  0.9882  -0.7249   0.0000   0.0000   0.0000   0.3883
   1.700   0.5102   0.00530   0.00170  -0.0703  0.7721  0.9896  -0.7539   0.0000   0.0000   0.0000   0.3860
   1.800   0.5257   0.00531   0.00170  -0.0713  0.7650  0.9912  -0.7833   0.0000   0.0000   0.0000   0.3837
   1.900   0.5406   0.00533   0.00168  -0.0721  0.7574  0.9929  -0.8123   0.0000   0.0000   0.0000   0.3814
   2.000   0.5549   0.00537   0.00167  -0.0728  0.7475  0.9947  -0.8410   0.0000   0.0000   0.0000   0.3791
   2.100   0.5692   0.00540   0.00167  -0.0735  0.7384  0.9964  -0.8697   0.0000   0.0000   0.0000   0.3770
   2.200   0.5839   0.00541   0.00166  -0.0743  0.7278  0.9978  -0.9022   0.0000   0.0000   0.0000   0.3751
   2.300   0.5982   0.00545   0.00165  -0.0750  0.7125  0.9994  -0.9400   0.0000   0.0000   0.0000   0.3731
   2.400   0.6082   0.00553   0.00164  -0.0748  0.6966  1.0000  -0.9717   0.0000   0.0000   0.0000   0.3707
   2.500   0.6166   0.00557   0.00165  -0.0743  0.6842  1.0000  -1.0011   0.0000   0.0000   0.0000   0.3681
   2.600   0.6239   0.00565   0.00166  -0.0735  0.6654  1.0000  -1.0289   0.0000   0.0000   0.0000   0.3653
   2.700   0.6305   0.00576   0.00167  -0.0726  0.6467  1.0000  -1.0559   0.0000   0.0000   0.0000   0.3626
   2.800   0.6383   0.00583   0.00169  -0.0719  0.6298  1.0000  -1.0848   0.0000   0.0000   0.0000   0.3601
   2.900   0.6447   0.00595   0.00172  -0.0710  0.6097  1.0000  -1.1117   0.0000   0.0000   0.0000   0.3574
   3.000   0.6519   0.00605   0.00175  -0.0702  0.5931  1.0000  -1.1400   0.0000   0.0000   0.0000   0.3549
   3.100   0.6590   0.00616   0.00179  -0.0694  0.5735  1.0000  -1.1683   0.0000   0.0000   0.0000   0.3525
   3.200   0.6648   0.00632   0.00184  -0.0684  0.5514  1.0000  -1.1947   0.0000   0.0000   0.0000   0.3499
   3.300   0.6726   0.00642   0.00189  -0.0677  0.5343  1.0000  -1.2244   0.0000   0.0000   0.0000   0.3477
   3.400   0.6784   0.00661   0.00196  -0.0667  0.5094  1.0000  -1.2511   0.0000   0.0000   0.0000   0.3453
   3.500   0.6856   0.00676   0.00201  -0.0660  0.4874  1.0000  -1.2801   0.0000   0.0000   0.0000   0.3431
   3.600   0.6913   0.00699   0.00210  -0.0650  0.4579  1.0000  -1.3069   0.0000   0.0000   0.0000   0.3407
   3.700   0.6988   0.00716   0.00216  -0.0643  0.4333  1.0000  -1.3366   0.0000   0.0000   0.0000   0.3387
   3.800   0.7043   0.00746   0.00235  -0.0633  0.3921  1.0000  -1.3640   0.0000   0.0000   0.0000   0.3365
   3.900   0.7031   0.00831   0.00257  -0.0613  0.2788  1.0000  -1.3787   0.0000   0.0000   0.0000   0.3337
   4.000   0.7058   0.00899   0.00278  -0.0600  0.1967  1.0000  -1.4000   0.0000   0.0000   0.0000   0.3315
   4.100   0.7134   0.00928   0.00289  -0.0595  0.1654  1.0000  -1.4384   0.0000   0.0000   0.0000   0.3298
   4.200   0.7215   0.00953   0.00299  -0.0591  0.1417  1.0000  -1.4788   0.0000   0.0000   0.0000   0.3281
   4.300   0.7302   0.00974   0.00310  -0.0587  0.1241  1.0000  -1.5211   0.0000   0.0000   0.0000   0.3266
   4.400   0.7389   0.00994   0.00320  -0.0584  0.1073  1.0000  -1.5641   0.0000   0.0000   0.0000   0.3251
   4.500   0.7480   0.01012   0.00330  -0.0581  0.0947  1.0000  -1.6084   0.0000   0.0000   0.0000   0.3237
   4.600   0.7570   0.01032   0.00340  -0.0578  0.0820  1.0000  -1.6618   0.0000   0.0000   0.0000   0.3223
   4.700   0.7667   0.01044   0.00349  -0.0576  0.0752  1.0000  -1.7301   0.0000   0.0000   0.0000   0.3209
   4.800   0.7760   0.01060   0.00359  -0.0573  0.0671  1.0000  -1.7981   0.0000   0.0000   0.0000   0.3196
   4.900   0.7854   0.01077   0.00369  -0.0571  0.0582  1.0000  -1.8668   0.0000   0.0000   0.0000   0.3183
   5.000   0.7952   0.01088   0.00378  -0.0569  0.0538  1.0000  -1.9386   0.0000   0.0000   0.0000   0.3171
   5.100   0.8048   0.01101   0.00388  -0.0567  0.0485  1.0000  -2.0106   0.0000   0.0000   0.0000   0.3159
   5.200   0.8139   0.01121   0.00400  -0.0564  0.0406  1.0000  -2.0816   0.0000   0.0000   0.0000   0.3147
   5.300   0.8236   0.01134   0.00410  -0.0562  0.0354  1.0000  -2.1563   0.0000   0.0000   0.0000   0.3135
   5.400   0.8334   0.01147   0.00419  -0.0560  0.0318  1.0000  -2.2326   0.0000   0.0000   0.0000   0.3124
   5.500   0.8426   0.01165   0.00433  -0.0557  0.0262  1.0000  -2.3081   0.0000   0.0000   0.0000   0.3113
   5.600   0.8519   0.01182   0.00445  -0.0555  0.0209  1.0000  -2.3859   0.0000   0.0000   0.0000   0.3101
   5.700   0.8618   0.01194   0.00455  -0.0553  0.0187  1.0000  -2.4677   0.0000   0.0000   0.0000   0.3091
   5.800   0.8699   0.01225   0.00477  -0.0549  0.0096  1.0000  -2.5442   0.0000   0.0000   0.0000   0.3079
   5.900   0.8797   0.01237   0.00488  -0.0547  0.0091  1.0000  -2.6313   0.0000   0.0000   0.0000   0.3069
   6.000   0.8896   0.01249   0.00498  -0.0545  0.0086  1.0000  -2.7218   0.0000   0.0000   0.0000   0.3059
   6.100   0.8994   0.01261   0.00508  -0.0543  0.0080  1.0000  -2.8159   0.0000   0.0000   0.0000   0.3049
   6.200   0.9092   0.01274   0.00520  -0.0541  0.0074  1.0000  -2.9148   0.0000   0.0000   0.0000   0.3039
   6.300   0.9189   0.01287   0.00532  -0.0539  0.0069  1.0000  -3.0192   0.0000   0.0000   0.0000   0.3029
   6.400   0.9286   0.01301   0.00545  -0.0537  0.0064  1.0000  -3.1286   0.0000   0.0000   0.0000   0.3020
   6.500   0.9383   0.01314   0.00560  -0.0534  0.0060  1.0000  -3.2417   0.0000   0.0000   0.0000   0.3010
   6.600   0.9480   0.01328   0.00576  -0.0532  0.0057  1.0000  -3.3572   0.0000   0.0000   0.0000   0.3001
   6.700   0.9577   0.01342   0.00592  -0.0530  0.0054  1.0000  -3.4736   0.0000   0.0000   0.0000   0.2992
   6.800   0.9673   0.01356   0.00609  -0.0527  0.0053  1.0000  -3.5902   0.0000   0.0000   0.0000   0.2982
   6.900   0.9769   0.01371   0.00627  -0.0525  0.0052  1.0000  -3.7072   0.0000   0.0000   0.0000   0.2973
   7.000   0.9865   0.01386   0.00646  -0.0522  0.0051  1.0000  -3.8243   0.0000   0.0000   0.0000   0.2964
   7.100   0.9960   0.01402   0.00666  -0.0519  0.0050  1.0000  -3.9416   0.0000   0.0000   0.0000   0.2955
   7.200   1.0054   0.01419   0.00686  -0.0516  0.0050  1.0000  -4.0588   0.0000   0.0000   0.0000   0.2946
   7.300   1.0147   0.01437   0.00708  -0.0513  0.0050  1.0000  -4.1761   0.0000   0.0000   0.0000   0.2938
   7.400   1.0239   0.01457   0.00732  -0.0510  0.0050  1.0000  -4.2929   0.0000   0.0000   0.0000   0.2929
   7.500   1.0330   0.01478   0.00757  -0.0507  0.0050  1.0000  -4.4092   0.0000   0.0000   0.0000   0.2920
   7.600   1.0429   0.01484   0.00780  -0.0506  0.0053  1.0000  -4.4414   0.0000   0.0000   0.0000   0.2913
   7.700   1.0519   0.01504   0.00806  -0.0502  0.0053  1.0000  -4.5515   0.0000   0.0000   0.0000   0.2905
   7.800   1.0608   0.01527   0.00834  -0.0499  0.0053  1.0000  -4.6669   0.0000   0.0000   0.0000   0.2896
   7.900   1.0695   0.01552   0.00864  -0.0494  0.0054  1.0000  -4.7835   0.0000   0.0000   0.0000   0.2887
   8.000   1.0779   0.01579   0.00897  -0.0490  0.0054  1.0000  -4.8995   0.0000   0.0000   0.0000   0.2878
   8.100   1.0862   0.01608   0.00933  -0.0485  0.0054  1.0000  -5.0137   0.0000   0.0000   0.0000   0.2868
   8.200   1.0942   0.01640   0.00971  -0.0480  0.0055  1.0000  -5.1250   0.0000   0.0000   0.0000   0.2859
   8.300   1.1019   0.01674   0.01013  -0.0474  0.0055  1.0000  -5.2320   0.0000   0.0000   0.0000   0.2849
   8.400   1.1093   0.01713   0.01059  -0.0467  0.0056  1.0000  -5.3328   0.0000   0.0000   0.0000   0.2839
   8.500   1.1161   0.01757   0.01112  -0.0459  0.0057  1.0000  -5.4249   0.0000   0.0000   0.0000   0.2829
   8.600   1.1224   0.01808   0.01172  -0.0451  0.0058  1.0000  -5.5055   0.0000   0.0000   0.0000   0.2817
   8.700   1.1280   0.01868   0.01241  -0.0441  0.0060  1.0000  -5.5734   0.0000   0.0000   0.0000   0.2805
   8.800   1.1331   0.01936   0.01320  -0.0430  0.0061  1.0000  -5.6290   0.0000   0.0000   0.0000   0.2793
   8.900   1.1376   0.02015   0.01412  -0.0419  0.0063  1.0000  -5.6722   0.0000   0.0000   0.0000   0.2780
   9.000   1.1418   0.02108   0.01517  -0.0406  0.0065  1.0000  -5.7033   0.0000   0.0000   0.0000   0.2767
   9.100   1.1458   0.02216   0.01639  -0.0394  0.0068  1.0000  -5.7223   0.0000   0.0000   0.0000   0.2753
   9.200   1.1496   0.02343   0.01781  -0.0382  0.0071  1.0000  -5.7281   0.0000   0.0000   0.0000   0.2740
   9.300   1.1530   0.02494   0.01951  -0.0369  0.0075  1.0000  -5.7140   0.0000   0.0000   0.0000   0.2727
   9.400   1.1557   0.02673   0.02149  -0.0355  0.0079  1.0000  -5.6808   0.0000   0.0000   0.0000   0.2714
   9.500   1.1568   0.02881   0.02379  -0.0341  0.0084  1.0000  -5.6248   0.0000   0.0000   0.0000   0.2700
   9.600   1.1550   0.03130   0.02652  -0.0323  0.0089  1.0000  -5.5348   0.0000   0.0000   0.0000   0.2684
   9.700   1.1465   0.03473   0.03025  -0.0299  0.0094  1.0000  -5.3619   0.0000   0.0000   0.0000   0.2665
  14.700   0.8525   0.17219   0.17016  -0.0688  0.0205  1.0000  -2.1217   0.0000   0.0000   0.0000   0.3171
  14.800   0.8567   0.17341   0.17139  -0.0696  0.0199  1.0000  -2.1424   0.0000   0.0000   0.0000   0.3175
  14.900   0.8595   0.17509   0.17306  -0.0705  0.0194  1.0000  -2.1418   0.0000   0.0000   0.0000   0.3182
  15.000   0.8615   0.17701   0.17499  -0.0715  0.0189  1.0000  -2.1283   0.0000   0.0000   0.0000   0.3191
  15.100   0.8630   0.17905   0.17703  -0.0725  0.0185  1.0000  -2.1091   0.0000   0.0000   0.0000   0.3201
  15.200   0.8643   0.18112   0.17909  -0.0736  0.0182  1.0000  -2.0892   0.0000   0.0000   0.0000   0.3211
  15.300   0.8655   0.18319   0.18117  -0.0747  0.0178  1.0000  -2.0691   0.0000   0.0000   0.0000   0.3221
  15.400   0.8667   0.18526   0.18323  -0.0757  0.0175  1.0000  -2.0509   0.0000   0.0000   0.0000   0.3231
  15.500   0.8680   0.18732   0.18528  -0.0767  0.0171  1.0000  -2.0347   0.0000   0.0000   0.0000   0.3241
  15.600   0.8694   0.18936   0.18733  -0.0777  0.0168  1.0000  -2.0204   0.0000   0.0000   0.0000   0.3249
  15.700   0.8708   0.19139   0.18936  -0.0787  0.0165  1.0000  -2.0078   0.0000   0.0000   0.0000   0.3258
  15.800   0.8723   0.19341   0.19137  -0.0796  0.0162  1.0000  -1.9968   0.0000   0.0000   0.0000   0.3266
  15.900   0.8739   0.19541   0.19338  -0.0806  0.0159  1.0000  -1.9873   0.0000   0.0000   0.0000   0.3274
  16.000   0.8754   0.19741   0.19538  -0.0815  0.0156  1.0000  -1.9791   0.0000   0.0000   0.0000   0.3282
  16.100   0.8771   0.19940   0.19737  -0.0824  0.0154  1.0000  -1.9723   0.0000   0.0000   0.0000   0.3289
  16.200   0.8788   0.20138   0.19934  -0.0833  0.0151  1.0000  -1.9668   0.0000   0.0000   0.0000   0.3296
  16.300   0.8805   0.20335   0.20132  -0.0841  0.0149  1.0000  -1.9625   0.0000   0.0000   0.0000   0.3303
  16.400   0.8822   0.20531   0.20328  -0.0850  0.0146  1.0000  -1.9593   0.0000   0.0000   0.0000   0.3310
  16.500   0.8840   0.20727   0.20524  -0.0859  0.0144  1.0000  -1.9571   0.0000   0.0000   0.0000   0.3316
  16.600   0.8858   0.20923   0.20719  -0.0867  0.0142  1.0000  -1.9560   0.0000   0.0000   0.0000   0.3323
  16.700   0.8877   0.21117   0.20914  -0.0876  0.0140  1.0000  -1.9559   0.0000   0.0000   0.0000   0.3329
  16.800   0.8895   0.21311   0.21108  -0.0884  0.0138  1.0000  -1.9569   0.0000   0.0000   0.0000   0.3335
  16.900   0.8914   0.21505   0.21302  -0.0892  0.0136  1.0000  -1.9588   0.0000   0.0000   0.0000   0.3341
  17.000   0.8933   0.21698   0.21495  -0.0900  0.0134  1.0000  -1.9617   0.0000   0.0000   0.0000   0.3346
  17.100   0.8953   0.21891   0.21688  -0.0908  0.0132  1.0000  -1.9655   0.0000   0.0000   0.0000   0.3352
  17.200   0.8973   0.22078   0.21875  -0.0916  0.0130  1.0000  -1.9739   0.0000   0.0000   0.0000   0.3356
  17.300   0.8996   0.22243   0.22040  -0.0923  0.0127  1.0000  -1.9993   0.0000   0.0000   0.0000   0.3360
  17.400   0.9020   0.22402   0.22200  -0.0929  0.0124  1.0000  -2.0292   0.0000   0.0000   0.0000   0.3363
  17.500   0.9045   0.22557   0.22355  -0.0935  0.0122  1.0000  -2.0638   0.0000   0.0000   0.0000   0.3365
  17.600   0.9071   0.22706   0.22504  -0.0941  0.0119  1.0000  -2.1037   0.0000   0.0000   0.0000   0.3366
  17.700   0.9098   0.22849   0.22648  -0.0946  0.0117  1.0000  -2.1497   0.0000   0.0000   0.0000   0.3367
  17.800   0.9127   0.22986   0.22785  -0.0950  0.0115  1.0000  -2.2027   0.0000   0.0000   0.0000   0.3366
  17.900   0.9154   0.23131   0.22930  -0.0954  0.0113  1.0000  -2.2536   0.0000   0.0000   0.0000   0.3366
  18.000   0.9172   0.23312   0.23111  -0.0961  0.0110  1.0000  -2.2816   0.0000   0.0000   0.0000   0.3369
  18.100   0.9182   0.23530   0.23330  -0.0967  0.0107  1.0000  -2.2939   0.0000   0.0000   0.0000   0.3374
  18.900   0.9179   0.26053   0.25850  -0.1047  0.0099  1.0000  -1.8559   0.0000   0.0000   0.0000   0.3453
  19.000   0.9194   0.26277   0.26075  -0.1055  0.0099  1.0000  -1.8474   0.0000   0.0000   0.0000   0.3459
  19.100   0.9209   0.26500   0.26299  -0.1063  0.0098  1.0000  -1.8392   0.0000   0.0000   0.0000   0.3464
  19.200   0.9224   0.26724   0.26522  -0.1071  0.0098  1.0000  -1.8312   0.0000   0.0000   0.0000   0.3470
  19.300   0.9238   0.26946   0.26745  -0.1079  0.0098  1.0000  -1.8234   0.0000   0.0000   0.0000   0.3475
  19.400   0.9252   0.27168   0.26968  -0.1087  0.0098  1.0000  -1.8160   0.0000   0.0000   0.0000   0.3481
  19.500   0.9266   0.27390   0.27189  -0.1094  0.0098  1.0000  -1.8089   0.0000   0.0000   0.0000   0.3486
  19.600   0.9279   0.27610   0.27410  -0.1102  0.0098  1.0000  -1.8023   0.0000   0.0000   0.0000   0.3492
  19.700   0.9292   0.27829   0.27629  -0.1110  0.0097  1.0000  -1.7961   0.0000   0.0000   0.0000   0.3497
  19.800   0.9305   0.28046   0.27846  -0.1118  0.0097  1.0000  -1.7905   0.0000   0.0000   0.0000   0.3502
  19.900   0.9318   0.28261   0.28062  -0.1125  0.0097  1.0000  -1.7853   0.0000   0.0000   0.0000   0.3507
  20.000   0.9330   0.28473   0.28274  -0.1133  0.0096  1.0000  -1.7808   0.0000   0.0000   0.0000   0.3513
  20.100   0.9343   0.28681   0.28483  -0.1141  0.0096  1.0000  -1.7775   0.0000   0.0000   0.0000   0.3518
  20.200   0.9356   0.28883   0.28685  -0.1148  0.0095  1.0000  -1.7758   0.0000   0.0000   0.0000   0.3523
  20.300   0.9370   0.29078   0.28880  -0.1156  0.0094  1.0000  -1.7761   0.0000   0.0000   0.0000   0.3528
  20.400   0.9386   0.29264   0.29067  -0.1164  0.0093  1.0000  -1.7774   0.0000   0.0000   0.0000   0.3533
  20.500   0.9402   0.29450   0.29253  -0.1173  0.0091  1.0000  -1.7730   0.0000   0.0000   0.0000   0.3539
  20.600   0.9419   0.29649   0.29453  -0.1182  0.0087  1.0000  -1.7609   0.0000   0.0000   0.0000   0.3545
  20.700   0.9432   0.29864   0.29668  -0.1190  0.0084  1.0000  -1.7453   0.0000   0.0000   0.0000   0.3551
  20.800   0.9442   0.30086   0.29890  -0.1198  0.0080  1.0000  -1.7305   0.0000   0.0000   0.0000   0.3556
  20.900   0.9448   0.30309   0.30114  -0.1204  0.0077  1.0000  -1.7181   0.0000   0.0000   0.0000   0.3561
  21.000   0.9452   0.30530   0.30335  -0.1211  0.0075  1.0000  -1.7077   0.0000   0.0000   0.0000   0.3567
  21.100   0.9454   0.30747   0.30553  -0.1217  0.0072  1.0000  -1.6988   0.0000   0.0000   0.0000   0.3572
  21.200   0.9453   0.30961   0.30767  -0.1223  0.0070  1.0000  -1.6909   0.0000   0.0000   0.0000   0.3577
  21.300   0.9451   0.31170   0.30977  -0.1229  0.0068  1.0000  -1.6836   0.0000   0.0000   0.0000   0.3582
  21.400   0.9445   0.31374   0.31182  -0.1235  0.0066  1.0000  -1.6766   0.0000   0.0000   0.0000   0.3588
  21.500   0.9437   0.31571   0.31380  -0.1240  0.0064  1.0000  -1.6696   0.0000   0.0000   0.0000   0.3593
  21.600   0.9426   0.31760   0.31570  -0.1245  0.0062  1.0000  -1.6623   0.0000   0.0000   0.0000   0.3599
  21.700   0.9410   0.31939   0.31750  -0.1249  0.0061  1.0000  -1.6544   0.0000   0.0000   0.0000   0.3605
  21.800   0.9387   0.32103   0.31915  -0.1253  0.0059  1.0000  -1.6452   0.0000   0.0000   0.0000   0.3611
  21.900   0.8899   0.31155   0.30976  -0.1209  0.0061  1.0000  -1.4963   0.0000   0.0000   0.0000   0.3642
  22.000   0.8832   0.31110   0.30932  -0.1208  0.0060  1.0000  -1.4740   0.0000   0.0000   0.0000   0.3651
  22.100   0.8781   0.31097   0.30921  -0.1207  0.0059  1.0000  -1.4568   0.0000   0.0000   0.0000   0.3658
  22.200   0.8739   0.31102   0.30927  -0.1208  0.0058  1.0000  -1.4428   0.0000   0.0000   0.0000   0.3665
  22.300   0.8703   0.31116   0.30943  -0.1209  0.0057  1.0000  -1.4309   0.0000   0.0000   0.0000   0.3671
  22.400   0.8672   0.31137   0.30964  -0.1211  0.0056  1.0000  -1.4206   0.0000   0.0000   0.0000   0.3677
  22.500   0.8643   0.31163   0.30992  -0.1212  0.0054  1.0000  -1.4118   0.0000   0.0000   0.0000   0.3683
  22.600   0.8618   0.31194   0.31023  -0.1214  0.0053  1.0000  -1.4042   0.0000   0.0000   0.0000   0.3689
  22.700   0.8595   0.31227   0.31058  -0.1217  0.0052  1.0000  -1.3978   0.0000   0.0000   0.0000   0.3694
  22.800   0.8574   0.31264   0.31095  -0.1219  0.0051  1.0000  -1.3924   0.0000   0.0000   0.0000   0.3699
  22.900   0.8555   0.31302   0.31135  -0.1222  0.0050  1.0000  -1.3879   0.0000   0.0000   0.0000   0.3705
  23.000   0.8537   0.31343   0.31176  -0.1224  0.0049  1.0000  -1.3844   0.0000   0.0000   0.0000   0.3710
  23.100   0.8521   0.31385   0.31219  -0.1227  0.0048  1.0000  -1.3817   0.0000   0.0000   0.0000   0.3715
  23.200   0.8506   0.31428   0.31263  -0.1230  0.0047  1.0000  -1.3799   0.0000   0.0000   0.0000   0.3719
  23.300   0.8492   0.31472   0.31308  -0.1233  0.0046  1.0000  -1.3788   0.0000   0.0000   0.0000   0.3724
  23.400   0.8479   0.31517   0.31353  -0.1236  0.0045  1.0000  -1.3786   0.0000   0.0000   0.0000   0.3729
  23.500   0.8469   0.31554   0.31395  -0.1239  0.0044  1.0000  -1.3945   0.0000   0.0000   0.0000   0.3733
  23.600   0.8459   0.31599   0.31440  -0.1242  0.0043  1.0000  -1.3989   0.0000   0.0000   0.0000   0.3737
  23.700   0.8448   0.31644   0.31485  -0.1245  0.0042  1.0000  -1.4033   0.0000   0.0000   0.0000   0.3741
  23.800   0.8439   0.31689   0.31532  -0.1249  0.0041  1.0000  -1.4081   0.0000   0.0000   0.0000   0.3745
  23.900   0.8430   0.31735   0.31578  -0.1252  0.0041  1.0000  -1.4135   0.0000   0.0000   0.0000   0.3749
  24.000   0.8421   0.31781   0.31625  -0.1255  0.0040  1.0000  -1.4194   0.0000   0.0000   0.0000   0.3753
  24.100   0.8413   0.31827   0.31672  -0.1259  0.0039  1.0000  -1.4260   0.0000   0.0000   0.0000   0.3757
  24.200   0.8406   0.31874   0.31719  -0.1262  0.0039  1.0000  -1.4333   0.0000   0.0000   0.0000   0.3761
  24.300   0.8399   0.31920   0.31766  -0.1265  0.0038  1.0000  -1.4411   0.0000   0.0000   0.0000   0.3765
  24.400   0.8392   0.31966   0.31813  -0.1269  0.0037  1.0000  -1.4497   0.0000   0.0000   0.0000   0.3768
  24.500   0.8386   0.32012   0.31859  -0.1272  0.0037  1.0000  -1.4589   0.0000   0.0000   0.0000   0.3772
  24.600   0.8380   0.32058   0.31906  -0.1275  0.0036  1.0000  -1.4688   0.0000   0.0000   0.0000   0.3775
  24.700   0.8374   0.32103   0.31952  -0.1279  0.0036  1.0000  -1.4792   0.0000   0.0000   0.0000   0.3779
  24.800   0.8369   0.32148   0.31998  -0.1282  0.0035  1.0000  -1.4902   0.0000   0.0000   0.0000   0.3782
  24.900   0.8364   0.32193   0.32044  -0.1285  0.0035  1.0000  -1.5017   0.0000   0.0000   0.0000   0.3785
  25.000   0.8359   0.32238   0.32089  -0.1288  0.0034  1.0000  -1.5135   0.0000   0.0000   0.0000   0.3788
  25.100   0.8354   0.32282   0.32134  -0.1292  0.0034  1.0000  -1.5256   0.0000   0.0000   0.0000   0.3791
  25.200   0.8349   0.32326   0.32179  -0.1295  0.0033  1.0000  -1.5376   0.0000   0.0000   0.0000   0.3794
  25.300   0.8343   0.32375   0.32229  -0.1298  0.0033  1.0000  -1.5442   0.0000   0.0000   0.0000   0.3798
  25.400   0.8336   0.32427   0.32280  -0.1301  0.0032  1.0000  -1.5469   0.0000   0.0000   0.0000   0.3801
  25.500   0.8328   0.32480   0.32334  -0.1304  0.0032  1.0000  -1.5457   0.0000   0.0000   0.0000   0.3805
  25.600   0.8317   0.32537   0.32392  -0.1307  0.0031  1.0000  -1.5361   0.0000   0.0000   0.0000   0.3809
  25.700   0.8296   0.32609   0.32465  -0.1309  0.0030  1.0000  -1.4928   0.0000   0.0000   0.0000   0.3814


