xflr5 v6.61

 Calculated polar for: SD7032-099-88

 1 1 Reynolds number fixed          Mach number fixed         

 xtrf =   1.000 (top)        1.000 (bottom)
 Mach =   0.000     Re =     0.688 e 6     Ncrit =   9.000

  alpha     CL        CD       CDp       Cm    Top Xtr Bot Xtr   Cpmin    Chinge    XCp    
 ------- -------- --------- --------- -------- ------- ------- -------- --------- ---------
 -10.000  -0.3183   0.10927   0.10712  -0.0307  1.0000  0.0087  -1.6982   0.0000   0.0000   0.0000   0.1443
  -9.900  -0.3161   0.10810   0.10596  -0.0311  1.0000  0.0090  -1.6875   0.0000   0.0000   0.0000   0.1424
  -9.800  -0.3139   0.10693   0.10480  -0.0315  1.0000  0.0092  -1.6781   0.0000   0.0000   0.0000   0.1404
  -9.700  -0.3119   0.10576   0.10364  -0.0319  1.0000  0.0094  -1.6701   0.0000   0.0000   0.0000   0.1385
  -9.600  -0.3099   0.10458   0.10247  -0.0323  1.0000  0.0097  -1.6635   0.0000   0.0000   0.0000   0.1366
  -9.500  -0.3081   0.10340   0.10129  -0.0327  1.0000  0.0100  -1.6582   0.0000   0.0000   0.0000   0.1347
  -9.400  -0.3063   0.10222   0.10012  -0.0331  1.0000  0.0103  -1.6543   0.0000   0.0000   0.0000   0.1328
  -9.300  -0.3047   0.10104   0.09895  -0.0335  1.0000  0.0106  -1.6516   0.0000   0.0000   0.0000   0.1311
  -9.200  -0.3031   0.09987   0.09779  -0.0339  1.0000  0.0109  -1.6503   0.0000   0.0000   0.0000   0.1294
  -9.100  -0.3018   0.09870   0.09664  -0.0342  1.0000  0.0112  -1.6504   0.0000   0.0000   0.0000   0.1278
  -9.000  -0.3006   0.09755   0.09550  -0.0346  1.0000  0.0115  -1.6519   0.0000   0.0000   0.0000   0.1264
  -8.900  -0.2996   0.09642   0.09438  -0.0348  1.0000  0.0119  -1.6550   0.0000   0.0000   0.0000   0.1253
  -8.800  -0.2989   0.09532   0.09329  -0.0350  1.0000  0.0123  -1.6596   0.0000   0.0000   0.0000   0.1244
  -8.700  -0.2986   0.09426   0.09224  -0.0352  1.0000  0.0127  -1.6659   0.0000   0.0000   0.0000   0.1238
  -8.600  -0.2986   0.09326   0.09125  -0.0353  1.0000  0.0131  -1.6738   0.0000   0.0000   0.0000   0.1237
  -8.500  -0.2994   0.09236   0.09037  -0.0351  1.0000  0.0134  -1.6833   0.0000   0.0000   0.0000   0.1247
  -8.400  -0.3020   0.09168   0.08971  -0.0345  1.0000  0.0137  -1.6943   0.0000   0.0000   0.0000   0.1281
  -8.200  -0.2972   0.08988   0.08794  -0.0357  0.9988  0.0149  -1.7010   0.0000   0.0000   0.0000   0.1223
  -8.100  -0.2858   0.08915   0.08721  -0.0375  0.9974  0.0156  -1.6545   0.0000   0.0000   0.0000   0.1109
  -8.000  -0.2776   0.08792   0.08597  -0.0394  0.9957  0.0158  -1.6358   0.0000   0.0000   0.0000   0.1002
  -7.900  -0.2705   0.08644   0.08450  -0.0413  0.9941  0.0160  -1.6297   0.0000   0.0000   0.0000   0.0892
  -7.800  -0.2636   0.08484   0.08290  -0.0433  0.9925  0.0160  -1.6291   0.0000   0.0000   0.0000   0.0774
  -7.700  -0.2566   0.08314   0.08120  -0.0455  0.9909  0.0161  -1.6316   0.0000   0.0000   0.0000   0.0643
  -7.600  -0.2492   0.08135   0.07941  -0.0479  0.9894  0.0161  -1.6362   0.0000   0.0000   0.0000   0.0494
  -7.500  -0.2414   0.07948   0.07754  -0.0504  0.9882  0.0162  -1.6427   0.0000   0.0000   0.0000   0.0325
  -7.400  -0.2333   0.07753   0.07560  -0.0532  0.9870  0.0162  -1.6508   0.0000   0.0000   0.0000   0.0133
  -7.300  -0.2266   0.07570   0.07377  -0.0556  0.9842  0.0162  -1.6610   0.0000   0.0000   0.0000  -0.0040
  -7.200  -0.2195   0.07378   0.07184  -0.0582  0.9814  0.0163  -1.6729   0.0000   0.0000   0.0000  -0.0241
  -7.100  -0.2118   0.07175   0.06982  -0.0612  0.9785  0.0163  -1.6866   0.0000   0.0000   0.0000  -0.0479
  -7.000  -0.2031   0.06956   0.06762  -0.0647  0.9759  0.0163  -1.7027   0.0000   0.0000   0.0000  -0.0780
  -6.900  -0.1930   0.06716   0.06522  -0.0689  0.9736  0.0163  -1.7219   0.0000   0.0000   0.0000  -0.1166
  -6.800  -0.1833   0.06470   0.06275  -0.0732  0.9706  0.0163  -1.7450   0.0000   0.0000   0.0000  -0.1593
  -6.700  -0.1780   0.06261   0.06065  -0.0761  0.9649  0.0163  -1.7712   0.0000   0.0000   0.0000  -0.1876
  -6.600  -0.1712   0.06028   0.05830  -0.0795  0.9598  0.0163  -1.8018   0.0000   0.0000   0.0000  -0.2243
  -6.300  -0.1528   0.05354   0.05143  -0.0871  0.9461  0.0164  -1.9011   0.0000   0.0000   0.0000  -0.3309
  -6.200  -0.1485   0.05160   0.04945  -0.0884  0.9413  0.0164  -1.9315   0.0000   0.0000   0.0000  -0.3566
  -6.100  -0.1441   0.04970   0.04749  -0.0896  0.9367  0.0164  -1.9587   0.0000   0.0000   0.0000  -0.3830
  -6.000  -0.1393   0.04783   0.04556  -0.0907  0.9325  0.0164  -1.9838   0.0000   0.0000   0.0000  -0.4126
  -5.900  -0.1341   0.04600   0.04366  -0.0917  0.9286  0.0164  -2.0062   0.0000   0.0000   0.0000  -0.4455
  -5.800  -0.1283   0.04421   0.04179  -0.0927  0.9245  0.0164  -2.0260   0.0000   0.0000   0.0000  -0.4843
  -5.700  -0.1227   0.04248   0.04000  -0.0934  0.9217  0.0164  -2.0426   0.0000   0.0000   0.0000  -0.5239
  -5.600  -0.1168   0.04079   0.03823  -0.0941  0.9184  0.0164  -2.0566   0.0000   0.0000   0.0000  -0.5689
  -5.500  -0.1106   0.03916   0.03651  -0.0947  0.9149  0.0164  -2.0673   0.0000   0.0000   0.0000  -0.6202
  -5.400  -0.1040   0.03757   0.03484  -0.0952  0.9113  0.0164  -2.0757   0.0000   0.0000   0.0000  -0.6794
  -5.300  -0.0971   0.03605   0.03316  -0.0956  0.9077  0.0164  -2.0829   0.0000   0.0000   0.0000  -0.7495
  -5.200  -0.0900   0.03453   0.03153  -0.0959  0.9042  0.0164  -2.0853   0.0000   0.0000   0.0000  -0.8316
  -5.100  -0.0826   0.03303   0.02993  -0.0961  0.9007  0.0164  -2.0855   0.0000   0.0000   0.0000  -0.9315
  -5.000  -0.0748   0.03157   0.02835  -0.0964  0.8969  0.0164  -2.0839   0.0000   0.0000   0.0000  -1.0582
  -4.900  -0.0665   0.03011   0.02678  -0.0967  0.8936  0.0164  -2.0809   0.0000   0.0000   0.0000  -1.2258
  -4.800  -0.0580   0.02863   0.02520  -0.0969  0.8914  0.0164  -2.0776   0.0000   0.0000   0.0000  -1.4451
  -4.600  -0.0478   0.01872   0.01449  -0.0983  0.8852  0.0134  -2.5771   0.0000   0.0000   0.0000  -1.8385
  -4.500  -0.0381   0.01622   0.01165  -0.0981  0.8824  0.0117  -2.7208   0.0000   0.0000   0.0000  -2.3656
  -4.400  -0.0277   0.01428   0.00942  -0.0977  0.8797  0.0105  -2.8315   0.0000   0.0000   0.0000  -3.3284
  -4.300  -0.0173   0.01278   0.00770  -0.0973  0.8768  0.0097  -2.9055   0.0000   0.0000   0.0000  -5.4738
  -4.200  -0.0068   0.01170   0.00645  -0.0970  0.8739  0.0092  -2.9333   0.0000   0.0000   0.0000  -14.2356
  -4.100   0.0037   0.01094   0.00554  -0.0966  0.8707  0.0089  -2.9261   0.0000   0.0000   0.0000  26.6957
  -4.000   0.0143   0.01039   0.00488  -0.0963  0.8673  0.0088  -2.8909   0.0000   0.0000   0.0000   7.0846
  -3.900   0.0250   0.00998   0.00438  -0.0961  0.8635  0.0087  -2.8364   0.0000   0.0000   0.0000   4.1396
  -3.800   0.0361   0.00967   0.00399  -0.0960  0.8597  0.0087  -2.7681   0.0000   0.0000   0.0000   2.9463
  -3.700   0.0471   0.00940   0.00367  -0.0959  0.8576  0.0088  -2.6900   0.0000   0.0000   0.0000   2.3088
  -3.600   0.0583   0.00918   0.00340  -0.0958  0.8550  0.0089  -2.6050   0.0000   0.0000   0.0000   1.9127
  -3.500   0.0695   0.00899   0.00318  -0.0957  0.8521  0.0091  -2.5148   0.0000   0.0000   0.0000   1.6429
  -3.400   0.0807   0.00883   0.00298  -0.0956  0.8491  0.0095  -2.4204   0.0000   0.0000   0.0000   1.4477
  -3.300   0.0919   0.00869   0.00282  -0.0955  0.8459  0.0099  -2.3229   0.0000   0.0000   0.0000   1.3002
  -3.200   0.1031   0.00858   0.00268  -0.0955  0.8424  0.0106  -2.2243   0.0000   0.0000   0.0000   1.1850
  -3.100   0.1143   0.00849   0.00257  -0.0954  0.8387  0.0113  -2.1280   0.0000   0.0000   0.0000   1.0928
  -3.000   0.1253   0.00842   0.00248  -0.0953  0.8347  0.0121  -2.0365   0.0000   0.0000   0.0000   1.0173
  -2.900   0.1363   0.00836   0.00240  -0.0951  0.8303  0.0129  -1.9496   0.0000   0.0000   0.0000   0.9542
  -2.800   0.1473   0.00832   0.00233  -0.0950  0.8252  0.0138  -1.8659   0.0000   0.0000   0.0000   0.9007
  -2.700   0.1585   0.00828   0.00228  -0.0950  0.8214  0.0145  -1.7829   0.0000   0.0000   0.0000   0.8542
  -2.600   0.1698   0.00824   0.00226  -0.0950  0.8186  0.0152  -1.6982   0.0000   0.0000   0.0000   0.8139
  -2.500   0.1810   0.00821   0.00225  -0.0950  0.8152  0.0157  -1.6092   0.0000   0.0000   0.0000   0.7787
  -2.400   0.1921   0.00821   0.00228  -0.0950  0.8114  0.0160  -1.5165   0.0000   0.0000   0.0000   0.7478
  -2.300   0.2033   0.00823   0.00233  -0.0950  0.8074  0.0163  -1.4228   0.0000   0.0000   0.0000   0.7203
  -2.100   0.2259   0.00783   0.00184  -0.0948  0.7985  0.0329  -1.4117   0.0000   0.0000   0.0000   0.6719
  -2.000   0.2368   0.00770   0.00177  -0.0947  0.7933  0.0518  -1.3516   0.0000   0.0000   0.0000   0.6521
  -1.900   0.2476   0.00762   0.00171  -0.0947  0.7873  0.0680  -1.2912   0.0000   0.0000   0.0000   0.6340
  -1.800   0.2587   0.00754   0.00166  -0.0947  0.7815  0.0826  -1.2302   0.0000   0.0000   0.0000   0.6173
  -1.700   0.2699   0.00740   0.00163  -0.0947  0.7782  0.1074  -1.1690   0.0000   0.0000   0.0000   0.6022
  -1.600   0.2809   0.00721   0.00159  -0.0948  0.7740  0.1497  -1.1081   0.0000   0.0000   0.0000   0.5885
  -1.500   0.2914   0.00675   0.00157  -0.0951  0.7692  0.2711  -1.0487   0.0000   0.0000   0.0000   0.5770
  -1.400   0.3027   0.00675   0.00149  -0.0950  0.7639  0.2708  -0.9623   0.0000   0.0000   0.0000   0.5644
  -1.300   0.3137   0.00665   0.00146  -0.0950  0.7586  0.3034  -0.9083   0.0000   0.0000   0.0000   0.5532
  -1.100   0.3354   0.00647   0.00141  -0.0949  0.7467  0.3724  -0.8025   0.0000   0.0000   0.0000   0.5331
  -1.000   0.3462   0.00640   0.00139  -0.0949  0.7397  0.4071  -0.7505   0.0000   0.0000   0.0000   0.5241
  -0.800   0.3684   0.00620   0.00139  -0.0949  0.7321  0.4768  -0.6469   0.0000   0.0000   0.0000   0.5074
  -0.700   0.3795   0.00614   0.00139  -0.0949  0.7268  0.5063  -0.6341   0.0000   0.0000   0.0000   0.4997
  -0.600   0.3904   0.00607   0.00138  -0.0949  0.7204  0.5372  -0.6446   0.0000   0.0000   0.0000   0.4924
  -0.500   0.4012   0.00603   0.00138  -0.0948  0.7133  0.5634  -0.6550   0.0000   0.0000   0.0000   0.4855
  -0.400   0.4117   0.00601   0.00138  -0.0946  0.7055  0.5903  -0.6654   0.0000   0.0000   0.0000   0.4790
  -0.300   0.4222   0.00599   0.00138  -0.0945  0.6967  0.6183  -0.6757   0.0000   0.0000   0.0000   0.4728
  -0.200   0.4330   0.00593   0.00140  -0.0944  0.6916  0.6530  -0.6862   0.0000   0.0000   0.0000   0.4669
  -0.100   0.4434   0.00583   0.00143  -0.0942  0.6879  0.6977  -0.6965   0.0000   0.0000   0.0000   0.4613
   0.000   0.4536   0.00575   0.00146  -0.0939  0.6832  0.7376  -0.7068   0.0000   0.0000   0.0000   0.4558
   0.100   0.4637   0.00570   0.00148  -0.0936  0.6777  0.7702  -0.7170   0.0000   0.0000   0.0000   0.4505
   0.200   0.4737   0.00567   0.00150  -0.0933  0.6716  0.8000  -0.7271   0.0000   0.0000   0.0000   0.4454
   0.300   0.4830   0.00564   0.00152  -0.0927  0.6650  0.8278  -0.7369   0.0000   0.0000   0.0000   0.4405
   0.400   0.4922   0.00564   0.00153  -0.0922  0.6577  0.8530  -0.7471   0.0000   0.0000   0.0000   0.4357
   0.500   0.5008   0.00563   0.00155  -0.0915  0.6494  0.8792  -0.7579   0.0000   0.0000   0.0000   0.4311
   0.600   0.5095   0.00560   0.00155  -0.0909  0.6447  0.9029  -0.7688   0.0000   0.0000   0.0000   0.4265
   0.700   0.5188   0.00555   0.00155  -0.0903  0.6410  0.9280  -0.7801   0.0000   0.0000   0.0000   0.4221
   0.800   0.5314   0.00551   0.00152  -0.0905  0.6357  0.9597  -0.7937   0.0000   0.0000   0.0000   0.4183
   0.900   0.5482   0.00552   0.00150  -0.0917  0.6285  1.0000  -0.8099   0.0000   0.0000   0.0000   0.4152
   1.000   0.5591   0.00557   0.00150  -0.0916  0.6207  1.0000  -0.8242   0.0000   0.0000   0.0000   0.4117
   1.100   0.5698   0.00565   0.00151  -0.0916  0.6117  1.0000  -0.8384   0.0000   0.0000   0.0000   0.4084
   1.200   0.5805   0.00573   0.00153  -0.0915  0.6014  1.0000  -0.8525   0.0000   0.0000   0.0000   0.4053
   1.300   0.5918   0.00577   0.00154  -0.0915  0.5959  1.0000  -0.8672   0.0000   0.0000   0.0000   0.4022
   1.400   0.6031   0.00580   0.00155  -0.0916  0.5915  1.0000  -0.8819   0.0000   0.0000   0.0000   0.3993
   1.500   0.6143   0.00584   0.00157  -0.0916  0.5855  1.0000  -0.8967   0.0000   0.0000   0.0000   0.3965
   1.600   0.6253   0.00590   0.00158  -0.0916  0.5781  1.0000  -0.9113   0.0000   0.0000   0.0000   0.3937
   1.700   0.6360   0.00597   0.00160  -0.0915  0.5695  1.0000  -0.9258   0.0000   0.0000   0.0000   0.3911
   1.800   0.6465   0.00607   0.00163  -0.0914  0.5596  1.0000  -0.9401   0.0000   0.0000   0.0000   0.3885
   1.900   0.6572   0.00616   0.00166  -0.0913  0.5491  1.0000  -0.9546   0.0000   0.0000   0.0000   0.3860
   2.000   0.6685   0.00618   0.00168  -0.0914  0.5458  1.0000  -0.9696   0.0000   0.0000   0.0000   0.3836
   2.100   0.6798   0.00622   0.00170  -0.0914  0.5415  1.0000  -0.9847   0.0000   0.0000   0.0000   0.3813
   2.200   0.6909   0.00627   0.00176  -0.0914  0.5362  1.0000  -1.0007   0.0000   0.0000   0.0000   0.3791
   2.300   0.7018   0.00633   0.00178  -0.0914  0.5299  1.0000  -1.0180   0.0000   0.0000   0.0000   0.3769
   2.400   0.7126   0.00640   0.00181  -0.0914  0.5229  1.0000  -1.0353   0.0000   0.0000   0.0000   0.3748
   2.500   0.7232   0.00649   0.00185  -0.0913  0.5148  1.0000  -1.0524   0.0000   0.0000   0.0000   0.3727
   2.600   0.7337   0.00659   0.00189  -0.0912  0.5047  1.0000  -1.0694   0.0000   0.0000   0.0000   0.3707
   2.700   0.7447   0.00665   0.00192  -0.0912  0.4981  1.0000  -1.0870   0.0000   0.0000   0.0000   0.3687
   2.800   0.7558   0.00669   0.00195  -0.0912  0.4938  1.0000  -1.1048   0.0000   0.0000   0.0000   0.3669
   2.900   0.7668   0.00674   0.00198  -0.0912  0.4877  1.0000  -1.1226   0.0000   0.0000   0.0000   0.3650
   3.000   0.7776   0.00681   0.00202  -0.0911  0.4803  1.0000  -1.1402   0.0000   0.0000   0.0000   0.3632
   3.100   0.7881   0.00691   0.00206  -0.0911  0.4723  1.0000  -1.1577   0.0000   0.0000   0.0000   0.3615
   3.200   0.7986   0.00701   0.00211  -0.0910  0.4637  1.0000  -1.1751   0.0000   0.0000   0.0000   0.3597
   3.300   0.8090   0.00711   0.00216  -0.0909  0.4542  1.0000  -1.1925   0.0000   0.0000   0.0000   0.3581
   3.400   0.8200   0.00717   0.00220  -0.0909  0.4491  1.0000  -1.2105   0.0000   0.0000   0.0000   0.3565
   3.500   0.8311   0.00721   0.00224  -0.0909  0.4457  1.0000  -1.2287   0.0000   0.0000   0.0000   0.3549
   3.600   0.8421   0.00726   0.00228  -0.0909  0.4412  1.0000  -1.2468   0.0000   0.0000   0.0000   0.3534
   3.700   0.8529   0.00733   0.00233  -0.0909  0.4357  1.0000  -1.2650   0.0000   0.0000   0.0000   0.3519
   3.800   0.8636   0.00741   0.00238  -0.0908  0.4293  1.0000  -1.2860   0.0000   0.0000   0.0000   0.3504
   3.900   0.8740   0.00751   0.00244  -0.0907  0.4222  1.0000  -1.3069   0.0000   0.0000   0.0000   0.3490
   4.000   0.8843   0.00763   0.00250  -0.0906  0.4138  1.0000  -1.3277   0.0000   0.0000   0.0000   0.3475
   4.100   0.8947   0.00773   0.00256  -0.0905  0.4044  1.0000  -1.3485   0.0000   0.0000   0.0000   0.3461
   4.200   0.9057   0.00779   0.00262  -0.0905  0.4005  1.0000  -1.3702   0.0000   0.0000   0.0000   0.3448
   4.300   0.9166   0.00784   0.00266  -0.0905  0.3970  1.0000  -1.3920   0.0000   0.0000   0.0000   0.3435
   4.400   0.9274   0.00791   0.00272  -0.0905  0.3919  1.0000  -1.4157   0.0000   0.0000   0.0000   0.3422
   4.500   0.9380   0.00800   0.00278  -0.0905  0.3853  1.0000  -1.4416   0.0000   0.0000   0.0000   0.3409
   4.600   0.9483   0.00811   0.00284  -0.0904  0.3776  1.0000  -1.4671   0.0000   0.0000   0.0000   0.3397
   4.700   0.9583   0.00824   0.00292  -0.0902  0.3687  1.0000  -1.4925   0.0000   0.0000   0.0000   0.3384
   4.800   0.9685   0.00837   0.00300  -0.0901  0.3590  1.0000  -1.5179   0.0000   0.0000   0.0000   0.3372
   4.900   0.9792   0.00845   0.00307  -0.0901  0.3540  1.0000  -1.5443   0.0000   0.0000   0.0000   0.3361
   5.000   0.9900   0.00850   0.00313  -0.0901  0.3512  1.0000  -1.5761   0.0000   0.0000   0.0000   0.3349
   5.100   1.0008   0.00857   0.00319  -0.0900  0.3468  1.0000  -1.6084   0.0000   0.0000   0.0000   0.3338
   5.200   1.0113   0.00866   0.00326  -0.0900  0.3408  1.0000  -1.6405   0.0000   0.0000   0.0000   0.3327
   5.300   1.0214   0.00878   0.00334  -0.0899  0.3334  1.0000  -1.6723   0.0000   0.0000   0.0000   0.3316
   5.400   1.0313   0.00893   0.00343  -0.0897  0.3250  1.0000  -1.7072   0.0000   0.0000   0.0000   0.3305
   5.500   1.0412   0.00907   0.00352  -0.0896  0.3153  1.0000  -1.7475   0.0000   0.0000   0.0000   0.3294
   5.600   1.0516   0.00917   0.00361  -0.0895  0.3090  1.0000  -1.7889   0.0000   0.0000   0.0000   0.3284
   5.700   1.0624   0.00923   0.00368  -0.0895  0.3065  1.0000  -1.8316   0.0000   0.0000   0.0000   0.3274
   5.800   1.0725   0.00935   0.00391  -0.0894  0.2959  1.0000  -1.8779   0.0000   0.0000   0.0000   0.3264
   5.900   1.0787   0.00986   0.00409  -0.0888  0.2505  1.0000  -1.9116   0.0000   0.0000   0.0000   0.3252
   6.000   1.0852   0.01034   0.00430  -0.0882  0.2117  1.0000  -1.9458   0.0000   0.0000   0.0000   0.3241
   6.100   1.0931   0.01070   0.00449  -0.0879  0.1881  1.0000  -1.9827   0.0000   0.0000   0.0000   0.3231
   6.200   1.1027   0.01088   0.00461  -0.0877  0.1778  1.0000  -2.0233   0.0000   0.0000   0.0000   0.3221
   6.300   1.1115   0.01113   0.00476  -0.0875  0.1650  1.0000  -2.0627   0.0000   0.0000   0.0000   0.3211
   6.400   1.1205   0.01137   0.00492  -0.0872  0.1514  1.0000  -2.1025   0.0000   0.0000   0.0000   0.3202
   6.500   1.1303   0.01151   0.00503  -0.0871  0.1456  1.0000  -2.1446   0.0000   0.0000   0.0000   0.3193
   6.600   1.1395   0.01172   0.00518  -0.0869  0.1363  1.0000  -2.1853   0.0000   0.0000   0.0000   0.3183
   6.700   1.1480   0.01200   0.00535  -0.0866  0.1240  1.0000  -2.2249   0.0000   0.0000   0.0000   0.3174
   6.800   1.1575   0.01217   0.00549  -0.0864  0.1162  1.0000  -2.2668   0.0000   0.0000   0.0000   0.3165
   6.900   1.1666   0.01237   0.00565  -0.0862  0.1081  1.0000  -2.3083   0.0000   0.0000   0.0000   0.3156
   7.000   1.1744   0.01272   0.00587  -0.0858  0.0944  1.0000  -2.3467   0.0000   0.0000   0.0000   0.3146
   7.100   1.1832   0.01296   0.00604  -0.0855  0.0837  1.0000  -2.3877   0.0000   0.0000   0.0000   0.3137
   7.200   1.1903   0.01337   0.00633  -0.0851  0.0689  1.0000  -2.4405   0.0000   0.0000   0.0000   0.3128
   7.400   1.2063   0.01400   0.00680  -0.0843  0.0481  1.0000  -2.5886   0.0000   0.0000   0.0000   0.3110
   7.500   1.2150   0.01423   0.00699  -0.0840  0.0414  1.0000  -2.6675   0.0000   0.0000   0.0000   0.3101
   7.600   1.2233   0.01450   0.00721  -0.0837  0.0351  1.0000  -2.7454   0.0000   0.0000   0.0000   0.3092
   7.700   1.2312   0.01481   0.00745  -0.0833  0.0275  1.0000  -2.8227   0.0000   0.0000   0.0000   0.3083
   7.800   1.2403   0.01498   0.00761  -0.0831  0.0250  1.0000  -2.9070   0.0000   0.0000   0.0000   0.3075
   7.900   1.2433   0.01578   0.00825  -0.0820  0.0060  1.0000  -2.9626   0.0000   0.0000   0.0000   0.3063
   8.000   1.2525   0.01594   0.00841  -0.0817  0.0057  1.0000  -3.0494   0.0000   0.0000   0.0000   0.3055
   8.100   1.2615   0.01611   0.00857  -0.0815  0.0054  1.0000  -3.1376   0.0000   0.0000   0.0000   0.3047
   8.200   1.2706   0.01627   0.00872  -0.0812  0.0051  1.0000  -3.2275   0.0000   0.0000   0.0000   0.3039
   8.300   1.2797   0.01642   0.00888  -0.0810  0.0048  1.0000  -3.3193   0.0000   0.0000   0.0000   0.3031
   8.400   1.2888   0.01658   0.00903  -0.0808  0.0046  1.0000  -3.4131   0.0000   0.0000   0.0000   0.3024
   8.500   1.2977   0.01674   0.00920  -0.0805  0.0043  1.0000  -3.5082   0.0000   0.0000   0.0000   0.3016
   8.600   1.3064   0.01692   0.00937  -0.0802  0.0040  1.0000  -3.6050   0.0000   0.0000   0.0000   0.3008
   8.700   1.3151   0.01710   0.00955  -0.0799  0.0037  1.0000  -3.7043   0.0000   0.0000   0.0000   0.3000
   8.800   1.3238   0.01728   0.00973  -0.0796  0.0034  1.0000  -3.8064   0.0000   0.0000   0.0000   0.2992
   8.900   1.3323   0.01747   0.00993  -0.0793  0.0031  1.0000  -3.9111   0.0000   0.0000   0.0000   0.2985
   9.000   1.3407   0.01766   0.01013  -0.0789  0.0029  1.0000  -4.0188   0.0000   0.0000   0.0000   0.2977
   9.100   1.3490   0.01785   0.01034  -0.0786  0.0027  1.0000  -4.1295   0.0000   0.0000   0.0000   0.2969
   9.200   1.3581   0.01795   0.01057  -0.0784  0.0040  1.0000  -4.1289   0.0000   0.0000   0.0000   0.2962
   9.300   1.3664   0.01813   0.01077  -0.0781  0.0040  1.0000  -4.2157   0.0000   0.0000   0.0000   0.2955
   9.400   1.3745   0.01833   0.01098  -0.0777  0.0038  1.0000  -4.3173   0.0000   0.0000   0.0000   0.2947
   9.500   1.3824   0.01854   0.01119  -0.0773  0.0035  1.0000  -4.4269   0.0000   0.0000   0.0000   0.2939
   9.600   1.3901   0.01876   0.01142  -0.0768  0.0031  1.0000  -4.5431   0.0000   0.0000   0.0000   0.2932
   9.700   1.3977   0.01898   0.01166  -0.0764  0.0028  1.0000  -4.6657   0.0000   0.0000   0.0000   0.2924
   9.800   1.4052   0.01920   0.01191  -0.0759  0.0026  1.0000  -4.7922   0.0000   0.0000   0.0000   0.2916
   9.900   1.4125   0.01943   0.01217  -0.0754  0.0024  1.0000  -4.9192   0.0000   0.0000   0.0000   0.2908
  10.000   1.4195   0.01966   0.01244  -0.0748  0.0023  1.0000  -5.0441   0.0000   0.0000   0.0000   0.2899
  10.100   1.4260   0.01989   0.01271  -0.0741  0.0022  1.0000  -5.1654   0.0000   0.0000   0.0000   0.2891
  10.200   1.4322   0.02014   0.01300  -0.0734  0.0022  1.0000  -5.2844   0.0000   0.0000   0.0000   0.2882
  10.300   1.4382   0.02039   0.01329  -0.0727  0.0021  1.0000  -5.4013   0.0000   0.0000   0.0000   0.2873
  10.400   1.4439   0.02065   0.01359  -0.0719  0.0021  1.0000  -5.5165   0.0000   0.0000   0.0000   0.2864
  10.500   1.4493   0.02093   0.01392  -0.0711  0.0021  1.0000  -5.6291   0.0000   0.0000   0.0000   0.2855
  10.600   1.4545   0.02122   0.01426  -0.0703  0.0020  1.0000  -5.7399   0.0000   0.0000   0.0000   0.2846
  10.700   1.4595   0.02153   0.01462  -0.0695  0.0020  1.0000  -5.8494   0.0000   0.0000   0.0000   0.2837
  10.800   1.4642   0.02186   0.01500  -0.0687  0.0020  1.0000  -5.9573   0.0000   0.0000   0.0000   0.2828
  10.900   1.4686   0.02221   0.01539  -0.0678  0.0020  1.0000  -6.0627   0.0000   0.0000   0.0000   0.2819
  11.000   1.4728   0.02257   0.01581  -0.0669  0.0020  1.0000  -6.1667   0.0000   0.0000   0.0000   0.2811
  11.100   1.4768   0.02295   0.01623  -0.0660  0.0020  1.0000  -6.2700   0.0000   0.0000   0.0000   0.2802
  11.200   1.4807   0.02335   0.01668  -0.0652  0.0020  1.0000  -6.3719   0.0000   0.0000   0.0000   0.2793
  11.300   1.4841   0.02378   0.01716  -0.0643  0.0020  1.0000  -6.4710   0.0000   0.0000   0.0000   0.2784
  11.400   1.4873   0.02422   0.01765  -0.0634  0.0020  1.0000  -6.5681   0.0000   0.0000   0.0000   0.2775
  11.500   1.4903   0.02468   0.01817  -0.0624  0.0020  1.0000  -6.6643   0.0000   0.0000   0.0000   0.2767
  11.600   1.4932   0.02517   0.01870  -0.0616  0.0021  1.0000  -6.7595   0.0000   0.0000   0.0000   0.2758
  11.700   1.4955   0.02569   0.01928  -0.0606  0.0021  1.0000  -6.8508   0.0000   0.0000   0.0000   0.2750
  11.800   1.4977   0.02624   0.01988  -0.0597  0.0021  1.0000  -6.9404   0.0000   0.0000   0.0000   0.2741
  11.900   1.4997   0.02681   0.02051  -0.0589  0.0021  1.0000  -7.0293   0.0000   0.0000   0.0000   0.2733
  12.000   1.5017   0.02741   0.02116  -0.0580  0.0021  1.0000  -7.1173   0.0000   0.0000   0.0000   0.2725
  12.100   1.5029   0.02806   0.02187  -0.0571  0.0022  1.0000  -7.2000   0.0000   0.0000   0.0000   0.2717
  12.200   1.5039   0.02874   0.02261  -0.0563  0.0022  1.0000  -7.2798   0.0000   0.0000   0.0000   0.2710
  12.300   1.5048   0.02944   0.02337  -0.0555  0.0022  1.0000  -7.3594   0.0000   0.0000   0.0000   0.2702
  12.400   1.5056   0.03017   0.02416  -0.0547  0.0022  1.0000  -7.4373   0.0000   0.0000   0.0000   0.2695
  12.500   1.5053   0.03096   0.02501  -0.0538  0.0023  1.0000  -7.5069   0.0000   0.0000   0.0000   0.2687
  12.600   1.5047   0.03180   0.02591  -0.0530  0.0023  1.0000  -7.5729   0.0000   0.0000   0.0000   0.2680
  12.700   1.5043   0.03267   0.02684  -0.0523  0.0023  1.0000  -7.6398   0.0000   0.0000   0.0000   0.2674
  12.800   1.5039   0.03358   0.02782  -0.0516  0.0024  1.0000  -7.7053   0.0000   0.0000   0.0000   0.2667
  12.900   1.5024   0.03460   0.02890  -0.0510  0.0024  1.0000  -7.7616   0.0000   0.0000   0.0000   0.2661
  13.000   1.5009   0.03567   0.03003  -0.0504  0.0024  1.0000  -7.8161   0.0000   0.0000   0.0000   0.2656
  13.100   1.4995   0.03676   0.03119  -0.0498  0.0025  1.0000  -7.8702   0.0000   0.0000   0.0000   0.2650
  13.200   1.4976   0.03792   0.03243  -0.0493  0.0025  1.0000  -7.9189   0.0000   0.0000   0.0000   0.2645
  13.300   1.4947   0.03922   0.03380  -0.0489  0.0025  1.0000  -7.9574   0.0000   0.0000   0.0000   0.2641
  13.400   1.4920   0.04054   0.03519  -0.0485  0.0026  1.0000  -7.9954   0.0000   0.0000   0.0000   0.2637
  13.500   1.4892   0.04190   0.03662  -0.0481  0.0026  1.0000  -8.0298   0.0000   0.0000   0.0000   0.2633
  13.600   1.4851   0.04343   0.03824  -0.0479  0.0027  1.0000  -8.0522   0.0000   0.0000   0.0000   0.2631
  13.700   1.4810   0.04501   0.03988  -0.0477  0.0027  1.0000  -8.0715   0.0000   0.0000   0.0000   0.2628
  13.800   1.4769   0.04660   0.04156  -0.0476  0.0028  1.0000  -8.0871   0.0000   0.0000   0.0000   0.2626
  13.900   1.4718   0.04836   0.04340  -0.0475  0.0028  1.0000  -8.0929   0.0000   0.0000   0.0000   0.2625
  14.000   1.4663   0.05021   0.04533  -0.0476  0.0029  1.0000  -8.0932   0.0000   0.0000   0.0000   0.2624
  14.100   1.4610   0.05203   0.04723  -0.0476  0.0029  1.0000  -8.0911   0.0000   0.0000   0.0000   0.2623
  14.200   1.4549   0.05391   0.04920  -0.0477  0.0030  1.0000  -8.0830   0.0000   0.0000   0.0000   0.2623
  14.300   1.4483   0.05598   0.05135  -0.0480  0.0030  1.0000  -8.0698   0.0000   0.0000   0.0000   0.2625
  14.400   1.4423   0.05803   0.05348  -0.0483  0.0031  1.0000  -8.0559   0.0000   0.0000   0.0000   0.2626
  14.500   1.4364   0.06013   0.05566  -0.0485  0.0031  1.0000  -8.0393   0.0000   0.0000   0.0000   0.2627
  14.600   1.4296   0.06248   0.05810  -0.0491  0.0032  1.0000  -8.0179   0.0000   0.0000   0.0000   0.2630
  14.700   1.4232   0.06482   0.06052  -0.0496  0.0032  1.0000  -7.9951   0.0000   0.0000   0.0000   0.2633
  14.800   1.4171   0.06713   0.06292  -0.0501  0.0033  1.0000  -7.9704   0.0000   0.0000   0.0000   0.2636
  14.900   1.4108   0.06952   0.06539  -0.0507  0.0034  1.0000  -7.9432   0.0000   0.0000   0.0000   0.2640
  15.000   1.4037   0.07214   0.06810  -0.0515  0.0034  1.0000  -7.9136   0.0000   0.0000   0.0000   0.2646
  15.100   1.3972   0.07468   0.07072  -0.0523  0.0035  1.0000  -7.8826   0.0000   0.0000   0.0000   0.2651
  15.200   1.3908   0.07720   0.07332  -0.0530  0.0036  1.0000  -7.8498   0.0000   0.0000   0.0000   0.2655
  15.300   1.3843   0.07974   0.07595  -0.0538  0.0037  1.0000  -7.8153   0.0000   0.0000   0.0000   0.2661
  15.400   1.3772   0.08255   0.07884  -0.0549  0.0037  1.0000  -7.7800   0.0000   0.0000   0.0000   0.2669
  15.500   1.3703   0.08527   0.08164  -0.0560  0.0038  1.0000  -7.7433   0.0000   0.0000   0.0000   0.2677
  15.600   1.3637   0.08794   0.08439  -0.0570  0.0038  1.0000  -7.7040   0.0000   0.0000   0.0000   0.2684
  15.700   1.3570   0.09064   0.08717  -0.0580  0.0039  1.0000  -7.6621   0.0000   0.0000   0.0000   0.2692
  15.800   1.3499   0.09351   0.09012  -0.0593  0.0040  1.0000  -7.6210   0.0000   0.0000   0.0000   0.2702
  15.900   1.3428   0.09644   0.09312  -0.0608  0.0040  1.0000  -7.5793   0.0000   0.0000   0.0000   0.2713
  16.000   1.3360   0.09925   0.09601  -0.0621  0.0041  1.0000  -7.5348   0.0000   0.0000   0.0000   0.2723
  16.100   1.3292   0.10203   0.09887  -0.0634  0.0041  1.0000  -7.4892   0.0000   0.0000   0.0000   0.2734
  16.200   1.3223   0.10491   0.10183  -0.0649  0.0042  1.0000  -7.4437   0.0000   0.0000   0.0000   0.2745
  16.300   1.3152   0.10799   0.10497  -0.0667  0.0042  1.0000  -7.4004   0.0000   0.0000   0.0000   0.2760
  16.400   1.3084   0.11089   0.10794  -0.0683  0.0043  1.0000  -7.3536   0.0000   0.0000   0.0000   0.2773
  16.500   1.3018   0.11377   0.11089  -0.0698  0.0043  1.0000  -7.3049   0.0000   0.0000   0.0000   0.2786
  16.600   1.2952   0.11653   0.11372  -0.0715  0.0043  1.0000  -7.2564   0.0000   0.0000   0.0000   0.2799
  16.700   1.2883   0.11942   0.11667  -0.0734  0.0043  1.0000  -7.2124   0.0000   0.0000   0.0000   0.2816
  16.800   1.2818   0.12221   0.11952  -0.0753  0.0044  1.0000  -7.1644   0.0000   0.0000   0.0000   0.2831
  16.900   1.2755   0.12501   0.12239  -0.0770  0.0044  1.0000  -7.1134   0.0000   0.0000   0.0000   0.2847
  17.000   1.2692   0.12789   0.12533  -0.0788  0.0044  1.0000  -7.0615   0.0000   0.0000   0.0000   0.2862
  17.100   1.2627   0.13103   0.12852  -0.0809  0.0044  1.0000  -7.0125   0.0000   0.0000   0.0000   0.2880
  17.200   1.2564   0.13423   0.13178  -0.0830  0.0044  1.0000  -6.9607   0.0000   0.0000   0.0000   0.2899
  17.300   1.2504   0.13737   0.13497  -0.0849  0.0045  1.0000  -6.9054   0.0000   0.0000   0.0000   0.2916
  17.400   1.2443   0.14056   0.13821  -0.0869  0.0045  1.0000  -6.8487   0.0000   0.0000   0.0000   0.2934
  17.500   1.2383   0.14395   0.14166  -0.0890  0.0045  1.0000  -6.7928   0.0000   0.0000   0.0000   0.2953
  17.600   1.2321   0.14749   0.14524  -0.0913  0.0045  1.0000  -6.7368   0.0000   0.0000   0.0000   0.2974
  17.700   1.2263   0.15092   0.14873  -0.0933  0.0045  1.0000  -6.6760   0.0000   0.0000   0.0000   0.2993
  17.800   1.2205   0.15441   0.15226  -0.0954  0.0045  1.0000  -6.6128   0.0000   0.0000   0.0000   0.3012
  17.900   1.2147   0.15806   0.15596  -0.0976  0.0045  1.0000  -6.5487   0.0000   0.0000   0.0000   0.3033
  18.000   1.2087   0.16192   0.15986  -0.0999  0.0044  1.0000  -6.4852   0.0000   0.0000   0.0000   0.3055
  18.100   1.2030   0.16566   0.16365  -0.1020  0.0044  1.0000  -6.4161   0.0000   0.0000   0.0000   0.3076
  18.200   1.1973   0.16949   0.16752  -0.1041  0.0044  1.0000  -6.3430   0.0000   0.0000   0.0000   0.3096
  18.300   1.1916   0.17348   0.17154  -0.1063  0.0044  1.0000  -6.2681   0.0000   0.0000   0.0000   0.3118
  18.400   1.1856   0.17767   0.17577  -0.1086  0.0044  1.0000  -6.1912   0.0000   0.0000   0.0000   0.3142
  18.500   1.1799   0.18180   0.17994  -0.1107  0.0043  1.0000  -6.1072   0.0000   0.0000   0.0000   0.3164
  18.600   1.1742   0.18602   0.18420  -0.1129  0.0043  1.0000  -6.0181   0.0000   0.0000   0.0000   0.3186
  18.700   1.1681   0.19051   0.18872  -0.1151  0.0043  1.0000  -5.9239   0.0000   0.0000   0.0000   0.3210
  18.800   1.1619   0.19516   0.19340  -0.1174  0.0042  1.0000  -5.8218   0.0000   0.0000   0.0000   0.3235
  18.900   1.1558   0.19984   0.19811  -0.1196  0.0042  1.0000  -5.7104   0.0000   0.0000   0.0000   0.3259
  19.000   1.1495   0.20473   0.20303  -0.1218  0.0042  1.0000  -5.5880   0.0000   0.0000   0.0000   0.3284
  19.100   1.1423   0.21017   0.20849  -0.1241  0.0041  1.0000  -5.4460   0.0000   0.0000   0.0000   0.3312
  19.200   1.1351   0.21570   0.21404  -0.1264  0.0041  1.0000  -5.2869   0.0000   0.0000   0.0000   0.3339
  19.300   1.1268   0.22186   0.22022  -0.1288  0.0041  1.0000  -5.0921   0.0000   0.0000   0.0000   0.3369
  19.400   1.1174   0.22876   0.22714  -0.1313  0.0041  1.0000  -4.8491   0.0000   0.0000   0.0000   0.3403
  19.500   1.1063   0.23679   0.23517  -0.1339  0.0041  1.0000  -4.5248   0.0000   0.0000   0.0000   0.3441
  19.600   1.0935   0.24605   0.24444  -0.1365  0.0043  1.0000  -4.1072   0.0000   0.0000   0.0000   0.3482
  19.700   1.0828   0.25464   0.25301  -0.1388  0.0045  1.0000  -3.7276   0.0000   0.0000   0.0000   0.3519
  19.800   1.0747   0.26193   0.26029  -0.1406  0.0049  1.0000  -3.4309   0.0000   0.0000   0.0000   0.3547
  19.900   1.0660   0.26939   0.26774  -0.1424  0.0053  1.0000  -3.1247   0.0000   0.0000   0.0000   0.3577
  20.000   1.0474   0.28577   0.28411  -0.1441  0.0128  1.0000  -2.2047   0.0000   0.0000   0.0000   0.3625
  20.100   1.0463   0.28881   0.28716  -0.1449  0.0129  1.0000  -2.1727   0.0000   0.0000   0.0000   0.3633
  20.200   1.0452   0.29178   0.29013  -0.1457  0.0128  1.0000  -2.1427   0.0000   0.0000   0.0000   0.3640
  20.300   1.0440   0.29471   0.29306  -0.1464  0.0127  1.0000  -2.1131   0.0000   0.0000   0.0000   0.3648
  20.400   1.0425   0.29760   0.29596  -0.1471  0.0125  1.0000  -2.0833   0.0000   0.0000   0.0000   0.3656
  20.500   1.0409   0.30043   0.29879  -0.1478  0.0124  1.0000  -2.0539   0.0000   0.0000   0.0000   0.3664
  20.600   1.0390   0.30319   0.30155  -0.1485  0.0122  1.0000  -2.0250   0.0000   0.0000   0.0000   0.3672
  20.700   1.0367   0.30585   0.30422  -0.1490  0.0120  1.0000  -1.9964   0.0000   0.0000   0.0000   0.3679
  20.800   1.0339   0.30840   0.30677  -0.1495  0.0118  1.0000  -1.9680   0.0000   0.0000   0.0000   0.3687
  20.900   1.0304   0.31078   0.30917  -0.1500  0.0116  1.0000  -1.9392   0.0000   0.0000   0.0000   0.3695
  21.000   1.0260   0.31293   0.31132  -0.1502  0.0114  1.0000  -1.9091   0.0000   0.0000   0.0000   0.3704
  21.100   0.9662   0.30293   0.30141  -0.1444  0.0114  1.0000  -1.7307   0.0000   0.0000   0.0000   0.3742
  21.200   0.9581   0.30291   0.30140  -0.1441  0.0113  1.0000  -1.6937   0.0000   0.0000   0.0000   0.3751
  21.300   0.9516   0.30312   0.30162  -0.1440  0.0111  1.0000  -1.6623   0.0000   0.0000   0.0000   0.3760
  21.400   0.9460   0.30344   0.30195  -0.1440  0.0109  1.0000  -1.6345   0.0000   0.0000   0.0000   0.3768
  21.500   0.9411   0.30384   0.30236  -0.1440  0.0107  1.0000  -1.6097   0.0000   0.0000   0.0000   0.3776
  21.600   0.9368   0.30430   0.30283  -0.1441  0.0105  1.0000  -1.5874   0.0000   0.0000   0.0000   0.3783
  21.700   0.9329   0.30480   0.30334  -0.1442  0.0104  1.0000  -1.5672   0.0000   0.0000   0.0000   0.3790
  21.800   0.9293   0.30534   0.30388  -0.1443  0.0102  1.0000  -1.5490   0.0000   0.0000   0.0000   0.3796
  21.900   0.9261   0.30589   0.30444  -0.1444  0.0100  1.0000  -1.5324   0.0000   0.0000   0.0000   0.3802
  22.000   0.9231   0.30646   0.30502  -0.1446  0.0098  1.0000  -1.5175   0.0000   0.0000   0.0000   0.3808
  22.100   0.9204   0.30704   0.30561  -0.1448  0.0097  1.0000  -1.5040   0.0000   0.0000   0.0000   0.3814
  22.200   0.9178   0.30764   0.30621  -0.1450  0.0095  1.0000  -1.4918   0.0000   0.0000   0.0000   0.3819
  22.300   0.9154   0.30824   0.30682  -0.1452  0.0094  1.0000  -1.4808   0.0000   0.0000   0.0000   0.3825
  22.400   0.9132   0.30885   0.30743  -0.1454  0.0092  1.0000  -1.4710   0.0000   0.0000   0.0000   0.3830
  22.500   0.9112   0.30946   0.30805  -0.1456  0.0091  1.0000  -1.4622   0.0000   0.0000   0.0000   0.3835
  22.600   0.9093   0.31008   0.30867  -0.1458  0.0089  1.0000  -1.4545   0.0000   0.0000   0.0000   0.3839
  22.700   0.9074   0.31070   0.30930  -0.1461  0.0088  1.0000  -1.4478   0.0000   0.0000   0.0000   0.3844
  22.800   0.9058   0.31132   0.30992  -0.1463  0.0086  1.0000  -1.4426   0.0000   0.0000   0.0000   0.3848
  22.900   0.9046   0.31181   0.31042  -0.1466  0.0084  1.0000  -1.4538   0.0000   0.0000   0.0000   0.3851
  23.000   0.9036   0.31227   0.31089  -0.1468  0.0081  1.0000  -1.4684   0.0000   0.0000   0.0000   0.3854
  23.100   0.9028   0.31270   0.31132  -0.1471  0.0079  1.0000  -1.4864   0.0000   0.0000   0.0000   0.3857
  23.200   0.9020   0.31310   0.31172  -0.1473  0.0077  1.0000  -1.5082   0.0000   0.0000   0.0000   0.3859
  23.300   0.9014   0.31345   0.31208  -0.1475  0.0075  1.0000  -1.5339   0.0000   0.0000   0.0000   0.3860
  23.400   0.9009   0.31375   0.31239  -0.1477  0.0073  1.0000  -1.5637   0.0000   0.0000   0.0000   0.3861
  23.500   0.9006   0.31400   0.31264  -0.1479  0.0071  1.0000  -1.5978   0.0000   0.0000   0.0000   0.3861
  23.600   0.9003   0.31418   0.31284  -0.1480  0.0070  1.0000  -1.6364   0.0000   0.0000   0.0000   0.3861
  23.700   0.8998   0.31440   0.31306  -0.1481  0.0068  1.0000  -1.6706   0.0000   0.0000   0.0000   0.3861
  23.800   0.8981   0.31477   0.31344  -0.1483  0.0066  1.0000  -1.6845   0.0000   0.0000   0.0000   0.3864
  23.900   0.8827   0.31732   0.31597  -0.1480  0.0060  1.0000  -1.3789   0.0000   0.0000   0.0000   0.3894
  24.000   0.8816   0.31812   0.31677  -0.1483  0.0060  1.0000  -1.3663   0.0000   0.0000   0.0000   0.3899
  24.100   0.8807   0.31891   0.31757  -0.1486  0.0060  1.0000  -1.3543   0.0000   0.0000   0.0000   0.3903
  24.200   0.8798   0.31971   0.31837  -0.1489  0.0060  1.0000  -1.3428   0.0000   0.0000   0.0000   0.3907
  24.300   0.8789   0.32051   0.31917  -0.1493  0.0059  1.0000  -1.3317   0.0000   0.0000   0.0000   0.3911


