xflr5 v6.61

 Calculated polar for: SD7037-092-88

 1 1 Reynolds number fixed          Mach number fixed         

 xtrf =   1.000 (top)        1.000 (bottom)
 Mach =   0.000     Re =     0.450 e 6     Ncrit =   9.000

  alpha     CL        CD       CDp       Cm    Top Xtr Bot Xtr   Cpmin    Chinge    XCp    
 ------- -------- --------- --------- -------- ------- ------- -------- --------- ---------
 -10.000  -0.3655   0.11250   0.10989  -0.0252  1.0000  0.0196  -1.5331   0.0000   0.0000   0.0000   0.1740
  -9.900  -0.3629   0.11133   0.10872  -0.0258  1.0000  0.0197  -1.5348   0.0000   0.0000   0.0000   0.1719
  -9.800  -0.3605   0.11013   0.10752  -0.0264  1.0000  0.0198  -1.5375   0.0000   0.0000   0.0000   0.1699
  -9.700  -0.3581   0.10891   0.10631  -0.0269  1.0000  0.0198  -1.5410   0.0000   0.0000   0.0000   0.1679
  -9.600  -0.3559   0.10768   0.10508  -0.0275  1.0000  0.0199  -1.5451   0.0000   0.0000   0.0000   0.1659
  -9.500  -0.3537   0.10643   0.10385  -0.0280  1.0000  0.0199  -1.5498   0.0000   0.0000   0.0000   0.1639
  -9.400  -0.3517   0.10518   0.10260  -0.0286  1.0000  0.0199  -1.5551   0.0000   0.0000   0.0000   0.1620
  -9.300  -0.3497   0.10392   0.10135  -0.0291  1.0000  0.0200  -1.5608   0.0000   0.0000   0.0000   0.1600
  -9.200  -0.3478   0.10266   0.10010  -0.0297  1.0000  0.0200  -1.5670   0.0000   0.0000   0.0000   0.1581
  -9.100  -0.3461   0.10139   0.09884  -0.0302  1.0000  0.0200  -1.5737   0.0000   0.0000   0.0000   0.1562
  -9.000  -0.3444   0.10014   0.09759  -0.0307  1.0000  0.0200  -1.5809   0.0000   0.0000   0.0000   0.1544
  -8.900  -0.3429   0.09888   0.09634  -0.0312  1.0000  0.0201  -1.5885   0.0000   0.0000   0.0000   0.1526
  -8.800  -0.3414   0.09762   0.09510  -0.0317  1.0000  0.0201  -1.5965   0.0000   0.0000   0.0000   0.1508
  -8.700  -0.3401   0.09636   0.09384  -0.0322  1.0000  0.0201  -1.6049   0.0000   0.0000   0.0000   0.1491
  -8.600  -0.3388   0.09509   0.09258  -0.0327  1.0000  0.0201  -1.6137   0.0000   0.0000   0.0000   0.1474
  -8.500  -0.3377   0.09382   0.09133  -0.0331  1.0000  0.0201  -1.6229   0.0000   0.0000   0.0000   0.1458
  -8.400  -0.3368   0.09257   0.09009  -0.0335  1.0000  0.0201  -1.6327   0.0000   0.0000   0.0000   0.1444
  -8.300  -0.3362   0.09134   0.08888  -0.0339  1.0000  0.0202  -1.6430   0.0000   0.0000   0.0000   0.1432
  -8.200  -0.3360   0.09014   0.08769  -0.0342  1.0000  0.0202  -1.6539   0.0000   0.0000   0.0000   0.1424
  -8.100  -0.3362   0.08898   0.08655  -0.0344  1.0000  0.0202  -1.6653   0.0000   0.0000   0.0000   0.1420
  -8.000  -0.3371   0.08787   0.08546  -0.0344  1.0000  0.0202  -1.6773   0.0000   0.0000   0.0000   0.1422
  -7.900  -0.3386   0.08683   0.08443  -0.0344  1.0000  0.0202  -1.6900   0.0000   0.0000   0.0000   0.1430
  -7.800  -0.3411   0.08588   0.08350  -0.0340  1.0000  0.0202  -1.7034   0.0000   0.0000   0.0000   0.1449
  -7.700  -0.3450   0.08507   0.08272  -0.0334  1.0000  0.0202  -1.7175   0.0000   0.0000   0.0000   0.1481
  -7.600  -0.3504   0.08441   0.08207  -0.0324  1.0000  0.0202  -1.7322   0.0000   0.0000   0.0000   0.1526
  -7.500  -0.3569   0.08387   0.08156  -0.0311  1.0000  0.0202  -1.7476   0.0000   0.0000   0.0000   0.1581
  -7.400  -0.3645   0.08341   0.08113  -0.0296  1.0000  0.0202  -1.7636   0.0000   0.0000   0.0000   0.1642
  -7.300  -0.3728   0.08302   0.08077  -0.0280  1.0000  0.0202  -1.7801   0.0000   0.0000   0.0000   0.1704
  -7.200  -0.3813   0.08263   0.08040  -0.0265  1.0000  0.0202  -1.7972   0.0000   0.0000   0.0000   0.1763
  -7.100  -0.3745   0.08047   0.07824  -0.0296  0.9986  0.0202  -1.8142   0.0000   0.0000   0.0000   0.1667
  -7.000  -0.3633   0.07775   0.07551  -0.0343  0.9969  0.0202  -1.8337   0.0000   0.0000   0.0000   0.1515
  -6.900  -0.3534   0.07510   0.07285  -0.0387  0.9951  0.0203  -1.8568   0.0000   0.0000   0.0000   0.1363
  -6.800  -0.3431   0.07235   0.07008  -0.0432  0.9932  0.0203  -1.8838   0.0000   0.0000   0.0000   0.1197
  -6.700  -0.3412   0.06356   0.06124  -0.0537  0.9900  0.0208  -2.1871   0.0000   0.0000   0.0000   0.0882
  -6.600  -0.3380   0.05725   0.05485  -0.0606  0.9880  0.0217  -2.3580   0.0000   0.0000   0.0000   0.0664
  -6.500  -0.3299   0.05456   0.05212  -0.0637  0.9868  0.0223  -2.3585   0.0000   0.0000   0.0000   0.0523
  -6.400  -0.3236   0.05285   0.05037  -0.0653  0.9843  0.0227  -2.3342   0.0000   0.0000   0.0000   0.0438
  -6.300  -0.3151   0.05154   0.04904  -0.0667  0.9823  0.0232  -2.2808   0.0000   0.0000   0.0000   0.0339
  -6.200  -0.3055   0.05056   0.04804  -0.0679  0.9807  0.0238  -2.2077   0.0000   0.0000   0.0000   0.0233
  -6.100  -0.2948   0.04939   0.04685  -0.0694  0.9792  0.0244  -2.1439   0.0000   0.0000   0.0000   0.0100
  -6.000  -0.2833   0.04804   0.04547  -0.0713  0.9778  0.0251  -2.0896   0.0000   0.0000   0.0000  -0.0061
  -5.900  -0.2712   0.04654   0.04392  -0.0734  0.9766  0.0259  -2.0442   0.0000   0.0000   0.0000  -0.0252
  -5.800  -0.2584   0.04494   0.04226  -0.0756  0.9754  0.0269  -2.0057   0.0000   0.0000   0.0000  -0.0472
  -5.700  -0.2450   0.04325   0.04051  -0.0778  0.9745  0.0280  -1.9745   0.0000   0.0000   0.0000  -0.0723
  -5.600  -0.2312   0.04150   0.03867  -0.0800  0.9736  0.0293  -1.9507   0.0000   0.0000   0.0000  -0.1012
  -5.500  -0.2168   0.03974   0.03683  -0.0822  0.9729  0.0309  -1.9333   0.0000   0.0000   0.0000  -0.1345
  -5.400  -0.2015   0.03820   0.03518  -0.0841  0.9722  0.0329  -1.9158   0.0000   0.0000   0.0000  -0.1733
  -5.300  -0.1842   0.03773   0.03462  -0.0853  0.9716  0.0354  -1.8705   0.0000   0.0000   0.0000  -0.2190
  -5.200  -0.1690   0.03933   0.03616  -0.0845  0.9695  0.0373  -1.7747   0.0000   0.0000   0.0000  -0.2568
  -5.100  -0.1590   0.03885   0.03560  -0.0846  0.9664  0.0376  -1.7446   0.0000   0.0000   0.0000  -0.2890
  -5.000  -0.1482   0.03776   0.03440  -0.0853  0.9639  0.0377  -1.7260   0.0000   0.0000   0.0000  -0.3328
  -4.900  -0.1369   0.03656   0.03308  -0.0861  0.9617  0.0378  -1.7083   0.0000   0.0000   0.0000  -0.3869
  -4.800  -0.1356   0.02936   0.02546  -0.0888  0.9580  0.0399  -1.9074   0.0000   0.0000   0.0000  -0.4129
  -4.700  -0.1258   0.02721   0.02323  -0.0898  0.9563  0.0416  -1.8838   0.0000   0.0000   0.0000  -0.4731
  -4.600  -0.1139   0.02618   0.02216  -0.0905  0.9549  0.0428  -1.8277   0.0000   0.0000   0.0000  -0.5540
  -4.500  -0.1019   0.02546   0.02142  -0.0911  0.9536  0.0441  -1.7624   0.0000   0.0000   0.0000  -0.6542
  -4.400  -0.0900   0.02513   0.02099  -0.0916  0.9523  0.0464  -1.6766   0.0000   0.0000   0.0000  -0.7791
  -4.300  -0.0779   0.02441   0.02021  -0.0920  0.9509  0.0480  -1.6276   0.0000   0.0000   0.0000  -0.9433
  -4.200  -0.0697   0.02380   0.01955  -0.0915  0.9479  0.0494  -1.5913   0.0000   0.0000   0.0000  -1.0755
  -4.100  -0.0613   0.02320   0.01888  -0.0910  0.9446  0.0509  -1.5569   0.0000   0.0000   0.0000  -1.2500
  -4.000  -0.0514   0.02259   0.01820  -0.0907  0.9415  0.0527  -1.5216   0.0000   0.0000   0.0000  -1.5337
  -3.900  -0.0405   0.02204   0.01758  -0.0905  0.9386  0.0545  -1.4848   0.0000   0.0000   0.0000  -2.0055
  -3.800  -0.0290   0.02161   0.01708  -0.0903  0.9360  0.0563  -1.4449   0.0000   0.0000   0.0000  -2.8897
  -3.700  -0.0171   0.02138   0.01680  -0.0901  0.9335  0.0579  -1.3995   0.0000   0.0000   0.0000  -5.0589
  -3.600  -0.0036   0.02245   0.01787  -0.0897  0.9313  0.0600  -1.3175   0.0000   0.0000   0.0000  -24.9022
  -3.400   0.0192   0.02177   0.01703  -0.0893  0.9270  0.0606  -1.2417   0.0000   0.0000   0.0000   4.9451
  -3.300   0.0297   0.01355   0.00769  -0.0875  0.9247  0.0221  -1.7720   0.0000   0.0000   0.0000   3.2236
  -3.200   0.0402   0.01380   0.00797  -0.0871  0.9221  0.0210  -1.6888   0.0000   0.0000   0.0000   2.4350
  -3.100   0.0495   0.01289   0.00698  -0.0865  0.9190  0.0193  -1.7005   0.0000   0.0000   0.0000   2.0109
  -3.000   0.0590   0.01207   0.00608  -0.0859  0.9156  0.0185  -1.7009   0.0000   0.0000   0.0000   1.7185
  -2.900   0.0689   0.01150   0.00544  -0.0854  0.9122  0.0178  -1.6814   0.0000   0.0000   0.0000   1.5001
  -2.800   0.0790   0.01104   0.00491  -0.0849  0.9088  0.0173  -1.6526   0.0000   0.0000   0.0000   1.3335
  -2.700   0.0894   0.01066   0.00446  -0.0845  0.9056  0.0168  -1.6174   0.0000   0.0000   0.0000   1.2033
  -2.600   0.0998   0.01033   0.00406  -0.0842  0.9025  0.0164  -1.5766   0.0000   0.0000   0.0000   1.0993
  -2.500   0.1106   0.01006   0.00372  -0.0839  0.8996  0.0161  -1.5306   0.0000   0.0000   0.0000   1.0133
  -2.400   0.1217   0.00984   0.00344  -0.0836  0.8968  0.0158  -1.4804   0.0000   0.0000   0.0000   0.9418
  -2.300   0.1328   0.00967   0.00320  -0.0834  0.8938  0.0157  -1.4269   0.0000   0.0000   0.0000   0.8823
  -2.200   0.1432   0.00952   0.00301  -0.0831  0.8909  0.0156  -1.3723   0.0000   0.0000   0.0000   0.8340
  -2.100   0.1537   0.00939   0.00284  -0.0829  0.8873  0.0155  -1.3152   0.0000   0.0000   0.0000   0.7919
  -2.000   0.1643   0.00927   0.00269  -0.0826  0.8833  0.0156  -1.2557   0.0000   0.0000   0.0000   0.7550
  -1.900   0.1750   0.00917   0.00255  -0.0823  0.8791  0.0157  -1.1938   0.0000   0.0000   0.0000   0.7225
  -1.800   0.1857   0.00908   0.00242  -0.0820  0.8749  0.0160  -1.1294   0.0000   0.0000   0.0000   0.6935
  -1.700   0.1966   0.00900   0.00230  -0.0818  0.8707  0.0164  -1.0628   0.0000   0.0000   0.0000   0.6675
  -1.600   0.2076   0.00893   0.00218  -0.0816  0.8667  0.0170  -0.9945   0.0000   0.0000   0.0000   0.6442
  -1.500   0.2187   0.00888   0.00209  -0.0814  0.8627  0.0178  -0.9250   0.0000   0.0000   0.0000   0.6232
  -1.400   0.2298   0.00883   0.00203  -0.0812  0.8589  0.0189  -0.8565   0.0000   0.0000   0.0000   0.6045
  -1.300   0.2405   0.00877   0.00198  -0.0811  0.8551  0.0214  -0.7919   0.0000   0.0000   0.0000   0.5878
  -1.200   0.2507   0.00845   0.00191  -0.0810  0.8505  0.0806  -0.7361   0.0000   0.0000   0.0000   0.5736
  -1.100   0.2612   0.00826   0.00186  -0.0809  0.8453  0.1187  -0.6823   0.0000   0.0000   0.0000   0.5600
  -1.000   0.2715   0.00803   0.00182  -0.0808  0.8397  0.1705  -0.6317   0.0000   0.0000   0.0000   0.5477
  -0.900   0.2818   0.00780   0.00177  -0.0807  0.8341  0.2279  -0.5833   0.0000   0.0000   0.0000   0.5362
  -0.800   0.2922   0.00759   0.00174  -0.0805  0.8284  0.2853  -0.5363   0.0000   0.0000   0.0000   0.5255
  -0.700   0.3026   0.00741   0.00171  -0.0804  0.8225  0.3424  -0.5333   0.0000   0.0000   0.0000   0.5155
  -0.600   0.3128   0.00719   0.00173  -0.0803  0.8179  0.4048  -0.5430   0.0000   0.0000   0.0000   0.5065
  -0.500   0.3228   0.00695   0.00174  -0.0802  0.8126  0.4820  -0.5526   0.0000   0.0000   0.0000   0.4980
  -0.400   0.3319   0.00663   0.00179  -0.0799  0.8067  0.5870  -0.5619   0.0000   0.0000   0.0000   0.4900
  -0.300   0.3295   0.00588   0.00201  -0.0763  0.8006  0.8689  -0.5652   0.0000   0.0000   0.0000   0.4808
  -0.200   0.3394   0.00574   0.00200  -0.0753  0.7945  0.9501  -0.5759   0.0000   0.0000   0.0000   0.4711
  -0.100   0.3563   0.00572   0.00193  -0.0764  0.7875  0.9706  -0.5915   0.0000   0.0000   0.0000   0.4634
   0.000   0.3744   0.00571   0.00187  -0.0778  0.7804  0.9867  -0.6078   0.0000   0.0000   0.0000   0.4568
   0.100   0.3914   0.00570   0.00183  -0.0790  0.7740  1.0000  -0.6235   0.0000   0.0000   0.0000   0.4509
   0.200   0.4017   0.00572   0.00181  -0.0788  0.7663  1.0000  -0.6350   0.0000   0.0000   0.0000   0.4451
   0.300   0.4120   0.00575   0.00178  -0.0786  0.7583  1.0000  -0.6465   0.0000   0.0000   0.0000   0.4395
   0.400   0.4223   0.00579   0.00176  -0.0784  0.7503  1.0000  -0.6581   0.0000   0.0000   0.0000   0.4342
   0.500   0.4326   0.00584   0.00173  -0.0781  0.7420  1.0000  -0.6697   0.0000   0.0000   0.0000   0.4292
   0.600   0.4432   0.00587   0.00173  -0.0780  0.7353  1.0000  -0.6826   0.0000   0.0000   0.0000   0.4245
   0.700   0.4538   0.00590   0.00173  -0.0779  0.7284  1.0000  -0.6964   0.0000   0.0000   0.0000   0.4200
   0.800   0.4643   0.00594   0.00173  -0.0777  0.7200  1.0000  -0.7101   0.0000   0.0000   0.0000   0.4157
   0.900   0.4747   0.00598   0.00172  -0.0775  0.7108  1.0000  -0.7238   0.0000   0.0000   0.0000   0.4115
   1.000   0.4849   0.00605   0.00171  -0.0772  0.7011  1.0000  -0.7374   0.0000   0.0000   0.0000   0.4075
   1.100   0.4952   0.00612   0.00171  -0.0770  0.6918  1.0000  -0.7511   0.0000   0.0000   0.0000   0.4037
   1.200   0.5060   0.00615   0.00172  -0.0770  0.6860  1.0000  -0.7652   0.0000   0.0000   0.0000   0.4001
   1.300   0.5168   0.00618   0.00173  -0.0769  0.6791  1.0000  -0.7793   0.0000   0.0000   0.0000   0.3967
   1.400   0.5274   0.00623   0.00174  -0.0767  0.6712  1.0000  -0.7934   0.0000   0.0000   0.0000   0.3934
   1.500   0.5378   0.00630   0.00175  -0.0766  0.6624  1.0000  -0.8074   0.0000   0.0000   0.0000   0.3901
   1.600   0.5479   0.00638   0.00176  -0.0763  0.6525  1.0000  -0.8232   0.0000   0.0000   0.0000   0.3870
   1.700   0.5584   0.00645   0.00178  -0.0762  0.6435  1.0000  -0.8397   0.0000   0.0000   0.0000   0.3840
   1.800   0.5692   0.00649   0.00180  -0.0761  0.6368  1.0000  -0.8566   0.0000   0.0000   0.0000   0.3812
   1.900   0.5799   0.00654   0.00182  -0.0760  0.6284  1.0000  -0.8734   0.0000   0.0000   0.0000   0.3785
   2.000   0.5903   0.00660   0.00184  -0.0758  0.6193  1.0000  -0.8901   0.0000   0.0000   0.0000   0.3758
   2.100   0.6006   0.00668   0.00186  -0.0756  0.6100  1.0000  -0.9067   0.0000   0.0000   0.0000   0.3732
   2.200   0.6107   0.00678   0.00189  -0.0754  0.6001  1.0000  -0.9233   0.0000   0.0000   0.0000   0.3707
   2.300   0.6215   0.00683   0.00192  -0.0753  0.5936  1.0000  -0.9404   0.0000   0.0000   0.0000   0.3684
   2.400   0.6324   0.00687   0.00195  -0.0753  0.5877  1.0000  -0.9577   0.0000   0.0000   0.0000   0.3661
   2.500   0.6431   0.00693   0.00198  -0.0752  0.5801  1.0000  -0.9753   0.0000   0.0000   0.0000   0.3639
   2.600   0.6535   0.00700   0.00201  -0.0750  0.5709  1.0000  -0.9955   0.0000   0.0000   0.0000   0.3617
   2.700   0.6636   0.00710   0.00204  -0.0748  0.5606  1.0000  -1.0155   0.0000   0.0000   0.0000   0.3596
   2.800   0.6735   0.00722   0.00209  -0.0746  0.5485  1.0000  -1.0353   0.0000   0.0000   0.0000   0.3575
   2.900   0.6844   0.00727   0.00213  -0.0745  0.5421  1.0000  -1.0561   0.0000   0.0000   0.0000   0.3556
   3.000   0.6951   0.00732   0.00216  -0.0745  0.5348  1.0000  -1.0770   0.0000   0.0000   0.0000   0.3537
   3.100   0.7057   0.00739   0.00219  -0.0744  0.5266  1.0000  -1.0978   0.0000   0.0000   0.0000   0.3518
   3.200   0.7162   0.00746   0.00228  -0.0742  0.5192  1.0000  -1.1188   0.0000   0.0000   0.0000   0.3500
   3.300   0.7263   0.00756   0.00232  -0.0741  0.5101  1.0000  -1.1393   0.0000   0.0000   0.0000   0.3483
   3.400   0.7363   0.00768   0.00238  -0.0739  0.4996  1.0000  -1.1598   0.0000   0.0000   0.0000   0.3465
   3.500   0.7471   0.00773   0.00242  -0.0738  0.4937  1.0000  -1.1811   0.0000   0.0000   0.0000   0.3449
   3.600   0.7579   0.00779   0.00247  -0.0737  0.4875  1.0000  -1.2025   0.0000   0.0000   0.0000   0.3433
   3.700   0.7684   0.00786   0.00251  -0.0736  0.4792  1.0000  -1.2237   0.0000   0.0000   0.0000   0.3418
   3.800   0.7784   0.00797   0.00256  -0.0734  0.4680  1.0000  -1.2488   0.0000   0.0000   0.0000   0.3402
   3.900   0.7878   0.00814   0.00262  -0.0732  0.4529  1.0000  -1.2734   0.0000   0.0000   0.0000   0.3386
   4.000   0.7982   0.00823   0.00268  -0.0730  0.4421  1.0000  -1.2993   0.0000   0.0000   0.0000   0.3372
   4.100   0.8084   0.00833   0.00273  -0.0729  0.4299  1.0000  -1.3254   0.0000   0.0000   0.0000   0.3358
   4.200   0.8179   0.00848   0.00279  -0.0726  0.4144  1.0000  -1.3506   0.0000   0.0000   0.0000   0.3343
   4.300   0.8273   0.00866   0.00287  -0.0724  0.3974  1.0000  -1.3805   0.0000   0.0000   0.0000   0.3329
   4.400   0.8376   0.00875   0.00293  -0.0723  0.3862  1.0000  -1.4130   0.0000   0.0000   0.0000   0.3316
   4.500   0.8471   0.00892   0.00299  -0.0720  0.3700  1.0000  -1.4444   0.0000   0.0000   0.0000   0.3302
   4.600   0.8561   0.00913   0.00309  -0.0717  0.3505  1.0000  -1.4751   0.0000   0.0000   0.0000   0.3289
   4.700   0.8663   0.00925   0.00316  -0.0716  0.3385  1.0000  -1.5079   0.0000   0.0000   0.0000   0.3277
   4.800   0.8755   0.00945   0.00324  -0.0714  0.3209  1.0000  -1.5394   0.0000   0.0000   0.0000   0.3264
   4.900   0.8848   0.00965   0.00334  -0.0711  0.3029  1.0000  -1.5710   0.0000   0.0000   0.0000   0.3252
   5.000   0.8948   0.00979   0.00343  -0.0710  0.2907  1.0000  -1.6040   0.0000   0.0000   0.0000   0.3240
   5.100   0.9041   0.00999   0.00353  -0.0708  0.2762  1.0000  -1.6361   0.0000   0.0000   0.0000   0.3228
   5.200   0.9136   0.01017   0.00363  -0.0706  0.2631  1.0000  -1.6686   0.0000   0.0000   0.0000   0.3217
   5.300   0.9240   0.01027   0.00372  -0.0705  0.2573  1.0000  -1.7027   0.0000   0.0000   0.0000   0.3206
   5.400   0.9343   0.01037   0.00381  -0.0704  0.2513  1.0000  -1.7368   0.0000   0.0000   0.0000   0.3196
   5.500   0.9443   0.01050   0.00390  -0.0702  0.2438  1.0000  -1.7708   0.0000   0.0000   0.0000   0.3185
   5.600   0.9541   0.01066   0.00401  -0.0700  0.2352  1.0000  -1.8081   0.0000   0.0000   0.0000   0.3175
   5.700   0.9636   0.01083   0.00412  -0.0699  0.2250  1.0000  -1.8551   0.0000   0.0000   0.0000   0.3165
   5.800   0.9737   0.01096   0.00422  -0.0697  0.2176  1.0000  -1.9157   0.0000   0.0000   0.0000   0.3155
   5.900   0.9838   0.01108   0.00432  -0.0696  0.2114  1.0000  -1.9774   0.0000   0.0000   0.0000   0.3145
   6.000   0.9935   0.01124   0.00444  -0.0694  0.2024  1.0000  -2.0493   0.0000   0.0000   0.0000   0.3135
   6.100   1.0026   0.01147   0.00457  -0.0692  0.1907  1.0000  -2.1394   0.0000   0.0000   0.0000   0.3125
   6.200   1.0121   0.01165   0.00470  -0.0690  0.1796  1.0000  -2.2328   0.0000   0.0000   0.0000   0.3116
   6.300   1.0219   0.01179   0.00481  -0.0689  0.1722  1.0000  -2.3290   0.0000   0.0000   0.0000   0.3107
   6.400   1.0313   0.01198   0.00495  -0.0686  0.1629  1.0000  -2.4241   0.0000   0.0000   0.0000   0.3097
   6.500   1.0403   0.01222   0.00510  -0.0684  0.1527  1.0000  -2.5185   0.0000   0.0000   0.0000   0.3088
   6.600   1.0499   0.01239   0.00523  -0.0682  0.1444  1.0000  -2.6169   0.0000   0.0000   0.0000   0.3079
   6.700   1.0597   0.01253   0.00536  -0.0681  0.1386  1.0000  -2.7176   0.0000   0.0000   0.0000   0.3071
   6.800   1.0691   0.01271   0.00549  -0.0679  0.1308  1.0000  -2.8173   0.0000   0.0000   0.0000   0.3062
   6.900   1.0831   0.01241   0.00586  -0.0681  0.1644  1.0000  -2.9977   0.0000   0.0000   0.0000   0.3054
   7.000   1.0931   0.01253   0.00601  -0.0679  0.1626  1.0000  -3.1109   0.0000   0.0000   0.0000   0.3046
   7.100   1.1026   0.01270   0.00618  -0.0677  0.1581  1.0000  -3.2207   0.0000   0.0000   0.0000   0.3037
   7.200   1.1119   0.01289   0.00634  -0.0675  0.1517  1.0000  -3.3297   0.0000   0.0000   0.0000   0.3029
   7.300   1.1214   0.01306   0.00651  -0.0673  0.1455  1.0000  -3.4404   0.0000   0.0000   0.0000   0.3021
   7.400   1.1313   0.01318   0.00665  -0.0671  0.1425  1.0000  -3.5546   0.0000   0.0000   0.0000   0.3013
   7.500   1.1409   0.01333   0.00681  -0.0669  0.1380  1.0000  -3.6680   0.0000   0.0000   0.0000   0.3005
   7.600   1.1501   0.01352   0.00698  -0.0667  0.1322  1.0000  -3.7802   0.0000   0.0000   0.0000   0.2997
   7.700   1.1589   0.01376   0.00717  -0.0664  0.1253  1.0000  -3.8905   0.0000   0.0000   0.0000   0.2989
   7.800   1.1676   0.01400   0.00736  -0.0661  0.1171  1.0000  -4.0011   0.0000   0.0000   0.0000   0.2981
   7.900   1.1770   0.01416   0.00753  -0.0659  0.1123  1.0000  -4.1171   0.0000   0.0000   0.0000   0.2973
   8.000   1.1864   0.01432   0.00769  -0.0657  0.1082  1.0000  -4.2344   0.0000   0.0000   0.0000   0.2966
   8.100   1.1954   0.01453   0.00788  -0.0654  0.1024  1.0000  -4.3496   0.0000   0.0000   0.0000   0.2958
   8.200   1.2037   0.01480   0.00809  -0.0651  0.0955  1.0000  -4.4616   0.0000   0.0000   0.0000   0.2950
   8.300   1.2119   0.01507   0.00831  -0.0648  0.0873  1.0000  -4.5731   0.0000   0.0000   0.0000   0.2942
   8.400   1.2211   0.01525   0.00849  -0.0645  0.0832  1.0000  -4.6907   0.0000   0.0000   0.0000   0.2935
   8.500   1.2297   0.01547   0.00868  -0.0643  0.0770  1.0000  -4.8051   0.0000   0.0000   0.0000   0.2928
   8.600   1.2371   0.01583   0.00894  -0.0638  0.0674  1.0000  -4.9092   0.0000   0.0000   0.0000   0.2920
   8.700   1.2444   0.01619   0.00921  -0.0634  0.0552  1.0000  -5.0008   0.0000   0.0000   0.0000   0.2912
   8.800   1.2384   0.01807   0.01067  -0.0609  0.0111  1.0000  -4.8090   0.0000   0.0000   0.0000   0.2893
   8.900   1.2457   0.01844   0.01112  -0.0603  0.0106  1.0000  -4.8676   0.0000   0.0000   0.0000   0.2884
   9.000   1.2529   0.01882   0.01158  -0.0596  0.0103  1.0000  -4.9320   0.0000   0.0000   0.0000   0.2875
   9.100   1.2598   0.01921   0.01204  -0.0590  0.0102  1.0000  -4.9979   0.0000   0.0000   0.0000   0.2865
   9.200   1.2663   0.01962   0.01253  -0.0583  0.0100  1.0000  -5.0637   0.0000   0.0000   0.0000   0.2856
   9.300   1.2725   0.02006   0.01304  -0.0575  0.0099  1.0000  -5.1281   0.0000   0.0000   0.0000   0.2846
   9.400   1.2781   0.02052   0.01358  -0.0567  0.0099  1.0000  -5.1901   0.0000   0.0000   0.0000   0.2837
   9.500   1.2833   0.02101   0.01415  -0.0558  0.0099  1.0000  -5.2500   0.0000   0.0000   0.0000   0.2826
   9.600   1.2880   0.02153   0.01475  -0.0549  0.0099  1.0000  -5.3074   0.0000   0.0000   0.0000   0.2816
   9.700   1.2922   0.02207   0.01536  -0.0539  0.0099  1.0000  -5.3619   0.0000   0.0000   0.0000   0.2806
   9.800   1.2959   0.02263   0.01600  -0.0528  0.0099  1.0000  -5.4134   0.0000   0.0000   0.0000   0.2795
   9.900   1.2987   0.02320   0.01665  -0.0516  0.0099  1.0000  -5.4606   0.0000   0.0000   0.0000   0.2783
  10.000   1.3007   0.02379   0.01731  -0.0503  0.0099  1.0000  -5.5041   0.0000   0.0000   0.0000   0.2771
  10.100   1.3024   0.02440   0.01799  -0.0489  0.0100  1.0000  -5.5451   0.0000   0.0000   0.0000   0.2759
  10.200   1.3037   0.02505   0.01871  -0.0476  0.0100  1.0000  -5.5836   0.0000   0.0000   0.0000   0.2746
  10.300   1.3048   0.02573   0.01946  -0.0462  0.0101  1.0000  -5.6203   0.0000   0.0000   0.0000   0.2734
  10.400   1.3057   0.02644   0.02025  -0.0449  0.0101  1.0000  -5.6545   0.0000   0.0000   0.0000   0.2723
  10.500   1.3056   0.02729   0.02126  -0.0435  0.0101  1.0000  -5.6575   0.0000   0.0000   0.0000   0.2710
  10.600   1.3061   0.02811   0.02215  -0.0422  0.0102  1.0000  -5.6825   0.0000   0.0000   0.0000   0.2699
  10.700   1.3066   0.02896   0.02309  -0.0410  0.0102  1.0000  -5.7082   0.0000   0.0000   0.0000   0.2688
  10.800   1.3069   0.02985   0.02406  -0.0398  0.0103  1.0000  -5.7327   0.0000   0.0000   0.0000   0.2677
  10.900   1.3073   0.03079   0.02509  -0.0386  0.0104  1.0000  -5.7559   0.0000   0.0000   0.0000   0.2667
  11.000   1.3075   0.03178   0.02616  -0.0375  0.0105  1.0000  -5.7771   0.0000   0.0000   0.0000   0.2657
  11.100   1.3074   0.03282   0.02730  -0.0364  0.0106  1.0000  -5.7956   0.0000   0.0000   0.0000   0.2647
  11.200   1.3072   0.03392   0.02850  -0.0353  0.0107  1.0000  -5.8114   0.0000   0.0000   0.0000   0.2637
  11.300   1.3068   0.03509   0.02976  -0.0343  0.0108  1.0000  -5.8243   0.0000   0.0000   0.0000   0.2628
  11.400   1.3060   0.03633   0.03110  -0.0333  0.0109  1.0000  -5.8334   0.0000   0.0000   0.0000   0.2619
  11.500   1.3045   0.03762   0.03249  -0.0324  0.0110  1.0000  -5.8378   0.0000   0.0000   0.0000   0.2611
  11.600   1.3022   0.03897   0.03395  -0.0314  0.0111  1.0000  -5.8375   0.0000   0.0000   0.0000   0.2602
  11.700   1.2995   0.04041   0.03549  -0.0304  0.0112  1.0000  -5.8328   0.0000   0.0000   0.0000   0.2594
  11.800   1.2963   0.04195   0.03714  -0.0296  0.0113  1.0000  -5.8226   0.0000   0.0000   0.0000   0.2586
  11.900   1.2920   0.04359   0.03889  -0.0287  0.0114  1.0000  -5.8063   0.0000   0.0000   0.0000   0.2579
  12.000   1.2869   0.04536   0.04077  -0.0280  0.0115  1.0000  -5.7829   0.0000   0.0000   0.0000   0.2573
  12.100   1.2809   0.04728   0.04281  -0.0273  0.0116  1.0000  -5.7504   0.0000   0.0000   0.0000   0.2567
  12.200   1.2733   0.04937   0.04502  -0.0268  0.0117  1.0000  -5.7071   0.0000   0.0000   0.0000   0.2562
  12.300   1.2636   0.05180   0.04758  -0.0263  0.0119  1.0000  -5.6417   0.0000   0.0000   0.0000   0.2559
  13.000   1.2772   0.05766   0.05375  -0.0251  0.0143  1.0000  -5.9657   0.0000   0.0000   0.0000   0.2535
  13.100   1.2705   0.05967   0.05590  -0.0253  0.0148  1.0000  -5.9218   0.0000   0.0000   0.0000   0.2535
  13.200   1.2537   0.06359   0.06009  -0.0257  0.0159  1.0000  -5.7337   0.0000   0.0000   0.0000   0.2540
  13.300   1.2339   0.06831   0.06504  -0.0266  0.0170  1.0000  -5.5167   0.0000   0.0000   0.0000   0.2549
  13.400   1.2214   0.07162   0.06848  -0.0278  0.0173  1.0000  -5.4245   0.0000   0.0000   0.0000   0.2560
  13.500   1.2102   0.07477   0.07174  -0.0292  0.0176  1.0000  -5.3515   0.0000   0.0000   0.0000   0.2571
  13.600   1.2003   0.07777   0.07482  -0.0306  0.0177  1.0000  -5.2968   0.0000   0.0000   0.0000   0.2584
  13.700   1.1909   0.08079   0.07792  -0.0322  0.0178  1.0000  -5.2452   0.0000   0.0000   0.0000   0.2597
  13.800   1.1819   0.08380   0.08100  -0.0339  0.0179  1.0000  -5.1993   0.0000   0.0000   0.0000   0.2612
  13.900   1.1734   0.08681   0.08409  -0.0358  0.0179  1.0000  -5.1578   0.0000   0.0000   0.0000   0.2628
  14.000   1.1650   0.08991   0.08725  -0.0377  0.0179  1.0000  -5.1137   0.0000   0.0000   0.0000   0.2645
  14.100   1.1573   0.09296   0.09036  -0.0397  0.0179  1.0000  -5.0787   0.0000   0.0000   0.0000   0.2664
  14.200   1.1493   0.09614   0.09359  -0.0418  0.0178  1.0000  -5.0355   0.0000   0.0000   0.0000   0.2683
  14.300   1.1422   0.09925   0.09675  -0.0440  0.0177  1.0000  -5.0028   0.0000   0.0000   0.0000   0.2702
  14.400   1.1349   0.10245   0.10000  -0.0462  0.0177  1.0000  -4.9636   0.0000   0.0000   0.0000   0.2723
  14.500   1.1279   0.10567   0.10327  -0.0484  0.0175  1.0000  -4.9261   0.0000   0.0000   0.0000   0.2744
  14.600   1.1213   0.10889   0.10653  -0.0507  0.0174  1.0000  -4.8918   0.0000   0.0000   0.0000   0.2766
  14.700   1.1144   0.11221   0.10989  -0.0530  0.0173  1.0000  -4.8484   0.0000   0.0000   0.0000   0.2788
  14.800   1.1083   0.11546   0.11317  -0.0553  0.0171  1.0000  -4.8155   0.0000   0.0000   0.0000   0.2810
  14.900   1.1019   0.11882   0.11657  -0.0577  0.0170  1.0000  -4.7724   0.0000   0.0000   0.0000   0.2833
  15.000   1.0957   0.12218   0.11997  -0.0600  0.0168  1.0000  -4.7287   0.0000   0.0000   0.0000   0.2857
  15.100   1.0898   0.12538   0.12319  -0.0623  0.0167  1.0000  -4.6893   0.0000   0.0000   0.0000   0.2880
  15.200   1.0835   0.12866   0.12650  -0.0647  0.0165  1.0000  -4.6393   0.0000   0.0000   0.0000   0.2905
  15.300   1.0781   0.13189   0.12975  -0.0670  0.0162  1.0000  -4.6004   0.0000   0.0000   0.0000   0.2929
  15.400   1.0718   0.13539   0.13328  -0.0695  0.0161  1.0000  -4.5427   0.0000   0.0000   0.0000   0.2954
  15.500   1.0652   0.13913   0.13704  -0.0720  0.0159  1.0000  -4.4739   0.0000   0.0000   0.0000   0.2981
  15.600   1.0582   0.14316   0.14109  -0.0745  0.0157  1.0000  -4.3920   0.0000   0.0000   0.0000   0.3010
  15.700   1.0493   0.14794   0.14589  -0.0774  0.0156  1.0000  -4.2673   0.0000   0.0000   0.0000   0.3044
  15.800   1.0383   0.15368   0.15165  -0.0806  0.0156  1.0000  -4.0932   0.0000   0.0000   0.0000   0.3084
  15.900   0.9769   0.18119   0.17903  -0.0924  0.0206  1.0000  -2.7293   0.0000   0.0000   0.0000   0.3269
  16.600   0.9584   0.20717   0.20496  -0.1016  0.0244  1.0000  -2.1907   0.0000   0.0000   0.0000   0.3380
  16.700   0.9593   0.20973   0.20752  -0.1025  0.0244  1.0000  -2.1692   0.0000   0.0000   0.0000   0.3388
  16.800   0.9603   0.21227   0.21007  -0.1035  0.0244  1.0000  -2.1487   0.0000   0.0000   0.0000   0.3396
  16.900   0.9613   0.21480   0.21260  -0.1045  0.0244  1.0000  -2.1290   0.0000   0.0000   0.0000   0.3404
  17.000   0.9623   0.21732   0.21511  -0.1055  0.0244  1.0000  -2.1102   0.0000   0.0000   0.0000   0.3412
  17.100   0.9634   0.21982   0.21762  -0.1064  0.0244  1.0000  -2.0922   0.0000   0.0000   0.0000   0.3419
  17.200   0.9645   0.22232   0.22011  -0.1073  0.0244  1.0000  -2.0749   0.0000   0.0000   0.0000   0.3427
  17.300   0.9656   0.22480   0.22259  -0.1083  0.0244  1.0000  -2.0583   0.0000   0.0000   0.0000   0.3434
  17.400   0.9667   0.22727   0.22506  -0.1092  0.0243  1.0000  -2.0424   0.0000   0.0000   0.0000   0.3441
  17.500   0.9679   0.22972   0.22752  -0.1101  0.0243  1.0000  -2.0271   0.0000   0.0000   0.0000   0.3448
  17.600   0.9691   0.23216   0.22996  -0.1110  0.0243  1.0000  -2.0125   0.0000   0.0000   0.0000   0.3455
  17.700   0.9704   0.23459   0.23239  -0.1119  0.0243  1.0000  -1.9985   0.0000   0.0000   0.0000   0.3461
  17.800   0.9716   0.23700   0.23480  -0.1128  0.0243  1.0000  -1.9852   0.0000   0.0000   0.0000   0.3468
  17.900   0.9729   0.23939   0.23719  -0.1137  0.0242  1.0000  -1.9725   0.0000   0.0000   0.0000   0.3474
  18.000   0.9741   0.24176   0.23957  -0.1146  0.0242  1.0000  -1.9605   0.0000   0.0000   0.0000   0.3481
  18.100   0.9754   0.24411   0.24191  -0.1155  0.0242  1.0000  -1.9493   0.0000   0.0000   0.0000   0.3487
  18.200   0.9768   0.24642   0.24423  -0.1163  0.0241  1.0000  -1.9391   0.0000   0.0000   0.0000   0.3493
  18.300   0.9782   0.24869   0.24650  -0.1172  0.0240  1.0000  -1.9300   0.0000   0.0000   0.0000   0.3499
  18.400   0.9797   0.25089   0.24870  -0.1181  0.0240  1.0000  -1.9224   0.0000   0.0000   0.0000   0.3504
  18.500   0.9813   0.25300   0.25081  -0.1189  0.0238  1.0000  -1.9170   0.0000   0.0000   0.0000   0.3510
  18.600   0.9832   0.25494   0.25276  -0.1198  0.0236  1.0000  -1.9151   0.0000   0.0000   0.0000   0.3515
  18.700   0.9857   0.25666   0.25448  -0.1207  0.0233  1.0000  -1.9173   0.0000   0.0000   0.0000   0.3520
  18.800   0.9877   0.25854   0.25636  -0.1218  0.0227  1.0000  -1.9090   0.0000   0.0000   0.0000   0.3527
  18.900   0.9888   0.26089   0.25871  -0.1230  0.0221  1.0000  -1.8849   0.0000   0.0000   0.0000   0.3537
  19.000   0.9898   0.26333   0.26115  -0.1241  0.0215  1.0000  -1.8638   0.0000   0.0000   0.0000   0.3545
  19.100   0.9907   0.26579   0.26361  -0.1250  0.0209  1.0000  -1.8465   0.0000   0.0000   0.0000   0.3552
  19.200   0.9916   0.26822   0.26605  -0.1259  0.0205  1.0000  -1.8323   0.0000   0.0000   0.0000   0.3559
  19.300   0.9924   0.27064   0.26847  -0.1268  0.0200  1.0000  -1.8204   0.0000   0.0000   0.0000   0.3565
  19.400   0.9932   0.27303   0.27086  -0.1276  0.0196  1.0000  -1.8102   0.0000   0.0000   0.0000   0.3571
  19.500   0.9939   0.27540   0.27323  -0.1284  0.0192  1.0000  -1.8016   0.0000   0.0000   0.0000   0.3576
  19.600   0.9947   0.27774   0.27558  -0.1291  0.0188  1.0000  -1.7941   0.0000   0.0000   0.0000   0.3582
  19.700   0.9953   0.28007   0.27791  -0.1299  0.0185  1.0000  -1.7877   0.0000   0.0000   0.0000   0.3587
  19.800   0.9959   0.28238   0.28022  -0.1306  0.0182  1.0000  -1.7821   0.0000   0.0000   0.0000   0.3592
  19.900   0.9965   0.28466   0.28251  -0.1313  0.0179  1.0000  -1.7773   0.0000   0.0000   0.0000   0.3597
  20.000   0.9969   0.28693   0.28478  -0.1320  0.0176  1.0000  -1.7731   0.0000   0.0000   0.0000   0.3601
  20.100   0.9974   0.28917   0.28703  -0.1326  0.0173  1.0000  -1.7696   0.0000   0.0000   0.0000   0.3606
  20.200   0.9977   0.29139   0.28926  -0.1333  0.0170  1.0000  -1.7667   0.0000   0.0000   0.0000   0.3611
  20.300   0.9979   0.29359   0.29146  -0.1339  0.0168  1.0000  -1.7644   0.0000   0.0000   0.0000   0.3615
  20.400   0.9980   0.29576   0.29364  -0.1345  0.0165  1.0000  -1.7625   0.0000   0.0000   0.0000   0.3620
  20.500   0.9981   0.29786   0.29579  -0.1351  0.0163  1.0000  -1.7575   0.0000   0.0000   0.0000   0.3624
  20.600   0.9980   0.29995   0.29790  -0.1357  0.0161  1.0000  -1.7562   0.0000   0.0000   0.0000   0.3628
  20.700   0.9977   0.30202   0.29997  -0.1362  0.0159  1.0000  -1.7553   0.0000   0.0000   0.0000   0.3632
  20.800   0.9973   0.30404   0.30200  -0.1367  0.0157  1.0000  -1.7548   0.0000   0.0000   0.0000   0.3636
  20.900   0.9966   0.30602   0.30399  -0.1372  0.0155  1.0000  -1.7543   0.0000   0.0000   0.0000   0.3641
  21.000   0.9957   0.30794   0.30592  -0.1376  0.0153  1.0000  -1.7538   0.0000   0.0000   0.0000   0.3645
  21.100   0.9945   0.30979   0.30778  -0.1380  0.0151  1.0000  -1.7531   0.0000   0.0000   0.0000   0.3649
  21.200   0.9929   0.31155   0.30955  -0.1384  0.0150  1.0000  -1.7520   0.0000   0.0000   0.0000   0.3653
  21.300   0.9908   0.31320   0.31121  -0.1387  0.0148  1.0000  -1.7499   0.0000   0.0000   0.0000   0.3658
  21.400   0.9880   0.31469   0.31271  -0.1389  0.0147  1.0000  -1.7463   0.0000   0.0000   0.0000   0.3663
  21.500   0.9370   0.30594   0.30405  -0.1339  0.0148  1.0000  -1.5938   0.0000   0.0000   0.0000   0.3693
  21.600   0.9299   0.30549   0.30361  -0.1335  0.0146  1.0000  -1.5771   0.0000   0.0000   0.0000   0.3700
  21.700   0.9244   0.30532   0.30346  -0.1334  0.0145  1.0000  -1.5660   0.0000   0.0000   0.0000   0.3705
  21.800   0.9199   0.30530   0.30345  -0.1333  0.0144  1.0000  -1.5584   0.0000   0.0000   0.0000   0.3711
  21.900   0.9160   0.30536   0.30353  -0.1332  0.0143  1.0000  -1.5533   0.0000   0.0000   0.0000   0.3715
  22.000   0.9126   0.30547   0.30366  -0.1332  0.0142  1.0000  -1.5501   0.0000   0.0000   0.0000   0.3720
  22.100   0.9096   0.30563   0.30382  -0.1332  0.0140  1.0000  -1.5495   0.0000   0.0000   0.0000   0.3723
  22.200   0.9069   0.30579   0.30399  -0.1332  0.0139  1.0000  -1.5530   0.0000   0.0000   0.0000   0.3727
  22.300   0.9047   0.30594   0.30416  -0.1333  0.0138  1.0000  -1.5613   0.0000   0.0000   0.0000   0.3729
  22.400   0.9029   0.30605   0.30428  -0.1332  0.0136  1.0000  -1.5763   0.0000   0.0000   0.0000   0.3730
  22.500   0.9014   0.30610   0.30434  -0.1331  0.0134  1.0000  -1.6006   0.0000   0.0000   0.0000   0.3730
  22.600   0.9000   0.30611   0.30437  -0.1329  0.0132  1.0000  -1.6303   0.0000   0.0000   0.0000   0.3728
  22.700   0.8949   0.30645   0.30472  -0.1327  0.0128  1.0000  -1.6119   0.0000   0.0000   0.0000   0.3733
  22.800   0.8778   0.30875   0.30700  -0.1323  0.0122  1.0000  -1.3769   0.0000   0.0000   0.0000   0.3762
  22.900   0.8761   0.30933   0.30759  -0.1326  0.0122  1.0000  -1.3623   0.0000   0.0000   0.0000   0.3767
  23.000   0.8744   0.30992   0.30818  -0.1330  0.0122  1.0000  -1.3482   0.0000   0.0000   0.0000   0.3773
  23.100   0.8729   0.31051   0.30878  -0.1333  0.0122  1.0000  -1.3346   0.0000   0.0000   0.0000   0.3778
  23.200   0.8715   0.31111   0.30939  -0.1337  0.0121  1.0000  -1.3217   0.0000   0.0000   0.0000   0.3784
  23.300   0.8701   0.31171   0.31000  -0.1341  0.0121  1.0000  -1.3095   0.0000   0.0000   0.0000   0.3789
  23.400   0.8689   0.31233   0.31062  -0.1344  0.0121  1.0000  -1.2979   0.0000   0.0000   0.0000   0.3794
  23.500   0.8677   0.31295   0.31125  -0.1348  0.0121  1.0000  -1.2869   0.0000   0.0000   0.0000   0.3799
  23.600   0.8666   0.31358   0.31189  -0.1351  0.0121  1.0000  -1.2763   0.0000   0.0000   0.0000   0.3804
  23.700   0.8656   0.31421   0.31253  -0.1355  0.0121  1.0000  -1.2659   0.0000   0.0000   0.0000   0.3809
  23.800   0.8645   0.31485   0.31318  -0.1358  0.0121  1.0000  -1.2557   0.0000   0.0000   0.0000   0.3813
  23.900   0.8636   0.31550   0.31383  -0.1362  0.0120  1.0000  -1.2457   0.0000   0.0000   0.0000   0.3818
  24.000   0.8627   0.31615   0.31449  -0.1365  0.0120  1.0000  -1.2360   0.0000   0.0000   0.0000   0.3822
  24.100   0.8618   0.31680   0.31515  -0.1369  0.0120  1.0000  -1.2266   0.0000   0.0000   0.0000   0.3826
  24.200   0.8610   0.31745   0.31581  -0.1372  0.0120  1.0000  -1.2175   0.0000   0.0000   0.0000   0.3831
  24.300   0.8602   0.31811   0.31648  -0.1376  0.0120  1.0000  -1.2086   0.0000   0.0000   0.0000   0.3835
  24.400   0.8595   0.31878   0.31715  -0.1380  0.0120  1.0000  -1.2001   0.0000   0.0000   0.0000   0.3839
  24.500   0.8588   0.31944   0.31782  -0.1384  0.0119  1.0000  -1.1918   0.0000   0.0000   0.0000   0.3844
  24.600   0.8582   0.32011   0.31849  -0.1388  0.0119  1.0000  -1.1839   0.0000   0.0000   0.0000   0.3848
  24.700   0.8576   0.32079   0.31918  -0.1392  0.0119  1.0000  -1.1761   0.0000   0.0000   0.0000   0.3852
  24.800   0.8571   0.32147   0.31986  -0.1396  0.0119  1.0000  -1.1684   0.0000   0.0000   0.0000   0.3856
  24.900   0.8566   0.32216   0.32056  -0.1400  0.0118  1.0000  -1.1612   0.0000   0.0000   0.0000   0.3861
  25.000   0.8563   0.32286   0.32126  -0.1405  0.0117  1.0000  -1.1617   0.0000   0.0000   0.0000   0.3865
  25.100   0.8561   0.32361   0.32202  -0.1410  0.0116  1.0000  -1.1584   0.0000   0.0000   0.0000   0.3871
  25.200   0.8564   0.32452   0.32293  -0.1418  0.0114  1.0000  -1.1491   0.0000   0.0000   0.0000   0.3877
  25.300   0.8593   0.32619   0.32461  -0.1429  0.0095  1.0000  -1.1246   0.0000   0.0000   0.0000   0.3884
  25.400   0.8594   0.32695   0.32537  -0.1433  0.0081  1.0000  -1.1333   0.0000   0.0000   0.0000   0.3887
  25.500   0.8593   0.32751   0.32594  -0.1437  0.0072  1.0000  -1.1523   0.0000   0.0000   0.0000   0.3890
  25.600   0.8593   0.32799   0.32642  -0.1441  0.0066  1.0000  -1.1780   0.0000   0.0000   0.0000   0.3892
  25.700   0.8593   0.32840   0.32684  -0.1445  0.0061  1.0000  -1.2113   0.0000   0.0000   0.0000   0.3894
  25.800   0.8594   0.32874   0.32719  -0.1448  0.0057  1.0000  -1.2489   0.0000   0.0000   0.0000   0.3895
  25.900   0.8596   0.32903   0.32749  -0.1452  0.0054  1.0000  -1.2905   0.0000   0.0000   0.0000   0.3896
  26.000   0.8597   0.32926   0.32773  -0.1455  0.0052  1.0000  -1.3359   0.0000   0.0000   0.0000   0.3897
  26.100   0.8599   0.32943   0.32790  -0.1458  0.0050  1.0000  -1.3849   0.0000   0.0000   0.0000   0.3897
  26.200   0.8601   0.32954   0.32801  -0.1460  0.0048  1.0000  -1.4377   0.0000   0.0000   0.0000   0.3896
  26.300   0.8600   0.32962   0.32811  -0.1462  0.0046  1.0000  -1.4885   0.0000   0.0000   0.0000   0.3896
  26.500   0.8494   0.33290   0.33135  -0.1463  0.0040  1.0000  -1.2423   0.0000   0.0000   0.0000   0.3920
  26.600   0.8489   0.33374   0.33220  -0.1467  0.0040  1.0000  -1.2309   0.0000   0.0000   0.0000   0.3924
  26.700   0.8485   0.33457   0.33303  -0.1470  0.0040  1.0000  -1.2198   0.0000   0.0000   0.0000   0.3928
  26.800   0.8480   0.33539   0.33386  -0.1474  0.0040  1.0000  -1.2090   0.0000   0.0000   0.0000   0.3931
  26.900   0.8476   0.33622   0.33469  -0.1477  0.0040  1.0000  -1.1985   0.0000   0.0000   0.0000   0.3935
  27.000   0.8471   0.33703   0.33551  -0.1481  0.0039  1.0000  -1.1882   0.0000   0.0000   0.0000   0.3938
  27.100   0.8467   0.33785   0.33633  -0.1484  0.0039  1.0000  -1.1781   0.0000   0.0000   0.0000   0.3941
  27.200   0.8463   0.33866   0.33715  -0.1488  0.0039  1.0000  -1.1683   0.0000   0.0000   0.0000   0.3945
  27.300   0.8459   0.33947   0.33796  -0.1491  0.0039  1.0000  -1.1588   0.0000   0.0000   0.0000   0.3948
  27.400   0.8456   0.34028   0.33877  -0.1495  0.0039  1.0000  -1.1494   0.0000   0.0000   0.0000   0.3951


