xflr5 v6.61

 Calculated polar for: SD7032-099-88

 1 1 Reynolds number fixed          Mach number fixed         

 xtrf =   1.000 (top)        1.000 (bottom)
 Mach =   0.000     Re =     0.719 e 6     Ncrit =   9.000

  alpha     CL        CD       CDp       Cm    Top Xtr Bot Xtr   Cpmin    Chinge    XCp    
 ------- -------- --------- --------- -------- ------- ------- -------- --------- ---------
 -10.000  -0.3201   0.10853   0.10642  -0.0309  1.0000  0.0080  -1.7868   0.0000   0.0000   0.0000   0.1440
  -9.900  -0.3178   0.10740   0.10531  -0.0313  1.0000  0.0082  -1.7701   0.0000   0.0000   0.0000   0.1421
  -9.800  -0.3156   0.10627   0.10419  -0.0317  1.0000  0.0084  -1.7552   0.0000   0.0000   0.0000   0.1403
  -9.700  -0.3134   0.10514   0.10306  -0.0321  1.0000  0.0086  -1.7420   0.0000   0.0000   0.0000   0.1384
  -9.600  -0.3114   0.10400   0.10193  -0.0325  1.0000  0.0088  -1.7303   0.0000   0.0000   0.0000   0.1365
  -9.500  -0.3095   0.10285   0.10079  -0.0329  1.0000  0.0091  -1.7202   0.0000   0.0000   0.0000   0.1347
  -9.400  -0.3077   0.10170   0.09965  -0.0333  1.0000  0.0093  -1.7117   0.0000   0.0000   0.0000   0.1329
  -9.300  -0.3060   0.10056   0.09851  -0.0336  1.0000  0.0096  -1.7046   0.0000   0.0000   0.0000   0.1312
  -9.200  -0.3044   0.09941   0.09738  -0.0340  1.0000  0.0098  -1.6991   0.0000   0.0000   0.0000   0.1296
  -9.100  -0.3031   0.09827   0.09625  -0.0343  1.0000  0.0101  -1.6952   0.0000   0.0000   0.0000   0.1282
  -9.000  -0.3019   0.09715   0.09514  -0.0346  1.0000  0.0104  -1.6927   0.0000   0.0000   0.0000   0.1269
  -8.900  -0.3010   0.09604   0.09404  -0.0348  1.0000  0.0107  -1.6917   0.0000   0.0000   0.0000   0.1258
  -8.800  -0.3003   0.09495   0.09296  -0.0350  1.0000  0.0110  -1.6923   0.0000   0.0000   0.0000   0.1251
  -8.700  -0.3001   0.09390   0.09192  -0.0351  1.0000  0.0113  -1.6945   0.0000   0.0000   0.0000   0.1247
  -8.600  -0.3003   0.09289   0.09093  -0.0351  1.0000  0.0116  -1.6983   0.0000   0.0000   0.0000   0.1249
  -8.500  -0.3014   0.09197   0.09003  -0.0349  1.0000  0.0119  -1.7040   0.0000   0.0000   0.0000   0.1263
  -8.400  -0.3046   0.09127   0.08934  -0.0341  1.0000  0.0121  -1.7125   0.0000   0.0000   0.0000   0.1302
  -8.300  -0.3065   0.09042   0.08851  -0.0338  0.9997  0.0124  -1.7206   0.0000   0.0000   0.0000   0.1322
  -8.200  -0.2998   0.08871   0.08680  -0.0359  0.9985  0.0131  -1.7243   0.0000   0.0000   0.0000   0.1227
  -8.100  -0.2926   0.08707   0.08517  -0.0380  0.9966  0.0138  -1.7303   0.0000   0.0000   0.0000   0.1123
  -8.000  -0.2840   0.08573   0.08383  -0.0402  0.9949  0.0147  -1.7273   0.0000   0.0000   0.0000   0.1005
  -7.900  -0.2721   0.08513   0.08323  -0.0420  0.9934  0.0156  -1.6745   0.0000   0.0000   0.0000   0.0876
  -7.800  -0.2632   0.08394   0.08204  -0.0440  0.9918  0.0158  -1.6512   0.0000   0.0000   0.0000   0.0747
  -7.700  -0.2553   0.08242   0.08052  -0.0461  0.9903  0.0160  -1.6440   0.0000   0.0000   0.0000   0.0609
  -7.600  -0.2474   0.08073   0.07883  -0.0485  0.9889  0.0161  -1.6433   0.0000   0.0000   0.0000   0.0454
  -7.500  -0.2392   0.07891   0.07701  -0.0511  0.9877  0.0161  -1.6462   0.0000   0.0000   0.0000   0.0277
  -7.400  -0.2317   0.07708   0.07519  -0.0536  0.9859  0.0161  -1.6522   0.0000   0.0000   0.0000   0.0098
  -7.300  -0.2248   0.07527   0.07337  -0.0560  0.9832  0.0162  -1.6607   0.0000   0.0000   0.0000  -0.0082
  -7.200  -0.2175   0.07337   0.07147  -0.0587  0.9803  0.0162  -1.6712   0.0000   0.0000   0.0000  -0.0288
  -7.100  -0.2094   0.07133   0.06944  -0.0617  0.9775  0.0162  -1.6836   0.0000   0.0000   0.0000  -0.0541
  -7.000  -0.2006   0.06916   0.06726  -0.0653  0.9749  0.0163  -1.6987   0.0000   0.0000   0.0000  -0.0849
  -6.900  -0.1905   0.06679   0.06489  -0.0694  0.9724  0.0163  -1.7169   0.0000   0.0000   0.0000  -0.1243
  -6.800  -0.1841   0.06472   0.06281  -0.0725  0.9677  0.0163  -1.7384   0.0000   0.0000   0.0000  -0.1539
  -6.700  -0.1783   0.06261   0.06068  -0.0756  0.9621  0.0163  -1.7634   0.0000   0.0000   0.0000  -0.1840
  -6.600  -0.1712   0.06026   0.05831  -0.0791  0.9571  0.0163  -1.7929   0.0000   0.0000   0.0000  -0.2223
  -6.500  -0.1640   0.05787   0.05589  -0.0824  0.9525  0.0163  -1.8253   0.0000   0.0000   0.0000  -0.2627
  -6.400  -0.1589   0.05575   0.05373  -0.0845  0.9478  0.0163  -1.8571   0.0000   0.0000   0.0000  -0.2925
  -6.300  -0.1548   0.05377   0.05171  -0.0862  0.9429  0.0163  -1.8880   0.0000   0.0000   0.0000  -0.3174
  -6.200  -0.1503   0.05180   0.04969  -0.0876  0.9381  0.0164  -1.9184   0.0000   0.0000   0.0000  -0.3438
  -6.100  -0.1454   0.04985   0.04769  -0.0890  0.9336  0.0164  -1.9474   0.0000   0.0000   0.0000  -0.3727
  -6.000  -0.1404   0.04796   0.04573  -0.0901  0.9295  0.0164  -1.9739   0.0000   0.0000   0.0000  -0.4035
  -5.900  -0.1349   0.04611   0.04380  -0.0912  0.9254  0.0164  -1.9970   0.0000   0.0000   0.0000  -0.4381
  -5.800  -0.1294   0.04431   0.04194  -0.0922  0.9224  0.0164  -2.0173   0.0000   0.0000   0.0000  -0.4741
  -5.300  -0.0981   0.03609   0.03324  -0.0951  0.9047  0.0164  -2.0771   0.0000   0.0000   0.0000  -0.7346
  -5.200  -0.0910   0.03455   0.03160  -0.0955  0.9011  0.0164  -2.0801   0.0000   0.0000   0.0000  -0.8152
  -4.600  -0.0480   0.01922   0.01511  -0.0981  0.8826  0.0139  -2.5217   0.0000   0.0000   0.0000  -1.8222
  -4.500  -0.0387   0.01624   0.01174  -0.0979  0.8797  0.0118  -2.7072   0.0000   0.0000   0.0000  -2.3182
  -4.400  -0.0284   0.01410   0.00929  -0.0975  0.8769  0.0104  -2.8423   0.0000   0.0000   0.0000  -3.2351
  -4.300  -0.0180   0.01249   0.00743  -0.0971  0.8739  0.0095  -2.9333   0.0000   0.0000   0.0000  -5.2296
  -4.200  -0.0076   0.01139   0.00615  -0.0967  0.8709  0.0090  -2.9691   0.0000   0.0000   0.0000  -12.7332
  -4.100   0.0029   0.01065   0.00526  -0.0963  0.8675  0.0087  -2.9615   0.0000   0.0000   0.0000  33.4665
  -4.000   0.0136   0.01014   0.00464  -0.0961  0.8637  0.0085  -2.9224   0.0000   0.0000   0.0000   7.4037
  -3.900   0.0246   0.00977   0.00418  -0.0959  0.8598  0.0085  -2.8626   0.0000   0.0000   0.0000   4.2049
  -3.800   0.0356   0.00947   0.00382  -0.0958  0.8578  0.0084  -2.7892   0.0000   0.0000   0.0000   2.9722
  -3.700   0.0468   0.00922   0.00352  -0.0957  0.8552  0.0085  -2.7076   0.0000   0.0000   0.0000   2.3213
  -3.600   0.0580   0.00901   0.00327  -0.0956  0.8524  0.0086  -2.6205   0.0000   0.0000   0.0000   1.9195
  -3.500   0.0692   0.00883   0.00305  -0.0955  0.8494  0.0089  -2.5289   0.0000   0.0000   0.0000   1.6469
  -3.400   0.0804   0.00868   0.00286  -0.0955  0.8462  0.0092  -2.4336   0.0000   0.0000   0.0000   1.4502
  -3.300   0.0916   0.00855   0.00270  -0.0954  0.8428  0.0097  -2.3353   0.0000   0.0000   0.0000   1.3020
  -3.200   0.1028   0.00844   0.00257  -0.0953  0.8392  0.0103  -2.2359   0.0000   0.0000   0.0000   1.1864
  -3.100   0.1139   0.00836   0.00246  -0.0952  0.8353  0.0110  -2.1389   0.0000   0.0000   0.0000   1.0939
  -3.000   0.1249   0.00829   0.00237  -0.0951  0.8310  0.0118  -2.0468   0.0000   0.0000   0.0000   1.0182
  -2.900   0.1359   0.00824   0.00230  -0.0950  0.8260  0.0126  -1.9596   0.0000   0.0000   0.0000   0.9549
  -2.800   0.1471   0.00820   0.00224  -0.0949  0.8218  0.0135  -1.8754   0.0000   0.0000   0.0000   0.9007
  -2.700   0.1584   0.00814   0.00219  -0.0949  0.8191  0.0143  -1.7934   0.0000   0.0000   0.0000   0.8540
  -2.600   0.1697   0.00809   0.00215  -0.0949  0.8158  0.0150  -1.7113   0.0000   0.0000   0.0000   0.8137
  -2.500   0.1809   0.00806   0.00214  -0.0949  0.8120  0.0155  -1.6259   0.0000   0.0000   0.0000   0.7784
  -2.400   0.1920   0.00806   0.00214  -0.0949  0.8081  0.0159  -1.5359   0.0000   0.0000   0.0000   0.7474
  -2.300   0.2032   0.00806   0.00218  -0.0949  0.8039  0.0162  -1.4438   0.0000   0.0000   0.0000   0.7200
  -2.100   0.2256   0.00774   0.00177  -0.0947  0.7944  0.0311  -1.4123   0.0000   0.0000   0.0000   0.6718
  -2.000   0.2365   0.00763   0.00171  -0.0946  0.7886  0.0487  -1.3522   0.0000   0.0000   0.0000   0.6520
  -1.900   0.2474   0.00756   0.00165  -0.0946  0.7820  0.0629  -1.2915   0.0000   0.0000   0.0000   0.6338
  -1.800   0.2587   0.00745   0.00162  -0.0946  0.7790  0.0792  -1.2298   0.0000   0.0000   0.0000   0.6171
  -1.700   0.2699   0.00732   0.00158  -0.0947  0.7750  0.1023  -1.1686   0.0000   0.0000   0.0000   0.6019
  -1.600   0.2809   0.00715   0.00154  -0.0947  0.7702  0.1379  -1.1078   0.0000   0.0000   0.0000   0.5881
  -1.500   0.2915   0.00676   0.00151  -0.0949  0.7650  0.2435  -1.0480   0.0000   0.0000   0.0000   0.5764
  -1.400   0.3027   0.00670   0.00143  -0.0949  0.7596  0.2595  -0.9626   0.0000   0.0000   0.0000   0.5641
  -1.300   0.3136   0.00663   0.00140  -0.0949  0.7540  0.2868  -0.9086   0.0000   0.0000   0.0000   0.5529
  -1.200   0.3244   0.00653   0.00138  -0.0948  0.7479  0.3225  -0.8556   0.0000   0.0000   0.0000   0.5426
  -1.100   0.3352   0.00644   0.00136  -0.0948  0.7409  0.3573  -0.8030   0.0000   0.0000   0.0000   0.5329
  -1.000   0.3464   0.00637   0.00135  -0.0948  0.7369  0.3875  -0.7501   0.0000   0.0000   0.0000   0.5237
  -0.900   0.3576   0.00625   0.00134  -0.0949  0.7331  0.4260  -0.6980   0.0000   0.0000   0.0000   0.5152
  -0.800   0.3686   0.00616   0.00134  -0.0949  0.7281  0.4594  -0.6467   0.0000   0.0000   0.0000   0.5071
  -0.700   0.3796   0.00610   0.00133  -0.0949  0.7220  0.4890  -0.6343   0.0000   0.0000   0.0000   0.4995
  -0.600   0.3904   0.00603   0.00133  -0.0948  0.7151  0.5220  -0.6447   0.0000   0.0000   0.0000   0.4923
  -0.500   0.4011   0.00602   0.00132  -0.0947  0.7074  0.5454  -0.6551   0.0000   0.0000   0.0000   0.4854
  -0.400   0.4116   0.00598   0.00132  -0.0946  0.6987  0.5747  -0.6654   0.0000   0.0000   0.0000   0.4789
  -0.300   0.4226   0.00597   0.00133  -0.0945  0.6923  0.5979  -0.6759   0.0000   0.0000   0.0000   0.4727
  -0.200   0.4335   0.00588   0.00135  -0.0944  0.6887  0.6319  -0.6865   0.0000   0.0000   0.0000   0.4668
  -0.100   0.4442   0.00580   0.00137  -0.0943  0.6842  0.6707  -0.6970   0.0000   0.0000   0.0000   0.4612
   0.000   0.4547   0.00574   0.00139  -0.0941  0.6789  0.7097  -0.7074   0.0000   0.0000   0.0000   0.4558
   0.100   0.4647   0.00568   0.00142  -0.0938  0.6729  0.7480  -0.7176   0.0000   0.0000   0.0000   0.4506
   0.200   0.4746   0.00564   0.00145  -0.0935  0.6664  0.7791  -0.7277   0.0000   0.0000   0.0000   0.4455
   0.300   0.4845   0.00564   0.00146  -0.0931  0.6591  0.8056  -0.7378   0.0000   0.0000   0.0000   0.4407
   0.400   0.4935   0.00562   0.00148  -0.0926  0.6509  0.8351  -0.7479   0.0000   0.0000   0.0000   0.4359
   0.500   0.5028   0.00559   0.00150  -0.0920  0.6452  0.8608  -0.7592   0.0000   0.0000   0.0000   0.4313
   0.600   0.5124   0.00556   0.00151  -0.0916  0.6418  0.8851  -0.7706   0.0000   0.0000   0.0000   0.4269
   0.700   0.5209   0.00551   0.00152  -0.0908  0.6372  0.9097  -0.7815   0.0000   0.0000   0.0000   0.4225
   0.800   0.5302   0.00548   0.00151  -0.0903  0.6313  0.9362  -0.7928   0.0000   0.0000   0.0000   0.4183
   0.900   0.5449   0.00547   0.00148  -0.0910  0.6236  0.9724  -0.8078   0.0000   0.0000   0.0000   0.4149
   1.000   0.5590   0.00552   0.00147  -0.0916  0.6145  1.0000  -0.8242   0.0000   0.0000   0.0000   0.4118
   1.100   0.5697   0.00560   0.00148  -0.0916  0.6044  1.0000  -0.8383   0.0000   0.0000   0.0000   0.4085
   1.200   0.5807   0.00566   0.00149  -0.0916  0.5969  1.0000  -0.8527   0.0000   0.0000   0.0000   0.4053
   1.300   0.5921   0.00568   0.00151  -0.0916  0.5929  1.0000  -0.8675   0.0000   0.0000   0.0000   0.4023
   1.400   0.6034   0.00572   0.00152  -0.0916  0.5875  1.0000  -0.8822   0.0000   0.0000   0.0000   0.3993
   1.500   0.6145   0.00577   0.00153  -0.0916  0.5805  1.0000  -0.8969   0.0000   0.0000   0.0000   0.3965
   1.600   0.6253   0.00584   0.00155  -0.0916  0.5723  1.0000  -0.9114   0.0000   0.0000   0.0000   0.3938
   1.700   0.6359   0.00593   0.00157  -0.0915  0.5628  1.0000  -0.9258   0.0000   0.0000   0.0000   0.3911
   1.800   0.6465   0.00602   0.00160  -0.0914  0.5519  1.0000  -0.9401   0.0000   0.0000   0.0000   0.3885
   1.900   0.6577   0.00606   0.00162  -0.0914  0.5468  1.0000  -0.9550   0.0000   0.0000   0.0000   0.3861
   2.000   0.6690   0.00609   0.00164  -0.0915  0.5429  1.0000  -0.9701   0.0000   0.0000   0.0000   0.3837
   2.100   0.6801   0.00614   0.00167  -0.0915  0.5378  1.0000  -0.9851   0.0000   0.0000   0.0000   0.3814
   2.200   0.6912   0.00619   0.00173  -0.0915  0.5318  1.0000  -1.0010   0.0000   0.0000   0.0000   0.3791
   2.300   0.7020   0.00626   0.00175  -0.0915  0.5250  1.0000  -1.0183   0.0000   0.0000   0.0000   0.3769
   2.400   0.7127   0.00634   0.00178  -0.0914  0.5174  1.0000  -1.0354   0.0000   0.0000   0.0000   0.3748
   2.500   0.7232   0.00644   0.00182  -0.0913  0.5079  1.0000  -1.0525   0.0000   0.0000   0.0000   0.3727
   2.600   0.7340   0.00651   0.00186  -0.0913  0.4991  1.0000  -1.0698   0.0000   0.0000   0.0000   0.3707
   2.700   0.7452   0.00655   0.00188  -0.0913  0.4954  1.0000  -1.0876   0.0000   0.0000   0.0000   0.3688
   2.800   0.7563   0.00660   0.00191  -0.0913  0.4899  1.0000  -1.1054   0.0000   0.0000   0.0000   0.3669
   2.900   0.7671   0.00666   0.00195  -0.0913  0.4829  1.0000  -1.1230   0.0000   0.0000   0.0000   0.3651
   3.000   0.7778   0.00675   0.00199  -0.0912  0.4750  1.0000  -1.1405   0.0000   0.0000   0.0000   0.3633
   3.100   0.7882   0.00685   0.00203  -0.0911  0.4664  1.0000  -1.1579   0.0000   0.0000   0.0000   0.3615
   3.200   0.7987   0.00695   0.00208  -0.0910  0.4570  1.0000  -1.1753   0.0000   0.0000   0.0000   0.3598
   3.300   0.8095   0.00703   0.00213  -0.0910  0.4499  1.0000  -1.1930   0.0000   0.0000   0.0000   0.3581
   3.400   0.8207   0.00707   0.00216  -0.0910  0.4469  1.0000  -1.2112   0.0000   0.0000   0.0000   0.3565
   3.500   0.8317   0.00711   0.00220  -0.0910  0.4428  1.0000  -1.2294   0.0000   0.0000   0.0000   0.3550
   3.600   0.8426   0.00718   0.00224  -0.0910  0.4376  1.0000  -1.2475   0.0000   0.0000   0.0000   0.3535
   3.700   0.8533   0.00725   0.00229  -0.0910  0.4315  1.0000  -1.2656   0.0000   0.0000   0.0000   0.3519
   3.800   0.8639   0.00734   0.00234  -0.0909  0.4246  1.0000  -1.2865   0.0000   0.0000   0.0000   0.3505
   3.900   0.8743   0.00745   0.00240  -0.0908  0.4167  1.0000  -1.3072   0.0000   0.0000   0.0000   0.3490
   4.000   0.8846   0.00756   0.00246  -0.0907  0.4074  1.0000  -1.3281   0.0000   0.0000   0.0000   0.3476
   4.100   0.8954   0.00764   0.00252  -0.0907  0.4013  1.0000  -1.3494   0.0000   0.0000   0.0000   0.3462
   4.200   0.9064   0.00768   0.00257  -0.0907  0.3985  1.0000  -1.3712   0.0000   0.0000   0.0000   0.3449
   4.300   0.9173   0.00774   0.00262  -0.0907  0.3941  1.0000  -1.3929   0.0000   0.0000   0.0000   0.3436
   4.400   0.9280   0.00782   0.00267  -0.0906  0.3881  1.0000  -1.4166   0.0000   0.0000   0.0000   0.3423
   4.500   0.9384   0.00792   0.00274  -0.0906  0.3808  1.0000  -1.4423   0.0000   0.0000   0.0000   0.3410
   4.600   0.9486   0.00805   0.00281  -0.0904  0.3724  1.0000  -1.4676   0.0000   0.0000   0.0000   0.3398
   4.700   0.9587   0.00818   0.00288  -0.0903  0.3624  1.0000  -1.4930   0.0000   0.0000   0.0000   0.3385
   4.800   0.9691   0.00828   0.00296  -0.0903  0.3547  1.0000  -1.5189   0.0000   0.0000   0.0000   0.3373
   4.900   0.9801   0.00833   0.00302  -0.0903  0.3524  1.0000  -1.5456   0.0000   0.0000   0.0000   0.3362
   5.000   0.9909   0.00839   0.00307  -0.0902  0.3488  1.0000  -1.5776   0.0000   0.0000   0.0000   0.3350
   5.100   1.0015   0.00847   0.00314  -0.0902  0.3435  1.0000  -1.6097   0.0000   0.0000   0.0000   0.3339
   5.200   1.0118   0.00858   0.00321  -0.0901  0.3367  1.0000  -1.6416   0.0000   0.0000   0.0000   0.3328
   5.300   1.0218   0.00871   0.00330  -0.0900  0.3286  1.0000  -1.6732   0.0000   0.0000   0.0000   0.3317
   5.400   1.0317   0.00886   0.00339  -0.0898  0.3191  1.0000  -1.7082   0.0000   0.0000   0.0000   0.3306
   5.500   1.0418   0.00899   0.00348  -0.0897  0.3101  1.0000  -1.7488   0.0000   0.0000   0.0000   0.3295
   5.600   1.0526   0.00905   0.00355  -0.0897  0.3077  1.0000  -1.7913   0.0000   0.0000   0.0000   0.3285
   5.700   1.0633   0.00911   0.00362  -0.0897  0.3044  1.0000  -1.8338   0.0000   0.0000   0.0000   0.3275
   5.800   1.0725   0.00933   0.00387  -0.0894  0.2865  1.0000  -1.8782   0.0000   0.0000   0.0000   0.3264
   5.900   1.0780   0.00991   0.00409  -0.0888  0.2367  1.0000  -1.9105   0.0000   0.0000   0.0000   0.3253
   6.000   1.0851   0.01035   0.00429  -0.0883  0.2014  1.0000  -1.9456   0.0000   0.0000   0.0000   0.3242
   6.100   1.0939   0.01062   0.00445  -0.0881  0.1833  1.0000  -1.9843   0.0000   0.0000   0.0000   0.3232
   6.200   1.1030   0.01084   0.00458  -0.0878  0.1710  1.0000  -2.0241   0.0000   0.0000   0.0000   0.3222
   6.300   1.1116   0.01112   0.00475  -0.0875  0.1561  1.0000  -2.0628   0.0000   0.0000   0.0000   0.3212
   6.400   1.1213   0.01128   0.00487  -0.0874  0.1476  1.0000  -2.1044   0.0000   0.0000   0.0000   0.3203
   6.500   1.1306   0.01148   0.00501  -0.0872  0.1386  1.0000  -2.1453   0.0000   0.0000   0.0000   0.3193
   6.600   1.1391   0.01176   0.00518  -0.0869  0.1258  1.0000  -2.1845   0.0000   0.0000   0.0000   0.3184
   6.700   1.1485   0.01195   0.00533  -0.0867  0.1167  1.0000  -2.2260   0.0000   0.0000   0.0000   0.3175
   6.800   1.1577   0.01215   0.00548  -0.0865  0.1083  1.0000  -2.2673   0.0000   0.0000   0.0000   0.3166
   6.900   1.1656   0.01249   0.00570  -0.0861  0.0948  1.0000  -2.3059   0.0000   0.0000   0.0000   0.3156
   7.000   1.1746   0.01270   0.00586  -0.0859  0.0852  1.0000  -2.3472   0.0000   0.0000   0.0000   0.3147
   7.100   1.1822   0.01307   0.00612  -0.0855  0.0721  1.0000  -2.3854   0.0000   0.0000   0.0000   0.3138
   7.200   1.1906   0.01335   0.00632  -0.0851  0.0606  1.0000  -2.4393   0.0000   0.0000   0.0000   0.3128
   7.300   1.1980   0.01373   0.00660  -0.0847  0.0490  1.0000  -2.5104   0.0000   0.0000   0.0000   0.3119
   7.400   1.2066   0.01398   0.00679  -0.0844  0.0412  1.0000  -2.5876   0.0000   0.0000   0.0000   0.3110
   7.500   1.2147   0.01427   0.00703  -0.0840  0.0341  1.0000  -2.6637   0.0000   0.0000   0.0000   0.3101
   7.600   1.2229   0.01455   0.00725  -0.0837  0.0269  1.0000  -2.7411   0.0000   0.0000   0.0000   0.3092
   7.700   1.2321   0.01472   0.00740  -0.0835  0.0246  1.0000  -2.8244   0.0000   0.0000   0.0000   0.3084
   7.800   1.2356   0.01548   0.00801  -0.0824  0.0060  1.0000  -2.8812   0.0000   0.0000   0.0000   0.3073
   7.900   1.2448   0.01564   0.00817  -0.0822  0.0057  1.0000  -2.9671   0.0000   0.0000   0.0000   0.3064
   8.000   1.2540   0.01580   0.00832  -0.0820  0.0054  1.0000  -3.0544   0.0000   0.0000   0.0000   0.3056
   8.100   1.2631   0.01596   0.00848  -0.0817  0.0051  1.0000  -3.1430   0.0000   0.0000   0.0000   0.3048
   8.200   1.2723   0.01611   0.00863  -0.0815  0.0049  1.0000  -3.2335   0.0000   0.0000   0.0000   0.3040
   8.300   1.2815   0.01626   0.00878  -0.0813  0.0046  1.0000  -3.3259   0.0000   0.0000   0.0000   0.3033
   8.400   1.2905   0.01642   0.00893  -0.0810  0.0043  1.0000  -3.4198   0.0000   0.0000   0.0000   0.3025
   8.500   1.2994   0.01659   0.00910  -0.0808  0.0040  1.0000  -3.5151   0.0000   0.0000   0.0000   0.3017
   8.600   1.3082   0.01676   0.00927  -0.0805  0.0037  1.0000  -3.6128   0.0000   0.0000   0.0000   0.3009
   8.700   1.3170   0.01693   0.00945  -0.0802  0.0034  1.0000  -3.7130   0.0000   0.0000   0.0000   0.3001
   8.800   1.3256   0.01711   0.00963  -0.0799  0.0031  1.0000  -3.8160   0.0000   0.0000   0.0000   0.2994
   8.900   1.3342   0.01730   0.00982  -0.0796  0.0029  1.0000  -3.9219   0.0000   0.0000   0.0000   0.2986
   9.000   1.3427   0.01748   0.01002  -0.0792  0.0027  1.0000  -4.0310   0.0000   0.0000   0.0000   0.2978
   9.100   1.3511   0.01767   0.01022  -0.0789  0.0025  1.0000  -4.1430   0.0000   0.0000   0.0000   0.2970
   9.200   1.3602   0.01777   0.01045  -0.0787  0.0038  1.0000  -4.1366   0.0000   0.0000   0.0000   0.2964
   9.300   1.3685   0.01796   0.01064  -0.0784  0.0037  1.0000  -4.2271   0.0000   0.0000   0.0000   0.2956
   9.400   1.3766   0.01815   0.01085  -0.0780  0.0035  1.0000  -4.3311   0.0000   0.0000   0.0000   0.2949
   9.500   1.3846   0.01836   0.01106  -0.0776  0.0032  1.0000  -4.4430   0.0000   0.0000   0.0000   0.2941
   9.600   1.3924   0.01857   0.01129  -0.0772  0.0028  1.0000  -4.5622   0.0000   0.0000   0.0000   0.2933
   9.700   1.4001   0.01878   0.01153  -0.0767  0.0026  1.0000  -4.6877   0.0000   0.0000   0.0000   0.2925
   9.800   1.4077   0.01900   0.01178  -0.0762  0.0024  1.0000  -4.8152   0.0000   0.0000   0.0000   0.2917
   9.900   1.4151   0.01923   0.01204  -0.0757  0.0023  1.0000  -4.9427   0.0000   0.0000   0.0000   0.2909
  10.000   1.4223   0.01946   0.01231  -0.0752  0.0022  1.0000  -5.0688   0.0000   0.0000   0.0000   0.2901
  10.100   1.4290   0.01969   0.01258  -0.0746  0.0021  1.0000  -5.1910   0.0000   0.0000   0.0000   0.2893
  10.200   1.4354   0.01993   0.01286  -0.0739  0.0020  1.0000  -5.3102   0.0000   0.0000   0.0000   0.2884
  10.300   1.4413   0.02018   0.01315  -0.0732  0.0020  1.0000  -5.4265   0.0000   0.0000   0.0000   0.2875
  10.400   1.4470   0.02045   0.01346  -0.0724  0.0020  1.0000  -5.5407   0.0000   0.0000   0.0000   0.2866
  10.500   1.4524   0.02073   0.01379  -0.0716  0.0020  1.0000  -5.6532   0.0000   0.0000   0.0000   0.2857
  10.600   1.4576   0.02102   0.01413  -0.0708  0.0019  1.0000  -5.7635   0.0000   0.0000   0.0000   0.2848
  10.700   1.4625   0.02133   0.01449  -0.0699  0.0019  1.0000  -5.8725   0.0000   0.0000   0.0000   0.2839
  10.800   1.4672   0.02166   0.01486  -0.0691  0.0019  1.0000  -5.9801   0.0000   0.0000   0.0000   0.2830
  10.900   1.4716   0.02200   0.01525  -0.0682  0.0019  1.0000  -6.0853   0.0000   0.0000   0.0000   0.2821
  11.000   1.4757   0.02236   0.01566  -0.0673  0.0019  1.0000  -6.1889   0.0000   0.0000   0.0000   0.2812
  11.100   1.4797   0.02274   0.01609  -0.0664  0.0019  1.0000  -6.2916   0.0000   0.0000   0.0000   0.2803
  11.200   1.4836   0.02314   0.01654  -0.0655  0.0019  1.0000  -6.3935   0.0000   0.0000   0.0000   0.2794
  11.300   1.4871   0.02356   0.01701  -0.0646  0.0019  1.0000  -6.4927   0.0000   0.0000   0.0000   0.2786
  11.400   1.4902   0.02401   0.01750  -0.0637  0.0020  1.0000  -6.5899   0.0000   0.0000   0.0000   0.2777
  11.500   1.4932   0.02446   0.01801  -0.0628  0.0020  1.0000  -6.6859   0.0000   0.0000   0.0000   0.2768
  11.600   1.4960   0.02495   0.01854  -0.0619  0.0020  1.0000  -6.7808   0.0000   0.0000   0.0000   0.2759
  11.700   1.4984   0.02547   0.01912  -0.0609  0.0020  1.0000  -6.8718   0.0000   0.0000   0.0000   0.2751
  11.800   1.5004   0.02602   0.01972  -0.0600  0.0020  1.0000  -6.9607   0.0000   0.0000   0.0000   0.2742
  11.900   1.5024   0.02659   0.02035  -0.0591  0.0021  1.0000  -7.0494   0.0000   0.0000   0.0000   0.2734
  12.000   1.5043   0.02718   0.02099  -0.0583  0.0021  1.0000  -7.1377   0.0000   0.0000   0.0000   0.2726
  12.100   1.5057   0.02782   0.02169  -0.0574  0.0021  1.0000  -7.2217   0.0000   0.0000   0.0000   0.2718
  12.200   1.5066   0.02849   0.02242  -0.0565  0.0021  1.0000  -7.3016   0.0000   0.0000   0.0000   0.2710
  12.300   1.5075   0.02920   0.02318  -0.0557  0.0022  1.0000  -7.3811   0.0000   0.0000   0.0000   0.2703
  12.400   1.5083   0.02992   0.02396  -0.0549  0.0022  1.0000  -7.4596   0.0000   0.0000   0.0000   0.2695
  12.500   1.5083   0.03069   0.02480  -0.0540  0.0022  1.0000  -7.5312   0.0000   0.0000   0.0000   0.2688
  12.600   1.5076   0.03153   0.02569  -0.0532  0.0023  1.0000  -7.5969   0.0000   0.0000   0.0000   0.2681
  12.700   1.5071   0.03239   0.02662  -0.0525  0.0023  1.0000  -7.6635   0.0000   0.0000   0.0000   0.2674
  12.800   1.5067   0.03329   0.02758  -0.0518  0.0023  1.0000  -7.7296   0.0000   0.0000   0.0000   0.2668
  12.900   1.5055   0.03429   0.02864  -0.0511  0.0024  1.0000  -7.7878   0.0000   0.0000   0.0000   0.2662
  13.000   1.5038   0.03536   0.02978  -0.0505  0.0024  1.0000  -7.8413   0.0000   0.0000   0.0000   0.2656
  13.100   1.5023   0.03645   0.03093  -0.0499  0.0024  1.0000  -7.8947   0.0000   0.0000   0.0000   0.2650
  13.200   1.5005   0.03760   0.03215  -0.0494  0.0025  1.0000  -7.9442   0.0000   0.0000   0.0000   0.2645
  13.300   1.4975   0.03890   0.03352  -0.0489  0.0025  1.0000  -7.9820   0.0000   0.0000   0.0000   0.2641
  13.400   1.4947   0.04022   0.03492  -0.0485  0.0026  1.0000  -8.0185   0.0000   0.0000   0.0000   0.2637
  13.500   1.4918   0.04159   0.03636  -0.0482  0.0026  1.0000  -8.0516   0.0000   0.0000   0.0000   0.2633
  13.600   1.4877   0.04311   0.03796  -0.0479  0.0027  1.0000  -8.0734   0.0000   0.0000   0.0000   0.2630
  13.700   1.4834   0.04471   0.03964  -0.0477  0.0027  1.0000  -8.0895   0.0000   0.0000   0.0000   0.2628
  13.800   1.4790   0.04633   0.04134  -0.0476  0.0028  1.0000  -8.1017   0.0000   0.0000   0.0000   0.2625
  13.900   1.4739   0.04809   0.04318  -0.0475  0.0028  1.0000  -8.1047   0.0000   0.0000   0.0000   0.2624
  14.000   1.4681   0.04997   0.04515  -0.0476  0.0029  1.0000  -8.1005   0.0000   0.0000   0.0000   0.2624
  14.100   1.4625   0.05183   0.04709  -0.0476  0.0029  1.0000  -8.0936   0.0000   0.0000   0.0000   0.2623
  14.200   1.4562   0.05372   0.04907  -0.0476  0.0030  1.0000  -8.0812   0.0000   0.0000   0.0000   0.2622
  14.300   1.4494   0.05583   0.05126  -0.0479  0.0030  1.0000  -8.0638   0.0000   0.0000   0.0000   0.2624
  14.400   1.4430   0.05791   0.05343  -0.0482  0.0031  1.0000  -8.0448   0.0000   0.0000   0.0000   0.2625
  14.500   1.4368   0.06005   0.05565  -0.0484  0.0032  1.0000  -8.0227   0.0000   0.0000   0.0000   0.2626
  14.600   1.4299   0.06242   0.05811  -0.0490  0.0032  1.0000  -7.9971   0.0000   0.0000   0.0000   0.2629
  14.700   1.4231   0.06481   0.06058  -0.0495  0.0033  1.0000  -7.9695   0.0000   0.0000   0.0000   0.2633
  14.800   1.4167   0.06717   0.06303  -0.0500  0.0034  1.0000  -7.9395   0.0000   0.0000   0.0000   0.2635
  14.900   1.4102   0.06958   0.06553  -0.0505  0.0035  1.0000  -7.9071   0.0000   0.0000   0.0000   0.2639
  15.000   1.4029   0.07224   0.06827  -0.0514  0.0035  1.0000  -7.8741   0.0000   0.0000   0.0000   0.2645
  15.100   1.3961   0.07483   0.07095  -0.0522  0.0036  1.0000  -7.8387   0.0000   0.0000   0.0000   0.2650
  15.200   1.3894   0.07739   0.07360  -0.0529  0.0037  1.0000  -7.8012   0.0000   0.0000   0.0000   0.2655
  15.300   1.3827   0.07998   0.07627  -0.0537  0.0038  1.0000  -7.7622   0.0000   0.0000   0.0000   0.2660
  15.400   1.3754   0.08282   0.07919  -0.0548  0.0038  1.0000  -7.7238   0.0000   0.0000   0.0000   0.2669
  15.500   1.3682   0.08561   0.08206  -0.0559  0.0039  1.0000  -7.6821   0.0000   0.0000   0.0000   0.2677
  15.600   1.3613   0.08835   0.08489  -0.0569  0.0040  1.0000  -7.6376   0.0000   0.0000   0.0000   0.2685
  15.700   1.3543   0.09110   0.08772  -0.0580  0.0041  1.0000  -7.5918   0.0000   0.0000   0.0000   0.2693
  15.800   1.3470   0.09402   0.09072  -0.0594  0.0041  1.0000  -7.5487   0.0000   0.0000   0.0000   0.2703
  15.900   1.3397   0.09698   0.09375  -0.0609  0.0042  1.0000  -7.5051   0.0000   0.0000   0.0000   0.2715
  16.000   1.3328   0.09983   0.09668  -0.0622  0.0042  1.0000  -7.4578   0.0000   0.0000   0.0000   0.2725
  16.100   1.3258   0.10266   0.09959  -0.0636  0.0043  1.0000  -7.4096   0.0000   0.0000   0.0000   0.2736
  16.200   1.3187   0.10562   0.10262  -0.0652  0.0043  1.0000  -7.3629   0.0000   0.0000   0.0000   0.2749
  16.300   1.3115   0.10870   0.10577  -0.0670  0.0044  1.0000  -7.3189   0.0000   0.0000   0.0000   0.2764
  16.400   1.3047   0.11163   0.10876  -0.0686  0.0044  1.0000  -7.2703   0.0000   0.0000   0.0000   0.2777
  16.500   1.2980   0.11452   0.11173  -0.0702  0.0045  1.0000  -7.2198   0.0000   0.0000   0.0000   0.2790
  16.600   1.2913   0.11728   0.11456  -0.0719  0.0045  1.0000  -7.1710   0.0000   0.0000   0.0000   0.2805
  16.700   1.2844   0.12019   0.11752  -0.0739  0.0045  1.0000  -7.1280   0.0000   0.0000   0.0000   0.2822
  16.800   1.2779   0.12300   0.12039  -0.0757  0.0045  1.0000  -7.0786   0.0000   0.0000   0.0000   0.2837
  16.900   1.2715   0.12585   0.12330  -0.0775  0.0046  1.0000  -7.0264   0.0000   0.0000   0.0000   0.2853
  17.000   1.2652   0.12878   0.12630  -0.0794  0.0046  1.0000  -6.9739   0.0000   0.0000   0.0000   0.2869
  17.100   1.2587   0.13200   0.12957  -0.0816  0.0046  1.0000  -6.9272   0.0000   0.0000   0.0000   0.2888
  17.200   1.2525   0.13519   0.13281  -0.0836  0.0046  1.0000  -6.8746   0.0000   0.0000   0.0000   0.2906
  17.300   1.2465   0.13835   0.13603  -0.0856  0.0046  1.0000  -6.8186   0.0000   0.0000   0.0000   0.2924
  17.400   1.2404   0.14157   0.13930  -0.0876  0.0046  1.0000  -6.7619   0.0000   0.0000   0.0000   0.2942
  17.500   1.2344   0.14507   0.14284  -0.0898  0.0046  1.0000  -6.7091   0.0000   0.0000   0.0000   0.2962
  17.600   1.2284   0.14855   0.14637  -0.0919  0.0046  1.0000  -6.6528   0.0000   0.0000   0.0000   0.2982
  17.700   1.2226   0.15199   0.14986  -0.0940  0.0046  1.0000  -6.5919   0.0000   0.0000   0.0000   0.3001
  17.800   1.2169   0.15552   0.15343  -0.0961  0.0046  1.0000  -6.5288   0.0000   0.0000   0.0000   0.3021
  17.900   1.2111   0.15926   0.15722  -0.0983  0.0046  1.0000  -6.4684   0.0000   0.0000   0.0000   0.3042
  18.000   1.2053   0.16304   0.16105  -0.1006  0.0045  1.0000  -6.4054   0.0000   0.0000   0.0000   0.3064
  18.100   1.1997   0.16679   0.16484  -0.1027  0.0045  1.0000  -6.3364   0.0000   0.0000   0.0000   0.3084
  18.200   1.1941   0.17064   0.16872  -0.1048  0.0045  1.0000  -6.2640   0.0000   0.0000   0.0000   0.3105
  18.300   1.1884   0.17471   0.17283  -0.1071  0.0045  1.0000  -6.1927   0.0000   0.0000   0.0000   0.3128
  18.400   1.1826   0.17882   0.17697  -0.1093  0.0044  1.0000  -6.1166   0.0000   0.0000   0.0000   0.3150
  18.500   1.1771   0.18295   0.18114  -0.1114  0.0044  1.0000  -6.0329   0.0000   0.0000   0.0000   0.3172
  18.600   1.1714   0.18718   0.18541  -0.1135  0.0044  1.0000  -5.9447   0.0000   0.0000   0.0000   0.3195
  18.700   1.1654   0.19173   0.18999  -0.1158  0.0043  1.0000  -5.8532   0.0000   0.0000   0.0000   0.3219
  18.800   1.1594   0.19632   0.19460  -0.1180  0.0043  1.0000  -5.7519   0.0000   0.0000   0.0000   0.3243
  18.900   1.1534   0.20099   0.19931  -0.1202  0.0043  1.0000  -5.6408   0.0000   0.0000   0.0000   0.3267
  19.000   1.1470   0.20599   0.20433  -0.1224  0.0042  1.0000  -5.5178   0.0000   0.0000   0.0000   0.3292
  19.100   1.1400   0.21136   0.20972  -0.1247  0.0042  1.0000  -5.3776   0.0000   0.0000   0.0000   0.3319
  19.200   1.1329   0.21688   0.21526  -0.1269  0.0042  1.0000  -5.2177   0.0000   0.0000   0.0000   0.3347
  19.300   1.1245   0.22320   0.22160  -0.1294  0.0041  1.0000  -5.0162   0.0000   0.0000   0.0000   0.3378
  19.400   1.1154   0.23001   0.22842  -0.1318  0.0041  1.0000  -4.7742   0.0000   0.0000   0.0000   0.3410
  19.500   1.1038   0.23836   0.23679  -0.1344  0.0042  1.0000  -4.4285   0.0000   0.0000   0.0000   0.3449
  19.600   1.0909   0.24780   0.24621  -0.1370  0.0044  1.0000  -3.9984   0.0000   0.0000   0.0000   0.3491
  19.700   1.0807   0.25617   0.25457  -0.1392  0.0047  1.0000  -3.6341   0.0000   0.0000   0.0000   0.3526
  19.800   1.0721   0.26369   0.26209  -0.1411  0.0050  1.0000  -3.3244   0.0000   0.0000   0.0000   0.3556
  19.900   1.0497   0.28271   0.28109  -0.1436  0.0121  1.0000  -2.2421   0.0000   0.0000   0.0000   0.3619
  20.000   1.0486   0.28584   0.28422  -0.1444  0.0122  1.0000  -2.2066   0.0000   0.0000   0.0000   0.3627
  20.100   1.0475   0.28890   0.28729  -0.1452  0.0122  1.0000  -2.1737   0.0000   0.0000   0.0000   0.3635
  20.200   1.0463   0.29191   0.29029  -0.1460  0.0121  1.0000  -2.1426   0.0000   0.0000   0.0000   0.3643
  20.300   1.0450   0.29485   0.29324  -0.1468  0.0120  1.0000  -2.1127   0.0000   0.0000   0.0000   0.3650
  20.400   1.0436   0.29774   0.29614  -0.1475  0.0119  1.0000  -2.0839   0.0000   0.0000   0.0000   0.3658
  20.500   1.0419   0.30056   0.29896  -0.1481  0.0117  1.0000  -2.0561   0.0000   0.0000   0.0000   0.3666
  20.600   1.0400   0.30330   0.30170  -0.1488  0.0115  1.0000  -2.0291   0.0000   0.0000   0.0000   0.3673
  20.700   1.0378   0.30595   0.30435  -0.1493  0.0114  1.0000  -2.0027   0.0000   0.0000   0.0000   0.3681
  20.800   1.0350   0.30847   0.30689  -0.1498  0.0112  1.0000  -1.9765   0.0000   0.0000   0.0000   0.3688
  20.900   1.0317   0.31084   0.30926  -0.1502  0.0110  1.0000  -1.9500   0.0000   0.0000   0.0000   0.3696
  21.000   1.0273   0.31299   0.31142  -0.1505  0.0108  1.0000  -1.9222   0.0000   0.0000   0.0000   0.3704
  21.100   0.9674   0.30309   0.30160  -0.1447  0.0108  1.0000  -1.7422   0.0000   0.0000   0.0000   0.3743
  21.200   0.9592   0.30302   0.30154  -0.1444  0.0107  1.0000  -1.7065   0.0000   0.0000   0.0000   0.3752
  21.300   0.9527   0.30320   0.30173  -0.1443  0.0105  1.0000  -1.6764   0.0000   0.0000   0.0000   0.3761
  21.400   0.9471   0.30349   0.30204  -0.1443  0.0104  1.0000  -1.6500   0.0000   0.0000   0.0000   0.3769
  21.500   0.9422   0.30387   0.30243  -0.1443  0.0102  1.0000  -1.6266   0.0000   0.0000   0.0000   0.3777
  21.600   0.9379   0.30431   0.30288  -0.1443  0.0100  1.0000  -1.6058   0.0000   0.0000   0.0000   0.3784
  21.700   0.9340   0.30480   0.30337  -0.1444  0.0099  1.0000  -1.5871   0.0000   0.0000   0.0000   0.3790
  21.800   0.9304   0.30531   0.30389  -0.1445  0.0097  1.0000  -1.5702   0.0000   0.0000   0.0000   0.3797
  21.900   0.9272   0.30584   0.30443  -0.1447  0.0095  1.0000  -1.5551   0.0000   0.0000   0.0000   0.3803
  22.000   0.9243   0.30640   0.30499  -0.1448  0.0094  1.0000  -1.5415   0.0000   0.0000   0.0000   0.3808
  22.100   0.9215   0.30696   0.30556  -0.1450  0.0092  1.0000  -1.5293   0.0000   0.0000   0.0000   0.3814
  22.200   0.9190   0.30754   0.30614  -0.1452  0.0091  1.0000  -1.5185   0.0000   0.0000   0.0000   0.3819
  22.300   0.9167   0.30813   0.30674  -0.1454  0.0090  1.0000  -1.5089   0.0000   0.0000   0.0000   0.3824
  22.400   0.9145   0.30872   0.30733  -0.1456  0.0088  1.0000  -1.5004   0.0000   0.0000   0.0000   0.3829
  22.500   0.9124   0.30932   0.30794  -0.1458  0.0087  1.0000  -1.4930   0.0000   0.0000   0.0000   0.3834
  22.600   0.9105   0.30992   0.30854  -0.1461  0.0086  1.0000  -1.4867   0.0000   0.0000   0.0000   0.3839
  22.700   0.9092   0.31040   0.30903  -0.1463  0.0083  1.0000  -1.4960   0.0000   0.0000   0.0000   0.3842
  22.800   0.9080   0.31084   0.30948  -0.1465  0.0081  1.0000  -1.5117   0.0000   0.0000   0.0000   0.3845
  22.900   0.9071   0.31124   0.30988  -0.1467  0.0079  1.0000  -1.5311   0.0000   0.0000   0.0000   0.3847
  23.000   0.9063   0.31160   0.31025  -0.1470  0.0076  1.0000  -1.5545   0.0000   0.0000   0.0000   0.3849
  23.100   0.9056   0.31192   0.31058  -0.1472  0.0075  1.0000  -1.5820   0.0000   0.0000   0.0000   0.3851
  23.200   0.9051   0.31219   0.31085  -0.1473  0.0073  1.0000  -1.6140   0.0000   0.0000   0.0000   0.3852
  23.300   0.9047   0.31240   0.31107  -0.1475  0.0071  1.0000  -1.6506   0.0000   0.0000   0.0000   0.3852
  23.400   0.9044   0.31255   0.31122  -0.1476  0.0069  1.0000  -1.6920   0.0000   0.0000   0.0000   0.3851
  23.500   0.9033   0.31286   0.31154  -0.1478  0.0068  1.0000  -1.7163   0.0000   0.0000   0.0000   0.3853
  23.600   0.9006   0.31325   0.31194  -0.1478  0.0065  1.0000  -1.7168   0.0000   0.0000   0.0000   0.3857
  23.700   0.8851   0.31594   0.31461  -0.1476  0.0060  1.0000  -1.3983   0.0000   0.0000   0.0000   0.3889
  23.800   0.8840   0.31673   0.31540  -0.1480  0.0060  1.0000  -1.3854   0.0000   0.0000   0.0000   0.3893
  23.900   0.8829   0.31752   0.31620  -0.1483  0.0060  1.0000  -1.3730   0.0000   0.0000   0.0000   0.3897
  24.000   0.8819   0.31831   0.31699  -0.1486  0.0059  1.0000  -1.3612   0.0000   0.0000   0.0000   0.3902
  24.100   0.8810   0.31911   0.31779  -0.1489  0.0059  1.0000  -1.3499   0.0000   0.0000   0.0000   0.3906


