xflr5 v6.61

 Calculated polar for: SD7032-099-88

 1 1 Reynolds number fixed          Mach number fixed         

 xtrf =   1.000 (top)        1.000 (bottom)
 Mach =   0.000     Re =     0.130 e 6     Ncrit =   9.000

  alpha     CL        CD       CDp       Cm    Top Xtr Bot Xtr   Cpmin    Chinge    XCp    
 ------- -------- --------- --------- -------- ------- ------- -------- --------- ---------
 -10.000  -0.3137   0.11733   0.11257  -0.0294  1.0000  0.0453  -1.2213   0.0000   0.0000   0.0000   0.1472
  -9.900  -0.3118   0.11616   0.11141  -0.0299  1.0000  0.0459  -1.2241   0.0000   0.0000   0.0000   0.1453
  -9.800  -0.3101   0.11500   0.11027  -0.0304  1.0000  0.0464  -1.2275   0.0000   0.0000   0.0000   0.1433
  -9.700  -0.3084   0.11385   0.10913  -0.0308  1.0000  0.0470  -1.2317   0.0000   0.0000   0.0000   0.1413
  -9.600  -0.3068   0.11272   0.10801  -0.0313  1.0000  0.0475  -1.2367   0.0000   0.0000   0.0000   0.1393
  -9.500  -0.3054   0.11160   0.10692  -0.0318  1.0000  0.0481  -1.2427   0.0000   0.0000   0.0000   0.1373
  -9.400  -0.3041   0.11052   0.10585  -0.0323  1.0000  0.0487  -1.2500   0.0000   0.0000   0.0000   0.1352
  -9.300  -0.3030   0.10947   0.10482  -0.0329  1.0000  0.0493  -1.2588   0.0000   0.0000   0.0000   0.1331
  -9.200  -0.3022   0.10848   0.10385  -0.0335  1.0000  0.0500  -1.2694   0.0000   0.0000   0.0000   0.1310
  -9.100  -0.3017   0.10756   0.10296  -0.0341  1.0000  0.0506  -1.2823   0.0000   0.0000   0.0000   0.1288
  -9.000  -0.3015   0.10675   0.10216  -0.0348  1.0000  0.0512  -1.2978   0.0000   0.0000   0.0000   0.1266
  -8.900  -0.3017   0.10605   0.10150  -0.0355  1.0000  0.0519  -1.3156   0.0000   0.0000   0.0000   0.1244
  -8.800  -0.3023   0.10548   0.10096  -0.0362  1.0000  0.0524  -1.3347   0.0000   0.0000   0.0000   0.1224
  -8.700  -0.3030   0.10499   0.10050  -0.0369  1.0000  0.0529  -1.3529   0.0000   0.0000   0.0000   0.1206
  -8.600  -0.3041   0.10450   0.10004  -0.0375  1.0000  0.0533  -1.3704   0.0000   0.0000   0.0000   0.1194
  -8.500  -0.3050   0.10398   0.09954  -0.0378  1.0000  0.0536  -1.3835   0.0000   0.0000   0.0000   0.1188
  -8.400  -0.3059   0.10339   0.09899  -0.0379  1.0000  0.0538  -1.3935   0.0000   0.0000   0.0000   0.1189
  -8.300  -0.3073   0.10277   0.09840  -0.0379  1.0000  0.0540  -1.4034   0.0000   0.0000   0.0000   0.1196
  -8.200  -0.3092   0.10213   0.09780  -0.0378  1.0000  0.0541  -1.4135   0.0000   0.0000   0.0000   0.1209
  -8.100  -0.3117   0.10150   0.09720  -0.0375  1.0000  0.0542  -1.4239   0.0000   0.0000   0.0000   0.1230
  -8.000  -0.3148   0.10090   0.09663  -0.0371  1.0000  0.0543  -1.4345   0.0000   0.0000   0.0000   0.1258
  -7.900  -0.3187   0.10033   0.09610  -0.0365  1.0000  0.0543  -1.4456   0.0000   0.0000   0.0000   0.1293
  -7.800  -0.3233   0.09981   0.09562  -0.0357  1.0000  0.0544  -1.4570   0.0000   0.0000   0.0000   0.1335
  -7.700  -0.3285   0.09933   0.09518  -0.0348  1.0000  0.0544  -1.4689   0.0000   0.0000   0.0000   0.1382
  -7.600  -0.3343   0.09889   0.09477  -0.0339  1.0000  0.0544  -1.4811   0.0000   0.0000   0.0000   0.1433
  -7.500  -0.3404   0.09846   0.09437  -0.0328  1.0000  0.0545  -1.4937   0.0000   0.0000   0.0000   0.1483
  -7.400  -0.3463   0.09797   0.09392  -0.0320  1.0000  0.0545  -1.5065   0.0000   0.0000   0.0000   0.1527
  -7.300  -0.3509   0.09732   0.09330  -0.0315  1.0000  0.0545  -1.5192   0.0000   0.0000   0.0000   0.1554
  -7.200  -0.3549   0.09657   0.09259  -0.0312  1.0000  0.0546  -1.5321   0.0000   0.0000   0.0000   0.1573
  -7.100  -0.3586   0.09577   0.09182  -0.0311  1.0000  0.0546  -1.5453   0.0000   0.0000   0.0000   0.1587
  -7.000  -0.3620   0.09492   0.09099  -0.0311  1.0000  0.0546  -1.5588   0.0000   0.0000   0.0000   0.1598
  -6.900  -0.3652   0.09402   0.09011  -0.0312  1.0000  0.0546  -1.5727   0.0000   0.0000   0.0000   0.1604
  -6.800  -0.3680   0.09308   0.08918  -0.0313  1.0000  0.0547  -1.5869   0.0000   0.0000   0.0000   0.1608
  -6.700  -0.3706   0.09209   0.08821  -0.0316  1.0000  0.0547  -1.6014   0.0000   0.0000   0.0000   0.1609
  -6.600  -0.3728   0.09105   0.08718  -0.0318  1.0000  0.0547  -1.6158   0.0000   0.0000   0.0000   0.1608
  -6.500  -0.3747   0.08998   0.08612  -0.0321  1.0000  0.0548  -1.6302   0.0000   0.0000   0.0000   0.1606
  -6.400  -0.3764   0.08889   0.08503  -0.0324  1.0000  0.0548  -1.6442   0.0000   0.0000   0.0000   0.1604
  -6.300  -0.3778   0.08777   0.08391  -0.0326  1.0000  0.0548  -1.6579   0.0000   0.0000   0.0000   0.1601
  -6.200  -0.3789   0.08662   0.08276  -0.0329  1.0000  0.0548  -1.6712   0.0000   0.0000   0.0000   0.1597
  -6.100  -0.3936   0.08076   0.07699  -0.0338  1.0000  0.0562  -1.7775   0.0000   0.0000   0.0000   0.1608
  -6.000  -0.3975   0.07857   0.07481  -0.0335  1.0000  0.0568  -1.7898   0.0000   0.0000   0.0000   0.1623
  -5.900  -0.3994   0.07699   0.07326  -0.0329  1.0000  0.0574  -1.7830   0.0000   0.0000   0.0000   0.1643
  -5.800  -0.3998   0.07586   0.07216  -0.0318  1.0000  0.0579  -1.7577   0.0000   0.0000   0.0000   0.1674
  -5.700  -0.3957   0.07457   0.07089  -0.0314  0.9992  0.0587  -1.7206   0.0000   0.0000   0.0000   0.1676
  -5.600  -0.3855   0.07296   0.06929  -0.0323  0.9973  0.0598  -1.6724   0.0000   0.0000   0.0000   0.1630
  -5.500  -0.3747   0.07134   0.06766  -0.0338  0.9951  0.0609  -1.6325   0.0000   0.0000   0.0000   0.1566
  -5.400  -0.3633   0.06965   0.06597  -0.0357  0.9926  0.0621  -1.5992   0.0000   0.0000   0.0000   0.1485
  -5.300  -0.3508   0.06782   0.06411  -0.0383  0.9902  0.0634  -1.5734   0.0000   0.0000   0.0000   0.1377
  -5.200  -0.3371   0.06582   0.06209  -0.0414  0.9881  0.0649  -1.5540   0.0000   0.0000   0.0000   0.1239
  -5.100  -0.3247   0.06385   0.06007  -0.0443  0.9856  0.0664  -1.5423   0.0000   0.0000   0.0000   0.1101
  -5.000  -0.3129   0.06189   0.05806  -0.0471  0.9824  0.0679  -1.5359   0.0000   0.0000   0.0000   0.0959
  -4.900  -0.2994   0.05979   0.05590  -0.0504  0.9794  0.0696  -1.5325   0.0000   0.0000   0.0000   0.0782
  -4.800  -0.2840   0.05753   0.05343  -0.0540  0.9768  0.0710  -1.5365   0.0000   0.0000   0.0000   0.0562
  -4.700  -0.2663   0.05526   0.05104  -0.0580  0.9745  0.0732  -1.5383   0.0000   0.0000   0.0000   0.0284
  -4.600  -0.2296   0.05672   0.05209  -0.0638  0.9719  0.0812  -1.5200   0.0000   0.0000   0.0000  -0.0323
  -4.500  -0.2189   0.05558   0.05084  -0.0650  0.9678  0.0815  -1.5119   0.0000   0.0000   0.0000  -0.0514
  -4.400  -0.2159   0.04895   0.04407  -0.0690  0.9647  0.0841  -1.5954   0.0000   0.0000   0.0000  -0.0744
  -4.300  -0.2057   0.04609   0.04117  -0.0709  0.9619  0.0859  -1.5820   0.0000   0.0000   0.0000  -0.0994
  -4.200  -0.1918   0.04420   0.03924  -0.0725  0.9594  0.0870  -1.5547   0.0000   0.0000   0.0000  -0.1329
  -4.100  -0.1755   0.04231   0.03725  -0.0745  0.9571  0.0874  -1.5385   0.0000   0.0000   0.0000  -0.1800
  -4.000  -0.1471   0.03425   0.02818  -0.0760  0.9570  0.0311  -2.0690   0.0000   0.0000   0.0000  -0.2748
  -3.900  -0.1299   0.03199   0.02566  -0.0779  0.9553  0.0301  -2.0829   0.0000   0.0000   0.0000  -0.3589
  -3.800  -0.1118   0.03016   0.02356  -0.0797  0.9539  0.0293  -2.0831   0.0000   0.0000   0.0000  -0.4729
  -3.700  -0.0933   0.02858   0.02173  -0.0813  0.9526  0.0288  -2.0741   0.0000   0.0000   0.0000  -0.6336
  -3.600  -0.0747   0.02723   0.02013  -0.0828  0.9514  0.0286  -2.0563   0.0000   0.0000   0.0000  -0.8737
  -3.500  -0.0594   0.02617   0.01886  -0.0836  0.9495  0.0285  -2.0336   0.0000   0.0000   0.0000  -1.1771
  -3.400  -0.0512   0.02542   0.01798  -0.0831  0.9452  0.0286  -2.0141   0.0000   0.0000   0.0000  -1.3943
  -3.300  -0.0383   0.02461   0.01702  -0.0833  0.9420  0.0289  -1.9839   0.0000   0.0000   0.0000  -1.9552
  -3.200  -0.0235   0.02384   0.01610  -0.0839  0.9391  0.0295  -1.9455   0.0000   0.0000   0.0000  -3.3638
  -3.100  -0.0075   0.02314   0.01527  -0.0846  0.9365  0.0303  -1.8987   0.0000   0.0000   0.0000  -11.2086
  -3.000   0.0096   0.02254   0.01457  -0.0856  0.9341  0.0313  -1.8421   0.0000   0.0000   0.0000   9.2881
  -2.900   0.0276   0.02212   0.01406  -0.0866  0.9319  0.0325  -1.7725   0.0000   0.0000   0.0000   3.4232
  -2.800   0.0455   0.02113   0.01300  -0.0878  0.9302  0.0342  -1.7372   0.0000   0.0000   0.0000   2.1985
  -2.700   0.0635   0.02011   0.01193  -0.0891  0.9287  0.0374  -1.7047   0.0000   0.0000   0.0000   1.6658
  -2.600   0.0827   0.01966   0.01151  -0.0906  0.9271  0.0410  -1.6366   0.0000   0.0000   0.0000   1.3559
  -2.500   0.1025   0.01945   0.01133  -0.0922  0.9256  0.0464  -1.5574   0.0000   0.0000   0.0000   1.1578
  -2.400   0.1107   0.01958   0.01148  -0.0918  0.9207  0.0523  -1.4893   0.0000   0.0000   0.0000   1.0859
  -2.300   0.1188   0.01926   0.01119  -0.0913  0.9157  0.0590  -1.4503   0.0000   0.0000   0.0000   1.0251
  -2.200   0.1316   0.01895   0.01098  -0.0918  0.9120  0.0694  -1.3988   0.0000   0.0000   0.0000   0.9532
  -2.000   0.1631   0.01637   0.00957  -0.0937  0.9076  0.3254  -1.5583   0.0000   0.0000   0.0000   0.8282
  -1.900   0.1770   0.01572   0.00960  -0.0943  0.9051  0.4902  -1.5014   0.0000   0.0000   0.0000   0.7858
  -1.800   0.1886   0.01524   0.00971  -0.0937  0.9027  0.6352  -1.4415   0.0000   0.0000   0.0000   0.7500
  -1.700   0.2006   0.01500   0.00970  -0.0931  0.9003  0.7185  -1.3788   0.0000   0.0000   0.0000   0.7165
  -1.600   0.2135   0.01482   0.00962  -0.0926  0.8981  0.7748  -1.3129   0.0000   0.0000   0.0000   0.6857
  -1.500   0.2269   0.01467   0.00952  -0.0922  0.8961  0.8192  -1.2450   0.0000   0.0000   0.0000   0.6582
  -1.400   0.2384   0.01455   0.00943  -0.0914  0.8937  0.8637  -1.1813   0.0000   0.0000   0.0000   0.6351
  -1.300   0.2405   0.01451   0.00942  -0.0894  0.8866  0.9033  -1.1451   0.0000   0.0000   0.0000   0.6230
  -1.200   0.2712   0.01425   0.00913  -0.0928  0.8848  1.0000  -1.0218   0.0000   0.0000   0.0000   0.5933
  -1.100   0.2829   0.01424   0.00891  -0.0930  0.8799  1.0000  -0.9221   0.0000   0.0000   0.0000   0.5796
  -1.000   0.2969   0.01419   0.00878  -0.0935  0.8759  1.0000  -0.8622   0.0000   0.0000   0.0000   0.5656
  -0.900   0.3122   0.01412   0.00861  -0.0942  0.8725  1.0000  -0.7996   0.0000   0.0000   0.0000   0.5521
  -0.800   0.3281   0.01403   0.00844  -0.0949  0.8694  1.0000  -0.7358   0.0000   0.0000   0.0000   0.5395
  -0.700   0.3443   0.01392   0.00824  -0.0957  0.8667  1.0000  -0.6723   0.0000   0.0000   0.0000   0.5278
  -0.600   0.3607   0.01381   0.00805  -0.0964  0.8641  1.0000  -0.6137   0.0000   0.0000   0.0000   0.5171
  -0.500   0.3770   0.01371   0.00788  -0.0971  0.8616  1.0000  -0.6275   0.0000   0.0000   0.0000   0.5072
  -0.400   0.3860   0.01375   0.00786  -0.0967  0.8563  1.0000  -0.6365   0.0000   0.0000   0.0000   0.5000
  -0.300   0.3929   0.01380   0.00787  -0.0959  0.8493  1.0000  -0.6440   0.0000   0.0000   0.0000   0.4937
  -0.200   0.4036   0.01378   0.00780  -0.0958  0.8440  1.0000  -0.6542   0.0000   0.0000   0.0000   0.4866
  -0.100   0.4157   0.01373   0.00770  -0.0958  0.8396  1.0000  -0.6654   0.0000   0.0000   0.0000   0.4796
   0.000   0.4288   0.01365   0.00756  -0.0959  0.8357  1.0000  -0.6773   0.0000   0.0000   0.0000   0.4728
   0.100   0.4426   0.01355   0.00740  -0.0962  0.8322  1.0000  -0.6897   0.0000   0.0000   0.0000   0.4663
   0.200   0.4566   0.01343   0.00723  -0.0964  0.8289  1.0000  -0.7024   0.0000   0.0000   0.0000   0.4600
   0.300   0.4707   0.01333   0.00707  -0.0966  0.8257  1.0000  -0.7152   0.0000   0.0000   0.0000   0.4540
   0.400   0.4838   0.01328   0.00696  -0.0966  0.8220  1.0000  -0.7289   0.0000   0.0000   0.0000   0.4484
   0.500   0.4905   0.01335   0.00702  -0.0959  0.8147  1.0000  -0.7378   0.0000   0.0000   0.0000   0.4441
   0.600   0.5001   0.01335   0.00699  -0.0955  0.8082  1.0000  -0.7489   0.0000   0.0000   0.0000   0.4395
   0.700   0.5112   0.01330   0.00690  -0.0953  0.8026  1.0000  -0.7614   0.0000   0.0000   0.0000   0.4349
   0.800   0.5232   0.01322   0.00678  -0.0952  0.7976  1.0000  -0.7745   0.0000   0.0000   0.0000   0.4303
   0.900   0.5356   0.01313   0.00664  -0.0952  0.7932  1.0000  -0.7880   0.0000   0.0000   0.0000   0.4259
   1.000   0.5481   0.01305   0.00652  -0.0952  0.7892  1.0000  -0.8018   0.0000   0.0000   0.0000   0.4217
   1.100   0.5611   0.01299   0.00640  -0.0952  0.7853  1.0000  -0.8178   0.0000   0.0000   0.0000   0.4176
   1.200   0.5730   0.01300   0.00636  -0.0951  0.7806  1.0000  -0.8329   0.0000   0.0000   0.0000   0.4139
   1.300   0.5815   0.01306   0.00643  -0.0947  0.7738  1.0000  -0.8450   0.0000   0.0000   0.0000   0.4106
   1.400   0.5914   0.01308   0.00642  -0.0944  0.7670  1.0000  -0.8584   0.0000   0.0000   0.0000   0.4073
   1.500   0.6022   0.01304   0.00636  -0.0941  0.7606  1.0000  -0.8727   0.0000   0.0000   0.0000   0.4039
   1.600   0.6135   0.01298   0.00626  -0.0939  0.7547  1.0000  -0.8877   0.0000   0.0000   0.0000   0.4006
   1.700   0.6253   0.01291   0.00614  -0.0937  0.7492  1.0000  -0.9032   0.0000   0.0000   0.0000   0.3973
   1.800   0.6377   0.01285   0.00602  -0.0936  0.7439  1.0000  -0.9192   0.0000   0.0000   0.0000   0.3941
   1.900   0.6499   0.01287   0.00597  -0.0936  0.7382  1.0000  -0.9350   0.0000   0.0000   0.0000   0.3912
   2.000   0.6589   0.01294   0.00605  -0.0932  0.7313  1.0000  -0.9478   0.0000   0.0000   0.0000   0.3886
   2.100   0.6688   0.01298   0.00608  -0.0929  0.7243  1.0000  -0.9614   0.0000   0.0000   0.0000   0.3860
   2.200   0.6793   0.01300   0.00609  -0.0927  0.7175  1.0000  -0.9757   0.0000   0.0000   0.0000   0.3834
   2.300   0.6902   0.01299   0.00613  -0.0925  0.7112  1.0000  -0.9911   0.0000   0.0000   0.0000   0.3809
   2.400   0.7016   0.01299   0.00607  -0.0923  0.7052  1.0000  -1.0088   0.0000   0.0000   0.0000   0.3784
   2.500   0.7135   0.01300   0.00600  -0.0922  0.6992  1.0000  -1.0272   0.0000   0.0000   0.0000   0.3759
   2.600   0.7252   0.01308   0.00600  -0.0921  0.6926  1.0000  -1.0452   0.0000   0.0000   0.0000   0.3737
   2.700   0.7345   0.01314   0.00609  -0.0918  0.6856  1.0000  -1.0608   0.0000   0.0000   0.0000   0.3715
   2.800   0.7443   0.01319   0.00614  -0.0915  0.6779  1.0000  -1.0771   0.0000   0.0000   0.0000   0.3694
   2.900   0.7546   0.01321   0.00614  -0.0912  0.6702  1.0000  -1.0940   0.0000   0.0000   0.0000   0.3673
   3.000   0.7653   0.01323   0.00611  -0.0910  0.6628  1.0000  -1.1115   0.0000   0.0000   0.0000   0.3651
   3.100   0.7765   0.01326   0.00606  -0.0908  0.6557  1.0000  -1.1296   0.0000   0.0000   0.0000   0.3631
   3.200   0.7882   0.01337   0.00606  -0.0907  0.6482  1.0000  -1.1481   0.0000   0.0000   0.0000   0.3611
   3.300   0.7981   0.01346   0.00615  -0.0905  0.6414  1.0000  -1.1646   0.0000   0.0000   0.0000   0.3593
   3.400   0.8078   0.01353   0.00624  -0.0902  0.6340  1.0000  -1.1810   0.0000   0.0000   0.0000   0.3575
   3.500   0.8178   0.01358   0.00630  -0.0899  0.6261  1.0000  -1.1978   0.0000   0.0000   0.0000   0.3557
   3.600   0.8281   0.01364   0.00631  -0.0897  0.6183  1.0000  -1.2152   0.0000   0.0000   0.0000   0.3539
   3.700   0.8388   0.01370   0.00630  -0.0894  0.6106  1.0000  -1.2330   0.0000   0.0000   0.0000   0.3522
   3.800   0.8498   0.01381   0.00631  -0.0892  0.6026  1.0000  -1.2533   0.0000   0.0000   0.0000   0.3504
   3.900   0.8602   0.01395   0.00642  -0.0891  0.5950  1.0000  -1.2737   0.0000   0.0000   0.0000   0.3489
   4.000   0.8698   0.01403   0.00653  -0.0888  0.5878  1.0000  -1.2933   0.0000   0.0000   0.0000   0.3473
   4.100   0.8797   0.01410   0.00661  -0.0885  0.5800  1.0000  -1.3133   0.0000   0.0000   0.0000   0.3458
   4.200   0.8898   0.01419   0.00668  -0.0883  0.5724  1.0000  -1.3337   0.0000   0.0000   0.0000   0.3443
   4.300   0.9001   0.01429   0.00673  -0.0881  0.5650  1.0000  -1.3546   0.0000   0.0000   0.0000   0.3428
   4.400   0.9106   0.01442   0.00678  -0.0879  0.5575  1.0000  -1.3758   0.0000   0.0000   0.0000   0.3413
   4.500   0.9216   0.01467   0.00691  -0.0878  0.5488  1.0000  -1.4000   0.0000   0.0000   0.0000   0.3400
   4.600   0.9311   0.01474   0.00704  -0.0875  0.5429  1.0000  -1.4238   0.0000   0.0000   0.0000   0.3386
   4.700   0.9407   0.01483   0.00717  -0.0873  0.5356  1.0000  -1.4480   0.0000   0.0000   0.0000   0.3373
   4.800   0.9505   0.01492   0.00726  -0.0870  0.5277  1.0000  -1.4727   0.0000   0.0000   0.0000   0.3359
   4.900   0.9604   0.01502   0.00733  -0.0867  0.5197  1.0000  -1.4978   0.0000   0.0000   0.0000   0.3346
   5.000   0.9704   0.01515   0.00738  -0.0864  0.5117  1.0000  -1.5233   0.0000   0.0000   0.0000   0.3332
   5.100   0.9807   0.01539   0.00750  -0.0862  0.5029  1.0000  -1.5536   0.0000   0.0000   0.0000   0.3320
   5.200   0.9906   0.01555   0.00767  -0.0860  0.4958  1.0000  -1.5837   0.0000   0.0000   0.0000   0.3308
   5.300   1.0000   0.01564   0.00782  -0.0858  0.4891  1.0000  -1.6136   0.0000   0.0000   0.0000   0.3296
   5.400   1.0097   0.01576   0.00796  -0.0855  0.4819  1.0000  -1.6440   0.0000   0.0000   0.0000   0.3284
   5.500   1.0194   0.01588   0.00808  -0.0852  0.4747  1.0000  -1.6749   0.0000   0.0000   0.0000   0.3272
   5.600   1.0292   0.01603   0.00818  -0.0850  0.4674  1.0000  -1.7120   0.0000   0.0000   0.0000   0.3261
   5.700   1.0390   0.01623   0.00830  -0.0847  0.4599  1.0000  -1.7522   0.0000   0.0000   0.0000   0.3249
   5.800   1.0495   0.01661   0.00856  -0.0846  0.4506  1.0000  -1.7932   0.0000   0.0000   0.0000   0.3239
   5.900   1.0587   0.01669   0.00872  -0.0844  0.4455  1.0000  -1.8320   0.0000   0.0000   0.0000   0.3228
   6.000   1.0685   0.01678   0.00926  -0.0841  0.4402  1.0000  -1.8777   0.0000   0.0000   0.0000   0.3217
   6.100   1.0779   0.01689   0.00942  -0.0838  0.4337  1.0000  -1.9160   0.0000   0.0000   0.0000   0.3207
   6.200   1.0873   0.01701   0.00955  -0.0835  0.4267  1.0000  -1.9548   0.0000   0.0000   0.0000   0.3196
   6.300   1.0967   0.01716   0.00966  -0.0832  0.4195  1.0000  -1.9942   0.0000   0.0000   0.0000   0.3185
   6.400   1.1061   0.01737   0.00979  -0.0829  0.4120  1.0000  -2.0339   0.0000   0.0000   0.0000   0.3175
   6.500   1.1162   0.01779   0.01009  -0.0828  0.4023  1.0000  -2.0744   0.0000   0.0000   0.0000   0.3166
   6.600   1.1252   0.01787   0.01025  -0.0825  0.3976  1.0000  -2.1132   0.0000   0.0000   0.0000   0.3156
   6.700   1.1343   0.01798   0.01044  -0.0822  0.3917  1.0000  -2.1524   0.0000   0.0000   0.0000   0.3146
   6.800   1.1435   0.01812   0.01062  -0.0819  0.3851  1.0000  -2.1921   0.0000   0.0000   0.0000   0.3136
   6.900   1.1525   0.01827   0.01078  -0.0815  0.3783  1.0000  -2.2321   0.0000   0.0000   0.0000   0.3126
   7.000   1.1615   0.01845   0.01092  -0.0812  0.3713  1.0000  -2.2722   0.0000   0.0000   0.0000   0.3117
   7.100   1.1704   0.01871   0.01109  -0.0809  0.3637  1.0000  -2.3419   0.0000   0.0000   0.0000   0.3107
   7.200   1.1800   0.01916   0.01144  -0.0807  0.3545  1.0000  -2.4207   0.0000   0.0000   0.0000   0.3099
   7.300   1.1886   0.01924   0.01162  -0.0803  0.3497  1.0000  -2.4969   0.0000   0.0000   0.0000   0.3089
   7.400   1.1973   0.01937   0.01181  -0.0800  0.3436  1.0000  -2.5742   0.0000   0.0000   0.0000   0.3080
   7.500   1.2060   0.01952   0.01200  -0.0796  0.3371  1.0000  -2.6528   0.0000   0.0000   0.0000   0.3071
   7.600   1.2146   0.01969   0.01218  -0.0792  0.3304  1.0000  -2.7321   0.0000   0.0000   0.0000   0.3062
   7.700   1.2230   0.01992   0.01235  -0.0788  0.3237  1.0000  -2.8117   0.0000   0.0000   0.0000   0.3052
   7.800   1.2313   0.02026   0.01259  -0.0784  0.3158  1.0000  -2.8916   0.0000   0.0000   0.0000   0.3044
   7.900   1.2398   0.02061   0.01291  -0.0781  0.3073  1.0000  -2.9728   0.0000   0.0000   0.0000   0.3035
   8.000   1.2472   0.02061   0.01300  -0.0776  0.3006  1.0000  -3.0522   0.0000   0.0000   0.0000   0.3026
   8.100   1.2543   0.02063   0.01305  -0.0770  0.2916  1.0000  -3.1325   0.0000   0.0000   0.0000   0.3016
   8.200   1.2606   0.02073   0.01307  -0.0763  0.2813  1.0000  -3.2116   0.0000   0.0000   0.0000   0.3006
   8.300   1.2659   0.02105   0.01322  -0.0755  0.2694  1.0000  -3.2865   0.0000   0.0000   0.0000   0.2996
   8.400   1.2728   0.02115   0.01334  -0.0750  0.2599  1.0000  -3.3682   0.0000   0.0000   0.0000   0.2987
   8.500   1.2796   0.02122   0.01344  -0.0744  0.2489  1.0000  -3.4510   0.0000   0.0000   0.0000   0.2978
   8.600   1.2848   0.02144   0.01356  -0.0737  0.2370  1.0000  -3.5279   0.0000   0.0000   0.0000   0.2968
   8.700   1.2887   0.02187   0.01380  -0.0728  0.2248  1.0000  -3.5980   0.0000   0.0000   0.0000   0.2958
   8.800   1.2966   0.02196   0.01397  -0.0725  0.2148  1.0000  -3.6879   0.0000   0.0000   0.0000   0.2950
   8.900   1.3026   0.02222   0.01418  -0.0719  0.2033  1.0000  -3.7697   0.0000   0.0000   0.0000   0.2942
   9.000   1.3071   0.02261   0.01444  -0.0711  0.1930  1.0000  -3.8441   0.0000   0.0000   0.0000   0.2932
   9.100   1.3125   0.02297   0.01476  -0.0704  0.1848  1.0000  -3.9228   0.0000   0.0000   0.0000   0.2924
   9.200   1.3204   0.02320   0.01503  -0.0701  0.1786  1.0000  -4.0137   0.0000   0.0000   0.0000   0.2916
   9.300   1.3271   0.02348   0.01532  -0.0696  0.1715  1.0000  -4.1006   0.0000   0.0000   0.0000   0.2908
   9.400   1.3328   0.02383   0.01563  -0.0689  0.1642  1.0000  -4.1831   0.0000   0.0000   0.0000   0.2900
   9.500   1.3427   0.02410   0.01640  -0.0686  0.1719  1.0000  -4.2014   0.0000   0.0000   0.0000   0.2892
   9.600   1.3482   0.02445   0.01674  -0.0680  0.1655  1.0000  -4.2742   0.0000   0.0000   0.0000   0.2884
   9.700   1.3517   0.02488   0.01709  -0.0671  0.1579  1.0000  -4.3435   0.0000   0.0000   0.0000   0.2874
   9.800   1.3550   0.02535   0.01750  -0.0662  0.1508  1.0000  -4.4122   0.0000   0.0000   0.0000   0.2865
   9.900   1.3619   0.02559   0.01783  -0.0657  0.1458  1.0000  -4.5016   0.0000   0.0000   0.0000   0.2857
  10.000   1.3676   0.02590   0.01818  -0.0650  0.1405  1.0000  -4.5857   0.0000   0.0000   0.0000   0.2849
  10.100   1.3721   0.02626   0.01856  -0.0642  0.1348  1.0000  -4.6655   0.0000   0.0000   0.0000   0.2840
  10.200   1.3755   0.02669   0.01896  -0.0633  0.1294  1.0000  -4.7403   0.0000   0.0000   0.0000   0.2831
  10.300   1.3778   0.02718   0.01941  -0.0623  0.1241  1.0000  -4.8096   0.0000   0.0000   0.0000   0.2821
  10.400   1.3800   0.02770   0.01991  -0.0613  0.1190  1.0000  -4.8781   0.0000   0.0000   0.0000   0.2811
  10.500   1.3859   0.02802   0.02031  -0.0608  0.1150  1.0000  -4.9692   0.0000   0.0000   0.0000   0.2804
  10.600   1.3907   0.02840   0.02074  -0.0601  0.1103  1.0000  -5.0547   0.0000   0.0000   0.0000   0.2796
  10.700   1.3945   0.02885   0.02121  -0.0593  0.1054  1.0000  -5.1353   0.0000   0.0000   0.0000   0.2788
  10.800   1.3970   0.02937   0.02172  -0.0585  0.1006  1.0000  -5.2095   0.0000   0.0000   0.0000   0.2779
  10.900   1.3982   0.02997   0.02230  -0.0575  0.0960  1.0000  -5.2766   0.0000   0.0000   0.0000   0.2770
  11.000   1.3985   0.03066   0.02296  -0.0565  0.0914  1.0000  -5.3369   0.0000   0.0000   0.0000   0.2761
  11.100   1.4031   0.03109   0.02345  -0.0559  0.0865  1.0000  -5.4262   0.0000   0.0000   0.0000   0.2754
  11.200   1.4053   0.03167   0.02401  -0.0552  0.0793  1.0000  -5.5036   0.0000   0.0000   0.0000   0.2747
  11.300   1.4047   0.03247   0.02472  -0.0543  0.0718  1.0000  -5.5634   0.0000   0.0000   0.0000   0.2739
  11.400   1.4040   0.03331   0.02550  -0.0535  0.0648  1.0000  -5.6214   0.0000   0.0000   0.0000   0.2731
  11.500   1.4062   0.03396   0.02617  -0.0528  0.0585  1.0000  -5.6972   0.0000   0.0000   0.0000   0.2724
  11.600   1.4063   0.03477   0.02697  -0.0521  0.0531  1.0000  -5.7580   0.0000   0.0000   0.0000   0.2717
  11.700   1.4048   0.03573   0.02790  -0.0512  0.0481  1.0000  -5.8069   0.0000   0.0000   0.0000   0.2710
  11.800   1.4041   0.03665   0.02883  -0.0505  0.0434  1.0000  -5.8577   0.0000   0.0000   0.0000   0.2703
  11.900   1.4036   0.03755   0.02976  -0.0497  0.0380  1.0000  -5.9084   0.0000   0.0000   0.0000   0.2696
  12.000   1.4007   0.03870   0.03089  -0.0490  0.0328  1.0000  -5.9422   0.0000   0.0000   0.0000   0.2690
  12.100   1.3963   0.04003   0.03219  -0.0482  0.0282  1.0000  -5.9623   0.0000   0.0000   0.0000   0.2684
  12.200   1.3941   0.04119   0.03340  -0.0476  0.0245  1.0000  -5.9917   0.0000   0.0000   0.0000   0.2678
  12.300   1.3904   0.04252   0.03476  -0.0470  0.0215  1.0000  -6.0106   0.0000   0.0000   0.0000   0.2673
  12.400   1.3860   0.04396   0.03621  -0.0465  0.0193  1.0000  -6.0252   0.0000   0.0000   0.0000   0.2668
  12.500   1.3809   0.04551   0.03778  -0.0460  0.0176  1.0000  -6.0326   0.0000   0.0000   0.0000   0.2664
  12.600   1.3749   0.04720   0.03952  -0.0456  0.0164  1.0000  -6.0292   0.0000   0.0000   0.0000   0.2661
  12.700   1.3681   0.04902   0.04143  -0.0453  0.0154  1.0000  -6.0152   0.0000   0.0000   0.0000   0.2658
  12.800   1.3619   0.05082   0.04327  -0.0452  0.0148  1.0000  -6.0077   0.0000   0.0000   0.0000   0.2657
  12.900   1.3586   0.05232   0.04487  -0.0451  0.0145  1.0000  -6.0302   0.0000   0.0000   0.0000   0.2655
  13.000   1.3551   0.05388   0.04652  -0.0451  0.0141  1.0000  -6.0503   0.0000   0.0000   0.0000   0.2654
  13.100   1.3508   0.05551   0.04824  -0.0451  0.0139  1.0000  -6.0654   0.0000   0.0000   0.0000   0.2653
  13.200   1.3464   0.05720   0.05002  -0.0452  0.0136  1.0000  -6.0779   0.0000   0.0000   0.0000   0.2653
  13.300   1.3420   0.05894   0.05185  -0.0454  0.0134  1.0000  -6.0902   0.0000   0.0000   0.0000   0.2654
  13.400   1.3374   0.06076   0.05375  -0.0457  0.0131  1.0000  -6.1001   0.0000   0.0000   0.0000   0.2655
  13.500   1.3326   0.06267   0.05575  -0.0461  0.0130  1.0000  -6.1076   0.0000   0.0000   0.0000   0.2657
  13.600   1.3281   0.06459   0.05776  -0.0465  0.0128  1.0000  -6.1159   0.0000   0.0000   0.0000   0.2659
  13.700   1.3236   0.06655   0.05979  -0.0469  0.0126  1.0000  -6.1238   0.0000   0.0000   0.0000   0.2662
  13.800   1.3188   0.06863   0.06196  -0.0475  0.0124  1.0000  -6.1277   0.0000   0.0000   0.0000   0.2666
  13.900   1.3141   0.07071   0.06412  -0.0481  0.0123  1.0000  -6.1323   0.0000   0.0000   0.0000   0.2669
  14.000   1.3098   0.07277   0.06626  -0.0487  0.0122  1.0000  -6.1380   0.0000   0.0000   0.0000   0.2673
  14.100   1.3053   0.07489   0.06846  -0.0494  0.0120  1.0000  -6.1418   0.0000   0.0000   0.0000   0.2678
  14.200   1.3005   0.07711   0.07075  -0.0502  0.0119  1.0000  -6.1424   0.0000   0.0000   0.0000   0.2683
  14.300   1.2961   0.07927   0.07300  -0.0509  0.0118  1.0000  -6.1446   0.0000   0.0000   0.0000   0.2688
  14.400   1.2917   0.08145   0.07525  -0.0517  0.0117  1.0000  -6.1464   0.0000   0.0000   0.0000   0.2694
  14.500   1.2873   0.08366   0.07753  -0.0525  0.0116  1.0000  -6.1462   0.0000   0.0000   0.0000   0.2700
  14.600   1.2826   0.08595   0.07990  -0.0534  0.0115  1.0000  -6.1432   0.0000   0.0000   0.0000   0.2707
  14.700   1.2783   0.08818   0.08220  -0.0543  0.0114  1.0000  -6.1420   0.0000   0.0000   0.0000   0.2713
  14.800   1.2743   0.09034   0.08444  -0.0552  0.0113  1.0000  -6.1425   0.0000   0.0000   0.0000   0.2719
  14.900   1.2704   0.09250   0.08666  -0.0560  0.0113  1.0000  -6.1429   0.0000   0.0000   0.0000   0.2725
  15.000   1.2663   0.09472   0.08895  -0.0570  0.0112  1.0000  -6.1399   0.0000   0.0000   0.0000   0.2732
  15.100   1.2622   0.09696   0.09127  -0.0580  0.0111  1.0000  -6.1357   0.0000   0.0000   0.0000   0.2740
  15.200   1.2585   0.09912   0.09350  -0.0589  0.0110  1.0000  -6.1337   0.0000   0.0000   0.0000   0.2747
  15.300   1.2550   0.10123   0.09567  -0.0598  0.0110  1.0000  -6.1327   0.0000   0.0000   0.0000   0.2753
  15.400   1.2514   0.10337   0.09789  -0.0608  0.0109  1.0000  -6.1291   0.0000   0.0000   0.0000   0.2760
  15.500   1.2476   0.10557   0.10015  -0.0618  0.0109  1.0000  -6.1228   0.0000   0.0000   0.0000   0.2768
  15.600   1.2435   0.10789   0.10254  -0.0629  0.0108  1.0000  -6.1108   0.0000   0.0000   0.0000   0.2778
  15.700   1.2394   0.11018   0.10490  -0.0641  0.0108  1.0000  -6.0987   0.0000   0.0000   0.0000   0.2787
  15.800   1.2357   0.11238   0.10718  -0.0652  0.0107  1.0000  -6.0878   0.0000   0.0000   0.0000   0.2796
  15.900   1.2320   0.11451   0.10938  -0.0663  0.0107  1.0000  -6.0760   0.0000   0.0000   0.0000   0.2805
  16.000   1.2282   0.11665   0.11159  -0.0675  0.0107  1.0000  -6.0619   0.0000   0.0000   0.0000   0.2814
  16.100   1.2242   0.11890   0.11391  -0.0688  0.0107  1.0000  -6.0432   0.0000   0.0000   0.0000   0.2824
  16.200   1.2198   0.12135   0.11643  -0.0702  0.0107  1.0000  -6.0177   0.0000   0.0000   0.0000   0.2836
  16.300   1.2154   0.12382   0.11898  -0.0716  0.0107  1.0000  -5.9915   0.0000   0.0000   0.0000   0.2849
  16.400   1.2112   0.12632   0.12155  -0.0730  0.0107  1.0000  -5.9641   0.0000   0.0000   0.0000   0.2861
  16.500   1.2067   0.12892   0.12422  -0.0745  0.0107  1.0000  -5.9327   0.0000   0.0000   0.0000   0.2874
  16.600   1.2021   0.13166   0.12703  -0.0761  0.0107  1.0000  -5.8966   0.0000   0.0000   0.0000   0.2888
  16.700   1.1967   0.13470   0.13014  -0.0780  0.0107  1.0000  -5.8490   0.0000   0.0000   0.0000   0.2905
  16.800   1.1913   0.13779   0.13330  -0.0798  0.0108  1.0000  -5.7992   0.0000   0.0000   0.0000   0.2922
  16.900   1.1860   0.14092   0.13651  -0.0816  0.0108  1.0000  -5.7474   0.0000   0.0000   0.0000   0.2939
  17.000   1.1805   0.14420   0.13985  -0.0835  0.0108  1.0000  -5.6900   0.0000   0.0000   0.0000   0.2957
  17.100   1.1743   0.14778   0.14351  -0.0856  0.0109  1.0000  -5.6200   0.0000   0.0000   0.0000   0.2978
  17.200   1.1677   0.15157   0.14736  -0.0878  0.0110  1.0000  -5.5417   0.0000   0.0000   0.0000   0.3000
  17.300   1.1612   0.15543   0.15128  -0.0900  0.0111  1.0000  -5.4602   0.0000   0.0000   0.0000   0.3023
  17.400   1.1544   0.15947   0.15538  -0.0923  0.0112  1.0000  -5.3700   0.0000   0.0000   0.0000   0.3046
  17.500   1.1465   0.16400   0.15998  -0.0948  0.0113  1.0000  -5.2589   0.0000   0.0000   0.0000   0.3074
  17.600   1.1387   0.16865   0.16469  -0.0973  0.0114  1.0000  -5.1416   0.0000   0.0000   0.0000   0.3101
  17.700   1.1306   0.17351   0.16960  -0.0998  0.0116  1.0000  -5.0134   0.0000   0.0000   0.0000   0.3130
  17.800   1.1213   0.17896   0.17510  -0.1025  0.0118  1.0000  -4.8580   0.0000   0.0000   0.0000   0.3162
  17.900   1.1123   0.18453   0.18071  -0.1052  0.0120  1.0000  -4.6943   0.0000   0.0000   0.0000   0.3194
  18.000   1.1021   0.19071   0.18693  -0.1080  0.0123  1.0000  -4.4986   0.0000   0.0000   0.0000   0.3230
  18.100   1.0918   0.19724   0.19347  -0.1108  0.0126  1.0000  -4.2838   0.0000   0.0000   0.0000   0.3266
  18.200   1.0825   0.20361   0.19986  -0.1134  0.0129  1.0000  -4.0732   0.0000   0.0000   0.0000   0.3300
  18.300   1.0744   0.20966   0.20590  -0.1156  0.0132  1.0000  -3.8778   0.0000   0.0000   0.0000   0.3330
  18.400   1.0681   0.21513   0.21136  -0.1176  0.0133  1.0000  -3.7121   0.0000   0.0000   0.0000   0.3355
  18.500   1.0627   0.22030   0.21652  -0.1193  0.0135  1.0000  -3.5615   0.0000   0.0000   0.0000   0.3378
  18.600   1.0584   0.22507   0.22127  -0.1209  0.0136  1.0000  -3.4325   0.0000   0.0000   0.0000   0.3397
  18.700   1.0548   0.22954   0.22574  -0.1223  0.0137  1.0000  -3.3190   0.0000   0.0000   0.0000   0.3415
  18.800   1.0517   0.23378   0.22997  -0.1236  0.0138  1.0000  -3.2184   0.0000   0.0000   0.0000   0.3430
  18.900   1.0491   0.23784   0.23401  -0.1248  0.0139  1.0000  -3.1283   0.0000   0.0000   0.0000   0.3444
  19.000   1.0468   0.24174   0.23791  -0.1259  0.0140  1.0000  -3.0468   0.0000   0.0000   0.0000   0.3457
  19.100   1.0448   0.24552   0.24168  -0.1270  0.0141  1.0000  -2.9721   0.0000   0.0000   0.0000   0.3469
  19.200   1.0429   0.24919   0.24535  -0.1280  0.0142  1.0000  -2.9030   0.0000   0.0000   0.0000   0.3481
  19.300   1.0411   0.25279   0.24894  -0.1290  0.0143  1.0000  -2.8383   0.0000   0.0000   0.0000   0.3491
  19.400   1.0393   0.25633   0.25247  -0.1299  0.0144  1.0000  -2.7768   0.0000   0.0000   0.0000   0.3501
  19.500   1.0375   0.25983   0.25597  -0.1307  0.0146  1.0000  -2.7169   0.0000   0.0000   0.0000   0.3511
  19.600   1.0354   0.26337   0.25951  -0.1315  0.0147  1.0000  -2.6557   0.0000   0.0000   0.0000   0.3520
  20.200   1.0196   0.28889   0.28505  -0.1374  0.0203  1.0000  -2.0055   0.0000   0.0000   0.0000   0.3599
  20.300   1.0165   0.29229   0.28845  -0.1380  0.0216  1.0000  -1.9382   0.0000   0.0000   0.0000   0.3609
  20.400   1.0138   0.29517   0.29134  -0.1384  0.0229  1.0000  -1.8939   0.0000   0.0000   0.0000   0.3616
  20.500   1.0115   0.29761   0.29380  -0.1385  0.0243  1.0000  -1.8687   0.0000   0.0000   0.0000   0.3619
  20.900   0.9625   0.30149   0.29785  -0.1359  0.0329  1.0000  -1.5611   0.0000   0.0000   0.0000   0.3665
  21.000   0.9481   0.30054   0.29694  -0.1349  0.0333  1.0000  -1.5024   0.0000   0.0000   0.0000   0.3677
  21.100   0.9391   0.30039   0.29682  -0.1345  0.0335  1.0000  -1.4629   0.0000   0.0000   0.0000   0.3687
  21.200   0.9321   0.30049   0.29694  -0.1342  0.0336  1.0000  -1.4320   0.0000   0.0000   0.0000   0.3695
  21.300   0.9263   0.30073   0.29720  -0.1341  0.0336  1.0000  -1.4066   0.0000   0.0000   0.0000   0.3702
  21.400   0.9214   0.30104   0.29753  -0.1340  0.0336  1.0000  -1.3849   0.0000   0.0000   0.0000   0.3708
  21.500   0.9170   0.30140   0.29791  -0.1340  0.0335  1.0000  -1.3659   0.0000   0.0000   0.0000   0.3714
  21.600   0.9131   0.30179   0.29832  -0.1340  0.0334  1.0000  -1.3492   0.0000   0.0000   0.0000   0.3720
  21.700   0.9096   0.30222   0.29877  -0.1340  0.0332  1.0000  -1.3344   0.0000   0.0000   0.0000   0.3725
  21.800   0.9064   0.30268   0.29924  -0.1341  0.0330  1.0000  -1.3212   0.0000   0.0000   0.0000   0.3730
  21.900   0.9035   0.30315   0.29973  -0.1341  0.0328  1.0000  -1.3093   0.0000   0.0000   0.0000   0.3734
  22.000   0.9008   0.30364   0.30023  -0.1342  0.0327  1.0000  -1.2987   0.0000   0.0000   0.0000   0.3739
  22.100   0.8984   0.30414   0.30074  -0.1343  0.0324  1.0000  -1.2892   0.0000   0.0000   0.0000   0.3743
  22.200   0.8961   0.30465   0.30127  -0.1344  0.0322  1.0000  -1.2809   0.0000   0.0000   0.0000   0.3747
  22.300   0.8940   0.30516   0.30180  -0.1345  0.0320  1.0000  -1.2735   0.0000   0.0000   0.0000   0.3751
  22.400   0.8920   0.30568   0.30233  -0.1347  0.0318  1.0000  -1.2672   0.0000   0.0000   0.0000   0.3754
  22.500   0.8902   0.30621   0.30287  -0.1348  0.0316  1.0000  -1.2619   0.0000   0.0000   0.0000   0.3757
  22.600   0.8886   0.30674   0.30341  -0.1349  0.0314  1.0000  -1.2576   0.0000   0.0000   0.0000   0.3760
  22.700   0.8870   0.30727   0.30396  -0.1350  0.0312  1.0000  -1.2543   0.0000   0.0000   0.0000   0.3763
  22.800   0.8856   0.30780   0.30451  -0.1351  0.0310  1.0000  -1.2521   0.0000   0.0000   0.0000   0.3765
  22.900   0.8844   0.30834   0.30505  -0.1352  0.0307  1.0000  -1.2511   0.0000   0.0000   0.0000   0.3768
  23.000   0.8832   0.30888   0.30561  -0.1353  0.0305  1.0000  -1.2514   0.0000   0.0000   0.0000   0.3769
  23.100   0.8822   0.30943   0.30617  -0.1354  0.0303  1.0000  -1.2530   0.0000   0.0000   0.0000   0.3771
  23.200   0.8813   0.30999   0.30674  -0.1355  0.0301  1.0000  -1.2561   0.0000   0.0000   0.0000   0.3771
  23.300   0.8805   0.31057   0.30733  -0.1355  0.0299  1.0000  -1.2609   0.0000   0.0000   0.0000   0.3771
  23.400   0.8800   0.31119   0.30797  -0.1355  0.0297  1.0000  -1.2677   0.0000   0.0000   0.0000   0.3771
  23.500   0.8796   0.31189   0.30869  -0.1354  0.0294  1.0000  -1.2769   0.0000   0.0000   0.0000   0.3769
  23.600   0.8797   0.31275   0.30956  -0.1353  0.0292  1.0000  -1.2890   0.0000   0.0000   0.0000   0.3766
  23.700   0.8803   0.31398   0.31081  -0.1350  0.0289  1.0000  -1.3052   0.0000   0.0000   0.0000   0.3760
  23.800   0.8806   0.31668   0.31352  -0.1345  0.0284  1.0000  -1.3105   0.0000   0.0000   0.0000   0.3753
  23.900   0.8767   0.31975   0.31655  -0.1347  0.0280  1.0000  -1.2576   0.0000   0.0000   0.0000   0.3761
  24.000   0.8755   0.32049   0.31730  -0.1350  0.0280  1.0000  -1.2467   0.0000   0.0000   0.0000   0.3766
  24.100   0.8745   0.32123   0.31805  -0.1353  0.0280  1.0000  -1.2360   0.0000   0.0000   0.0000   0.3770
  24.200   0.8734   0.32195   0.31879  -0.1357  0.0280  1.0000  -1.2254   0.0000   0.0000   0.0000   0.3775
  24.300   0.8724   0.32265   0.31950  -0.1361  0.0280  1.0000  -1.2148   0.0000   0.0000   0.0000   0.3780
  24.400   0.8713   0.32334   0.32019  -0.1364  0.0280  1.0000  -1.2042   0.0000   0.0000   0.0000   0.3784
  24.500   0.8703   0.32401   0.32088  -0.1368  0.0280  1.0000  -1.1938   0.0000   0.0000   0.0000   0.3789
  24.600   0.8693   0.32468   0.32155  -0.1372  0.0279  1.0000  -1.1835   0.0000   0.0000   0.0000   0.3794
  24.700   0.8684   0.32534   0.32222  -0.1375  0.0279  1.0000  -1.1734   0.0000   0.0000   0.0000   0.3798
  24.800   0.8674   0.32598   0.32288  -0.1379  0.0279  1.0000  -1.1634   0.0000   0.0000   0.0000   0.3803
  24.900   0.8665   0.32661   0.32351  -0.1383  0.0279  1.0000  -1.1533   0.0000   0.0000   0.0000   0.3808
  25.000   0.8655   0.32721   0.32412  -0.1387  0.0278  1.0000  -1.1430   0.0000   0.0000   0.0000   0.3813
  25.100   0.8646   0.32779   0.32471  -0.1391  0.0278  1.0000  -1.1329   0.0000   0.0000   0.0000   0.3818
  25.200   0.8637   0.32837   0.32530  -0.1395  0.0278  1.0000  -1.1229   0.0000   0.0000   0.0000   0.3823
  25.300   0.8624   0.32884   0.32577  -0.1400  0.0277  1.0000  -1.1101   0.0000   0.0000   0.0000   0.3829
  25.400   0.8611   0.32927   0.32621  -0.1404  0.0277  1.0000  -1.0965   0.0000   0.0000   0.0000   0.3835
  25.500   0.8598   0.32970   0.32666  -0.1409  0.0277  1.0000  -1.0830   0.0000   0.0000   0.0000   0.3842
  25.600   0.8586   0.33014   0.32710  -0.1414  0.0276  1.0000  -1.0696   0.0000   0.0000   0.0000   0.3849
  25.700   0.8574   0.33058   0.32755  -0.1419  0.0275  1.0000  -1.0561   0.0000   0.0000   0.0000   0.3855
  25.800   0.8563   0.33103   0.32801  -0.1424  0.0275  1.0000  -1.0426   0.0000   0.0000   0.0000   0.3862
  25.900   0.8553   0.33150   0.32849  -0.1430  0.0274  1.0000  -1.0290   0.0000   0.0000   0.0000   0.3869
  26.000   0.8544   0.33199   0.32899  -0.1436  0.0273  1.0000  -1.0152   0.0000   0.0000   0.0000   0.3876
  26.100   0.8535   0.33251   0.32951  -0.1441  0.0272  1.0000  -1.0011   0.0000   0.0000   0.0000   0.3883
  26.200   0.8528   0.33308   0.33009  -0.1448  0.0271  1.0000  -0.9866   0.0000   0.0000   0.0000   0.3890
  26.300   0.8522   0.33372   0.33073  -0.1454  0.0269  1.0000  -0.9719   0.0000   0.0000   0.0000   0.3897
  26.400   0.8518   0.33444   0.33146  -0.1461  0.0266  1.0000  -0.9570   0.0000   0.0000   0.0000   0.3904
  26.500   0.8515   0.33524   0.33228  -0.1467  0.0264  1.0000  -0.9425   0.0000   0.0000   0.0000   0.3910
  26.600   0.8514   0.33611   0.33315  -0.1473  0.0260  1.0000  -0.9293   0.0000   0.0000   0.0000   0.3916
  26.700   0.8513   0.33700   0.33405  -0.1479  0.0256  1.0000  -0.9181   0.0000   0.0000   0.0000   0.3921
  26.800   0.8513   0.33788   0.33494  -0.1484  0.0252  1.0000  -0.9087   0.0000   0.0000   0.0000   0.3925
  26.900   0.8512   0.33874   0.33581  -0.1489  0.0248  1.0000  -0.9007   0.0000   0.0000   0.0000   0.3929
  27.000   0.8510   0.33958   0.33666  -0.1493  0.0244  1.0000  -0.8940   0.0000   0.0000   0.0000   0.3933
  27.100   0.8509   0.34041   0.33750  -0.1497  0.0241  1.0000  -0.8881   0.0000   0.0000   0.0000   0.3936
  27.200   0.8507   0.34122   0.33832  -0.1501  0.0237  1.0000  -0.8829   0.0000   0.0000   0.0000   0.3939
  27.300   0.8506   0.34202   0.33913  -0.1505  0.0233  1.0000  -0.8783   0.0000   0.0000   0.0000   0.3943
  27.400   0.8504   0.34282   0.33993  -0.1509  0.0230  1.0000  -0.8741   0.0000   0.0000   0.0000   0.3946
  27.500   0.8503   0.34360   0.34073  -0.1513  0.0227  1.0000  -0.8704   0.0000   0.0000   0.0000   0.3948
  27.600   0.8501   0.34438   0.34152  -0.1517  0.0223  1.0000  -0.8669   0.0000   0.0000   0.0000   0.3951
  27.700   0.8500   0.34515   0.34230  -0.1520  0.0220  1.0000  -0.8638   0.0000   0.0000   0.0000   0.3954
  27.800   0.8498   0.34592   0.34314  -0.1524  0.0217  1.0000  -0.8613   0.0000   0.0000   0.0000   0.3957
  27.900   0.8497   0.34668   0.34391  -0.1528  0.0214  1.0000  -0.8588   0.0000   0.0000   0.0000   0.3959
  28.000   0.8496   0.34744   0.34468  -0.1532  0.0212  1.0000  -0.8566   0.0000   0.0000   0.0000   0.3962
  28.100   0.8494   0.34819   0.34544  -0.1535  0.0209  1.0000  -0.8546   0.0000   0.0000   0.0000   0.3965
  28.200   0.8493   0.34894   0.34620  -0.1539  0.0206  1.0000  -0.8529   0.0000   0.0000   0.0000   0.3967
  28.300   0.8492   0.34969   0.34695  -0.1543  0.0203  1.0000  -0.8515   0.0000   0.0000   0.0000   0.3970
  28.400   0.8491   0.35043   0.34770  -0.1547  0.0201  1.0000  -0.8503   0.0000   0.0000   0.0000   0.3972
  28.500   0.8490   0.35116   0.34845  -0.1550  0.0198  1.0000  -0.8494   0.0000   0.0000   0.0000   0.3975
  28.600   0.8489   0.35189   0.34919  -0.1554  0.0196  1.0000  -0.8489   0.0000   0.0000   0.0000   0.3977
  28.700   0.8488   0.35262   0.34992  -0.1558  0.0193  1.0000  -0.8486   0.0000   0.0000   0.0000   0.3979
  28.800   0.8487   0.35333   0.35065  -0.1561  0.0191  1.0000  -0.8487   0.0000   0.0000   0.0000   0.3982
  28.900   0.8486   0.35405   0.35137  -0.1565  0.0188  1.0000  -0.8491   0.0000   0.0000   0.0000   0.3984
  29.000   0.8485   0.35475   0.35209  -0.1568  0.0186  1.0000  -0.8499   0.0000   0.0000   0.0000   0.3986
  29.100   0.8484   0.35545   0.35279  -0.1572  0.0184  1.0000  -0.8510   0.0000   0.0000   0.0000   0.3988
  29.200   0.8484   0.35614   0.35349  -0.1575  0.0182  1.0000  -0.8526   0.0000   0.0000   0.0000   0.3990
  29.300   0.8483   0.35682   0.35419  -0.1579  0.0179  1.0000  -0.8546   0.0000   0.0000   0.0000   0.3992
  29.400   0.8482   0.35749   0.35487  -0.1582  0.0177  1.0000  -0.8571   0.0000   0.0000   0.0000   0.3994
  29.500   0.8481   0.35816   0.35554  -0.1586  0.0175  1.0000  -0.8602   0.0000   0.0000   0.0000   0.3995
  29.600   0.8480   0.35881   0.35620  -0.1589  0.0173  1.0000  -0.8638   0.0000   0.0000   0.0000   0.3997
  29.700   0.8480   0.35945   0.35685  -0.1592  0.0171  1.0000  -0.8680   0.0000   0.0000   0.0000   0.3999
  29.800   0.8479   0.36008   0.35749  -0.1595  0.0169  1.0000  -0.8729   0.0000   0.0000   0.0000   0.4000
  29.900   0.8478   0.36069   0.35812  -0.1598  0.0168  1.0000  -0.8786   0.0000   0.0000   0.0000   0.4001
  30.000   0.8477   0.36130   0.35874  -0.1601  0.0166  1.0000  -0.8851   0.0000   0.0000   0.0000   0.4002


