xflr5 v6.61

 Calculated polar for: SD7003-085-88

 1 1 Reynolds number fixed          Mach number fixed         

 xtrf =   1.000 (top)        1.000 (bottom)
 Mach =   0.000     Re =     0.688 e 6     Ncrit =   9.000

  alpha     CL        CD       CDp       Cm    Top Xtr Bot Xtr   Cpmin    Chinge    XCp    
 ------- -------- --------- --------- -------- ------- ------- -------- --------- ---------
 -10.000  -0.5507   0.10272   0.10063   0.0011  1.0000  0.0157  -2.3658   0.0000   0.0000   0.0000   0.2463
  -9.900  -0.5501   0.10106   0.09898   0.0004  1.0000  0.0158  -2.3750   0.0000   0.0000   0.0000   0.2450
  -9.800  -0.5496   0.09940   0.09733  -0.0004  1.0000  0.0159  -2.3847   0.0000   0.0000   0.0000   0.2437
  -9.700  -0.5492   0.09774   0.09568  -0.0011  1.0000  0.0160  -2.3950   0.0000   0.0000   0.0000   0.2424
  -9.600  -0.5489   0.09607   0.09402  -0.0019  1.0000  0.0161  -2.4063   0.0000   0.0000   0.0000   0.2410
  -9.500  -0.5487   0.09440   0.09235  -0.0027  1.0000  0.0162  -2.4187   0.0000   0.0000   0.0000   0.2396
  -9.400  -0.5487   0.09272   0.09068  -0.0036  1.0000  0.0163  -2.4324   0.0000   0.0000   0.0000   0.2382
  -9.300  -0.5488   0.09103   0.08900  -0.0044  1.0000  0.0163  -2.4476   0.0000   0.0000   0.0000   0.2367
  -9.200  -0.5491   0.08932   0.08730  -0.0053  1.0000  0.0164  -2.4643   0.0000   0.0000   0.0000   0.2352
  -9.100  -0.5494   0.08756   0.08554  -0.0062  1.0000  0.0165  -2.4824   0.0000   0.0000   0.0000   0.2336
  -9.000  -0.5497   0.08576   0.08375  -0.0072  1.0000  0.0166  -2.5024   0.0000   0.0000   0.0000   0.2318
  -8.900  -0.5502   0.08397   0.08197  -0.0082  1.0000  0.0167  -2.5217   0.0000   0.0000   0.0000   0.2301
  -8.800  -0.5508   0.08215   0.08016  -0.0092  1.0000  0.0167  -2.5431   0.0000   0.0000   0.0000   0.2283
  -8.700  -0.5518   0.08031   0.07832  -0.0103  1.0000  0.0168  -2.5670   0.0000   0.0000   0.0000   0.2264
  -8.600  -0.5531   0.07842   0.07645  -0.0115  1.0000  0.0169  -2.5937   0.0000   0.0000   0.0000   0.2244
  -8.500  -0.5547   0.07647   0.07451  -0.0128  1.0000  0.0169  -2.6234   0.0000   0.0000   0.0000   0.2222
  -8.400  -0.5566   0.07446   0.07251  -0.0142  1.0000  0.0170  -2.6565   0.0000   0.0000   0.0000   0.2199
  -8.300  -0.5592   0.07239   0.07046  -0.0157  1.0000  0.0171  -2.6934   0.0000   0.0000   0.0000   0.2174
  -8.200  -0.5625   0.07023   0.06832  -0.0174  1.0000  0.0171  -2.7356   0.0000   0.0000   0.0000   0.2145
  -8.100  -0.5667   0.06784   0.06593  -0.0199  1.0000  0.0172  -2.7871   0.0000   0.0000   0.0000   0.2105
  -6.800  -0.5570   0.03020   0.02696  -0.0378  1.0000  0.0128  -3.8025   0.0000   0.0000   0.0000   0.1776
  -6.700  -0.5618   0.02478   0.02103  -0.0373  1.0000  0.0115  -4.1136   0.0000   0.0000   0.0000   0.1790
  -6.600  -0.5596   0.02135   0.01721  -0.0365  1.0000  0.0105  -4.2917   0.0000   0.0000   0.0000   0.1800
  -6.500  -0.5549   0.01856   0.01407  -0.0357  1.0000  0.0096  -4.4310   0.0000   0.0000   0.0000   0.1810
  -6.400  -0.5486   0.01640   0.01160  -0.0349  1.0000  0.0090  -4.5220   0.0000   0.0000   0.0000   0.1817
  -6.300  -0.5412   0.01481   0.00977  -0.0342  1.0000  0.0085  -4.5641   0.0000   0.0000   0.0000   0.1822
  -6.200  -0.5331   0.01367   0.00844  -0.0335  1.0000  0.0081  -4.5632   0.0000   0.0000   0.0000   0.1825
  -6.100  -0.5244   0.01287   0.00749  -0.0330  1.0000  0.0079  -4.5262   0.0000   0.0000   0.0000   0.1825
  -6.000  -0.5153   0.01228   0.00679  -0.0325  1.0000  0.0077  -4.4630   0.0000   0.0000   0.0000   0.1824
  -5.900  -0.5059   0.01183   0.00626  -0.0321  1.0000  0.0076  -4.3819   0.0000   0.0000   0.0000   0.1821
  -5.800  -0.4964   0.01146   0.00581  -0.0317  1.0000  0.0076  -4.2904   0.0000   0.0000   0.0000   0.1817
  -5.700  -0.4868   0.01115   0.00543  -0.0313  1.0000  0.0075  -4.1923   0.0000   0.0000   0.0000   0.1812
  -5.600  -0.4771   0.01087   0.00509  -0.0310  1.0000  0.0075  -4.0898   0.0000   0.0000   0.0000   0.1807
  -5.500  -0.4673   0.01062   0.00478  -0.0307  1.0000  0.0075  -3.9840   0.0000   0.0000   0.0000   0.1801
  -5.400  -0.4575   0.01039   0.00450  -0.0303  1.0000  0.0076  -3.8752   0.0000   0.0000   0.0000   0.1795
  -5.300  -0.4476   0.01019   0.00425  -0.0300  1.0000  0.0077  -3.7641   0.0000   0.0000   0.0000   0.1788
  -5.200  -0.4377   0.01001   0.00402  -0.0297  1.0000  0.0079  -3.6506   0.0000   0.0000   0.0000   0.1780
  -5.100  -0.4278   0.00984   0.00381  -0.0294  1.0000  0.0082  -3.5352   0.0000   0.0000   0.0000   0.1773
  -5.000  -0.4178   0.00970   0.00363  -0.0291  1.0000  0.0085  -3.4285   0.0000   0.0000   0.0000   0.1764
  -4.900  -0.4079   0.00958   0.00349  -0.0288  1.0000  0.0088  -3.3204   0.0000   0.0000   0.0000   0.1755
  -4.800  -0.3982   0.00956   0.00337  -0.0285  1.0000  0.0078  -3.2974   0.0000   0.0000   0.0000   0.1744
  -4.700  -0.3883   0.00944   0.00322  -0.0282  1.0000  0.0082  -3.1856   0.0000   0.0000   0.0000   0.1734
  -4.600  -0.3784   0.00933   0.00309  -0.0279  1.0000  0.0087  -3.0728   0.0000   0.0000   0.0000   0.1724
  -4.500  -0.3685   0.00922   0.00298  -0.0276  1.0000  0.0094  -2.9622   0.0000   0.0000   0.0000   0.1713
  -4.400  -0.3537   0.00911   0.00288  -0.0284  0.9990  0.0104  -2.8341   0.0000   0.0000   0.0000   0.1660
  -4.300  -0.3388   0.00900   0.00280  -0.0292  0.9978  0.0114  -2.7160   0.0000   0.0000   0.0000   0.1601
  -4.200  -0.3238   0.00891   0.00273  -0.0300  0.9967  0.0124  -2.6066   0.0000   0.0000   0.0000   0.1536
  -4.100  -0.3091   0.00883   0.00266  -0.0307  0.9953  0.0134  -2.5053   0.0000   0.0000   0.0000   0.1469
  -4.000  -0.2942   0.00872   0.00259  -0.0315  0.9937  0.0169  -2.4079   0.0000   0.0000   0.0000   0.1391
  -3.900  -0.2792   0.00855   0.00249  -0.0324  0.9920  0.0243  -2.3127   0.0000   0.0000   0.0000   0.1302
  -3.800  -0.2637   0.00843   0.00241  -0.0334  0.9904  0.0306  -2.2189   0.0000   0.0000   0.0000   0.1197
  -3.700  -0.2480   0.00829   0.00235  -0.0344  0.9889  0.0381  -2.1269   0.0000   0.0000   0.0000   0.1077
  -3.600  -0.2322   0.00820   0.00229  -0.0354  0.9876  0.0423  -2.0363   0.0000   0.0000   0.0000   0.0939
  -3.500  -0.2188   0.00813   0.00223  -0.0358  0.9852  0.0449  -1.9552   0.0000   0.0000   0.0000   0.0823
  -3.400  -0.2049   0.00806   0.00217  -0.0364  0.9826  0.0468  -1.8744   0.0000   0.0000   0.0000   0.0686
  -3.300  -0.1904   0.00799   0.00211  -0.0371  0.9801  0.0497  -1.7928   0.0000   0.0000   0.0000   0.0513
  -3.200  -0.1753   0.00790   0.00205  -0.0379  0.9775  0.0555  -1.7111   0.0000   0.0000   0.0000   0.0297
  -3.100  -0.1600   0.00780   0.00200  -0.0387  0.9749  0.0613  -1.6301   0.0000   0.0000   0.0000   0.0036
  -3.000  -0.1444   0.00771   0.00194  -0.0397  0.9723  0.0665  -1.5491   0.0000   0.0000   0.0000  -0.0293
  -2.900  -0.1333   0.00764   0.00189  -0.0396  0.9661  0.0701  -1.4828   0.0000   0.0000   0.0000  -0.0517
  -2.800  -0.1199   0.00757   0.00184  -0.0400  0.9609  0.0755  -1.4110   0.0000   0.0000   0.0000  -0.0885
  -2.700  -0.1059   0.00745   0.00178  -0.0406  0.9563  0.0856  -1.3386   0.0000   0.0000   0.0000  -0.1386
  -2.600  -0.0913   0.00735   0.00173  -0.0413  0.9520  0.0952  -1.2654   0.0000   0.0000   0.0000  -0.2080
  -2.500  -0.0798   0.00720   0.00167  -0.0414  0.9443  0.1152  -1.2018   0.0000   0.0000   0.0000  -0.2749
  -2.400  -0.0673   0.00697   0.00161  -0.0417  0.9357  0.1522  -1.1364   0.0000   0.0000   0.0000  -0.3770
  -2.200  -0.0440   0.00644   0.00150  -0.0421  0.9156  0.2552  -1.0120   0.0000   0.0000   0.0000  -0.7167
  -2.100  -0.0331   0.00628   0.00145  -0.0421  0.9034  0.2919  -0.9517   0.0000   0.0000   0.0000  -1.0326
  -2.000  -0.0224   0.00616   0.00137  -0.0419  0.8923  0.3243  -0.8753   0.0000   0.0000   0.0000  -1.6407
  -1.900  -0.0119   0.00606   0.00134  -0.0418  0.8811  0.3515  -0.8259   0.0000   0.0000   0.0000  -3.2943
  -1.800  -0.0016   0.00594   0.00130  -0.0415  0.8694  0.3846  -0.7906   0.0000   0.0000   0.0000  -25.9297
  -1.700   0.0089   0.00589   0.00127  -0.0413  0.8587  0.4070  -0.7553   0.0000   0.0000   0.0000   4.9420
  -1.600   0.0193   0.00578   0.00124  -0.0411  0.8480  0.4382  -0.7204   0.0000   0.0000   0.0000   2.3965
  -1.400   0.0395   0.00567   0.00119  -0.0406  0.8217  0.4912  -0.6523   0.0000   0.0000   0.0000   1.2802
  -1.300   0.0502   0.00562   0.00118  -0.0404  0.8110  0.5138  -0.6199   0.0000   0.0000   0.0000   1.0573
  -1.200   0.0604   0.00554   0.00116  -0.0402  0.7981  0.5451  -0.5946   0.0000   0.0000   0.0000   0.9167
  -1.100   0.0706   0.00553   0.00114  -0.0399  0.7845  0.5670  -0.5694   0.0000   0.0000   0.0000   0.8160
  -1.000   0.0809   0.00545   0.00114  -0.0396  0.7748  0.5970  -0.5443   0.0000   0.0000   0.0000   0.7406
  -0.900   0.0917   0.00542   0.00114  -0.0395  0.7656  0.6197  -0.5188   0.0000   0.0000   0.0000   0.6812
  -0.800   0.1018   0.00535   0.00114  -0.0392  0.7547  0.6514  -0.4942   0.0000   0.0000   0.0000   0.6352
  -0.700   0.1119   0.00535   0.00114  -0.0389  0.7419  0.6741  -0.4698   0.0000   0.0000   0.0000   0.5972
  -0.600   0.1220   0.00531   0.00115  -0.0386  0.7309  0.7007  -0.4456   0.0000   0.0000   0.0000   0.5657
  -0.500   0.1328   0.00530   0.00115  -0.0384  0.7208  0.7178  -0.4448   0.0000   0.0000   0.0000   0.5386
  -0.400   0.1428   0.00528   0.00116  -0.0380  0.7084  0.7378  -0.4562   0.0000   0.0000   0.0000   0.5157
  -0.300   0.1528   0.00530   0.00116  -0.0377  0.6946  0.7571  -0.4676   0.0000   0.0000   0.0000   0.4958
  -0.200   0.1632   0.00530   0.00117  -0.0374  0.6838  0.7733  -0.4811   0.0000   0.0000   0.0000   0.4784
  -0.100   0.1734   0.00527   0.00118  -0.0371  0.6762  0.7912  -0.4947   0.0000   0.0000   0.0000   0.4629
   0.000   0.1840   0.00528   0.00119  -0.0369  0.6667  0.8053  -0.5085   0.0000   0.0000   0.0000   0.4493
   0.100   0.1942   0.00529   0.00120  -0.0366  0.6559  0.8180  -0.5222   0.0000   0.0000   0.0000   0.4371
   0.200   0.2038   0.00531   0.00121  -0.0361  0.6436  0.8331  -0.5354   0.0000   0.0000   0.0000   0.4259
   0.300   0.2142   0.00533   0.00121  -0.0358  0.6340  0.8460  -0.5493   0.0000   0.0000   0.0000   0.4160
   0.400   0.2247   0.00533   0.00122  -0.0356  0.6255  0.8564  -0.5633   0.0000   0.0000   0.0000   0.4070
   0.500   0.2343   0.00534   0.00123  -0.0351  0.6142  0.8690  -0.5767   0.0000   0.0000   0.0000   0.3984
   0.600   0.2440   0.00538   0.00124  -0.0347  0.6006  0.8818  -0.5908   0.0000   0.0000   0.0000   0.3907
   0.700   0.2537   0.00543   0.00125  -0.0343  0.5859  0.8934  -0.6069   0.0000   0.0000   0.0000   0.3835
   0.800   0.2633   0.00542   0.00126  -0.0338  0.5789  0.9065  -0.6230   0.0000   0.0000   0.0000   0.3766
   0.900   0.2732   0.00544   0.00126  -0.0334  0.5702  0.9189  -0.6395   0.0000   0.0000   0.0000   0.3705
   1.000   0.2830   0.00545   0.00127  -0.0329  0.5603  0.9312  -0.6559   0.0000   0.0000   0.0000   0.3647
   1.100   0.2932   0.00550   0.00127  -0.0326  0.5488  0.9448  -0.6728   0.0000   0.0000   0.0000   0.3594
   1.200   0.3051   0.00555   0.00127  -0.0327  0.5352  0.9570  -0.6911   0.0000   0.0000   0.0000   0.3553
   1.300   0.3187   0.00555   0.00128  -0.0331  0.5289  0.9686  -0.7110   0.0000   0.0000   0.0000   0.3520
   1.400   0.3335   0.00559   0.00128  -0.0339  0.5188  0.9777  -0.7321   0.0000   0.0000   0.0000   0.3496
   1.600   0.3640   0.00574   0.00129  -0.0357  0.4877  0.9995  -0.7753   0.0000   0.0000   0.0000   0.3460
   1.700   0.3750   0.00579   0.00131  -0.0357  0.4793  1.0000  -0.7939   0.0000   0.0000   0.0000   0.3430
   1.800   0.3859   0.00583   0.00132  -0.0356  0.4719  1.0000  -0.8157   0.0000   0.0000   0.0000   0.3401
   1.900   0.3967   0.00589   0.00134  -0.0355  0.4631  1.0000  -0.8376   0.0000   0.0000   0.0000   0.3373
   2.000   0.4074   0.00596   0.00136  -0.0355  0.4527  1.0000  -0.8595   0.0000   0.0000   0.0000   0.3347
   2.100   0.4180   0.00606   0.00138  -0.0354  0.4401  1.0000  -0.8813   0.0000   0.0000   0.0000   0.3322
   2.200   0.4289   0.00612   0.00140  -0.0353  0.4305  1.0000  -0.9036   0.0000   0.0000   0.0000   0.3299
   2.300   0.4399   0.00616   0.00143  -0.0353  0.4238  1.0000  -0.9262   0.0000   0.0000   0.0000   0.3277
   2.400   0.4507   0.00623   0.00145  -0.0352  0.4140  1.0000  -0.9488   0.0000   0.0000   0.0000   0.3255
   2.500   0.4613   0.00632   0.00148  -0.0351  0.4019  1.0000  -0.9712   0.0000   0.0000   0.0000   0.3235
   2.600   0.4719   0.00643   0.00151  -0.0350  0.3868  1.0000  -0.9936   0.0000   0.0000   0.0000   0.3215
   2.700   0.4829   0.00649   0.00154  -0.0350  0.3793  1.0000  -1.0215   0.0000   0.0000   0.0000   0.3197
   2.800   0.4939   0.00654   0.00157  -0.0349  0.3731  1.0000  -1.0499   0.0000   0.0000   0.0000   0.3179
   2.900   0.5048   0.00660   0.00161  -0.0349  0.3651  1.0000  -1.0784   0.0000   0.0000   0.0000   0.3162
   3.000   0.5156   0.00669   0.00164  -0.0348  0.3556  1.0000  -1.1068   0.0000   0.0000   0.0000   0.3146
   3.100   0.5262   0.00680   0.00169  -0.0347  0.3441  1.0000  -1.1353   0.0000   0.0000   0.0000   0.3130
   3.200   0.5371   0.00688   0.00173  -0.0347  0.3334  1.0000  -1.1641   0.0000   0.0000   0.0000   0.3115
   3.300   0.5481   0.00693   0.00177  -0.0346  0.3290  1.0000  -1.1935   0.0000   0.0000   0.0000   0.3101
   3.400   0.5591   0.00699   0.00181  -0.0346  0.3226  1.0000  -1.2229   0.0000   0.0000   0.0000   0.3087
   3.500   0.5699   0.00707   0.00186  -0.0345  0.3145  1.0000  -1.2524   0.0000   0.0000   0.0000   0.3073
   3.600   0.5806   0.00718   0.00191  -0.0345  0.3046  1.0000  -1.2817   0.0000   0.0000   0.0000   0.3060
   3.700   0.5912   0.00730   0.00197  -0.0344  0.2910  1.0000  -1.3111   0.0000   0.0000   0.0000   0.3048
   3.800   0.6022   0.00737   0.00202  -0.0343  0.2844  1.0000  -1.3412   0.0000   0.0000   0.0000   0.3036
   3.900   0.6131   0.00744   0.00207  -0.0343  0.2774  1.0000  -1.3715   0.0000   0.0000   0.0000   0.3024
   4.000   0.6238   0.00754   0.00212  -0.0342  0.2685  1.0000  -1.4031   0.0000   0.0000   0.0000   0.3013
   4.100   0.6344   0.00766   0.00218  -0.0342  0.2591  1.0000  -1.4418   0.0000   0.0000   0.0000   0.3002
   4.200   0.6450   0.00778   0.00225  -0.0341  0.2472  1.0000  -1.4807   0.0000   0.0000   0.0000   0.2991
   4.300   0.6560   0.00785   0.00232  -0.0340  0.2414  1.0000  -1.5207   0.0000   0.0000   0.0000   0.2981
   4.400   0.6669   0.00792   0.00237  -0.0340  0.2362  1.0000  -1.5609   0.0000   0.0000   0.0000   0.2971
   4.500   0.6776   0.00802   0.00243  -0.0339  0.2285  1.0000  -1.6012   0.0000   0.0000   0.0000   0.2961
   4.600   0.6881   0.00815   0.00250  -0.0339  0.2190  1.0000  -1.6535   0.0000   0.0000   0.0000   0.2951
   4.700   0.6987   0.00829   0.00259  -0.0338  0.2072  1.0000  -1.7065   0.0000   0.0000   0.0000   0.2942
   4.800   0.7095   0.00838   0.00267  -0.0337  0.2009  1.0000  -1.7610   0.0000   0.0000   0.0000   0.2933
   4.900   0.7205   0.00845   0.00289  -0.0337  0.1990  1.0000  -1.7928   0.0000   0.0000   0.0000   0.2924
   5.000   0.7311   0.00857   0.00296  -0.0336  0.1893  1.0000  -1.8418   0.0000   0.0000   0.0000   0.2915
   5.100   0.7413   0.00874   0.00305  -0.0335  0.1775  1.0000  -1.9071   0.0000   0.0000   0.0000   0.2907
   5.200   0.7518   0.00889   0.00316  -0.0334  0.1657  1.0000  -1.9898   0.0000   0.0000   0.0000   0.2899
   5.300   0.7627   0.00897   0.00323  -0.0334  0.1626  1.0000  -2.0752   0.0000   0.0000   0.0000   0.2891
   5.400   0.7735   0.00905   0.00331  -0.0333  0.1591  1.0000  -2.1612   0.0000   0.0000   0.0000   0.2883
   5.500   0.7842   0.00915   0.00340  -0.0333  0.1543  1.0000  -2.2475   0.0000   0.0000   0.0000   0.2876
   5.600   0.7947   0.00928   0.00348  -0.0332  0.1484  1.0000  -2.3341   0.0000   0.0000   0.0000   0.2868
   5.700   0.8052   0.00943   0.00358  -0.0331  0.1414  1.0000  -2.4210   0.0000   0.0000   0.0000   0.2861
   5.800   0.8156   0.00957   0.00370  -0.0330  0.1330  1.0000  -2.5086   0.0000   0.0000   0.0000   0.2853
   5.900   0.8264   0.00967   0.00380  -0.0329  0.1290  1.0000  -2.5989   0.0000   0.0000   0.0000   0.2846
   6.000   0.8372   0.00975   0.00389  -0.0329  0.1268  1.0000  -2.6908   0.0000   0.0000   0.0000   0.2840
   6.100   0.8478   0.00985   0.00399  -0.0328  0.1231  1.0000  -2.7831   0.0000   0.0000   0.0000   0.2833
   6.200   0.8583   0.00999   0.00409  -0.0327  0.1176  1.0000  -2.8754   0.0000   0.0000   0.0000   0.2826
   6.300   0.8684   0.01018   0.00420  -0.0326  0.1099  1.0000  -2.9674   0.0000   0.0000   0.0000   0.2820
   6.400   0.8786   0.01036   0.00435  -0.0325  0.1000  1.0000  -3.0597   0.0000   0.0000   0.0000   0.2813
   6.500   0.8893   0.01045   0.00444  -0.0325  0.0971  1.0000  -3.1571   0.0000   0.0000   0.0000   0.2807
   6.600   0.8997   0.01058   0.00455  -0.0324  0.0923  1.0000  -3.2544   0.0000   0.0000   0.0000   0.2801
   6.700   0.9098   0.01078   0.00467  -0.0323  0.0851  1.0000  -3.3503   0.0000   0.0000   0.0000   0.2795
   6.800   0.9197   0.01100   0.00481  -0.0322  0.0757  1.0000  -3.4462   0.0000   0.0000   0.0000   0.2788
   6.900   0.9301   0.01113   0.00494  -0.0321  0.0710  1.0000  -3.5460   0.0000   0.0000   0.0000   0.2783
   7.000   0.9404   0.01128   0.00507  -0.0320  0.0668  1.0000  -3.6468   0.0000   0.0000   0.0000   0.2777
   7.100   0.9503   0.01149   0.00522  -0.0319  0.0607  1.0000  -3.7465   0.0000   0.0000   0.0000   0.2771
   7.200   0.9601   0.01173   0.00538  -0.0318  0.0537  1.0000  -3.8458   0.0000   0.0000   0.0000   0.2765
   7.300   0.9704   0.01188   0.00553  -0.0317  0.0492  1.0000  -3.9485   0.0000   0.0000   0.0000   0.2759
   7.400   0.9808   0.01201   0.00566  -0.0316  0.0474  1.0000  -4.0534   0.0000   0.0000   0.0000   0.2754
   7.500   0.9911   0.01215   0.00580  -0.0315  0.0453  1.0000  -4.1588   0.0000   0.0000   0.0000   0.2748
   7.600   1.0013   0.01231   0.00595  -0.0314  0.0429  1.0000  -4.2644   0.0000   0.0000   0.0000   0.2743
   7.700   1.0113   0.01249   0.00612  -0.0313  0.0403  1.0000  -4.3701   0.0000   0.0000   0.0000   0.2738
   7.800   1.0213   0.01269   0.00629  -0.0311  0.0375  1.0000  -4.4761   0.0000   0.0000   0.0000   0.2732
   7.900   1.0313   0.01288   0.00646  -0.0310  0.0345  1.0000  -4.5829   0.0000   0.0000   0.0000   0.2727
   8.000   1.0422   0.01293   0.00669  -0.0309  0.0383  1.0000  -4.6721   0.0000   0.0000   0.0000   0.2721
   8.100   1.0521   0.01313   0.00687  -0.0308  0.0355  1.0000  -4.7764   0.0000   0.0000   0.0000   0.2716
   8.200   1.0621   0.01333   0.00708  -0.0306  0.0322  1.0000  -4.8811   0.0000   0.0000   0.0000   0.2711
   8.300   1.0722   0.01349   0.00726  -0.0305  0.0310  1.0000  -4.9907   0.0000   0.0000   0.0000   0.2705
   8.400   1.0824   0.01362   0.00741  -0.0304  0.0304  1.0000  -5.1042   0.0000   0.0000   0.0000   0.2700
   8.500   1.0926   0.01377   0.00758  -0.0303  0.0296  1.0000  -5.2179   0.0000   0.0000   0.0000   0.2696
   8.600   1.1026   0.01393   0.00775  -0.0302  0.0285  1.0000  -5.3317   0.0000   0.0000   0.0000   0.2691
   8.700   1.1125   0.01411   0.00794  -0.0300  0.0271  1.0000  -5.4454   0.0000   0.0000   0.0000   0.2686
   8.800   1.1222   0.01432   0.00814  -0.0299  0.0256  1.0000  -5.5587   0.0000   0.0000   0.0000   0.2681
   8.900   1.1318   0.01455   0.00836  -0.0297  0.0241  1.0000  -5.6714   0.0000   0.0000   0.0000   0.2676
   9.000   1.1413   0.01480   0.00859  -0.0295  0.0223  1.0000  -5.7830   0.0000   0.0000   0.0000   0.2671
   9.100   1.1507   0.01506   0.00885  -0.0293  0.0204  1.0000  -5.8915   0.0000   0.0000   0.0000   0.2665
   9.200   1.1599   0.01535   0.00918  -0.0291  0.0185  1.0000  -5.9931   0.0000   0.0000   0.0000   0.2660
   9.300   1.1688   0.01571   0.00959  -0.0287  0.0169  1.0000  -6.0866   0.0000   0.0000   0.0000   0.2654
   9.400   1.1789   0.01582   0.00972  -0.0287  0.0168  1.0000  -6.2142   0.0000   0.0000   0.0000   0.2650
   9.500   1.1889   0.01595   0.00986  -0.0286  0.0166  1.0000  -6.3421   0.0000   0.0000   0.0000   0.2645
   9.600   1.1989   0.01608   0.01001  -0.0285  0.0162  1.0000  -6.4691   0.0000   0.0000   0.0000   0.2641
   9.700   1.2086   0.01624   0.01020  -0.0283  0.0152  1.0000  -6.5919   0.0000   0.0000   0.0000   0.2637
  10.800   1.2840   0.02248   0.01718  -0.0228  0.0067  1.0000  -7.3430   0.0000   0.0000   0.0000   0.2565
  10.900   1.2938   0.02255   0.01724  -0.0227  0.0067  1.0000  -7.5045   0.0000   0.0000   0.0000   0.2561
  11.000   1.3035   0.02262   0.01730  -0.0226  0.0067  1.0000  -7.6682   0.0000   0.0000   0.0000   0.2558
  11.100   1.3132   0.02269   0.01736  -0.0225  0.0066  1.0000  -7.8336   0.0000   0.0000   0.0000   0.2554
  11.200   1.3228   0.02277   0.01744  -0.0224  0.0066  1.0000  -8.0000   0.0000   0.0000   0.0000   0.2550
  11.300   1.3323   0.02285   0.01752  -0.0223  0.0065  1.0000  -8.1667   0.0000   0.0000   0.0000   0.2547
  11.400   1.3510   0.02176   0.01628  -0.0234  0.0061  1.0000  -8.5860   0.0000   0.0000   0.0000   0.2550
  11.500   1.3607   0.02182   0.01633  -0.0233  0.0059  1.0000  -8.7780   0.0000   0.0000   0.0000   0.2547
  11.600   1.3696   0.02200   0.01651  -0.0231  0.0057  1.0000  -8.9481   0.0000   0.0000   0.0000   0.2543
  11.700   1.3781   0.02222   0.01674  -0.0229  0.0055  1.0000  -9.1100   0.0000   0.0000   0.0000   0.2539
  11.800   1.3863   0.02247   0.01701  -0.0227  0.0053  1.0000  -9.2679   0.0000   0.0000   0.0000   0.2534
  11.900   1.3943   0.02273   0.01730  -0.0224  0.0051  1.0000  -9.4241   0.0000   0.0000   0.0000   0.2529
  12.000   1.4021   0.02301   0.01760  -0.0221  0.0049  1.0000  -9.5797   0.0000   0.0000   0.0000   0.2525
  12.100   1.4098   0.02331   0.01791  -0.0218  0.0047  1.0000  -9.7350   0.0000   0.0000   0.0000   0.2520
  12.200   1.4172   0.02362   0.01824  -0.0214  0.0045  1.0000  -9.8906   0.0000   0.0000   0.0000   0.2515
  12.300   1.4244   0.02394   0.01858  -0.0211  0.0042  1.0000  -10.0470   0.0000   0.0000   0.0000   0.2510
  12.400   1.4314   0.02428   0.01894  -0.0207  0.0040  1.0000  -10.2041   0.0000   0.0000   0.0000   0.2505
  12.500   1.4381   0.02464   0.01931  -0.0203  0.0038  1.0000  -10.3619   0.0000   0.0000   0.0000   0.2500
  12.600   1.4444   0.02502   0.01971  -0.0199  0.0036  1.0000  -10.5199   0.0000   0.0000   0.0000   0.2495
  12.700   1.4504   0.02543   0.02014  -0.0194  0.0035  1.0000  -10.6773   0.0000   0.0000   0.0000   0.2489
  12.800   1.4559   0.02587   0.02060  -0.0189  0.0033  1.0000  -10.8332   0.0000   0.0000   0.0000   0.2484
  12.900   1.4608   0.02635   0.02110  -0.0183  0.0031  1.0000  -10.9859   0.0000   0.0000   0.0000   0.2477
  13.000   1.4650   0.02687   0.02166  -0.0177  0.0029  1.0000  -11.1330   0.0000   0.0000   0.0000   0.2471
  13.100   1.4683   0.02745   0.02229  -0.0169  0.0028  1.0000  -11.2720   0.0000   0.0000   0.0000   0.2464
  13.200   1.4701   0.02806   0.02296  -0.0160  0.0026  1.0000  -11.3952   0.0000   0.0000   0.0000   0.2456
  13.300   1.4703   0.02870   0.02366  -0.0149  0.0025  1.0000  -11.5002   0.0000   0.0000   0.0000   0.2447
  13.400   1.4694   0.02939   0.02442  -0.0137  0.0025  1.0000  -11.5915   0.0000   0.0000   0.0000   0.2437
  13.500   1.4678   0.03013   0.02523  -0.0125  0.0024  1.0000  -11.6722   0.0000   0.0000   0.0000   0.2427
  13.600   1.4655   0.03095   0.02612  -0.0114  0.0023  1.0000  -11.7441   0.0000   0.0000   0.0000   0.2419
  13.700   1.4628   0.03184   0.02709  -0.0105  0.0023  1.0000  -11.8082   0.0000   0.0000   0.0000   0.2411
  13.800   1.4595   0.03282   0.02814  -0.0096  0.0023  1.0000  -11.8637   0.0000   0.0000   0.0000   0.2403
  13.900   1.4559   0.03389   0.02929  -0.0090  0.0022  1.0000  -11.9127   0.0000   0.0000   0.0000   0.2398
  14.000   1.4521   0.03508   0.03055  -0.0086  0.0022  1.0000  -11.9564   0.0000   0.0000   0.0000   0.2393
  14.100   1.4480   0.03638   0.03193  -0.0085  0.0022  1.0000  -11.9950   0.0000   0.0000   0.0000   0.2390
  14.200   1.4436   0.03781   0.03344  -0.0085  0.0022  1.0000  -12.0264   0.0000   0.0000   0.0000   0.2389
  14.300   1.4388   0.03938   0.03508  -0.0087  0.0021  1.0000  -12.0495   0.0000   0.0000   0.0000   0.2389
  14.400   1.4337   0.04104   0.03681  -0.0091  0.0021  1.0000  -12.0672   0.0000   0.0000   0.0000   0.2389
  14.500   1.4282   0.04288   0.03873  -0.0098  0.0021  1.0000  -12.0772   0.0000   0.0000   0.0000   0.2392
  14.600   1.4225   0.04489   0.04081  -0.0106  0.0021  1.0000  -12.0812   0.0000   0.0000   0.0000   0.2396
  14.700   1.4169   0.04699   0.04298  -0.0116  0.0021  1.0000  -12.0829   0.0000   0.0000   0.0000   0.2402
  14.800   1.4105   0.04933   0.04541  -0.0129  0.0021  1.0000  -12.0710   0.0000   0.0000   0.0000   0.2409
  14.900   1.4043   0.05173   0.04787  -0.0142  0.0021  1.0000  -12.0583   0.0000   0.0000   0.0000   0.2417
  15.000   1.3973   0.05433   0.05055  -0.0157  0.0021  1.0000  -12.0336   0.0000   0.0000   0.0000   0.2426
  15.100   1.3902   0.05703   0.05332  -0.0173  0.0021  1.0000  -12.0029   0.0000   0.0000   0.0000   0.2436
  15.200   1.3827   0.05982   0.05618  -0.0190  0.0021  1.0000  -11.9662   0.0000   0.0000   0.0000   0.2446
  15.300   1.3747   0.06277   0.05919  -0.0207  0.0021  1.0000  -11.9189   0.0000   0.0000   0.0000   0.2458
  15.400   1.3666   0.06574   0.06223  -0.0225  0.0021  1.0000  -11.8682   0.0000   0.0000   0.0000   0.2470
  15.500   1.3581   0.06883   0.06538  -0.0243  0.0021  1.0000  -11.8087   0.0000   0.0000   0.0000   0.2483
  15.600   1.3489   0.07201   0.06862  -0.0262  0.0021  1.0000  -11.7394   0.0000   0.0000   0.0000   0.2496
  15.700   1.3400   0.07498   0.07165  -0.0278  0.0021  1.0000  -11.6743   0.0000   0.0000   0.0000   0.2508
  15.800   1.3295   0.07846   0.07519  -0.0299  0.0021  1.0000  -11.5799   0.0000   0.0000   0.0000   0.2523
  15.900   1.3205   0.08162   0.07840  -0.0316  0.0022  1.0000  -11.5070   0.0000   0.0000   0.0000   0.2536
  16.000   1.3106   0.08510   0.08193  -0.0336  0.0022  1.0000  -11.4146   0.0000   0.0000   0.0000   0.2551
  16.100   1.3005   0.08865   0.08554  -0.0357  0.0022  1.0000  -11.3174   0.0000   0.0000   0.0000   0.2568
  16.200   1.2916   0.09192   0.08886  -0.0375  0.0022  1.0000  -11.2371   0.0000   0.0000   0.0000   0.2582
  16.300   1.2814   0.09560   0.09259  -0.0396  0.0022  1.0000  -11.1296   0.0000   0.0000   0.0000   0.2599
  16.400   1.2714   0.09930   0.09634  -0.0418  0.0022  1.0000  -11.0208   0.0000   0.0000   0.0000   0.2617
  16.500   1.2628   0.10266   0.09974  -0.0437  0.0022  1.0000  -10.9345   0.0000   0.0000   0.0000   0.2633
  16.600   1.2542   0.10606   0.10319  -0.0457  0.0023  1.0000  -10.8440   0.0000   0.0000   0.0000   0.2650
  16.700   1.2431   0.11018   0.10737  -0.0481  0.0023  1.0000  -10.7010   0.0000   0.0000   0.0000   0.2672
  16.800   1.2347   0.11362   0.11085  -0.0501  0.0023  1.0000  -10.6052   0.0000   0.0000   0.0000   0.2689
  16.900   1.2269   0.11693   0.11420  -0.0521  0.0023  1.0000  -10.5170   0.0000   0.0000   0.0000   0.2707
  17.000   1.2190   0.12032   0.11764  -0.0541  0.0023  1.0000  -10.4206   0.0000   0.0000   0.0000   0.2725
  17.100   1.2080   0.12454   0.12190  -0.0566  0.0024  1.0000  -10.2593   0.0000   0.0000   0.0000   0.2749
  17.200   1.2004   0.12791   0.12531  -0.0587  0.0024  1.0000  -10.1602   0.0000   0.0000   0.0000   0.2768
  17.300   1.1935   0.13109   0.12854  -0.0606  0.0024  1.0000  -10.0729   0.0000   0.0000   0.0000   0.2785
  17.400   1.1868   0.13430   0.13179  -0.0626  0.0024  1.0000  -9.9821   0.0000   0.0000   0.0000   0.2804
  17.500   1.1782   0.13798   0.13551  -0.0648  0.0024  1.0000  -9.8500   0.0000   0.0000   0.0000   0.2826
  17.600   1.1686   0.14187   0.13945  -0.0673  0.0025  1.0000  -9.6873   0.0000   0.0000   0.0000   0.2851
  17.700   1.1623   0.14475   0.14237  -0.0692  0.0025  1.0000  -9.5923   0.0000   0.0000   0.0000   0.2869
  17.800   1.1566   0.14756   0.14521  -0.0711  0.0025  1.0000  -9.5043   0.0000   0.0000   0.0000   0.2888
  17.900   1.1508   0.15048   0.14817  -0.0730  0.0025  1.0000  -9.4113   0.0000   0.0000   0.0000   0.2906
  18.000   1.1443   0.15372   0.15145  -0.0751  0.0025  1.0000  -9.2961   0.0000   0.0000   0.0000   0.2927
  18.100   1.1328   0.15846   0.15624  -0.0780  0.0026  1.0000  -9.0539   0.0000   0.0000   0.0000   0.2960
  18.200   1.1266   0.16188   0.15971  -0.0801  0.0026  1.0000  -8.9323   0.0000   0.0000   0.0000   0.2982
  18.300   1.1215   0.16511   0.16297  -0.0820  0.0026  1.0000  -8.8324   0.0000   0.0000   0.0000   0.3001
  18.400   1.1163   0.16847   0.16636  -0.0840  0.0026  1.0000  -8.7228   0.0000   0.0000   0.0000   0.3022
  18.500   1.1098   0.17229   0.17023  -0.0862  0.0026  1.0000  -8.5752   0.0000   0.0000   0.0000   0.3046
  18.600   1.0937   0.17925   0.17727  -0.0900  0.0028  1.0000  -8.1595   0.0000   0.0000   0.0000   0.3094
  18.700   1.0864   0.18369   0.18175  -0.0924  0.0028  1.0000  -7.9671   0.0000   0.0000   0.0000   0.3121
  18.800   1.0792   0.18821   0.18631  -0.0947  0.0028  1.0000  -7.7689   0.0000   0.0000   0.0000   0.3149
  19.100   0.9547   0.25597   0.25411  -0.1172  0.0039  1.0000  -2.7029   0.0000   0.0000   0.0000   0.3546
  19.200   0.9546   0.25943   0.25757  -0.1181  0.0041  1.0000  -2.6047   0.0000   0.0000   0.0000   0.3556
  19.300   0.9547   0.26270   0.26084  -0.1191  0.0043  1.0000  -2.5216   0.0000   0.0000   0.0000   0.3565
  19.400   0.9549   0.26583   0.26398  -0.1200  0.0045  1.0000  -2.4504   0.0000   0.0000   0.0000   0.3573
  19.500   0.9553   0.26885   0.26699  -0.1208  0.0047  1.0000  -2.3887   0.0000   0.0000   0.0000   0.3581
  19.600   0.9556   0.27178   0.26993  -0.1217  0.0050  1.0000  -2.3346   0.0000   0.0000   0.0000   0.3589
  19.700   0.9558   0.27467   0.27281  -0.1225  0.0053  1.0000  -2.2853   0.0000   0.0000   0.0000   0.3596
  19.800   0.9556   0.27770   0.27585  -0.1233  0.0056  1.0000  -2.2289   0.0000   0.0000   0.0000   0.3604
  19.900   0.9477   0.28470   0.28284  -0.1241  0.0067  1.0000  -1.9505   0.0000   0.0000   0.0000   0.3624
  20.000   0.9481   0.28738   0.28553  -0.1248  0.0068  1.0000  -1.9259   0.0000   0.0000   0.0000   0.3630
  20.100   0.9486   0.28997   0.28812  -0.1254  0.0068  1.0000  -1.9060   0.0000   0.0000   0.0000   0.3635
  20.200   0.9491   0.29251   0.29066  -0.1261  0.0068  1.0000  -1.8884   0.0000   0.0000   0.0000   0.3640
  20.300   0.9496   0.29501   0.29316  -0.1267  0.0068  1.0000  -1.8720   0.0000   0.0000   0.0000   0.3645
  20.400   0.9499   0.29748   0.29564  -0.1274  0.0068  1.0000  -1.8563   0.0000   0.0000   0.0000   0.3650
  20.500   0.9501   0.29993   0.29809  -0.1280  0.0068  1.0000  -1.8412   0.0000   0.0000   0.0000   0.3655
  20.600   0.9503   0.30234   0.30051  -0.1286  0.0068  1.0000  -1.8263   0.0000   0.0000   0.0000   0.3660
  20.700   0.9503   0.30473   0.30290  -0.1292  0.0068  1.0000  -1.8116   0.0000   0.0000   0.0000   0.3665
  20.800   0.9501   0.30708   0.30526  -0.1297  0.0068  1.0000  -1.7969   0.0000   0.0000   0.0000   0.3670
  20.900   0.9497   0.30939   0.30757  -0.1303  0.0068  1.0000  -1.7821   0.0000   0.0000   0.0000   0.3675
  21.000   0.9491   0.31166   0.30984  -0.1308  0.0068  1.0000  -1.7671   0.0000   0.0000   0.0000   0.3680
  21.100   0.9482   0.31386   0.31205  -0.1313  0.0068  1.0000  -1.7517   0.0000   0.0000   0.0000   0.3686
  21.200   0.9470   0.31598   0.31418  -0.1317  0.0068  1.0000  -1.7357   0.0000   0.0000   0.0000   0.3691
  21.300   0.9454   0.31801   0.31622  -0.1321  0.0068  1.0000  -1.7189   0.0000   0.0000   0.0000   0.3697
  21.400   0.9432   0.31991   0.31812  -0.1324  0.0068  1.0000  -1.7010   0.0000   0.0000   0.0000   0.3702
  21.500   0.9402   0.32160   0.31983  -0.1327  0.0068  1.0000  -1.6814   0.0000   0.0000   0.0000   0.3709
  21.600   0.8881   0.31065   0.30896  -0.1273  0.0068  1.0000  -1.5392   0.0000   0.0000   0.0000   0.3738
  21.700   0.8814   0.31027   0.30859  -0.1270  0.0068  1.0000  -1.5114   0.0000   0.0000   0.0000   0.3745
  21.800   0.8761   0.31018   0.30852  -0.1269  0.0068  1.0000  -1.4876   0.0000   0.0000   0.0000   0.3752
  21.900   0.8717   0.31027   0.30862  -0.1268  0.0068  1.0000  -1.4661   0.0000   0.0000   0.0000   0.3758
  22.000   0.8679   0.31046   0.30882  -0.1269  0.0068  1.0000  -1.4463   0.0000   0.0000   0.0000   0.3765
  22.100   0.8645   0.31073   0.30910  -0.1269  0.0068  1.0000  -1.4279   0.0000   0.0000   0.0000   0.3770
  22.200   0.8615   0.31104   0.30942  -0.1270  0.0068  1.0000  -1.4104   0.0000   0.0000   0.0000   0.3776
  22.300   0.8587   0.31140   0.30979  -0.1271  0.0068  1.0000  -1.3939   0.0000   0.0000   0.0000   0.3782
  22.400   0.8562   0.31180   0.31019  -0.1273  0.0068  1.0000  -1.3782   0.0000   0.0000   0.0000   0.3787
  22.500   0.8539   0.31223   0.31063  -0.1274  0.0068  1.0000  -1.3632   0.0000   0.0000   0.0000   0.3792
  22.600   0.8518   0.31268   0.31109  -0.1276  0.0068  1.0000  -1.3488   0.0000   0.0000   0.0000   0.3797
  22.700   0.8498   0.31316   0.31157  -0.1278  0.0068  1.0000  -1.3349   0.0000   0.0000   0.0000   0.3802
  22.800   0.8480   0.31366   0.31208  -0.1280  0.0068  1.0000  -1.3216   0.0000   0.0000   0.0000   0.3807
  22.900   0.8463   0.31417   0.31260  -0.1283  0.0068  1.0000  -1.3087   0.0000   0.0000   0.0000   0.3812
  23.000   0.8447   0.31470   0.31313  -0.1285  0.0068  1.0000  -1.2963   0.0000   0.0000   0.0000   0.3817
  23.100   0.8432   0.31524   0.31368  -0.1288  0.0068  1.0000  -1.2843   0.0000   0.0000   0.0000   0.3821
  23.200   0.8419   0.31579   0.31424  -0.1290  0.0068  1.0000  -1.2731   0.0000   0.0000   0.0000   0.3826
  23.300   0.8407   0.31635   0.31480  -0.1293  0.0068  1.0000  -1.2623   0.0000   0.0000   0.0000   0.3831
  23.400   0.8395   0.31692   0.31538  -0.1296  0.0068  1.0000  -1.2519   0.0000   0.0000   0.0000   0.3835
  23.500   0.8385   0.31750   0.31597  -0.1299  0.0068  1.0000  -1.2418   0.0000   0.0000   0.0000   0.3840
  23.600   0.8375   0.31809   0.31656  -0.1302  0.0067  1.0000  -1.2321   0.0000   0.0000   0.0000   0.3844
  23.700   0.8365   0.31868   0.31716  -0.1305  0.0067  1.0000  -1.2226   0.0000   0.0000   0.0000   0.3848
  23.800   0.8356   0.31928   0.31776  -0.1309  0.0067  1.0000  -1.2132   0.0000   0.0000   0.0000   0.3853
  23.900   0.8348   0.31989   0.31837  -0.1312  0.0067  1.0000  -1.2040   0.0000   0.0000   0.0000   0.3857
  24.000   0.8340   0.32050   0.31899  -0.1315  0.0067  1.0000  -1.1952   0.0000   0.0000   0.0000   0.3861
  24.100   0.8333   0.32112   0.31961  -0.1319  0.0067  1.0000  -1.1866   0.0000   0.0000   0.0000   0.3866
  24.200   0.8326   0.32174   0.32024  -0.1322  0.0067  1.0000  -1.1784   0.0000   0.0000   0.0000   0.3870
  24.300   0.8320   0.32236   0.32087  -0.1325  0.0067  1.0000  -1.1705   0.0000   0.0000   0.0000   0.3874
  24.400   0.8314   0.32299   0.32151  -0.1329  0.0067  1.0000  -1.1628   0.0000   0.0000   0.0000   0.3878
  24.500   0.8309   0.32363   0.32214  -0.1332  0.0066  1.0000  -1.1555   0.0000   0.0000   0.0000   0.3882
  24.600   0.8304   0.32427   0.32279  -0.1336  0.0066  1.0000  -1.1484   0.0000   0.0000   0.0000   0.3886
  24.700   0.8300   0.32490   0.32346  -0.1340  0.0066  1.0000  -1.1431   0.0000   0.0000   0.0000   0.3890
  24.800   0.8297   0.32554   0.32411  -0.1343  0.0066  1.0000  -1.1371   0.0000   0.0000   0.0000   0.3894
  24.900   0.8293   0.32619   0.32476  -0.1347  0.0066  1.0000  -1.1313   0.0000   0.0000   0.0000   0.3897
  25.000   0.8290   0.32684   0.32541  -0.1351  0.0065  1.0000  -1.1258   0.0000   0.0000   0.0000   0.3901
  25.100   0.8288   0.32749   0.32607  -0.1355  0.0065  1.0000  -1.1202   0.0000   0.0000   0.0000   0.3905
  25.200   0.8286   0.32816   0.32674  -0.1359  0.0065  1.0000  -1.1138   0.0000   0.0000   0.0000   0.3909
  25.300   0.8284   0.32884   0.32743  -0.1363  0.0065  1.0000  -1.1078   0.0000   0.0000   0.0000   0.3913
  25.400   0.8283   0.32952   0.32811  -0.1367  0.0064  1.0000  -1.1021   0.0000   0.0000   0.0000   0.3916
  25.500   0.8283   0.33022   0.32881  -0.1371  0.0064  1.0000  -1.0968   0.0000   0.0000   0.0000   0.3920
  25.600   0.8284   0.33093   0.32953  -0.1376  0.0063  1.0000  -1.0919   0.0000   0.0000   0.0000   0.3924
  25.700   0.8286   0.33166   0.33026  -0.1380  0.0062  1.0000  -1.0872   0.0000   0.0000   0.0000   0.3927
  25.800   0.8290   0.33242   0.33103  -0.1385  0.0061  1.0000  -1.0825   0.0000   0.0000   0.0000   0.3931
  25.900   0.8296   0.33323   0.33184  -0.1390  0.0059  1.0000  -1.0769   0.0000   0.0000   0.0000   0.3934
  26.000   0.8303   0.33406   0.33268  -0.1394  0.0056  1.0000  -1.0697   0.0000   0.0000   0.0000   0.3936
  26.100   0.8307   0.33487   0.33349  -0.1398  0.0053  1.0000  -1.0625   0.0000   0.0000   0.0000   0.3939
  26.200   0.8308   0.33562   0.33424  -0.1402  0.0050  1.0000  -1.0566   0.0000   0.0000   0.0000   0.3942
  26.300   0.8308   0.33633   0.33496  -0.1406  0.0048  1.0000  -1.0522   0.0000   0.0000   0.0000   0.3945
  26.400   0.8307   0.33702   0.33566  -0.1410  0.0045  1.0000  -1.0489   0.0000   0.0000   0.0000   0.3948
  26.500   0.8306   0.33771   0.33635  -0.1413  0.0043  1.0000  -1.0465   0.0000   0.0000   0.0000   0.3952
  26.600   0.8305   0.33838   0.33703  -0.1417  0.0041  1.0000  -1.0448   0.0000   0.0000   0.0000   0.3955
  26.700   0.8303   0.33905   0.33770  -0.1421  0.0039  1.0000  -1.0438   0.0000   0.0000   0.0000   0.3958
  26.800   0.8302   0.33971   0.33837  -0.1425  0.0038  1.0000  -1.0432   0.0000   0.0000   0.0000   0.3961


