xflr5 v6.61

 Calculated polar for: SD7037-092-88

 1 1 Reynolds number fixed          Mach number fixed         

 xtrf =   1.000 (top)        1.000 (bottom)
 Mach =   0.000     Re =     0.719 e 6     Ncrit =   9.000

  alpha     CL        CD       CDp       Cm    Top Xtr Bot Xtr   Cpmin    Chinge    XCp    
 ------- -------- --------- --------- -------- ------- ------- -------- --------- ---------
 -10.000  -0.3626   0.11000   0.10789  -0.0249  1.0000  0.0079  -1.7268   0.0000   0.0000   0.0000   0.1739
  -9.900  -0.3606   0.10864   0.10652  -0.0255  1.0000  0.0079  -1.7357   0.0000   0.0000   0.0000   0.1721
  -9.800  -0.3586   0.10727   0.10516  -0.0260  1.0000  0.0079  -1.7449   0.0000   0.0000   0.0000   0.1703
  -9.700  -0.3567   0.10590   0.10380  -0.0265  1.0000  0.0079  -1.7543   0.0000   0.0000   0.0000   0.1685
  -9.600  -0.3548   0.10453   0.10244  -0.0270  1.0000  0.0080  -1.7641   0.0000   0.0000   0.0000   0.1666
  -9.500  -0.3530   0.10317   0.10108  -0.0276  1.0000  0.0080  -1.7742   0.0000   0.0000   0.0000   0.1648
  -9.400  -0.3697   0.09705   0.09500  -0.0296  1.0000  0.0084  -2.2111   0.0000   0.0000   0.0000   0.1629
  -9.300  -0.3725   0.09480   0.09275  -0.0304  1.0000  0.0086  -2.3007   0.0000   0.0000   0.0000   0.1615
  -9.200  -0.3735   0.09307   0.09103  -0.0310  1.0000  0.0088  -2.3434   0.0000   0.0000   0.0000   0.1601
  -9.100  -0.3738   0.09155   0.08951  -0.0315  1.0000  0.0089  -2.3682   0.0000   0.0000   0.0000   0.1589
  -9.000  -0.3737   0.09012   0.08809  -0.0320  1.0000  0.0090  -2.3832   0.0000   0.0000   0.0000   0.1576
  -8.900  -0.3733   0.08875   0.08673  -0.0325  1.0000  0.0091  -2.3919   0.0000   0.0000   0.0000   0.1562
  -8.800  -0.3728   0.08743   0.08542  -0.0330  1.0000  0.0092  -2.3969   0.0000   0.0000   0.0000   0.1550
  -8.700  -0.3724   0.08615   0.08416  -0.0334  1.0000  0.0093  -2.3996   0.0000   0.0000   0.0000   0.1538
  -8.600  -0.3721   0.08491   0.08292  -0.0338  1.0000  0.0094  -2.4013   0.0000   0.0000   0.0000   0.1528
  -8.500  -0.3720   0.08370   0.08173  -0.0341  1.0000  0.0095  -2.4029   0.0000   0.0000   0.0000   0.1520
  -8.400  -0.3723   0.08253   0.08057  -0.0344  1.0000  0.0095  -2.4050   0.0000   0.0000   0.0000   0.1515
  -8.300  -0.3730   0.08140   0.07945  -0.0346  1.0000  0.0096  -2.4084   0.0000   0.0000   0.0000   0.1514
  -8.200  -0.3745   0.08032   0.07839  -0.0346  1.0000  0.0097  -2.4139   0.0000   0.0000   0.0000   0.1518
  -8.100  -0.3769   0.07933   0.07741  -0.0344  1.0000  0.0097  -2.4226   0.0000   0.0000   0.0000   0.1532
  -8.000  -0.3814   0.07850   0.07661  -0.0337  1.0000  0.0098  -2.4369   0.0000   0.0000   0.0000   0.1563
  -7.900  -0.3885   0.07789   0.07602  -0.0323  1.0000  0.0098  -2.4584   0.0000   0.0000   0.0000   0.1615
  -7.800  -0.3977   0.07744   0.07560  -0.0305  1.0000  0.0098  -2.4860   0.0000   0.0000   0.0000   0.1682
  -7.700  -0.3951   0.07591   0.07407  -0.0321  0.9990  0.0099  -2.4874   0.0000   0.0000   0.0000   0.1636
  -7.600  -0.3885   0.07397   0.07213  -0.0351  0.9972  0.0100  -2.4818   0.0000   0.0000   0.0000   0.1547
  -7.500  -0.3819   0.07204   0.07020  -0.0381  0.9952  0.0101  -2.4738   0.0000   0.0000   0.0000   0.1453
  -7.400  -0.3733   0.07000   0.06816  -0.0415  0.9932  0.0103  -2.4550   0.0000   0.0000   0.0000   0.1338
  -7.300  -0.3641   0.06782   0.06598  -0.0454  0.9916  0.0104  -2.4416   0.0000   0.0000   0.0000   0.1203
  -7.200  -0.3542   0.06549   0.06364  -0.0498  0.9901  0.0106  -2.4336   0.0000   0.0000   0.0000   0.1047
  -7.100  -0.3436   0.06297   0.06111  -0.0544  0.9888  0.0108  -2.4305   0.0000   0.0000   0.0000   0.0868
  -7.000  -0.3322   0.06033   0.05845  -0.0592  0.9878  0.0110  -2.4314   0.0000   0.0000   0.0000   0.0669
  -6.900  -0.3210   0.05767   0.05576  -0.0637  0.9866  0.0112  -2.4361   0.0000   0.0000   0.0000   0.0465
  -6.800  -0.3124   0.05525   0.05330  -0.0672  0.9842  0.0114  -2.4459   0.0000   0.0000   0.0000   0.0299
  -6.700  -0.3022   0.05274   0.05076  -0.0708  0.9822  0.0116  -2.4530   0.0000   0.0000   0.0000   0.0106
  -6.600  -0.2912   0.05024   0.04821  -0.0743  0.9804  0.0119  -2.4578   0.0000   0.0000   0.0000  -0.0104
  -6.500  -0.2801   0.04783   0.04574  -0.0775  0.9787  0.0121  -2.4609   0.0000   0.0000   0.0000  -0.0318
  -6.400  -0.2690   0.04552   0.04336  -0.0803  0.9770  0.0125  -2.4619   0.0000   0.0000   0.0000  -0.0539
  -6.300  -0.2580   0.04333   0.04110  -0.0828  0.9753  0.0129  -2.4606   0.0000   0.0000   0.0000  -0.0764
  -6.200  -0.2471   0.04126   0.03896  -0.0849  0.9737  0.0133  -2.4572   0.0000   0.0000   0.0000  -0.0995
  -6.100  -0.2358   0.03928   0.03689  -0.0869  0.9722  0.0138  -2.4518   0.0000   0.0000   0.0000  -0.1244
  -6.000  -0.2281   0.03768   0.03521  -0.0877  0.9694  0.0143  -2.4475   0.0000   0.0000   0.0000  -0.1404
  -5.900  -0.2212   0.03622   0.03368  -0.0880  0.9660  0.0148  -2.4423   0.0000   0.0000   0.0000  -0.1543
  -5.800  -0.2129   0.03479   0.03216  -0.0885  0.9629  0.0154  -2.4329   0.0000   0.0000   0.0000  -0.1721
  -5.700  -0.2041   0.03349   0.03078  -0.0889  0.9601  0.0161  -2.4173   0.0000   0.0000   0.0000  -0.1921
  -5.600  -0.1947   0.03242   0.02963  -0.0890  0.9575  0.0170  -2.3923   0.0000   0.0000   0.0000  -0.2143
  -5.500  -0.1842   0.03182   0.02897  -0.0890  0.9552  0.0180  -2.3436   0.0000   0.0000   0.0000  -0.2402
  -5.400  -0.1706   0.03260   0.02976  -0.0886  0.9536  0.0193  -2.2200   0.0000   0.0000   0.0000  -0.2769
  -5.300  -0.1568   0.03356   0.03069  -0.0883  0.9518  0.0200  -2.0971   0.0000   0.0000   0.0000  -0.3207
  -5.000  -0.1327   0.03099   0.02785  -0.0880  0.9439  0.0202  -2.0251   0.0000   0.0000   0.0000  -0.4215
  -4.900  -0.1378   0.02354   0.01985  -0.0886  0.9385  0.0221  -2.3543   0.0000   0.0000   0.0000  -0.4022
  -4.800  -0.1305   0.02231   0.01856  -0.0886  0.9357  0.0232  -2.3054   0.0000   0.0000   0.0000  -0.4380
  -4.700  -0.1218   0.02180   0.01803  -0.0884  0.9333  0.0242  -2.2236   0.0000   0.0000   0.0000  -0.4856
  -4.600  -0.1127   0.02145   0.01767  -0.0883  0.9308  0.0252  -2.1371   0.0000   0.0000   0.0000  -0.5437
  -4.500  -0.1033   0.02113   0.01733  -0.0881  0.9282  0.0262  -2.0528   0.0000   0.0000   0.0000  -0.6139
  -4.400  -0.0936   0.02080   0.01695  -0.0880  0.9252  0.0274  -1.9775   0.0000   0.0000   0.0000  -0.7012
  -4.300  -0.0840   0.02004   0.01600  -0.0877  0.9230  0.0279  -1.9468   0.0000   0.0000   0.0000  -0.8071
  -4.200  -0.0742   0.01981   0.01575  -0.0876  0.9207  0.0298  -1.8679   0.0000   0.0000   0.0000  -0.9438
  -4.100  -0.0639   0.01967   0.01558  -0.0873  0.9182  0.0322  -1.7934   0.0000   0.0000   0.0000  -1.1314
  -4.000  -0.0526   0.02000   0.01593  -0.0871  0.9157  0.0351  -1.7063   0.0000   0.0000   0.0000  -1.4217
  -3.900  -0.0385   0.02231   0.01835  -0.0865  0.9134  0.0376  -1.5514   0.0000   0.0000   0.0000  -2.0189
  -3.800  -0.0278   0.02231   0.01829  -0.0861  0.9105  0.0378  -1.4968   0.0000   0.0000   0.0000  -2.8761
  -3.700  -0.0250   0.01689   0.01246  -0.0865  0.9070  0.0429  -1.6166   0.0000   0.0000   0.0000  -3.2403
  -3.600  -0.0154   0.01655   0.01212  -0.0864  0.9040  0.0452  -1.5420   0.0000   0.0000   0.0000  -5.4220
  -3.000   0.0484   0.01390   0.00922  -0.0850  0.8866  0.0545  -1.2633   0.0000   0.0000   0.0000   2.0208
  -2.900   0.0627   0.01089   0.00557  -0.0830  0.8841  0.0216  -1.5772   0.0000   0.0000   0.0000   1.5831
  -2.800   0.0730   0.00987   0.00445  -0.0824  0.8809  0.0178  -1.6303   0.0000   0.0000   0.0000   1.3874
  -2.700   0.0834   0.00927   0.00376  -0.0819  0.8774  0.0163  -1.6289   0.0000   0.0000   0.0000   1.2402
  -2.600   0.0940   0.00887   0.00325  -0.0816  0.8736  0.0153  -1.6096   0.0000   0.0000   0.0000   1.1244
  -2.500   0.1047   0.00857   0.00286  -0.0812  0.8696  0.0144  -1.5791   0.0000   0.0000   0.0000   1.0313
  -2.400   0.1155   0.00835   0.00255  -0.0809  0.8653  0.0138  -1.5391   0.0000   0.0000   0.0000   0.9552
  -2.300   0.1265   0.00820   0.00232  -0.0807  0.8605  0.0133  -1.4890   0.0000   0.0000   0.0000   0.8919
  -2.200   0.1376   0.00808   0.00215  -0.0806  0.8576  0.0129  -1.4291   0.0000   0.0000   0.0000   0.8387
  -2.100   0.1488   0.00797   0.00201  -0.0805  0.8542  0.0127  -1.3639   0.0000   0.0000   0.0000   0.7936
  -2.000   0.1599   0.00788   0.00189  -0.0803  0.8503  0.0125  -1.2962   0.0000   0.0000   0.0000   0.7549
  -1.900   0.1710   0.00781   0.00178  -0.0802  0.8461  0.0124  -1.2274   0.0000   0.0000   0.0000   0.7212
  -1.800   0.1821   0.00774   0.00167  -0.0801  0.8413  0.0123  -1.1584   0.0000   0.0000   0.0000   0.6916
  -1.700   0.1931   0.00769   0.00157  -0.0799  0.8361  0.0123  -1.0895   0.0000   0.0000   0.0000   0.6654
  -1.600   0.2040   0.00765   0.00148  -0.0797  0.8303  0.0124  -1.0208   0.0000   0.0000   0.0000   0.6422
  -1.500   0.2149   0.00763   0.00139  -0.0796  0.8237  0.0127  -0.9522   0.0000   0.0000   0.0000   0.6213
  -1.400   0.2261   0.00759   0.00133  -0.0795  0.8194  0.0131  -0.8826   0.0000   0.0000   0.0000   0.6024
  -1.300   0.2372   0.00755   0.00127  -0.0794  0.8143  0.0139  -0.8125   0.0000   0.0000   0.0000   0.5853
  -1.200   0.2483   0.00752   0.00123  -0.0793  0.8083  0.0152  -0.7438   0.0000   0.0000   0.0000   0.5698
  -1.100   0.2594   0.00749   0.00121  -0.0792  0.8020  0.0168  -0.6800   0.0000   0.0000   0.0000   0.5556
  -1.000   0.2703   0.00747   0.00119  -0.0791  0.7955  0.0184  -0.6228   0.0000   0.0000   0.0000   0.5426
  -0.900   0.2811   0.00745   0.00117  -0.0789  0.7884  0.0200  -0.5706   0.0000   0.0000   0.0000   0.5307
  -0.800   0.2914   0.00719   0.00111  -0.0789  0.7812  0.0818  -0.5242   0.0000   0.0000   0.0000   0.5204
  -0.700   0.3023   0.00701   0.00110  -0.0789  0.7762  0.1285  -0.5342   0.0000   0.0000   0.0000   0.5107
  -0.600   0.3129   0.00679   0.00109  -0.0789  0.7696  0.1881  -0.5441   0.0000   0.0000   0.0000   0.5018
  -0.500   0.3234   0.00662   0.00108  -0.0789  0.7616  0.2471  -0.5540   0.0000   0.0000   0.0000   0.4934
  -0.400   0.3334   0.00639   0.00109  -0.0788  0.7527  0.3281  -0.5637   0.0000   0.0000   0.0000   0.4857
  -0.300   0.3374   0.00525   0.00127  -0.0778  0.7437  0.7334  -0.5701   0.0000   0.0000   0.0000   0.4799
  -0.200   0.3459   0.00512   0.00131  -0.0771  0.7365  0.7970  -0.5801   0.0000   0.0000   0.0000   0.4720
  -0.100   0.3551   0.00504   0.00133  -0.0765  0.7313  0.8340  -0.5909   0.0000   0.0000   0.0000   0.4645
   0.000   0.3647   0.00501   0.00134  -0.0760  0.7251  0.8577  -0.6019   0.0000   0.0000   0.0000   0.4575
   0.100   0.3738   0.00499   0.00135  -0.0754  0.7177  0.8835  -0.6127   0.0000   0.0000   0.0000   0.4507
   0.200   0.3825   0.00498   0.00135  -0.0747  0.7092  0.9068  -0.6233   0.0000   0.0000   0.0000   0.4441
   0.300   0.3918   0.00500   0.00134  -0.0741  0.6990  0.9292  -0.6343   0.0000   0.0000   0.0000   0.4379
   0.400   0.4035   0.00501   0.00133  -0.0741  0.6907  0.9507  -0.6467   0.0000   0.0000   0.0000   0.4323
   0.500   0.4188   0.00500   0.00131  -0.0749  0.6841  0.9707  -0.6616   0.0000   0.0000   0.0000   0.4275
   0.600   0.4365   0.00501   0.00129  -0.0764  0.6755  0.9879  -0.6788   0.0000   0.0000   0.0000   0.4234
   0.700   0.4518   0.00505   0.00128  -0.0773  0.6667  1.0000  -0.6958   0.0000   0.0000   0.0000   0.4194
   0.800   0.4621   0.00512   0.00128  -0.0771  0.6579  1.0000  -0.7094   0.0000   0.0000   0.0000   0.4151
   0.900   0.4724   0.00519   0.00129  -0.0769  0.6479  1.0000  -0.7230   0.0000   0.0000   0.0000   0.4110
   1.000   0.4833   0.00522   0.00130  -0.0768  0.6422  1.0000  -0.7371   0.0000   0.0000   0.0000   0.4071
   1.100   0.4942   0.00525   0.00130  -0.0768  0.6362  1.0000  -0.7512   0.0000   0.0000   0.0000   0.4034
   1.200   0.5050   0.00530   0.00131  -0.0767  0.6282  1.0000  -0.7653   0.0000   0.0000   0.0000   0.3998
   1.300   0.5154   0.00536   0.00132  -0.0765  0.6187  1.0000  -0.7792   0.0000   0.0000   0.0000   0.3964
   1.400   0.5257   0.00545   0.00134  -0.0763  0.6076  1.0000  -0.7930   0.0000   0.0000   0.0000   0.3931
   1.500   0.5360   0.00553   0.00136  -0.0762  0.5962  1.0000  -0.8069   0.0000   0.0000   0.0000   0.3899
   1.600   0.5471   0.00556   0.00137  -0.0762  0.5919  1.0000  -0.8235   0.0000   0.0000   0.0000   0.3869
   1.700   0.5580   0.00559   0.00139  -0.0761  0.5862  1.0000  -0.8404   0.0000   0.0000   0.0000   0.3840
   1.800   0.5689   0.00564   0.00141  -0.0761  0.5793  1.0000  -0.8574   0.0000   0.0000   0.0000   0.3812
   1.900   0.5795   0.00570   0.00143  -0.0760  0.5713  1.0000  -0.8742   0.0000   0.0000   0.0000   0.3785
   2.000   0.5899   0.00579   0.00145  -0.0758  0.5619  1.0000  -0.8908   0.0000   0.0000   0.0000   0.3759
   2.100   0.6002   0.00588   0.00148  -0.0756  0.5501  1.0000  -0.9074   0.0000   0.0000   0.0000   0.3733
   2.200   0.6111   0.00593   0.00151  -0.0756  0.5436  1.0000  -0.9246   0.0000   0.0000   0.0000   0.3709
   2.300   0.6220   0.00597   0.00153  -0.0756  0.5371  1.0000  -0.9420   0.0000   0.0000   0.0000   0.3686
   2.400   0.6327   0.00603   0.00156  -0.0755  0.5285  1.0000  -0.9592   0.0000   0.0000   0.0000   0.3663
   2.500   0.6432   0.00612   0.00159  -0.0753  0.5188  1.0000  -0.9769   0.0000   0.0000   0.0000   0.3641
   2.600   0.6534   0.00622   0.00163  -0.0752  0.5084  1.0000  -0.9969   0.0000   0.0000   0.0000   0.3619
   2.700   0.6639   0.00631   0.00167  -0.0751  0.4976  1.0000  -1.0172   0.0000   0.0000   0.0000   0.3599
   2.800   0.6749   0.00634   0.00170  -0.0751  0.4935  1.0000  -1.0382   0.0000   0.0000   0.0000   0.3579
   2.900   0.6859   0.00639   0.00173  -0.0750  0.4883  1.0000  -1.0592   0.0000   0.0000   0.0000   0.3560
   3.000   0.6967   0.00644   0.00176  -0.0750  0.4817  1.0000  -1.0801   0.0000   0.0000   0.0000   0.3541
   3.100   0.7073   0.00651   0.00184  -0.0749  0.4744  1.0000  -1.1013   0.0000   0.0000   0.0000   0.3523
   3.200   0.7172   0.00665   0.00188  -0.0747  0.4600  1.0000  -1.1216   0.0000   0.0000   0.0000   0.3505
   3.300   0.7271   0.00679   0.00192  -0.0745  0.4387  1.0000  -1.1419   0.0000   0.0000   0.0000   0.3487
   3.400   0.7362   0.00701   0.00198  -0.0742  0.4118  1.0000  -1.1615   0.0000   0.0000   0.0000   0.3470
   3.500   0.7459   0.00717   0.00203  -0.0740  0.3889  1.0000  -1.1818   0.0000   0.0000   0.0000   0.3453
   3.600   0.7551   0.00740   0.00211  -0.0737  0.3640  1.0000  -1.2016   0.0000   0.0000   0.0000   0.3436
   3.700   0.7649   0.00755   0.00217  -0.0735  0.3445  1.0000  -1.2222   0.0000   0.0000   0.0000   0.3421
   3.800   0.7748   0.00771   0.00223  -0.0734  0.3276  1.0000  -1.2470   0.0000   0.0000   0.0000   0.3405
   3.900   0.7843   0.00791   0.00232  -0.0732  0.3074  1.0000  -1.2717   0.0000   0.0000   0.0000   0.3390
   4.000   0.7948   0.00801   0.00237  -0.0731  0.2987  1.0000  -1.2978   0.0000   0.0000   0.0000   0.3376
   4.100   0.8052   0.00811   0.00243  -0.0730  0.2898  1.0000  -1.3240   0.0000   0.0000   0.0000   0.3362
   4.200   0.8154   0.00823   0.00249  -0.0729  0.2802  1.0000  -1.3500   0.0000   0.0000   0.0000   0.3349
   4.300   0.8254   0.00839   0.00258  -0.0728  0.2680  1.0000  -1.3788   0.0000   0.0000   0.0000   0.3335
   4.400   0.8358   0.00849   0.00264  -0.0727  0.2590  1.0000  -1.4113   0.0000   0.0000   0.0000   0.3322
   4.500   0.8463   0.00858   0.00271  -0.0726  0.2521  1.0000  -1.4441   0.0000   0.0000   0.0000   0.3310
   4.600   0.8564   0.00872   0.00278  -0.0725  0.2419  1.0000  -1.4766   0.0000   0.0000   0.0000   0.3297
   4.700   0.8662   0.00889   0.00287  -0.0723  0.2296  1.0000  -1.5086   0.0000   0.0000   0.0000   0.3285
   4.800   0.8764   0.00902   0.00296  -0.0722  0.2189  1.0000  -1.5416   0.0000   0.0000   0.0000   0.3273
   4.900   0.8868   0.00911   0.00303  -0.0721  0.2134  1.0000  -1.5752   0.0000   0.0000   0.0000   0.3261
   5.000   0.8970   0.00924   0.00311  -0.0720  0.2052  1.0000  -1.6085   0.0000   0.0000   0.0000   0.3250
   5.100   0.9068   0.00941   0.00320  -0.0718  0.1947  1.0000  -1.6414   0.0000   0.0000   0.0000   0.3238
   5.200   0.9166   0.00958   0.00331  -0.0717  0.1825  1.0000  -1.6744   0.0000   0.0000   0.0000   0.3227
   5.300   0.9270   0.00968   0.00339  -0.0716  0.1770  1.0000  -1.7087   0.0000   0.0000   0.0000   0.3216
   5.400   0.9371   0.00981   0.00347  -0.0715  0.1700  1.0000  -1.7427   0.0000   0.0000   0.0000   0.3206
   5.500   0.9469   0.00998   0.00358  -0.0713  0.1609  1.0000  -1.7793   0.0000   0.0000   0.0000   0.3195
   5.600   0.9565   0.01016   0.00369  -0.0712  0.1502  1.0000  -1.8221   0.0000   0.0000   0.0000   0.3185
   5.700   0.9667   0.01028   0.00378  -0.0711  0.1438  1.0000  -1.8666   0.0000   0.0000   0.0000   0.3175
   5.800   0.9769   0.01040   0.00388  -0.0709  0.1383  1.0000  -1.9143   0.0000   0.0000   0.0000   0.3165
   5.900   0.9866   0.01057   0.00400  -0.0708  0.1298  1.0000  -1.9909   0.0000   0.0000   0.0000   0.3155
   6.000   0.9959   0.01079   0.00412  -0.0706  0.1191  1.0000  -2.0815   0.0000   0.0000   0.0000   0.3145
   6.100   1.0059   0.01092   0.00423  -0.0704  0.1122  1.0000  -2.1768   0.0000   0.0000   0.0000   0.3135
   6.200   1.0160   0.01105   0.00434  -0.0703  0.1077  1.0000  -2.2736   0.0000   0.0000   0.0000   0.3126
   6.300   1.0256   0.01122   0.00447  -0.0701  0.1008  1.0000  -2.3697   0.0000   0.0000   0.0000   0.3117
   6.400   1.0348   0.01145   0.00461  -0.0699  0.0918  1.0000  -2.4642   0.0000   0.0000   0.0000   0.3107
   6.500   1.0446   0.01160   0.00473  -0.0697  0.0843  1.0000  -2.5632   0.0000   0.0000   0.0000   0.3098
   6.600   1.0544   0.01175   0.00485  -0.0696  0.0790  1.0000  -2.6633   0.0000   0.0000   0.0000   0.3090
   6.700   1.0634   0.01199   0.00503  -0.0693  0.0705  1.0000  -2.7603   0.0000   0.0000   0.0000   0.3080
   6.800   1.0800   0.01137   0.00506  -0.0699  0.1185  1.0000  -2.9422   0.0000   0.0000   0.0000   0.3074
   6.900   1.0913   0.01134   0.00515  -0.0699  0.1262  1.0000  -3.0652   0.0000   0.0000   0.0000   0.3067
   7.000   1.1016   0.01143   0.00527  -0.0698  0.1252  1.0000  -3.1797   0.0000   0.0000   0.0000   0.3058
   7.100   1.1114   0.01158   0.00540  -0.0697  0.1212  1.0000  -3.2919   0.0000   0.0000   0.0000   0.3050
   7.200   1.1212   0.01172   0.00555  -0.0695  0.1155  1.0000  -3.4045   0.0000   0.0000   0.0000   0.3042
   7.300   1.1313   0.01183   0.00567  -0.0694  0.1127  1.0000  -3.5195   0.0000   0.0000   0.0000   0.3034
   7.400   1.1412   0.01196   0.00580  -0.0692  0.1097  1.0000  -3.6351   0.0000   0.0000   0.0000   0.3026
   7.500   1.1508   0.01212   0.00594  -0.0690  0.1052  1.0000  -3.7498   0.0000   0.0000   0.0000   0.3018
   7.600   1.1600   0.01232   0.00610  -0.0688  0.0992  1.0000  -3.8629   0.0000   0.0000   0.0000   0.3010
   7.700   1.1689   0.01255   0.00627  -0.0686  0.0916  1.0000  -3.9755   0.0000   0.0000   0.0000   0.3002
   7.800   1.1783   0.01272   0.00643  -0.0683  0.0852  1.0000  -4.0918   0.0000   0.0000   0.0000   0.2994
   7.900   1.1879   0.01287   0.00658  -0.0682  0.0818  1.0000  -4.2104   0.0000   0.0000   0.0000   0.2987
   8.000   1.1970   0.01308   0.00676  -0.0679  0.0762  1.0000  -4.3265   0.0000   0.0000   0.0000   0.2979
   8.100   1.2053   0.01337   0.00696  -0.0676  0.0686  1.0000  -4.4385   0.0000   0.0000   0.0000   0.2971
   8.200   1.2142   0.01358   0.00714  -0.0673  0.0607  1.0000  -4.5540   0.0000   0.0000   0.0000   0.2964
   8.300   1.2228   0.01383   0.00734  -0.0670  0.0543  1.0000  -4.6669   0.0000   0.0000   0.0000   0.2956
   8.400   1.2293   0.01430   0.00766  -0.0665  0.0396  1.0000  -4.7599   0.0000   0.0000   0.0000   0.2947
   8.600   1.2354   0.01613   0.00928  -0.0639  0.0076  1.0000  -4.6700   0.0000   0.0000   0.0000   0.2921
   8.700   1.2439   0.01639   0.00960  -0.0635  0.0075  1.0000  -4.7554   0.0000   0.0000   0.0000   0.2913
   8.800   1.2523   0.01666   0.00993  -0.0630  0.0074  1.0000  -4.8422   0.0000   0.0000   0.0000   0.2905
   8.900   1.2604   0.01694   0.01027  -0.0626  0.0074  1.0000  -4.9292   0.0000   0.0000   0.0000   0.2896
   9.000   1.2684   0.01724   0.01063  -0.0621  0.0074  1.0000  -5.0155   0.0000   0.0000   0.0000   0.2888
   9.100   1.2761   0.01756   0.01101  -0.0616  0.0075  1.0000  -5.1000   0.0000   0.0000   0.0000   0.2879
   9.200   1.2834   0.01790   0.01142  -0.0610  0.0075  1.0000  -5.1823   0.0000   0.0000   0.0000   0.2871
   9.300   1.2905   0.01826   0.01185  -0.0604  0.0076  1.0000  -5.2615   0.0000   0.0000   0.0000   0.2862
   9.400   1.2972   0.01865   0.01232  -0.0597  0.0076  1.0000  -5.3365   0.0000   0.0000   0.0000   0.2853
   9.500   1.3034   0.01908   0.01281  -0.0589  0.0077  1.0000  -5.4065   0.0000   0.0000   0.0000   0.2843
   9.600   1.3091   0.01953   0.01335  -0.0581  0.0078  1.0000  -5.4704   0.0000   0.0000   0.0000   0.2833
   9.700   1.3141   0.02004   0.01393  -0.0572  0.0079  1.0000  -5.5274   0.0000   0.0000   0.0000   0.2823
   9.800   1.3185   0.02058   0.01455  -0.0561  0.0081  1.0000  -5.5784   0.0000   0.0000   0.0000   0.2813
   9.900   1.3223   0.02116   0.01522  -0.0550  0.0082  1.0000  -5.6238   0.0000   0.0000   0.0000   0.2802
  10.000   1.3254   0.02179   0.01594  -0.0538  0.0084  1.0000  -5.6636   0.0000   0.0000   0.0000   0.2790
  10.100   1.3275   0.02244   0.01667  -0.0525  0.0085  1.0000  -5.6973   0.0000   0.0000   0.0000   0.2778
  10.300   1.3272   0.02401   0.01848  -0.0490  0.0089  1.0000  -5.7048   0.0000   0.0000   0.0000   0.2749
  10.400   1.3271   0.02483   0.01938  -0.0474  0.0091  1.0000  -5.7178   0.0000   0.0000   0.0000   0.2736
  10.500   1.3270   0.02570   0.02035  -0.0459  0.0093  1.0000  -5.7286   0.0000   0.0000   0.0000   0.2723
  10.600   1.3266   0.02665   0.02140  -0.0443  0.0096  1.0000  -5.7354   0.0000   0.0000   0.0000   0.2710
  10.700   1.3262   0.02769   0.02253  -0.0429  0.0098  1.0000  -5.7381   0.0000   0.0000   0.0000   0.2697
  10.800   1.3257   0.02884   0.02379  -0.0414  0.0101  1.0000  -5.7355   0.0000   0.0000   0.0000   0.2685
  10.900   1.3248   0.03011   0.02517  -0.0400  0.0104  1.0000  -5.7258   0.0000   0.0000   0.0000   0.2674
  11.000   1.3232   0.03155   0.02672  -0.0386  0.0107  1.0000  -5.7060   0.0000   0.0000   0.0000   0.2662
  11.100   1.3205   0.03324   0.02854  -0.0372  0.0110  1.0000  -5.6700   0.0000   0.0000   0.0000   0.2650
  11.200   1.3149   0.03548   0.03095  -0.0356  0.0114  1.0000  -5.5958   0.0000   0.0000   0.0000   0.2638
  17.700   0.9878   0.22785   0.22612  -0.1135  0.0160  1.0000  -2.2538   0.0000   0.0000   0.0000   0.3454
  17.800   0.9893   0.22993   0.22820  -0.1143  0.0158  1.0000  -2.2579   0.0000   0.0000   0.0000   0.3460
  17.900   0.9908   0.23198   0.23026  -0.1151  0.0156  1.0000  -2.2638   0.0000   0.0000   0.0000   0.3464
  18.000   0.9924   0.23401   0.23229  -0.1159  0.0154  1.0000  -2.2714   0.0000   0.0000   0.0000   0.3469
  18.100   0.9940   0.23601   0.23429  -0.1167  0.0152  1.0000  -2.2806   0.0000   0.0000   0.0000   0.3473
  18.200   0.9957   0.23799   0.23628  -0.1175  0.0150  1.0000  -2.2913   0.0000   0.0000   0.0000   0.3477
  18.300   0.9973   0.23997   0.23826  -0.1182  0.0149  1.0000  -2.3026   0.0000   0.0000   0.0000   0.3481
  18.400   0.9990   0.24193   0.24022  -0.1189  0.0147  1.0000  -2.3152   0.0000   0.0000   0.0000   0.3485
  18.500   1.0007   0.24387   0.24217  -0.1196  0.0145  1.0000  -2.3291   0.0000   0.0000   0.0000   0.3488
  18.600   1.0023   0.24580   0.24410  -0.1203  0.0144  1.0000  -2.3442   0.0000   0.0000   0.0000   0.3491
  18.700   1.0040   0.24772   0.24602  -0.1210  0.0142  1.0000  -2.3603   0.0000   0.0000   0.0000   0.3494
  18.800   1.0057   0.24962   0.24793  -0.1217  0.0141  1.0000  -2.3774   0.0000   0.0000   0.0000   0.3497
  18.900   1.0071   0.25164   0.24994  -0.1224  0.0140  1.0000  -2.3898   0.0000   0.0000   0.0000   0.3500
  19.000   1.0084   0.25374   0.25206  -0.1231  0.0138  1.0000  -2.3983   0.0000   0.0000   0.0000   0.3505
  19.100   1.0095   0.25587   0.25418  -0.1239  0.0137  1.0000  -2.4069   0.0000   0.0000   0.0000   0.3509
  19.200   1.0105   0.25803   0.25635  -0.1246  0.0135  1.0000  -2.4144   0.0000   0.0000   0.0000   0.3513
  19.300   1.0111   0.26041   0.25877  -0.1254  0.0134  1.0000  -2.4050   0.0000   0.0000   0.0000   0.3518
  19.400   1.0114   0.26289   0.26125  -0.1261  0.0132  1.0000  -2.3985   0.0000   0.0000   0.0000   0.3524
  22.400   0.8889   0.30767   0.30627  -0.1351  0.0118  1.0000  -1.3706   0.0000   0.0000   0.0000   0.3778
  22.500   0.8872   0.30820   0.30681  -0.1353  0.0118  1.0000  -1.3600   0.0000   0.0000   0.0000   0.3783
  22.600   0.8855   0.30874   0.30736  -0.1356  0.0118  1.0000  -1.3495   0.0000   0.0000   0.0000   0.3788
  22.700   0.8840   0.30929   0.30792  -0.1359  0.0117  1.0000  -1.3397   0.0000   0.0000   0.0000   0.3793
  22.800   0.8826   0.30987   0.30850  -0.1362  0.0117  1.0000  -1.3301   0.0000   0.0000   0.0000   0.3797
  22.900   0.8813   0.31045   0.30909  -0.1365  0.0116  1.0000  -1.3213   0.0000   0.0000   0.0000   0.3802
  23.000   0.8802   0.31104   0.30969  -0.1369  0.0116  1.0000  -1.3135   0.0000   0.0000   0.0000   0.3807
  23.100   0.8793   0.31166   0.31031  -0.1373  0.0115  1.0000  -1.3061   0.0000   0.0000   0.0000   0.3811
  23.200   0.8786   0.31234   0.31100  -0.1377  0.0114  1.0000  -1.2972   0.0000   0.0000   0.0000   0.3816
  23.300   0.8782   0.31308   0.31174  -0.1382  0.0112  1.0000  -1.2891   0.0000   0.0000   0.0000   0.3821
  23.400   0.8784   0.31393   0.31260  -0.1387  0.0108  1.0000  -1.2802   0.0000   0.0000   0.0000   0.3826
  23.500   0.8786   0.31483   0.31351  -0.1393  0.0103  1.0000  -1.2682   0.0000   0.0000   0.0000   0.3830
  23.600   0.8781   0.31562   0.31430  -0.1397  0.0097  1.0000  -1.2579   0.0000   0.0000   0.0000   0.3834
  23.700   0.8774   0.31632   0.31501  -0.1400  0.0093  1.0000  -1.2508   0.0000   0.0000   0.0000   0.3838
  23.800   0.8765   0.31698   0.31567  -0.1404  0.0088  1.0000  -1.2467   0.0000   0.0000   0.0000   0.3842
  23.900   0.8757   0.31760   0.31630  -0.1407  0.0084  1.0000  -1.2452   0.0000   0.0000   0.0000   0.3846
  24.000   0.8749   0.31820   0.31690  -0.1410  0.0080  1.0000  -1.2463   0.0000   0.0000   0.0000   0.3850
  24.100   0.8742   0.31878   0.31749  -0.1414  0.0076  1.0000  -1.2501   0.0000   0.0000   0.0000   0.3854
  24.200   0.8736   0.31934   0.31805  -0.1417  0.0073  1.0000  -1.2569   0.0000   0.0000   0.0000   0.3857
  24.300   0.8731   0.31987   0.31859  -0.1421  0.0070  1.0000  -1.2671   0.0000   0.0000   0.0000   0.3860
  24.400   0.8726   0.32037   0.31910  -0.1424  0.0067  1.0000  -1.2807   0.0000   0.0000   0.0000   0.3863
  24.500   0.8723   0.32085   0.31958  -0.1428  0.0064  1.0000  -1.2983   0.0000   0.0000   0.0000   0.3866
  24.600   0.8720   0.32129   0.32002  -0.1431  0.0061  1.0000  -1.3199   0.0000   0.0000   0.0000   0.3868
  24.700   0.8718   0.32169   0.32043  -0.1434  0.0059  1.0000  -1.3460   0.0000   0.0000   0.0000   0.3870
  24.800   0.8717   0.32204   0.32079  -0.1438  0.0056  1.0000  -1.3765   0.0000   0.0000   0.0000   0.3872
  24.900   0.8717   0.32236   0.32111  -0.1441  0.0054  1.0000  -1.4115   0.0000   0.0000   0.0000   0.3874
  25.000   0.8717   0.32262   0.32138  -0.1444  0.0053  1.0000  -1.4510   0.0000   0.0000   0.0000   0.3875
  25.100   0.8718   0.32283   0.32160  -0.1447  0.0051  1.0000  -1.4947   0.0000   0.0000   0.0000   0.3875
  25.200   0.8720   0.32299   0.32177  -0.1450  0.0049  1.0000  -1.5426   0.0000   0.0000   0.0000   0.3875
  25.300   0.8720   0.32314   0.32192  -0.1452  0.0048  1.0000  -1.5903   0.0000   0.0000   0.0000   0.3875
  25.400   0.8711   0.32333   0.32212  -0.1454  0.0045  1.0000  -1.6252   0.0000   0.0000   0.0000   0.3877
  25.600   0.8611   0.32696   0.32573  -0.1462  0.0038  1.0000  -1.3674   0.0000   0.0000   0.0000   0.3908


