xflr5 v6.61

 Calculated polar for: SD7037-092-88

 1 1 Reynolds number fixed          Mach number fixed         

 xtrf =   1.000 (top)        1.000 (bottom)
 Mach =   0.000     Re =     0.160 e 6     Ncrit =   9.000

  alpha     CL        CD       CDp       Cm    Top Xtr Bot Xtr   Cpmin    Chinge    XCp    
 ------- -------- --------- --------- -------- ------- ------- -------- --------- ---------
 -10.000  -0.3735   0.11484   0.11057  -0.0234  1.0000  0.0441  -1.3206   0.0000   0.0000   0.0000   0.1808
  -9.900  -0.3710   0.11363   0.10936  -0.0237  1.0000  0.0446  -1.3134   0.0000   0.0000   0.0000   0.1796
  -9.800  -0.3686   0.11242   0.10817  -0.0240  1.0000  0.0451  -1.3076   0.0000   0.0000   0.0000   0.1783
  -9.700  -0.3663   0.11121   0.10697  -0.0244  1.0000  0.0455  -1.3029   0.0000   0.0000   0.0000   0.1770
  -9.600  -0.3642   0.11001   0.10578  -0.0247  1.0000  0.0461  -1.2993   0.0000   0.0000   0.0000   0.1756
  -9.500  -0.3621   0.10881   0.10459  -0.0251  1.0000  0.0466  -1.2966   0.0000   0.0000   0.0000   0.1742
  -9.400  -0.3601   0.10762   0.10341  -0.0255  1.0000  0.0471  -1.2949   0.0000   0.0000   0.0000   0.1728
  -9.300  -0.3583   0.10642   0.10222  -0.0259  1.0000  0.0476  -1.2941   0.0000   0.0000   0.0000   0.1714
  -9.200  -0.3565   0.10523   0.10104  -0.0263  1.0000  0.0482  -1.2941   0.0000   0.0000   0.0000   0.1699
  -9.100  -0.3548   0.10404   0.09987  -0.0268  1.0000  0.0488  -1.2949   0.0000   0.0000   0.0000   0.1685
  -9.000  -0.3533   0.10286   0.09870  -0.0272  1.0000  0.0493  -1.2966   0.0000   0.0000   0.0000   0.1670
  -8.900  -0.3519   0.10168   0.09753  -0.0276  1.0000  0.0499  -1.2991   0.0000   0.0000   0.0000   0.1655
  -8.800  -0.3506   0.10051   0.09638  -0.0281  1.0000  0.0505  -1.3024   0.0000   0.0000   0.0000   0.1641
  -8.700  -0.3495   0.09935   0.09524  -0.0285  1.0000  0.0511  -1.3066   0.0000   0.0000   0.0000   0.1626
  -8.600  -0.3485   0.09820   0.09410  -0.0289  1.0000  0.0517  -1.3117   0.0000   0.0000   0.0000   0.1612
  -8.500  -0.3476   0.09706   0.09298  -0.0294  1.0000  0.0524  -1.3179   0.0000   0.0000   0.0000   0.1598
  -8.400  -0.3470   0.09593   0.09187  -0.0299  1.0000  0.0530  -1.3253   0.0000   0.0000   0.0000   0.1583
  -8.300  -0.3465   0.09482   0.09078  -0.0304  1.0000  0.0537  -1.3338   0.0000   0.0000   0.0000   0.1569
  -8.200  -0.3463   0.09374   0.08972  -0.0309  1.0000  0.0543  -1.3439   0.0000   0.0000   0.0000   0.1555
  -8.100  -0.3465   0.09270   0.08870  -0.0313  1.0000  0.0550  -1.3559   0.0000   0.0000   0.0000   0.1543
  -8.000  -0.3471   0.09172   0.08775  -0.0318  1.0000  0.0556  -1.3695   0.0000   0.0000   0.0000   0.1532
  -7.900  -0.3483   0.09083   0.08688  -0.0323  1.0000  0.0563  -1.3854   0.0000   0.0000   0.0000   0.1523
  -7.800  -0.3503   0.09004   0.08613  -0.0326  1.0000  0.0569  -1.4033   0.0000   0.0000   0.0000   0.1519
  -7.700  -0.3529   0.08937   0.08549  -0.0329  1.0000  0.0575  -1.4217   0.0000   0.0000   0.0000   0.1521
  -7.600  -0.3567   0.08882   0.08498  -0.0329  1.0000  0.0579  -1.4410   0.0000   0.0000   0.0000   0.1531
  -7.500  -0.3616   0.08835   0.08455  -0.0327  1.0000  0.0583  -1.4605   0.0000   0.0000   0.0000   0.1552
  -7.400  -0.3677   0.08793   0.08417  -0.0322  1.0000  0.0586  -1.4796   0.0000   0.0000   0.0000   0.1582
  -7.300  -0.3734   0.08749   0.08377  -0.0318  1.0000  0.0588  -1.4968   0.0000   0.0000   0.0000   0.1609
  -7.200  -0.3767   0.08694   0.08324  -0.0320  1.0000  0.0591  -1.5121   0.0000   0.0000   0.0000   0.1612
  -7.100  -0.3795   0.08628   0.08261  -0.0324  1.0000  0.0594  -1.5277   0.0000   0.0000   0.0000   0.1609
  -7.000  -0.3820   0.08554   0.08189  -0.0329  1.0000  0.0596  -1.5438   0.0000   0.0000   0.0000   0.1603
  -6.900  -0.3843   0.08470   0.08106  -0.0334  1.0000  0.0598  -1.5600   0.0000   0.0000   0.0000   0.1595
  -6.800  -0.3862   0.08379   0.08016  -0.0339  1.0000  0.0600  -1.5761   0.0000   0.0000   0.0000   0.1589
  -6.700  -0.3878   0.08283   0.07920  -0.0343  1.0000  0.0601  -1.5919   0.0000   0.0000   0.0000   0.1583
  -6.600  -0.3892   0.08182   0.07819  -0.0347  1.0000  0.0602  -1.6071   0.0000   0.0000   0.0000   0.1578
  -6.500  -0.3904   0.08078   0.07714  -0.0350  1.0000  0.0603  -1.6217   0.0000   0.0000   0.0000   0.1574
  -6.400  -0.3913   0.07971   0.07606  -0.0352  1.0000  0.0603  -1.6356   0.0000   0.0000   0.0000   0.1571
  -6.300  -0.3920   0.07862   0.07495  -0.0354  1.0000  0.0604  -1.6486   0.0000   0.0000   0.0000   0.1568
  -6.200  -0.3923   0.07750   0.07381  -0.0355  1.0000  0.0605  -1.6607   0.0000   0.0000   0.0000   0.1566
  -6.100  -0.3924   0.07636   0.07265  -0.0357  1.0000  0.0605  -1.6719   0.0000   0.0000   0.0000   0.1563
  -6.000  -0.3922   0.07521   0.07147  -0.0358  1.0000  0.0606  -1.6821   0.0000   0.0000   0.0000   0.1560
  -5.900  -0.3917   0.07403   0.07026  -0.0359  1.0000  0.0606  -1.6914   0.0000   0.0000   0.0000   0.1557
  -5.800  -0.4052   0.06757   0.06383  -0.0378  1.0000  0.0620  -1.8173   0.0000   0.0000   0.0000   0.1540
  -5.700  -0.4087   0.06465   0.06092  -0.0379  1.0000  0.0630  -1.8352   0.0000   0.0000   0.0000   0.1546
  -5.600  -0.4087   0.06292   0.05921  -0.0376  1.0000  0.0638  -1.8239   0.0000   0.0000   0.0000   0.1554
  -5.500  -0.4070   0.06180   0.05812  -0.0367  1.0000  0.0645  -1.7921   0.0000   0.0000   0.0000   0.1573
  -5.400  -0.4050   0.06080   0.05714  -0.0360  1.0000  0.0652  -1.7617   0.0000   0.0000   0.0000   0.1588
  -5.300  -0.4028   0.05985   0.05621  -0.0353  1.0000  0.0659  -1.7334   0.0000   0.0000   0.0000   0.1600
  -5.200  -0.4005   0.05891   0.05528  -0.0348  1.0000  0.0667  -1.7074   0.0000   0.0000   0.0000   0.1609
  -5.100  -0.3978   0.05797   0.05434  -0.0344  1.0000  0.0675  -1.6836   0.0000   0.0000   0.0000   0.1613
  -5.000  -0.3948   0.05699   0.05336  -0.0341  1.0000  0.0684  -1.6623   0.0000   0.0000   0.0000   0.1613
  -4.900  -0.3809   0.05550   0.05184  -0.0361  0.9981  0.0703  -1.6212   0.0000   0.0000   0.0000   0.1530
  -4.800  -0.3662   0.05389   0.05018  -0.0384  0.9961  0.0725  -1.5886   0.0000   0.0000   0.0000   0.1428
  -4.700  -0.3514   0.05220   0.04842  -0.0409  0.9938  0.0751  -1.5648   0.0000   0.0000   0.0000   0.1313
  -4.600  -0.3351   0.05046   0.04657  -0.0437  0.9915  0.0783  -1.5485   0.0000   0.0000   0.0000   0.1172
  -4.500  -0.3148   0.04916   0.04509  -0.0470  0.9893  0.0832  -1.5409   0.0000   0.0000   0.0000   0.0981
  -4.400  -0.2852   0.05189   0.04751  -0.0494  0.9871  0.0881  -1.4838   0.0000   0.0000   0.0000   0.0743
  -4.300  -0.2832   0.04441   0.03985  -0.0535  0.9849  0.0916  -1.5731   0.0000   0.0000   0.0000   0.0583
  -4.200  -0.2734   0.04219   0.03764  -0.0547  0.9827  0.0937  -1.5403   0.0000   0.0000   0.0000   0.0473
  -4.100  -0.2613   0.04085   0.03633  -0.0555  0.9804  0.0955  -1.4923   0.0000   0.0000   0.0000   0.0347
  -4.000  -0.2476   0.03967   0.03514  -0.0566  0.9782  0.0976  -1.4424   0.0000   0.0000   0.0000   0.0184
  -3.900  -0.2324   0.03859   0.03381  -0.0580  0.9762  0.1003  -1.3976   0.0000   0.0000   0.0000  -0.0025
  -3.800  -0.2157   0.03740   0.03255  -0.0597  0.9743  0.1035  -1.3609   0.0000   0.0000   0.0000  -0.0298
  -3.700  -0.1976   0.03621   0.03125  -0.0616  0.9728  0.1071  -1.3291   0.0000   0.0000   0.0000  -0.0649
  -3.600  -0.1699   0.02977   0.02373  -0.0635  0.9724  0.0545  -1.6620   0.0000   0.0000   0.0000  -0.1284
  -3.500  -0.1487   0.02663   0.01981  -0.0641  0.9717  0.0397  -1.8527   0.0000   0.0000   0.0000  -0.1870
  -3.400  -0.1363   0.02738   0.02062  -0.0638  0.9673  0.0383  -1.7698   0.0000   0.0000   0.0000  -0.2243
  -3.300  -0.1232   0.02448   0.01744  -0.0646  0.9658  0.0351  -1.8252   0.0000   0.0000   0.0000  -0.2810
  -3.200  -0.1087   0.02311   0.01587  -0.0652  0.9636  0.0337  -1.8243   0.0000   0.0000   0.0000  -0.3573
  -3.100  -0.0936   0.02199   0.01456  -0.0658  0.9616  0.0323  -1.8149   0.0000   0.0000   0.0000  -0.4621
  -3.000  -0.0780   0.02102   0.01342  -0.0665  0.9598  0.0312  -1.8002   0.0000   0.0000   0.0000  -0.6122
  -2.900  -0.0620   0.02015   0.01239  -0.0672  0.9581  0.0301  -1.7807   0.0000   0.0000   0.0000  -0.8463
  -2.800  -0.0454   0.01936   0.01148  -0.0680  0.9564  0.0293  -1.7551   0.0000   0.0000   0.0000  -1.2643
  -2.700  -0.0283   0.01867   0.01069  -0.0689  0.9549  0.0286  -1.7210   0.0000   0.0000   0.0000  -2.2112
  -2.600  -0.0106   0.01805   0.01000  -0.0699  0.9533  0.0281  -1.6801   0.0000   0.0000   0.0000  -6.3883
  -2.500   0.0076   0.01752   0.00940  -0.0711  0.9519  0.0278  -1.6319   0.0000   0.0000   0.0000   9.6313
  -2.400   0.0266   0.01707   0.00889  -0.0725  0.9506  0.0278  -1.5766   0.0000   0.0000   0.0000   2.9974
  -2.300   0.0340   0.01678   0.00856  -0.0716  0.9452  0.0279  -1.5410   0.0000   0.0000   0.0000   2.3757
  -2.200   0.0469   0.01647   0.00820  -0.0718  0.9412  0.0282  -1.4917   0.0000   0.0000   0.0000   1.7934
  -2.100   0.0620   0.01619   0.00786  -0.0725  0.9380  0.0288  -1.4354   0.0000   0.0000   0.0000   1.4268
  -2.000   0.0781   0.01595   0.00755  -0.0733  0.9352  0.0298  -1.3753   0.0000   0.0000   0.0000   1.1945
  -1.900   0.0949   0.01573   0.00726  -0.0742  0.9329  0.0315  -1.3132   0.0000   0.0000   0.0000   1.0373
  -1.800   0.1126   0.01552   0.00698  -0.0753  0.9309  0.0344  -1.2502   0.0000   0.0000   0.0000   0.9229
  -1.700   0.1311   0.01522   0.00670  -0.0766  0.9291  0.0483  -1.1977   0.0000   0.0000   0.0000   0.8369
  -1.600   0.1486   0.01439   0.00654  -0.0782  0.9277  0.1929  -1.1360   0.0000   0.0000   0.0000   0.7786
  -1.500   0.1663   0.01376   0.00649  -0.0798  0.9263  0.3366  -1.0612   0.0000   0.0000   0.0000   0.7320
  -1.400   0.1817   0.01311   0.00654  -0.0808  0.9248  0.5041  -0.9904   0.0000   0.0000   0.0000   0.6963
  -1.300   0.1849   0.01296   0.00655  -0.0792  0.9179  0.5521  -0.9538   0.0000   0.0000   0.0000   0.6794
  -1.200   0.1940   0.01272   0.00656  -0.0785  0.9129  0.6172  -0.9022   0.0000   0.0000   0.0000   0.6558
  -1.100   0.2049   0.01248   0.00657  -0.0781  0.9091  0.6878  -0.8474   0.0000   0.0000   0.0000   0.6318
  -1.000   0.2162   0.01228   0.00657  -0.0776  0.9059  0.7539  -0.7929   0.0000   0.0000   0.0000   0.6094
  -0.900   0.2277   0.01208   0.00656  -0.0769  0.9032  0.8233  -0.7390   0.0000   0.0000   0.0000   0.5882
  -0.800   0.2642   0.01171   0.00642  -0.0811  0.9042  1.0000  -0.6299   0.0000   0.0000   0.0000   0.5572
  -0.700   0.2809   0.01164   0.00630  -0.0820  0.9014  1.0000  -0.5698   0.0000   0.0000   0.0000   0.5421
  -0.600   0.2977   0.01155   0.00617  -0.0829  0.8988  1.0000  -0.5275   0.0000   0.0000   0.0000   0.5285
  -0.500   0.3147   0.01146   0.00604  -0.0839  0.8964  1.0000  -0.5413   0.0000   0.0000   0.0000   0.5162
  -0.400   0.3291   0.01141   0.00595  -0.0843  0.8931  1.0000  -0.5535   0.0000   0.0000   0.0000   0.5058
  -0.300   0.3330   0.01144   0.00597  -0.0829  0.8851  1.0000  -0.5593   0.0000   0.0000   0.0000   0.4983
  -0.200   0.3435   0.01141   0.00593  -0.0826  0.8795  1.0000  -0.5700   0.0000   0.0000   0.0000   0.4898
  -0.100   0.3557   0.01134   0.00583  -0.0826  0.8749  1.0000  -0.5826   0.0000   0.0000   0.0000   0.4815
   0.000   0.3690   0.01127   0.00571  -0.0828  0.8710  1.0000  -0.5960   0.0000   0.0000   0.0000   0.4736
   0.100   0.3829   0.01117   0.00557  -0.0831  0.8674  1.0000  -0.6099   0.0000   0.0000   0.0000   0.4661
   0.200   0.3969   0.01107   0.00543  -0.0833  0.8639  1.0000  -0.6239   0.0000   0.0000   0.0000   0.4589
   0.300   0.4109   0.01098   0.00530  -0.0836  0.8606  1.0000  -0.6381   0.0000   0.0000   0.0000   0.4523
   0.400   0.4176   0.01101   0.00531  -0.0827  0.8532  1.0000  -0.6471   0.0000   0.0000   0.0000   0.4468
   0.500   0.4268   0.01098   0.00526  -0.0822  0.8463  1.0000  -0.6578   0.0000   0.0000   0.0000   0.4412
   0.600   0.4377   0.01092   0.00517  -0.0819  0.8403  1.0000  -0.6701   0.0000   0.0000   0.0000   0.4357
   0.700   0.4494   0.01085   0.00505  -0.0817  0.8351  1.0000  -0.6848   0.0000   0.0000   0.0000   0.4304
   0.800   0.4615   0.01077   0.00494  -0.0816  0.8305  1.0000  -0.6998   0.0000   0.0000   0.0000   0.4253
   0.900   0.4743   0.01069   0.00481  -0.0816  0.8262  1.0000  -0.7154   0.0000   0.0000   0.0000   0.4205
   1.000   0.4862   0.01065   0.00473  -0.0816  0.8213  1.0000  -0.7304   0.0000   0.0000   0.0000   0.4160
   1.100   0.4945   0.01068   0.00476  -0.0810  0.8135  1.0000  -0.7423   0.0000   0.0000   0.0000   0.4119
   1.200   0.5042   0.01066   0.00472  -0.0805  0.8060  1.0000  -0.7556   0.0000   0.0000   0.0000   0.4078
   1.300   0.5148   0.01061   0.00464  -0.0802  0.7990  1.0000  -0.7697   0.0000   0.0000   0.0000   0.4038
   1.400   0.5263   0.01054   0.00453  -0.0800  0.7926  1.0000  -0.7846   0.0000   0.0000   0.0000   0.3999
   1.500   0.5384   0.01049   0.00442  -0.0798  0.7867  1.0000  -0.8000   0.0000   0.0000   0.0000   0.3961
   1.600   0.5499   0.01048   0.00436  -0.0797  0.7804  1.0000  -0.8165   0.0000   0.0000   0.0000   0.3927
   1.700   0.5591   0.01052   0.00440  -0.0793  0.7726  1.0000  -0.8317   0.0000   0.0000   0.0000   0.3895
   1.800   0.5690   0.01053   0.00440  -0.0789  0.7645  1.0000  -0.8477   0.0000   0.0000   0.0000   0.3863
   1.900   0.5795   0.01052   0.00436  -0.0786  0.7566  1.0000  -0.8645   0.0000   0.0000   0.0000   0.3832
   2.000   0.5907   0.01050   0.00428  -0.0783  0.7491  1.0000  -0.8820   0.0000   0.0000   0.0000   0.3801
   2.100   0.6023   0.01051   0.00421  -0.0781  0.7416  1.0000  -0.8999   0.0000   0.0000   0.0000   0.3771
   2.200   0.6125   0.01055   0.00423  -0.0779  0.7336  1.0000  -0.9164   0.0000   0.0000   0.0000   0.3744
   2.300   0.6221   0.01059   0.00427  -0.0775  0.7248  1.0000  -0.9324   0.0000   0.0000   0.0000   0.3718
   2.400   0.6323   0.01062   0.00428  -0.0772  0.7160  1.0000  -0.9491   0.0000   0.0000   0.0000   0.3693
   2.500   0.6429   0.01065   0.00426  -0.0769  0.7076  1.0000  -0.9664   0.0000   0.0000   0.0000   0.3667
   2.600   0.6539   0.01070   0.00423  -0.0767  0.6997  1.0000  -0.9860   0.0000   0.0000   0.0000   0.3643
   2.700   0.6648   0.01078   0.00424  -0.0765  0.6914  1.0000  -1.0067   0.0000   0.0000   0.0000   0.3620
   2.800   0.6745   0.01083   0.00432  -0.0762  0.6831  1.0000  -1.0260   0.0000   0.0000   0.0000   0.3598
   2.900   0.6844   0.01088   0.00436  -0.0759  0.6737  1.0000  -1.0458   0.0000   0.0000   0.0000   0.3576
   3.000   0.6946   0.01093   0.00436  -0.0756  0.6642  1.0000  -1.0661   0.0000   0.0000   0.0000   0.3555
   3.100   0.7050   0.01101   0.00435  -0.0752  0.6549  1.0000  -1.0868   0.0000   0.0000   0.0000   0.3533
   3.200   0.7158   0.01111   0.00445  -0.0750  0.6464  1.0000  -1.1080   0.0000   0.0000   0.0000   0.3513
   3.300   0.7257   0.01117   0.00452  -0.0748  0.6386  1.0000  -1.1280   0.0000   0.0000   0.0000   0.3495
   3.400   0.7357   0.01123   0.00459  -0.0745  0.6299  1.0000  -1.1482   0.0000   0.0000   0.0000   0.3476
   3.500   0.7458   0.01130   0.00464  -0.0743  0.6209  1.0000  -1.1686   0.0000   0.0000   0.0000   0.3458
   3.600   0.7560   0.01139   0.00466  -0.0740  0.6118  1.0000  -1.1893   0.0000   0.0000   0.0000   0.3440
   3.700   0.7662   0.01152   0.00469  -0.0737  0.6024  1.0000  -1.2102   0.0000   0.0000   0.0000   0.3422
   3.800   0.7764   0.01164   0.00477  -0.0735  0.5935  1.0000  -1.2336   0.0000   0.0000   0.0000   0.3406
   3.900   0.7862   0.01169   0.00485  -0.0732  0.5848  1.0000  -1.2586   0.0000   0.0000   0.0000   0.3390
   4.000   0.7961   0.01177   0.00491  -0.0729  0.5748  1.0000  -1.2838   0.0000   0.0000   0.0000   0.3374
   4.100   0.8059   0.01187   0.00496  -0.0726  0.5646  1.0000  -1.3093   0.0000   0.0000   0.0000   0.3358
   4.200   0.8157   0.01201   0.00500  -0.0722  0.5545  1.0000  -1.3348   0.0000   0.0000   0.0000   0.3342
   4.300   0.8257   0.01217   0.00509  -0.0720  0.5447  1.0000  -1.3654   0.0000   0.0000   0.0000   0.3327
   4.400   0.8357   0.01223   0.00519  -0.0718  0.5367  1.0000  -1.3967   0.0000   0.0000   0.0000   0.3313
   4.500   0.8456   0.01233   0.00529  -0.0715  0.5274  1.0000  -1.4281   0.0000   0.0000   0.0000   0.3299
   4.600   0.8554   0.01244   0.00536  -0.0712  0.5178  1.0000  -1.4597   0.0000   0.0000   0.0000   0.3285
   4.700   0.8650   0.01259   0.00543  -0.0709  0.5079  1.0000  -1.4913   0.0000   0.0000   0.0000   0.3271
   4.800   0.8746   0.01282   0.00554  -0.0706  0.4968  1.0000  -1.5228   0.0000   0.0000   0.0000   0.3257
   4.900   0.8844   0.01287   0.00565  -0.0704  0.4891  1.0000  -1.5548   0.0000   0.0000   0.0000   0.3245
   5.000   0.8942   0.01296   0.00576  -0.0701  0.4793  1.0000  -1.5869   0.0000   0.0000   0.0000   0.3232
   5.100   0.9036   0.01309   0.00584  -0.0698  0.4687  1.0000  -1.6189   0.0000   0.0000   0.0000   0.3219
   5.200   0.9128   0.01327   0.00592  -0.0694  0.4580  1.0000  -1.6506   0.0000   0.0000   0.0000   0.3206
   5.300   0.9221   0.01351   0.00606  -0.0690  0.4466  1.0000  -1.6823   0.0000   0.0000   0.0000   0.3194
   5.400   0.9320   0.01358   0.00619  -0.0688  0.4389  1.0000  -1.7151   0.0000   0.0000   0.0000   0.3182
   5.500   0.9417   0.01369   0.00632  -0.0686  0.4297  1.0000  -1.7478   0.0000   0.0000   0.0000   0.3171
   5.600   0.9511   0.01384   0.00644  -0.0683  0.4200  1.0000  -1.7940   0.0000   0.0000   0.0000   0.3159
   5.700   0.9600   0.01404   0.00655  -0.0679  0.4099  1.0000  -1.8507   0.0000   0.0000   0.0000   0.3148
   5.800   0.9690   0.01434   0.00673  -0.0675  0.3982  1.0000  -1.9074   0.0000   0.0000   0.0000   0.3136
   5.900   0.9788   0.01441   0.00688  -0.0673  0.3909  1.0000  -1.9674   0.0000   0.0000   0.0000   0.3126
   6.000   0.9883   0.01453   0.00702  -0.0670  0.3813  1.0000  -2.0275   0.0000   0.0000   0.0000   0.3116
   6.100   0.9972   0.01470   0.00714  -0.0667  0.3709  1.0000  -2.0870   0.0000   0.0000   0.0000   0.3105
   6.200   1.0056   0.01494   0.00728  -0.0662  0.3601  1.0000  -2.1453   0.0000   0.0000   0.0000   0.3094
   6.300   1.0144   0.01522   0.00748  -0.0659  0.3490  1.0000  -2.2048   0.0000   0.0000   0.0000   0.3083
   6.400   1.0239   0.01530   0.00762  -0.0656  0.3401  1.0000  -2.2850   0.0000   0.0000   0.0000   0.3073
   6.500   1.0327   0.01544   0.00775  -0.0653  0.3288  1.0000  -2.3763   0.0000   0.0000   0.0000   0.3063
   6.600   1.0405   0.01568   0.00787  -0.0648  0.3164  1.0000  -2.4647   0.0000   0.0000   0.0000   0.3053
   6.700   1.0483   0.01597   0.00805  -0.0643  0.3031  1.0000  -2.5531   0.0000   0.0000   0.0000   0.3042
   6.800   1.0576   0.01604   0.00816  -0.0640  0.2920  1.0000  -2.6503   0.0000   0.0000   0.0000   0.3033
   6.900   1.0654   0.01623   0.00827  -0.0636  0.2782  1.0000  -2.7426   0.0000   0.0000   0.0000   0.3023
   7.000   1.0762   0.01668   0.00933  -0.0634  0.2816  1.0000  -2.9117   0.0000   0.0000   0.0000   0.3014
   7.100   1.0836   0.01700   0.00957  -0.0629  0.2706  1.0000  -3.0128   0.0000   0.0000   0.0000   0.3004
   7.200   1.0916   0.01741   0.00991  -0.0624  0.2597  1.0000  -3.1119   0.0000   0.0000   0.0000   0.2995
   7.300   1.1009   0.01754   0.01013  -0.0621  0.2532  1.0000  -3.2186   0.0000   0.0000   0.0000   0.2986
   7.400   1.1097   0.01773   0.01037  -0.0618  0.2451  1.0000  -3.3230   0.0000   0.0000   0.0000   0.2977
   7.500   1.1177   0.01799   0.01059  -0.0614  0.2365  1.0000  -3.4238   0.0000   0.0000   0.0000   0.2968
   7.600   1.1248   0.01837   0.01088  -0.0608  0.2270  1.0000  -3.5193   0.0000   0.0000   0.0000   0.2959
   7.700   1.1328   0.01877   0.01124  -0.0604  0.2179  1.0000  -3.6183   0.0000   0.0000   0.0000   0.2950
   7.800   1.1418   0.01890   0.01146  -0.0601  0.2117  1.0000  -3.7261   0.0000   0.0000   0.0000   0.2942
   7.900   1.1503   0.01909   0.01169  -0.0598  0.2042  1.0000  -3.8320   0.0000   0.0000   0.0000   0.2934
   8.000   1.1578   0.01937   0.01193  -0.0593  0.1964  1.0000  -3.9335   0.0000   0.0000   0.0000   0.2925
   8.100   1.1643   0.01979   0.01227  -0.0587  0.1880  1.0000  -4.0283   0.0000   0.0000   0.0000   0.2916
   8.200   1.1718   0.02030   0.01274  -0.0582  0.1799  1.0000  -4.1250   0.0000   0.0000   0.0000   0.2907
   8.300   1.1806   0.02042   0.01296  -0.0579  0.1748  1.0000  -4.2349   0.0000   0.0000   0.0000   0.2899
   8.400   1.1888   0.02058   0.01316  -0.0575  0.1677  1.0000  -4.3439   0.0000   0.0000   0.0000   0.2891
   8.500   1.1957   0.02081   0.01335  -0.0570  0.1596  1.0000  -4.4482   0.0000   0.0000   0.0000   0.2883
   8.600   1.2008   0.02129   0.01370  -0.0563  0.1500  1.0000  -4.5397   0.0000   0.0000   0.0000   0.2874
   8.700   1.2085   0.02152   0.01395  -0.0559  0.1424  1.0000  -4.6479   0.0000   0.0000   0.0000   0.2866
   8.800   1.2171   0.02158   0.01407  -0.0557  0.1348  1.0000  -4.7657   0.0000   0.0000   0.0000   0.2859
   8.900   1.2241   0.02182   0.01426  -0.0553  0.1267  1.0000  -4.8732   0.0000   0.0000   0.0000   0.2852
   9.000   1.2295   0.02224   0.01460  -0.0546  0.1194  1.0000  -4.9676   0.0000   0.0000   0.0000   0.2843
   9.100   1.2352   0.02272   0.01505  -0.0539  0.1131  1.0000  -5.0586   0.0000   0.0000   0.0000   0.2834
   9.200   1.2441   0.02285   0.01528  -0.0537  0.1088  1.0000  -5.1736   0.0000   0.0000   0.0000   0.2828
   9.300   1.2521   0.02305   0.01552  -0.0533  0.1025  1.0000  -5.2834   0.0000   0.0000   0.0000   0.2821
   9.400   1.2584   0.02337   0.01578  -0.0528  0.0953  1.0000  -5.3822   0.0000   0.0000   0.0000   0.2813
   9.500   1.2624   0.02390   0.01623  -0.0520  0.0876  1.0000  -5.4603   0.0000   0.0000   0.0000   0.2804
   9.600   1.2707   0.02410   0.01649  -0.0517  0.0801  1.0000  -5.5572   0.0000   0.0000   0.0000   0.2797
   9.700   1.2736   0.02474   0.01695  -0.0509  0.0636  1.0000  -5.6007   0.0000   0.0000   0.0000   0.2788
   9.800   1.2635   0.02673   0.01861  -0.0481  0.0314  1.0000  -5.3896   0.0000   0.0000   0.0000   0.2769
   9.900   1.2568   0.02806   0.01994  -0.0457  0.0264  1.0000  -5.3098   0.0000   0.0000   0.0000   0.2750
  10.000   1.2491   0.02942   0.02139  -0.0433  0.0244  1.0000  -5.2379   0.0000   0.0000   0.0000   0.2732
  10.100   1.2513   0.03006   0.02211  -0.0422  0.0238  1.0000  -5.2650   0.0000   0.0000   0.0000   0.2721
  10.200   1.2527   0.03078   0.02291  -0.0410  0.0232  1.0000  -5.2877   0.0000   0.0000   0.0000   0.2710
  10.300   1.2538   0.03155   0.02376  -0.0399  0.0227  1.0000  -5.3090   0.0000   0.0000   0.0000   0.2699
  10.400   1.2546   0.03236   0.02465  -0.0387  0.0222  1.0000  -5.3299   0.0000   0.0000   0.0000   0.2688
  10.500   1.2553   0.03320   0.02557  -0.0376  0.0219  1.0000  -5.3511   0.0000   0.0000   0.0000   0.2678
  10.600   1.2562   0.03407   0.02652  -0.0366  0.0215  1.0000  -5.3732   0.0000   0.0000   0.0000   0.2668
  10.700   1.2572   0.03498   0.02750  -0.0356  0.0213  1.0000  -5.3958   0.0000   0.0000   0.0000   0.2658
  10.800   1.2584   0.03591   0.02852  -0.0346  0.0210  1.0000  -5.4187   0.0000   0.0000   0.0000   0.2649
  10.900   1.2596   0.03687   0.02956  -0.0337  0.0208  1.0000  -5.4419   0.0000   0.0000   0.0000   0.2640
  11.000   1.2610   0.03788   0.03065  -0.0329  0.0206  1.0000  -5.4650   0.0000   0.0000   0.0000   0.2631
  11.100   1.2619   0.03894   0.03192  -0.0320  0.0201  1.0000  -5.4552   0.0000   0.0000   0.0000   0.2622
  11.200   1.2633   0.04002   0.03307  -0.0312  0.0199  1.0000  -5.4720   0.0000   0.0000   0.0000   0.2614
  11.300   1.2646   0.04112   0.03427  -0.0304  0.0198  1.0000  -5.4910   0.0000   0.0000   0.0000   0.2606
  11.400   1.2655   0.04226   0.03551  -0.0296  0.0197  1.0000  -5.5091   0.0000   0.0000   0.0000   0.2599
  11.500   1.2662   0.04345   0.03679  -0.0289  0.0197  1.0000  -5.5261   0.0000   0.0000   0.0000   0.2591
  11.600   1.2668   0.04468   0.03813  -0.0282  0.0197  1.0000  -5.5417   0.0000   0.0000   0.0000   0.2584
  11.700   1.2669   0.04596   0.03952  -0.0275  0.0197  1.0000  -5.5550   0.0000   0.0000   0.0000   0.2577
  11.800   1.2665   0.04730   0.04096  -0.0269  0.0197  1.0000  -5.5649   0.0000   0.0000   0.0000   0.2571
  11.900   1.2653   0.04869   0.04247  -0.0263  0.0197  1.0000  -5.5714   0.0000   0.0000   0.0000   0.2565
  12.000   1.2635   0.05013   0.04403  -0.0257  0.0198  1.0000  -5.5750   0.0000   0.0000   0.0000   0.2559
  12.100   1.2613   0.05162   0.04564  -0.0252  0.0198  1.0000  -5.5759   0.0000   0.0000   0.0000   0.2554
  12.200   1.2583   0.05317   0.04731  -0.0248  0.0199  1.0000  -5.5735   0.0000   0.0000   0.0000   0.2550
  12.300   1.2548   0.05478   0.04903  -0.0245  0.0200  1.0000  -5.5685   0.0000   0.0000   0.0000   0.2546
  12.400   1.2509   0.05644   0.05081  -0.0242  0.0200  1.0000  -5.5611   0.0000   0.0000   0.0000   0.2543
  12.500   1.2463   0.05817   0.05265  -0.0241  0.0201  1.0000  -5.5507   0.0000   0.0000   0.0000   0.2541
  12.600   1.2412   0.05995   0.05454  -0.0240  0.0201  1.0000  -5.5378   0.0000   0.0000   0.0000   0.2540
  12.700   1.2357   0.06176   0.05646  -0.0241  0.0202  1.0000  -5.5227   0.0000   0.0000   0.0000   0.2539
  12.800   1.2296   0.06366   0.05847  -0.0242  0.0203  1.0000  -5.5048   0.0000   0.0000   0.0000   0.2540
  12.900   1.2234   0.06565   0.06056  -0.0246  0.0203  1.0000  -5.4851   0.0000   0.0000   0.0000   0.2542
  13.000   1.2170   0.06773   0.06274  -0.0250  0.0204  1.0000  -5.4633   0.0000   0.0000   0.0000   0.2545
  13.100   1.2102   0.06991   0.06503  -0.0256  0.0204  1.0000  -5.4388   0.0000   0.0000   0.0000   0.2549
  13.200   1.2034   0.07218   0.06739  -0.0264  0.0205  1.0000  -5.4126   0.0000   0.0000   0.0000   0.2555
  13.300   1.1961   0.07456   0.06987  -0.0273  0.0206  1.0000  -5.3835   0.0000   0.0000   0.0000   0.2562
  13.400   1.1887   0.07702   0.07242  -0.0283  0.0206  1.0000  -5.3524   0.0000   0.0000   0.0000   0.2571
  13.500   1.1812   0.07958   0.07507  -0.0295  0.0207  1.0000  -5.3191   0.0000   0.0000   0.0000   0.2581
  13.600   1.1734   0.08225   0.07782  -0.0309  0.0207  1.0000  -5.2826   0.0000   0.0000   0.0000   0.2593
  13.700   1.1656   0.08498   0.08064  -0.0324  0.0208  1.0000  -5.2443   0.0000   0.0000   0.0000   0.2605
  13.800   1.1573   0.08785   0.08359  -0.0340  0.0208  1.0000  -5.2022   0.0000   0.0000   0.0000   0.2620
  13.900   1.1492   0.09080   0.08662  -0.0358  0.0209  1.0000  -5.1577   0.0000   0.0000   0.0000   0.2636
  14.000   1.1407   0.09388   0.08977  -0.0377  0.0210  1.0000  -5.1095   0.0000   0.0000   0.0000   0.2654
  14.100   1.1322   0.09708   0.09305  -0.0398  0.0210  1.0000  -5.0575   0.0000   0.0000   0.0000   0.2673
  14.200   1.1236   0.10037   0.09642  -0.0420  0.0211  1.0000  -5.0020   0.0000   0.0000   0.0000   0.2694
  14.300   1.1146   0.10386   0.09998  -0.0444  0.0211  1.0000  -4.9408   0.0000   0.0000   0.0000   0.2717
  14.400   1.1057   0.10742   0.10360  -0.0468  0.0212  1.0000  -4.8758   0.0000   0.0000   0.0000   0.2741
  14.500   1.0962   0.11124   0.10748  -0.0495  0.0213  1.0000  -4.8026   0.0000   0.0000   0.0000   0.2768
  14.600   1.0869   0.11513   0.11144  -0.0522  0.0213  1.0000  -4.7245   0.0000   0.0000   0.0000   0.2796
  14.700   1.0768   0.11934   0.11570  -0.0552  0.0214  1.0000  -4.6352   0.0000   0.0000   0.0000   0.2828
  14.800   1.0667   0.12353   0.11994  -0.0581  0.0215  1.0000  -4.5396   0.0000   0.0000   0.0000   0.2860
  14.900   1.0559   0.12805   0.12451  -0.0613  0.0217  1.0000  -4.4320   0.0000   0.0000   0.0000   0.2896
  15.000   1.0450   0.13274   0.12913  -0.0645  0.0221  1.0000  -4.3283   0.0000   0.0000   0.0000   0.2932
  15.100   1.0333   0.13794   0.13435  -0.0679  0.0222  1.0000  -4.1819   0.0000   0.0000   0.0000   0.2973
  15.200   1.0213   0.14357   0.14000  -0.0713  0.0224  1.0000  -4.0141   0.0000   0.0000   0.0000   0.3015
  15.300   1.0099   0.14926   0.14569  -0.0746  0.0227  1.0000  -3.8375   0.0000   0.0000   0.0000   0.3056
  15.400   0.9998   0.15478   0.15121  -0.0775  0.0230  1.0000  -3.6635   0.0000   0.0000   0.0000   0.3094
  15.500   0.9912   0.15997   0.15638  -0.0801  0.0232  1.0000  -3.5013   0.0000   0.0000   0.0000   0.3128
  15.600   0.9844   0.16471   0.16111  -0.0823  0.0235  1.0000  -3.3575   0.0000   0.0000   0.0000   0.3156
  15.700   0.9785   0.16916   0.16554  -0.0842  0.0238  1.0000  -3.2261   0.0000   0.0000   0.0000   0.3181
  15.800   0.9726   0.17361   0.16997  -0.0860  0.0242  1.0000  -3.0938   0.0000   0.0000   0.0000   0.3205
  16.100   0.9782   0.17971   0.17612  -0.0883  0.0253  1.0000  -3.0542   0.0000   0.0000   0.0000   0.3219
  16.200   0.9800   0.18245   0.17886  -0.0894  0.0260  1.0000  -3.0057   0.0000   0.0000   0.0000   0.3229
  16.300   0.9580   0.19796   0.19427  -0.0960  0.0324  1.0000  -2.3334   0.0000   0.0000   0.0000   0.3327
  16.400   0.9568   0.20151   0.19782  -0.0972  0.0345  1.0000  -2.2556   0.0000   0.0000   0.0000   0.3341
  16.500   0.9573   0.20429   0.20059  -0.0979  0.0365  1.0000  -2.2202   0.0000   0.0000   0.0000   0.3347
  16.600   0.9500   0.21214   0.20844  -0.1014  0.0488  1.0000  -1.9300   0.0000   0.0000   0.0000   0.3394
  16.700   0.9502   0.21477   0.21107  -0.1025  0.0493  1.0000  -1.8991   0.0000   0.0000   0.0000   0.3405
  16.800   0.9509   0.21720   0.21350  -0.1035  0.0495  1.0000  -1.8773   0.0000   0.0000   0.0000   0.3413
  16.900   0.9518   0.21952   0.21582  -0.1044  0.0495  1.0000  -1.8607   0.0000   0.0000   0.0000   0.3421
  17.000   0.9529   0.22178   0.21808  -0.1053  0.0493  1.0000  -1.8474   0.0000   0.0000   0.0000   0.3427
  17.100   0.9541   0.22398   0.22028  -0.1061  0.0491  1.0000  -1.8367   0.0000   0.0000   0.0000   0.3433
  17.200   0.9554   0.22615   0.22245  -0.1069  0.0487  1.0000  -1.8281   0.0000   0.0000   0.0000   0.3439
  17.300   0.9568   0.22829   0.22459  -0.1077  0.0484  1.0000  -1.8212   0.0000   0.0000   0.0000   0.3444
  17.400   0.9582   0.23040   0.22671  -0.1084  0.0480  1.0000  -1.8160   0.0000   0.0000   0.0000   0.3449
  17.500   0.9598   0.23249   0.22880  -0.1091  0.0476  1.0000  -1.8123   0.0000   0.0000   0.0000   0.3453
  17.600   0.9613   0.23457   0.23088  -0.1098  0.0473  1.0000  -1.8100   0.0000   0.0000   0.0000   0.3457
  17.700   0.9629   0.23662   0.23294  -0.1105  0.0469  1.0000  -1.8092   0.0000   0.0000   0.0000   0.3461
  17.800   0.9646   0.23866   0.23499  -0.1111  0.0465  1.0000  -1.8098   0.0000   0.0000   0.0000   0.3464
  17.900   0.9664   0.24069   0.23702  -0.1117  0.0461  1.0000  -1.8118   0.0000   0.0000   0.0000   0.3466
  18.000   0.9682   0.24271   0.23904  -0.1123  0.0457  1.0000  -1.8154   0.0000   0.0000   0.0000   0.3469
  18.100   0.9701   0.24471   0.24104  -0.1128  0.0454  1.0000  -1.8206   0.0000   0.0000   0.0000   0.3470
  18.200   0.9720   0.24670   0.24304  -0.1133  0.0450  1.0000  -1.8275   0.0000   0.0000   0.0000   0.3471
  18.300   0.9741   0.24868   0.24504  -0.1138  0.0447  1.0000  -1.8365   0.0000   0.0000   0.0000   0.3472
  18.400   0.9763   0.25067   0.24702  -0.1141  0.0443  1.0000  -1.8478   0.0000   0.0000   0.0000   0.3471
  18.500   0.9787   0.25265   0.24902  -0.1145  0.0440  1.0000  -1.8616   0.0000   0.0000   0.0000   0.3470
  18.600   0.9813   0.25466   0.25104  -0.1147  0.0437  1.0000  -1.8783   0.0000   0.0000   0.0000   0.3468
  18.700   0.9842   0.25672   0.25311  -0.1149  0.0433  1.0000  -1.8984   0.0000   0.0000   0.0000   0.3464
  18.800   0.9874   0.25888   0.25528  -0.1149  0.0430  1.0000  -1.9224   0.0000   0.0000   0.0000   0.3459
  18.900   0.9902   0.26121   0.25762  -0.1149  0.0426  1.0000  -1.9444   0.0000   0.0000   0.0000   0.3454
  19.000   0.9929   0.26396   0.26039  -0.1149  0.0422  1.0000  -1.9651   0.0000   0.0000   0.0000   0.3449
  19.200   0.9847   0.27585   0.27223  -0.1166  0.0409  1.0000  -1.8380   0.0000   0.0000   0.0000   0.3476
  19.300   0.9853   0.27821   0.27460  -0.1173  0.0408  1.0000  -1.8259   0.0000   0.0000   0.0000   0.3481
  19.400   0.9858   0.28055   0.27694  -0.1181  0.0408  1.0000  -1.8138   0.0000   0.0000   0.0000   0.3487
  19.500   0.9863   0.28288   0.27927  -0.1188  0.0408  1.0000  -1.8017   0.0000   0.0000   0.0000   0.3493
  19.600   0.9866   0.28518   0.28158  -0.1196  0.0408  1.0000  -1.7896   0.0000   0.0000   0.0000   0.3498
  19.700   0.9869   0.28745   0.28385  -0.1203  0.0408  1.0000  -1.7774   0.0000   0.0000   0.0000   0.3504
  19.800   0.9871   0.28968   0.28610  -0.1210  0.0407  1.0000  -1.7652   0.0000   0.0000   0.0000   0.3510
  19.900   0.9872   0.29189   0.28831  -0.1217  0.0407  1.0000  -1.7529   0.0000   0.0000   0.0000   0.3516
  20.000   0.9871   0.29407   0.29049  -0.1224  0.0407  1.0000  -1.7405   0.0000   0.0000   0.0000   0.3522
  20.100   0.9870   0.29620   0.29263  -0.1231  0.0406  1.0000  -1.7279   0.0000   0.0000   0.0000   0.3527
  20.200   0.9866   0.29828   0.29472  -0.1238  0.0406  1.0000  -1.7151   0.0000   0.0000   0.0000   0.3533
  20.300   0.9862   0.30031   0.29676  -0.1245  0.0405  1.0000  -1.7020   0.0000   0.0000   0.0000   0.3540
  20.400   0.9855   0.30227   0.29873  -0.1251  0.0405  1.0000  -1.6887   0.0000   0.0000   0.0000   0.3546
  20.500   0.9847   0.30416   0.30063  -0.1258  0.0404  1.0000  -1.6747   0.0000   0.0000   0.0000   0.3552
  20.600   0.9835   0.30589   0.30246  -0.1264  0.0403  1.0000  -1.6523   0.0000   0.0000   0.0000   0.3559
  20.700   0.9818   0.30754   0.30411  -0.1271  0.0402  1.0000  -1.6341   0.0000   0.0000   0.0000   0.3567
  20.800   0.9790   0.30903   0.30561  -0.1278  0.0400  1.0000  -1.6105   0.0000   0.0000   0.0000   0.3577
  20.900   0.9752   0.31033   0.30692  -0.1285  0.0399  1.0000  -1.5825   0.0000   0.0000   0.0000   0.3588
  21.000   0.9708   0.31145   0.30806  -0.1292  0.0397  1.0000  -1.5520   0.0000   0.0000   0.0000   0.3600
  21.100   0.9658   0.31237   0.30899  -0.1298  0.0394  1.0000  -1.5187   0.0000   0.0000   0.0000   0.3613
  21.200   0.9299   0.30654   0.30325  -0.1261  0.0394  1.0000  -1.4310   0.0000   0.0000   0.0000   0.3629
  21.300   0.9179   0.30501   0.30175  -0.1257  0.0392  1.0000  -1.3859   0.0000   0.0000   0.0000   0.3642
  21.400   0.9103   0.30441   0.30118  -0.1258  0.0388  1.0000  -1.3481   0.0000   0.0000   0.0000   0.3655
  21.500   0.9047   0.30429   0.30108  -0.1261  0.0383  1.0000  -1.3152   0.0000   0.0000   0.0000   0.3667
  21.600   0.9002   0.30444   0.30125  -0.1264  0.0377  1.0000  -1.2876   0.0000   0.0000   0.0000   0.3677
  21.700   0.8962   0.30472   0.30154  -0.1266  0.0371  1.0000  -1.2646   0.0000   0.0000   0.0000   0.3685
  21.800   0.8926   0.30505   0.30188  -0.1268  0.0365  1.0000  -1.2451   0.0000   0.0000   0.0000   0.3692
  21.900   0.8893   0.30540   0.30225  -0.1270  0.0360  1.0000  -1.2281   0.0000   0.0000   0.0000   0.3698
  22.000   0.8864   0.30578   0.30265  -0.1272  0.0355  1.0000  -1.2130   0.0000   0.0000   0.0000   0.3704
  22.100   0.8836   0.30619   0.30308  -0.1273  0.0350  1.0000  -1.1995   0.0000   0.0000   0.0000   0.3710
  22.200   0.8811   0.30661   0.30352  -0.1275  0.0346  1.0000  -1.1873   0.0000   0.0000   0.0000   0.3715
  22.300   0.8787   0.30705   0.30397  -0.1277  0.0341  1.0000  -1.1762   0.0000   0.0000   0.0000   0.3720
  22.400   0.8765   0.30751   0.30444  -0.1279  0.0337  1.0000  -1.1660   0.0000   0.0000   0.0000   0.3725
  22.500   0.8745   0.30797   0.30492  -0.1281  0.0332  1.0000  -1.1567   0.0000   0.0000   0.0000   0.3730
  22.600   0.8726   0.30845   0.30541  -0.1283  0.0328  1.0000  -1.1481   0.0000   0.0000   0.0000   0.3735
  22.700   0.8708   0.30893   0.30591  -0.1285  0.0324  1.0000  -1.1403   0.0000   0.0000   0.0000   0.3739
  22.800   0.8692   0.30942   0.30642  -0.1288  0.0321  1.0000  -1.1331   0.0000   0.0000   0.0000   0.3743
  22.900   0.8677   0.30992   0.30693  -0.1290  0.0317  1.0000  -1.1266   0.0000   0.0000   0.0000   0.3747
  23.000   0.8662   0.31042   0.30744  -0.1292  0.0313  1.0000  -1.1207   0.0000   0.0000   0.0000   0.3751
  23.100   0.8649   0.31092   0.30796  -0.1295  0.0310  1.0000  -1.1154   0.0000   0.0000   0.0000   0.3755
  23.200   0.8636   0.31143   0.30848  -0.1297  0.0306  1.0000  -1.1106   0.0000   0.0000   0.0000   0.3759
  23.300   0.8624   0.31194   0.30901  -0.1300  0.0303  1.0000  -1.1065   0.0000   0.0000   0.0000   0.3762
  23.400   0.8613   0.31246   0.30953  -0.1302  0.0300  1.0000  -1.1030   0.0000   0.0000   0.0000   0.3766
  23.500   0.8603   0.31297   0.31006  -0.1305  0.0297  1.0000  -1.1001   0.0000   0.0000   0.0000   0.3769
  23.600   0.8594   0.31348   0.31058  -0.1307  0.0294  1.0000  -1.0978   0.0000   0.0000   0.0000   0.3772
  23.700   0.8585   0.31399   0.31111  -0.1310  0.0291  1.0000  -1.0962   0.0000   0.0000   0.0000   0.3775
  23.800   0.8576   0.31450   0.31163  -0.1312  0.0288  1.0000  -1.0952   0.0000   0.0000   0.0000   0.3778
  23.900   0.8568   0.31500   0.31215  -0.1314  0.0285  1.0000  -1.0950   0.0000   0.0000   0.0000   0.3781
  24.000   0.8561   0.31550   0.31266  -0.1317  0.0282  1.0000  -1.0955   0.0000   0.0000   0.0000   0.3783
  24.100   0.8554   0.31600   0.31317  -0.1319  0.0279  1.0000  -1.0969   0.0000   0.0000   0.0000   0.3786
  24.200   0.8548   0.31650   0.31368  -0.1321  0.0277  1.0000  -1.0991   0.0000   0.0000   0.0000   0.3788
  24.300   0.8543   0.31699   0.31418  -0.1323  0.0274  1.0000  -1.1024   0.0000   0.0000   0.0000   0.3790
  24.400   0.8538   0.31747   0.31469  -0.1325  0.0272  1.0000  -1.1067   0.0000   0.0000   0.0000   0.3791
  24.500   0.8534   0.31796   0.31519  -0.1327  0.0269  1.0000  -1.1121   0.0000   0.0000   0.0000   0.3792
  24.600   0.8530   0.31846   0.31570  -0.1329  0.0267  1.0000  -1.1191   0.0000   0.0000   0.0000   0.3793
  24.700   0.8527   0.31896   0.31621  -0.1330  0.0264  1.0000  -1.1279   0.0000   0.0000   0.0000   0.3793
  24.800   0.8528   0.31947   0.31674  -0.1330  0.0261  1.0000  -1.1449   0.0000   0.0000   0.0000   0.3791
  24.900   0.8538   0.32020   0.31749  -0.1326  0.0257  1.0000  -1.1797   0.0000   0.0000   0.0000   0.3783
  25.000   0.8547   0.32692   0.32419  -0.1312  0.0245  1.0000  -1.1762   0.0000   0.0000   0.0000   0.3765
  25.100   0.8530   0.32700   0.32428  -0.1317  0.0244  1.0000  -1.1616   0.0000   0.0000   0.0000   0.3773
  25.200   0.8513   0.32698   0.32426  -0.1323  0.0244  1.0000  -1.1464   0.0000   0.0000   0.0000   0.3780
  25.300   0.8495   0.32687   0.32416  -0.1328  0.0243  1.0000  -1.1307   0.0000   0.0000   0.0000   0.3789
  25.400   0.8478   0.32678   0.32408  -0.1334  0.0242  1.0000  -1.1151   0.0000   0.0000   0.0000   0.3797
  25.500   0.8459   0.32670   0.32400  -0.1341  0.0241  1.0000  -1.1018   0.0000   0.0000   0.0000   0.3807
  25.600   0.8444   0.32689   0.32420  -0.1347  0.0240  1.0000  -1.0912   0.0000   0.0000   0.0000   0.3816
  25.700   0.8431   0.32713   0.32445  -0.1353  0.0239  1.0000  -1.0794   0.0000   0.0000   0.0000   0.3824
  25.800   0.8420   0.32741   0.32473  -0.1360  0.0237  1.0000  -1.0648   0.0000   0.0000   0.0000   0.3834
  25.900   0.8411   0.32779   0.32512  -0.1369  0.0235  1.0000  -1.0455   0.0000   0.0000   0.0000   0.3844
  26.000   0.8410   0.32849   0.32582  -0.1380  0.0229  1.0000  -1.0189   0.0000   0.0000   0.0000   0.3856
  26.100   0.8415   0.32962   0.32695  -0.1389  0.0217  1.0000  -0.9926   0.0000   0.0000   0.0000   0.3865
  26.200   0.8416   0.33059   0.32793  -0.1395  0.0205  1.0000  -0.9796   0.0000   0.0000   0.0000   0.3870
  26.300   0.8415   0.33141   0.32876  -0.1399  0.0194  1.0000  -0.9724   0.0000   0.0000   0.0000   0.3874
  26.400   0.8412   0.33216   0.32952  -0.1403  0.0185  1.0000  -0.9680   0.0000   0.0000   0.0000   0.3877
  26.500   0.8410   0.33287   0.33024  -0.1407  0.0177  1.0000  -0.9654   0.0000   0.0000   0.0000   0.3880
  26.600   0.8408   0.33355   0.33093  -0.1411  0.0171  1.0000  -0.9644   0.0000   0.0000   0.0000   0.3883
  26.700   0.8406   0.33421   0.33159  -0.1414  0.0165  1.0000  -0.9650   0.0000   0.0000   0.0000   0.3885
  26.800   0.8404   0.33484   0.33223  -0.1417  0.0159  1.0000  -0.9675   0.0000   0.0000   0.0000   0.3888
  26.900   0.8402   0.33544   0.33284  -0.1421  0.0155  1.0000  -0.9745   0.0000   0.0000   0.0000   0.3890
  27.000   0.8401   0.33602   0.33343  -0.1424  0.0151  1.0000  -0.9828   0.0000   0.0000   0.0000   0.3892
  27.100   0.8399   0.33658   0.33400  -0.1427  0.0147  1.0000  -0.9925   0.0000   0.0000   0.0000   0.3894
  27.200   0.8398   0.33711   0.33454  -0.1430  0.0144  1.0000  -1.0038   0.0000   0.0000   0.0000   0.3895
  27.300   0.8397   0.33761   0.33505  -0.1432  0.0141  1.0000  -1.0168   0.0000   0.0000   0.0000   0.3896
  27.400   0.8396   0.33808   0.33553  -0.1435  0.0138  1.0000  -1.0316   0.0000   0.0000   0.0000   0.3897
  27.500   0.8395   0.33854   0.33599  -0.1436  0.0136  1.0000  -1.0485   0.0000   0.0000   0.0000   0.3897
  27.600   0.8395   0.33898   0.33645  -0.1438  0.0133  1.0000  -1.0676   0.0000   0.0000   0.0000   0.3897
  27.700   0.8394   0.33945   0.33693  -0.1438  0.0131  1.0000  -1.0894   0.0000   0.0000   0.0000   0.3895
  27.800   0.8395   0.34005   0.33754  -0.1438  0.0129  1.0000  -1.1140   0.0000   0.0000   0.0000   0.3892
  27.900   0.8399   0.34135   0.33886  -0.1433  0.0126  1.0000  -1.1408   0.0000   0.0000   0.0000   0.3884
  28.000   0.8374   0.34467   0.34214  -0.1431  0.0122  1.0000  -1.0800   0.0000   0.0000   0.0000   0.3887
  28.400   0.8360   0.34764   0.34514  -0.1447  0.0122  1.0000  -1.0498   0.0000   0.0000   0.0000   0.3902
  28.500   0.8356   0.34836   0.34592  -0.1452  0.0121  1.0000  -1.0424   0.0000   0.0000   0.0000   0.3906
  28.600   0.8353   0.34909   0.34666  -0.1456  0.0121  1.0000  -1.0354   0.0000   0.0000   0.0000   0.3909
  28.700   0.8350   0.34982   0.34740  -0.1460  0.0121  1.0000  -1.0286   0.0000   0.0000   0.0000   0.3913
  28.800   0.8347   0.35054   0.34812  -0.1464  0.0121  1.0000  -1.0214   0.0000   0.0000   0.0000   0.3917
  28.900   0.8344   0.35125   0.34884  -0.1468  0.0121  1.0000  -1.0143   0.0000   0.0000   0.0000   0.3921
  29.000   0.8341   0.35196   0.34956  -0.1473  0.0121  1.0000  -1.0074   0.0000   0.0000   0.0000   0.3924
  29.100   0.8338   0.35268   0.35028  -0.1477  0.0121  1.0000  -1.0006   0.0000   0.0000   0.0000   0.3928
  29.200   0.8335   0.35339   0.35100  -0.1481  0.0121  1.0000  -0.9939   0.0000   0.0000   0.0000   0.3932
  29.300   0.8333   0.35410   0.35172  -0.1485  0.0120  1.0000  -0.9872   0.0000   0.0000   0.0000   0.3935
  29.400   0.8330   0.35480   0.35243  -0.1490  0.0120  1.0000  -0.9807   0.0000   0.0000   0.0000   0.3939
  29.500   0.8328   0.35551   0.35314  -0.1494  0.0120  1.0000  -0.9742   0.0000   0.0000   0.0000   0.3943
  29.600   0.8325   0.35620   0.35384  -0.1499  0.0120  1.0000  -0.9670   0.0000   0.0000   0.0000   0.3947
  29.700   0.8321   0.35688   0.35452  -0.1503  0.0120  1.0000  -0.9590   0.0000   0.0000   0.0000   0.3951
  29.800   0.8318   0.35756   0.35521  -0.1508  0.0120  1.0000  -0.9512   0.0000   0.0000   0.0000   0.3955
  29.900   0.8315   0.35824   0.35590  -0.1513  0.0119  1.0000  -0.9434   0.0000   0.0000   0.0000   0.3959
  30.000   0.8312   0.35893   0.35659  -0.1517  0.0119  1.0000  -0.9356   0.0000   0.0000   0.0000   0.3963


