xflr5 v6.61

 Calculated polar for: SD7003-085-88

 1 1 Reynolds number fixed          Mach number fixed         

 xtrf =   1.000 (top)        1.000 (bottom)
 Mach =   0.000     Re =     0.719 e 6     Ncrit =   9.000

  alpha     CL        CD       CDp       Cm    Top Xtr Bot Xtr   Cpmin    Chinge    XCp    
 ------- -------- --------- --------- -------- ------- ------- -------- --------- ---------
 -10.000  -0.5507   0.10224   0.10021   0.0008  1.0000  0.0153  -2.4104   0.0000   0.0000   0.0000   0.2456
  -9.900  -0.5506   0.10047   0.09844  -0.0000  1.0000  0.0154  -2.4269   0.0000   0.0000   0.0000   0.2443
  -9.800  -0.5505   0.09873   0.09671  -0.0008  1.0000  0.0155  -2.4416   0.0000   0.0000   0.0000   0.2429
  -9.700  -0.5504   0.09701   0.09500  -0.0016  1.0000  0.0156  -2.4556   0.0000   0.0000   0.0000   0.2415
  -9.600  -0.5503   0.09530   0.09329  -0.0024  1.0000  0.0157  -2.4695   0.0000   0.0000   0.0000   0.2401
  -9.500  -0.5504   0.09360   0.09159  -0.0032  1.0000  0.0158  -2.4838   0.0000   0.0000   0.0000   0.2387
  -9.400  -0.5505   0.09189   0.08990  -0.0040  1.0000  0.0159  -2.4990   0.0000   0.0000   0.0000   0.2373
  -9.300  -0.5509   0.09018   0.08819  -0.0049  1.0000  0.0160  -2.5153   0.0000   0.0000   0.0000   0.2358
  -9.200  -0.5512   0.08845   0.08647  -0.0058  1.0000  0.0161  -2.5327   0.0000   0.0000   0.0000   0.2343
  -9.100  -0.5516   0.08666   0.08469  -0.0067  1.0000  0.0162  -2.5515   0.0000   0.0000   0.0000   0.2326
  -9.000  -0.5521   0.08485   0.08288  -0.0077  1.0000  0.0163  -2.5720   0.0000   0.0000   0.0000   0.2308
  -8.900  -0.5528   0.08301   0.08105  -0.0088  1.0000  0.0163  -2.5944   0.0000   0.0000   0.0000   0.2290
  -8.800  -0.5538   0.08114   0.07919  -0.0099  1.0000  0.0164  -2.6191   0.0000   0.0000   0.0000   0.2271
  -8.700  -0.5550   0.07924   0.07730  -0.0111  1.0000  0.0165  -2.6461   0.0000   0.0000   0.0000   0.2251
  -8.600  -0.5566   0.07729   0.07537  -0.0123  1.0000  0.0166  -2.6759   0.0000   0.0000   0.0000   0.2230
  -8.500  -0.5584   0.07527   0.07336  -0.0137  1.0000  0.0166  -2.7089   0.0000   0.0000   0.0000   0.2207
  -8.400  -0.5608   0.07319   0.07129  -0.0152  1.0000  0.0167  -2.7456   0.0000   0.0000   0.0000   0.2182
  -8.300  -0.5638   0.07103   0.06914  -0.0169  1.0000  0.0168  -2.7873   0.0000   0.0000   0.0000   0.2154
  -8.200  -0.5678   0.06873   0.06686  -0.0189  1.0000  0.0168  -2.8365   0.0000   0.0000   0.0000   0.2121
  -8.100  -0.5717   0.06564   0.06378  -0.0230  1.0000  0.0169  -2.9077   0.0000   0.0000   0.0000   0.2053
  -8.000  -0.5736   0.06186   0.05997  -0.0276  1.0000  0.0170  -2.9943   0.0000   0.0000   0.0000   0.1974
  -7.900  -0.5747   0.05866   0.05672  -0.0305  1.0000  0.0171  -3.0621   0.0000   0.0000   0.0000   0.1925
  -7.800  -0.5755   0.05574   0.05375  -0.0327  1.0000  0.0172  -3.1203   0.0000   0.0000   0.0000   0.1888
  -7.700  -0.5758   0.05304   0.05099  -0.0344  1.0000  0.0173  -3.1702   0.0000   0.0000   0.0000   0.1860
  -7.600  -0.5755   0.05051   0.04839  -0.0357  1.0000  0.0174  -3.2130   0.0000   0.0000   0.0000   0.1837
  -7.500  -0.5747   0.04809   0.04590  -0.0367  1.0000  0.0175  -3.2510   0.0000   0.0000   0.0000   0.1818
  -7.400  -0.5734   0.04577   0.04349  -0.0375  1.0000  0.0176  -3.2848   0.0000   0.0000   0.0000   0.1802
  -7.300  -0.5715   0.04349   0.04112  -0.0381  1.0000  0.0177  -3.3175   0.0000   0.0000   0.0000   0.1790
  -6.700  -0.5596   0.02567   0.02207  -0.0374  1.0000  0.0119  -4.0308   0.0000   0.0000   0.0000   0.1786
  -6.600  -0.5590   0.02167   0.01764  -0.0366  1.0000  0.0107  -4.2530   0.0000   0.0000   0.0000   0.1799
  -6.500  -0.5550   0.01857   0.01415  -0.0357  1.0000  0.0096  -4.4219   0.0000   0.0000   0.0000   0.1810
  -6.400  -0.5491   0.01620   0.01145  -0.0348  1.0000  0.0089  -4.5366   0.0000   0.0000   0.0000   0.1818
  -6.300  -0.5418   0.01453   0.00952  -0.0340  1.0000  0.0083  -4.5915   0.0000   0.0000   0.0000   0.1824
  -6.200  -0.5337   0.01340   0.00819  -0.0334  1.0000  0.0080  -4.5926   0.0000   0.0000   0.0000   0.1828
  -6.100  -0.5249   0.01264   0.00729  -0.0328  1.0000  0.0077  -4.5514   0.0000   0.0000   0.0000   0.1828
  -6.000  -0.5157   0.01209   0.00665  -0.0324  1.0000  0.0076  -4.4821   0.0000   0.0000   0.0000   0.1826
  -5.900  -0.5063   0.01168   0.00615  -0.0320  1.0000  0.0074  -4.3966   0.0000   0.0000   0.0000   0.1823
  -5.800  -0.4968   0.01133   0.00573  -0.0316  1.0000  0.0074  -4.3023   0.0000   0.0000   0.0000   0.1819
  -5.700  -0.4871   0.01102   0.00536  -0.0313  1.0000  0.0073  -4.2024   0.0000   0.0000   0.0000   0.1814
  -5.600  -0.4774   0.01075   0.00503  -0.0309  1.0000  0.0073  -4.0987   0.0000   0.0000   0.0000   0.1809
  -5.500  -0.4677   0.01051   0.00473  -0.0306  1.0000  0.0073  -3.9924   0.0000   0.0000   0.0000   0.1803
  -5.400  -0.4578   0.01028   0.00445  -0.0303  1.0000  0.0074  -3.8838   0.0000   0.0000   0.0000   0.1797
  -5.300  -0.4480   0.01008   0.00421  -0.0299  1.0000  0.0075  -3.7729   0.0000   0.0000   0.0000   0.1790
  -5.200  -0.4380   0.00990   0.00398  -0.0296  1.0000  0.0076  -3.6602   0.0000   0.0000   0.0000   0.1782
  -5.100  -0.4281   0.00974   0.00377  -0.0293  1.0000  0.0078  -3.5457   0.0000   0.0000   0.0000   0.1775
  -5.000  -0.4182   0.00959   0.00359  -0.0290  1.0000  0.0082  -3.4314   0.0000   0.0000   0.0000   0.1766
  -4.900  -0.4083   0.00948   0.00344  -0.0287  1.0000  0.0084  -3.3308   0.0000   0.0000   0.0000   0.1757
  -4.800  -0.3985   0.00946   0.00334  -0.0285  1.0000  0.0075  -3.3043   0.0000   0.0000   0.0000   0.1746
  -4.700  -0.3886   0.00934   0.00318  -0.0282  1.0000  0.0078  -3.1933   0.0000   0.0000   0.0000   0.1737
  -4.600  -0.3787   0.00923   0.00305  -0.0279  1.0000  0.0083  -3.0806   0.0000   0.0000   0.0000   0.1726
  -4.500  -0.3646   0.00911   0.00292  -0.0284  0.9992  0.0092  -2.9469   0.0000   0.0000   0.0000   0.1682
  -4.400  -0.3496   0.00900   0.00283  -0.0292  0.9980  0.0102  -2.8177   0.0000   0.0000   0.0000   0.1626
  -4.300  -0.3347   0.00890   0.00275  -0.0300  0.9970  0.0111  -2.7004   0.0000   0.0000   0.0000   0.1566
  -4.200  -0.3202   0.00880   0.00268  -0.0307  0.9957  0.0121  -2.5928   0.0000   0.0000   0.0000   0.1502
  -4.100  -0.3054   0.00872   0.00261  -0.0315  0.9942  0.0131  -2.4912   0.0000   0.0000   0.0000   0.1431
  -4.000  -0.2903   0.00864   0.00255  -0.0323  0.9925  0.0144  -2.3932   0.0000   0.0000   0.0000   0.1349
  -3.900  -0.2752   0.00846   0.00245  -0.0332  0.9909  0.0224  -2.2979   0.0000   0.0000   0.0000   0.1255
  -3.800  -0.2596   0.00833   0.00236  -0.0342  0.9894  0.0284  -2.2039   0.0000   0.0000   0.0000   0.1145
  -3.700  -0.2439   0.00821   0.00230  -0.0352  0.9881  0.0358  -2.1123   0.0000   0.0000   0.0000   0.1019
  -3.600  -0.2295   0.00810   0.00224  -0.0359  0.9863  0.0405  -2.0266   0.0000   0.0000   0.0000   0.0898
  -3.500  -0.2162   0.00802   0.00218  -0.0363  0.9837  0.0437  -1.9460   0.0000   0.0000   0.0000   0.0780
  -3.400  -0.2020   0.00795   0.00212  -0.0369  0.9812  0.0460  -1.8642   0.0000   0.0000   0.0000   0.0631
  -3.300  -0.1872   0.00789   0.00207  -0.0377  0.9786  0.0477  -1.7818   0.0000   0.0000   0.0000   0.0445
  -3.200  -0.1720   0.00781   0.00201  -0.0385  0.9760  0.0531  -1.7002   0.0000   0.0000   0.0000   0.0220
  -3.100  -0.1567   0.00770   0.00195  -0.0394  0.9734  0.0591  -1.6192   0.0000   0.0000   0.0000  -0.0057
  -3.000  -0.1441   0.00761   0.00190  -0.0397  0.9685  0.0642  -1.5476   0.0000   0.0000   0.0000  -0.0296
  -2.900  -0.1315   0.00754   0.00184  -0.0399  0.9629  0.0685  -1.4769   0.0000   0.0000   0.0000  -0.0581
  -2.800  -0.1177   0.00747   0.00179  -0.0404  0.9581  0.0723  -1.4036   0.0000   0.0000   0.0000  -0.0985
  -2.700  -0.1034   0.00737   0.00174  -0.0411  0.9537  0.0825  -1.3305   0.0000   0.0000   0.0000  -0.1527
  -2.600  -0.0907   0.00726   0.00168  -0.0414  0.9474  0.0917  -1.2631   0.0000   0.0000   0.0000  -0.2113
  -2.500  -0.0783   0.00717   0.00163  -0.0416  0.9390  0.1039  -1.1968   0.0000   0.0000   0.0000  -0.2872
  -2.400  -0.0655   0.00696   0.00156  -0.0420  0.9300  0.1363  -1.1306   0.0000   0.0000   0.0000  -0.3973
  -2.300  -0.0543   0.00668   0.00150  -0.0421  0.9199  0.1874  -1.0696   0.0000   0.0000   0.0000  -0.5330
  -2.200  -0.0438   0.00641   0.00145  -0.0420  0.9075  0.2436  -1.0108   0.0000   0.0000   0.0000  -0.7194
  -2.100  -0.0331   0.00624   0.00140  -0.0419  0.8955  0.2842  -0.9513   0.0000   0.0000   0.0000  -1.0260
  -2.000  -0.0226   0.00615   0.00134  -0.0418  0.8845  0.3095  -0.8757   0.0000   0.0000   0.0000  -1.6153
  -1.900  -0.0123   0.00602   0.00130  -0.0416  0.8728  0.3428  -0.8267   0.0000   0.0000   0.0000  -3.1578
  -1.700   0.0085   0.00584   0.00123  -0.0412  0.8515  0.3991  -0.7559   0.0000   0.0000   0.0000   5.1016
  -1.600   0.0189   0.00577   0.00121  -0.0410  0.8393  0.4255  -0.7210   0.0000   0.0000   0.0000   2.4269
  -1.500   0.0290   0.00572   0.00117  -0.0406  0.8258  0.4506  -0.6869   0.0000   0.0000   0.0000   1.6594
  -1.400   0.0395   0.00565   0.00116  -0.0405  0.8148  0.4774  -0.6525   0.0000   0.0000   0.0000   1.2795
  -1.300   0.0499   0.00559   0.00114  -0.0403  0.8024  0.5039  -0.6203   0.0000   0.0000   0.0000   1.0598
  -1.200   0.0600   0.00554   0.00112  -0.0400  0.7887  0.5303  -0.5950   0.0000   0.0000   0.0000   0.9181
  -1.100   0.0704   0.00550   0.00110  -0.0398  0.7771  0.5567  -0.5697   0.0000   0.0000   0.0000   0.8164
  -1.000   0.0810   0.00543   0.00110  -0.0396  0.7684  0.5824  -0.5442   0.0000   0.0000   0.0000   0.7397
  -0.900   0.0916   0.00538   0.00110  -0.0394  0.7581  0.6085  -0.5190   0.0000   0.0000   0.0000   0.6810
  -0.800   0.1017   0.00535   0.00110  -0.0391  0.7461  0.6351  -0.4944   0.0000   0.0000   0.0000   0.6349
  -0.700   0.1119   0.00533   0.00110  -0.0388  0.7334  0.6623  -0.4699   0.0000   0.0000   0.0000   0.5972
  -0.600   0.1224   0.00527   0.00111  -0.0386  0.7245  0.6871  -0.4453   0.0000   0.0000   0.0000   0.5654
  -0.500   0.1328   0.00526   0.00111  -0.0384  0.7127  0.7095  -0.4448   0.0000   0.0000   0.0000   0.5386
  -0.400   0.1431   0.00528   0.00111  -0.0381  0.6992  0.7256  -0.4563   0.0000   0.0000   0.0000   0.5157
  -0.300   0.1530   0.00527   0.00112  -0.0377  0.6859  0.7471  -0.4676   0.0000   0.0000   0.0000   0.4959
  -0.200   0.1637   0.00526   0.00113  -0.0376  0.6786  0.7643  -0.4815   0.0000   0.0000   0.0000   0.4785
  -0.100   0.1740   0.00523   0.00114  -0.0373  0.6697  0.7821  -0.4951   0.0000   0.0000   0.0000   0.4631
   0.000   0.1842   0.00523   0.00115  -0.0369  0.6593  0.7976  -0.5087   0.0000   0.0000   0.0000   0.4495
   0.100   0.1947   0.00528   0.00115  -0.0367  0.6474  0.8095  -0.5225   0.0000   0.0000   0.0000   0.4374
   0.200   0.2046   0.00528   0.00116  -0.0363  0.6360  0.8241  -0.5359   0.0000   0.0000   0.0000   0.4264
   0.300   0.2149   0.00527   0.00118  -0.0360  0.6288  0.8384  -0.5498   0.0000   0.0000   0.0000   0.4163
   0.400   0.2254   0.00529   0.00118  -0.0358  0.6183  0.8495  -0.5638   0.0000   0.0000   0.0000   0.4074
   0.500   0.2353   0.00532   0.00119  -0.0354  0.6055  0.8605  -0.5774   0.0000   0.0000   0.0000   0.3991
   0.600   0.2447   0.00536   0.00120  -0.0349  0.5901  0.8736  -0.5913   0.0000   0.0000   0.0000   0.3912
   0.700   0.2549   0.00538   0.00121  -0.0346  0.5813  0.8859  -0.6079   0.0000   0.0000   0.0000   0.3842
   0.800   0.2647   0.00537   0.00122  -0.0342  0.5729  0.8979  -0.6242   0.0000   0.0000   0.0000   0.3775
   0.900   0.2743   0.00539   0.00123  -0.0337  0.5635  0.9107  -0.6404   0.0000   0.0000   0.0000   0.3712
   1.100   0.2937   0.00547   0.00124  -0.0329  0.5399  0.9358  -0.6732   0.0000   0.0000   0.0000   0.3600
   1.200   0.3043   0.00548   0.00125  -0.0326  0.5320  0.9492  -0.6905   0.0000   0.0000   0.0000   0.3553
   1.300   0.3174   0.00549   0.00125  -0.0329  0.5243  0.9608  -0.7099   0.0000   0.0000   0.0000   0.3518
   1.500   0.3457   0.00561   0.00127  -0.0342  0.4983  0.9812  -0.7511   0.0000   0.0000   0.0000   0.3468
   1.600   0.3610   0.00568   0.00127  -0.0351  0.4824  0.9916  -0.7727   0.0000   0.0000   0.0000   0.3451
   1.700   0.3752   0.00571   0.00128  -0.0357  0.4751  1.0000  -0.7941   0.0000   0.0000   0.0000   0.3431
   1.800   0.3860   0.00576   0.00129  -0.0357  0.4668  1.0000  -0.8159   0.0000   0.0000   0.0000   0.3402
   1.900   0.3967   0.00583   0.00131  -0.0356  0.4571  1.0000  -0.8377   0.0000   0.0000   0.0000   0.3374
   2.000   0.4073   0.00592   0.00133  -0.0355  0.4456  1.0000  -0.8595   0.0000   0.0000   0.0000   0.3348
   2.100   0.4180   0.00600   0.00135  -0.0354  0.4324  1.0000  -0.8814   0.0000   0.0000   0.0000   0.3323
   2.200   0.4291   0.00603   0.00137  -0.0354  0.4271  1.0000  -0.9040   0.0000   0.0000   0.0000   0.3300
   2.300   0.4400   0.00609   0.00140  -0.0353  0.4188  1.0000  -0.9265   0.0000   0.0000   0.0000   0.3278
   2.400   0.4507   0.00617   0.00142  -0.0352  0.4076  1.0000  -0.9489   0.0000   0.0000   0.0000   0.3256
   2.500   0.4613   0.00628   0.00145  -0.0351  0.3938  1.0000  -0.9713   0.0000   0.0000   0.0000   0.3236
   2.600   0.4721   0.00636   0.00149  -0.0351  0.3814  1.0000  -0.9939   0.0000   0.0000   0.0000   0.3216
   2.700   0.4831   0.00640   0.00151  -0.0350  0.3761  1.0000  -1.0219   0.0000   0.0000   0.0000   0.3198
   2.800   0.4941   0.00646   0.00154  -0.0350  0.3690  1.0000  -1.0503   0.0000   0.0000   0.0000   0.3180
   2.900   0.5049   0.00654   0.00158  -0.0349  0.3601  1.0000  -1.0787   0.0000   0.0000   0.0000   0.3163
   3.000   0.5156   0.00664   0.00162  -0.0349  0.3498  1.0000  -1.1070   0.0000   0.0000   0.0000   0.3147
   3.100   0.5264   0.00674   0.00166  -0.0348  0.3372  1.0000  -1.1355   0.0000   0.0000   0.0000   0.3131
   3.200   0.5374   0.00679   0.00170  -0.0348  0.3313  1.0000  -1.1647   0.0000   0.0000   0.0000   0.3116
   3.300   0.5484   0.00684   0.00174  -0.0347  0.3260  1.0000  -1.1940   0.0000   0.0000   0.0000   0.3102
   3.400   0.5593   0.00691   0.00178  -0.0347  0.3187  1.0000  -1.2234   0.0000   0.0000   0.0000   0.3088
   3.500   0.5701   0.00700   0.00183  -0.0346  0.3099  1.0000  -1.2528   0.0000   0.0000   0.0000   0.3074
   3.600   0.5807   0.00712   0.00188  -0.0345  0.2986  1.0000  -1.2820   0.0000   0.0000   0.0000   0.3061
   3.700   0.5915   0.00722   0.00194  -0.0345  0.2869  1.0000  -1.3116   0.0000   0.0000   0.0000   0.3049
   3.800   0.6025   0.00728   0.00198  -0.0344  0.2816  1.0000  -1.3419   0.0000   0.0000   0.0000   0.3037
   3.900   0.6133   0.00736   0.00203  -0.0344  0.2735  1.0000  -1.3721   0.0000   0.0000   0.0000   0.3025
   4.000   0.6240   0.00747   0.00209  -0.0343  0.2643  1.0000  -1.4039   0.0000   0.0000   0.0000   0.3014
   4.100   0.6346   0.00759   0.00215  -0.0342  0.2537  1.0000  -1.4426   0.0000   0.0000   0.0000   0.3003
   4.200   0.6454   0.00769   0.00222  -0.0342  0.2432  1.0000  -1.4817   0.0000   0.0000   0.0000   0.2992
   4.300   0.6564   0.00775   0.00227  -0.0341  0.2393  1.0000  -1.5219   0.0000   0.0000   0.0000   0.2982
   4.400   0.6672   0.00783   0.00233  -0.0341  0.2329  1.0000  -1.5621   0.0000   0.0000   0.0000   0.2972
   4.500   0.6779   0.00795   0.00239  -0.0340  0.2243  1.0000  -1.6022   0.0000   0.0000   0.0000   0.2962
   4.600   0.6884   0.00809   0.00247  -0.0340  0.2137  1.0000  -1.6542   0.0000   0.0000   0.0000   0.2952
   4.700   0.6990   0.00821   0.00256  -0.0339  0.2023  1.0000  -1.7074   0.0000   0.0000   0.0000   0.2943
   4.800   0.7100   0.00827   0.00262  -0.0338  0.1994  1.0000  -1.7625   0.0000   0.0000   0.0000   0.2934
   4.900   0.7210   0.00835   0.00284  -0.0338  0.1969  1.0000  -1.7944   0.0000   0.0000   0.0000   0.2925
   5.000   0.7313   0.00850   0.00291  -0.0337  0.1851  1.0000  -1.8432   0.0000   0.0000   0.0000   0.2917
   5.100   0.7416   0.00868   0.00301  -0.0336  0.1722  1.0000  -1.9085   0.0000   0.0000   0.0000   0.2908
   5.200   0.7523   0.00879   0.00311  -0.0335  0.1639  1.0000  -1.9921   0.0000   0.0000   0.0000   0.2900
   5.300   0.7632   0.00886   0.00318  -0.0335  0.1613  1.0000  -2.0777   0.0000   0.0000   0.0000   0.2892
   5.400   0.7740   0.00895   0.00326  -0.0334  0.1572  1.0000  -2.1635   0.0000   0.0000   0.0000   0.2884
   5.500   0.7846   0.00906   0.00334  -0.0334  0.1519  1.0000  -2.2497   0.0000   0.0000   0.0000   0.2877
   5.600   0.7951   0.00919   0.00343  -0.0333  0.1456  1.0000  -2.3360   0.0000   0.0000   0.0000   0.2869
   5.700   0.8056   0.00934   0.00354  -0.0332  0.1378  1.0000  -2.4229   0.0000   0.0000   0.0000   0.2862
   5.800   0.8161   0.00947   0.00365  -0.0331  0.1299  1.0000  -2.5108   0.0000   0.0000   0.0000   0.2854
   5.900   0.8270   0.00954   0.00374  -0.0331  0.1283  1.0000  -2.6021   0.0000   0.0000   0.0000   0.2848
   6.000   0.8378   0.00963   0.00383  -0.0330  0.1254  1.0000  -2.6938   0.0000   0.0000   0.0000   0.2841
   6.100   0.8483   0.00975   0.00392  -0.0329  0.1207  1.0000  -2.7858   0.0000   0.0000   0.0000   0.2834
   6.200   0.8586   0.00992   0.00403  -0.0329  0.1138  1.0000  -2.8775   0.0000   0.0000   0.0000   0.2827
   6.300   0.8687   0.01011   0.00415  -0.0328  0.1042  1.0000  -2.9691   0.0000   0.0000   0.0000   0.2821
   6.400   0.8793   0.01023   0.00427  -0.0327  0.0983  1.0000  -3.0639   0.0000   0.0000   0.0000   0.2814
   6.500   0.8898   0.01034   0.00437  -0.0326  0.0944  1.0000  -3.1608   0.0000   0.0000   0.0000   0.2808
   6.600   0.9000   0.01052   0.00449  -0.0325  0.0877  1.0000  -3.2565   0.0000   0.0000   0.0000   0.2802
   6.700   0.9099   0.01075   0.00462  -0.0324  0.0787  1.0000  -3.3515   0.0000   0.0000   0.0000   0.2796
   6.800   0.9202   0.01090   0.00475  -0.0323  0.0718  1.0000  -3.4494   0.0000   0.0000   0.0000   0.2790
   6.900   0.9306   0.01103   0.00487  -0.0322  0.0682  1.0000  -3.5497   0.0000   0.0000   0.0000   0.2784
   7.000   0.9407   0.01122   0.00502  -0.0321  0.0625  1.0000  -3.6491   0.0000   0.0000   0.0000   0.2778
   7.100   0.9504   0.01146   0.00518  -0.0320  0.0557  1.0000  -3.7476   0.0000   0.0000   0.0000   0.2772
   7.200   0.9607   0.01163   0.00532  -0.0319  0.0496  1.0000  -3.8487   0.0000   0.0000   0.0000   0.2766
   7.300   0.9711   0.01175   0.00545  -0.0318  0.0480  1.0000  -3.9530   0.0000   0.0000   0.0000   0.2761
   7.400   0.9815   0.01188   0.00558  -0.0317  0.0461  1.0000  -4.0577   0.0000   0.0000   0.0000   0.2755
   7.500   0.9917   0.01204   0.00572  -0.0316  0.0438  1.0000  -4.1628   0.0000   0.0000   0.0000   0.2750
   7.600   1.0018   0.01221   0.00588  -0.0315  0.0412  1.0000  -4.2680   0.0000   0.0000   0.0000   0.2744
   7.700   1.0118   0.01240   0.00605  -0.0314  0.0384  1.0000  -4.3735   0.0000   0.0000   0.0000   0.2739
   7.800   1.0218   0.01259   0.00622  -0.0313  0.0354  1.0000  -4.4796   0.0000   0.0000   0.0000   0.2733
   7.900   1.0320   0.01276   0.00638  -0.0311  0.0326  1.0000  -4.5871   0.0000   0.0000   0.0000   0.2728
   8.000   1.0428   0.01282   0.00660  -0.0310  0.0365  1.0000  -4.6765   0.0000   0.0000   0.0000   0.2722
   8.100   1.0529   0.01300   0.00679  -0.0309  0.0337  1.0000  -4.7811   0.0000   0.0000   0.0000   0.2717
   8.200   1.0629   0.01319   0.00698  -0.0308  0.0312  1.0000  -4.8869   0.0000   0.0000   0.0000   0.2712
   8.300   1.0732   0.01331   0.00713  -0.0307  0.0307  1.0000  -4.9997   0.0000   0.0000   0.0000   0.2707
   8.400   1.0834   0.01345   0.00729  -0.0306  0.0301  1.0000  -5.1130   0.0000   0.0000   0.0000   0.2702
   8.500   1.0935   0.01361   0.00745  -0.0304  0.0291  1.0000  -5.2265   0.0000   0.0000   0.0000   0.2697
   8.600   1.1035   0.01377   0.00763  -0.0303  0.0278  1.0000  -5.3402   0.0000   0.0000   0.0000   0.2692
   8.700   1.1134   0.01397   0.00782  -0.0302  0.0263  1.0000  -5.4535   0.0000   0.0000   0.0000   0.2687
   8.800   1.1231   0.01418   0.00803  -0.0300  0.0248  1.0000  -5.5666   0.0000   0.0000   0.0000   0.2682
   8.900   1.1326   0.01442   0.00825  -0.0299  0.0231  1.0000  -5.6790   0.0000   0.0000   0.0000   0.2677
   9.000   1.1421   0.01466   0.00848  -0.0297  0.0213  1.0000  -5.7899   0.0000   0.0000   0.0000   0.2672
   9.100   1.1516   0.01492   0.00876  -0.0295  0.0193  1.0000  -5.8962   0.0000   0.0000   0.0000   0.2666
   9.200   1.1607   0.01523   0.00911  -0.0292  0.0175  1.0000  -5.9948   0.0000   0.0000   0.0000   0.2661
   9.300   1.1704   0.01545   0.00936  -0.0290  0.0169  1.0000  -6.1075   0.0000   0.0000   0.0000   0.2656
   9.400   1.1804   0.01558   0.00950  -0.0289  0.0167  1.0000  -6.2343   0.0000   0.0000   0.0000   0.2651
   9.500   1.1904   0.01571   0.00965  -0.0288  0.0165  1.0000  -6.3613   0.0000   0.0000   0.0000   0.2647
   9.600   1.2003   0.01585   0.00982  -0.0287  0.0160  1.0000  -6.4875   0.0000   0.0000   0.0000   0.2643
   9.700   1.2100   0.01603   0.01001  -0.0285  0.0149  1.0000  -6.6091   0.0000   0.0000   0.0000   0.2638
  10.800   1.2909   0.02153   0.01615  -0.0236  0.0067  1.0000  -7.4710   0.0000   0.0000   0.0000   0.2570
  10.900   1.3007   0.02161   0.01623  -0.0236  0.0066  1.0000  -7.6327   0.0000   0.0000   0.0000   0.2566
  11.000   1.3104   0.02169   0.01631  -0.0235  0.0066  1.0000  -7.7958   0.0000   0.0000   0.0000   0.2563
  11.100   1.3200   0.02178   0.01639  -0.0234  0.0065  1.0000  -7.9599   0.0000   0.0000   0.0000   0.2559
  11.200   1.3296   0.02188   0.01649  -0.0233  0.0065  1.0000  -8.1243   0.0000   0.0000   0.0000   0.2556
  11.300   1.3390   0.02200   0.01661  -0.0231  0.0064  1.0000  -8.2884   0.0000   0.0000   0.0000   0.2552
  11.400   1.3558   0.02113   0.01561  -0.0240  0.0060  1.0000  -8.6813   0.0000   0.0000   0.0000   0.2554
  11.500   1.3649   0.02128   0.01576  -0.0238  0.0057  1.0000  -8.8565   0.0000   0.0000   0.0000   0.2550
  11.600   1.3736   0.02149   0.01599  -0.0236  0.0055  1.0000  -9.0194   0.0000   0.0000   0.0000   0.2546
  11.700   1.3820   0.02173   0.01624  -0.0234  0.0053  1.0000  -9.1775   0.0000   0.0000   0.0000   0.2541
  11.800   1.3902   0.02199   0.01652  -0.0231  0.0051  1.0000  -9.3334   0.0000   0.0000   0.0000   0.2537
  11.900   1.3982   0.02226   0.01681  -0.0228  0.0049  1.0000  -9.4884   0.0000   0.0000   0.0000   0.2532
  12.000   1.4061   0.02255   0.01711  -0.0225  0.0047  1.0000  -9.6439   0.0000   0.0000   0.0000   0.2528
  12.100   1.4137   0.02285   0.01743  -0.0222  0.0045  1.0000  -9.7992   0.0000   0.0000   0.0000   0.2523
  12.200   1.4211   0.02316   0.01776  -0.0219  0.0042  1.0000  -9.9546   0.0000   0.0000   0.0000   0.2518
  12.300   1.4284   0.02349   0.01811  -0.0215  0.0040  1.0000  -10.1116   0.0000   0.0000   0.0000   0.2513
  12.400   1.4354   0.02384   0.01847  -0.0211  0.0038  1.0000  -10.2699   0.0000   0.0000   0.0000   0.2508
  12.500   1.4421   0.02420   0.01885  -0.0207  0.0036  1.0000  -10.4290   0.0000   0.0000   0.0000   0.2503
  12.600   1.4485   0.02459   0.01925  -0.0203  0.0034  1.0000  -10.5881   0.0000   0.0000   0.0000   0.2497
  12.700   1.4545   0.02501   0.01969  -0.0198  0.0032  1.0000  -10.7464   0.0000   0.0000   0.0000   0.2492
  12.800   1.4600   0.02546   0.02017  -0.0193  0.0030  1.0000  -10.9028   0.0000   0.0000   0.0000   0.2486
  12.900   1.4648   0.02596   0.02070  -0.0187  0.0029  1.0000  -11.0552   0.0000   0.0000   0.0000   0.2480
  13.000   1.4688   0.02652   0.02130  -0.0180  0.0027  1.0000  -11.2009   0.0000   0.0000   0.0000   0.2473
  13.100   1.4718   0.02713   0.02198  -0.0173  0.0025  1.0000  -11.3368   0.0000   0.0000   0.0000   0.2466
  13.200   1.4736   0.02779   0.02271  -0.0164  0.0024  1.0000  -11.4584   0.0000   0.0000   0.0000   0.2458
  13.300   1.4734   0.02847   0.02346  -0.0152  0.0023  1.0000  -11.5573   0.0000   0.0000   0.0000   0.2449
  13.400   1.4722   0.02918   0.02424  -0.0139  0.0023  1.0000  -11.6431   0.0000   0.0000   0.0000   0.2438
  13.500   1.4702   0.02994   0.02508  -0.0127  0.0022  1.0000  -11.7189   0.0000   0.0000   0.0000   0.2429
  13.600   1.4677   0.03076   0.02598  -0.0115  0.0022  1.0000  -11.7864   0.0000   0.0000   0.0000   0.2419
  13.700   1.4648   0.03166   0.02696  -0.0106  0.0021  1.0000  -11.8469   0.0000   0.0000   0.0000   0.2411
  13.800   1.4612   0.03264   0.02801  -0.0097  0.0021  1.0000  -11.8989   0.0000   0.0000   0.0000   0.2404
  13.900   1.4575   0.03372   0.02916  -0.0091  0.0021  1.0000  -11.9450   0.0000   0.0000   0.0000   0.2398
  14.000   1.4535   0.03491   0.03043  -0.0086  0.0021  1.0000  -11.9862   0.0000   0.0000   0.0000   0.2393
  14.100   1.4493   0.03622   0.03181  -0.0084  0.0020  1.0000  -12.0224   0.0000   0.0000   0.0000   0.2390
  14.200   1.4448   0.03766   0.03333  -0.0085  0.0020  1.0000  -12.0514   0.0000   0.0000   0.0000   0.2388
  14.300   1.4398   0.03923   0.03497  -0.0087  0.0020  1.0000  -12.0731   0.0000   0.0000   0.0000   0.2388
  14.400   1.4346   0.04089   0.03672  -0.0091  0.0020  1.0000  -12.0894   0.0000   0.0000   0.0000   0.2389
  14.500   1.4290   0.04274   0.03864  -0.0097  0.0020  1.0000  -12.0977   0.0000   0.0000   0.0000   0.2392
  14.600   1.4233   0.04475   0.04073  -0.0106  0.0020  1.0000  -12.1008   0.0000   0.0000   0.0000   0.2396
  14.700   1.4176   0.04686   0.04290  -0.0116  0.0020  1.0000  -12.1014   0.0000   0.0000   0.0000   0.2401
  14.800   1.4112   0.04921   0.04533  -0.0129  0.0020  1.0000  -12.0888   0.0000   0.0000   0.0000   0.2409
  14.900   1.4050   0.05160   0.04780  -0.0142  0.0020  1.0000  -12.0759   0.0000   0.0000   0.0000   0.2416
  15.000   1.3980   0.05421   0.05048  -0.0157  0.0020  1.0000  -12.0507   0.0000   0.0000   0.0000   0.2426
  15.100   1.3909   0.05691   0.05325  -0.0173  0.0020  1.0000  -12.0203   0.0000   0.0000   0.0000   0.2436
  15.200   1.3834   0.05970   0.05611  -0.0189  0.0020  1.0000  -11.9835   0.0000   0.0000   0.0000   0.2446
  15.300   1.3755   0.06264   0.05911  -0.0207  0.0020  1.0000  -11.9370   0.0000   0.0000   0.0000   0.2458
  15.400   1.3674   0.06562   0.06215  -0.0225  0.0020  1.0000  -11.8868   0.0000   0.0000   0.0000   0.2470
  15.500   1.3589   0.06869   0.06529  -0.0243  0.0020  1.0000  -11.8287   0.0000   0.0000   0.0000   0.2482
  15.600   1.3499   0.07187   0.06853  -0.0262  0.0020  1.0000  -11.7604   0.0000   0.0000   0.0000   0.2496
  15.700   1.3410   0.07482   0.07154  -0.0278  0.0020  1.0000  -11.6971   0.0000   0.0000   0.0000   0.2507
  15.800   1.3306   0.07830   0.07507  -0.0298  0.0020  1.0000  -11.6043   0.0000   0.0000   0.0000   0.2522
  15.900   1.3216   0.08144   0.07826  -0.0316  0.0020  1.0000  -11.5326   0.0000   0.0000   0.0000   0.2535
  16.000   1.3119   0.08488   0.08176  -0.0336  0.0020  1.0000  -11.4438   0.0000   0.0000   0.0000   0.2551
  16.100   1.3019   0.08844   0.08537  -0.0356  0.0020  1.0000  -11.3472   0.0000   0.0000   0.0000   0.2567
  16.200   1.2930   0.09170   0.08868  -0.0374  0.0021  1.0000  -11.2685   0.0000   0.0000   0.0000   0.2581
  16.300   1.2830   0.09532   0.09235  -0.0395  0.0021  1.0000  -11.1659   0.0000   0.0000   0.0000   0.2598
  16.400   1.2730   0.09904   0.09612  -0.0417  0.0021  1.0000  -11.0571   0.0000   0.0000   0.0000   0.2616
  16.500   1.2645   0.10238   0.09950  -0.0436  0.0021  1.0000  -10.9724   0.0000   0.0000   0.0000   0.2632
  16.600   1.2560   0.10576   0.10292  -0.0455  0.0021  1.0000  -10.8848   0.0000   0.0000   0.0000   0.2648
  16.700   1.2450   0.10987   0.10708  -0.0480  0.0021  1.0000  -10.7448   0.0000   0.0000   0.0000   0.2670
  16.800   1.2366   0.11331   0.11057  -0.0500  0.0022  1.0000  -10.6498   0.0000   0.0000   0.0000   0.2688
  16.900   1.2289   0.11660   0.11390  -0.0519  0.0022  1.0000  -10.5633   0.0000   0.0000   0.0000   0.2705
  17.000   1.2210   0.11997   0.11731  -0.0539  0.0022  1.0000  -10.4700   0.0000   0.0000   0.0000   0.2722
  17.100   1.2102   0.12417   0.12156  -0.0565  0.0022  1.0000  -10.3120   0.0000   0.0000   0.0000   0.2746
  17.200   1.2025   0.12754   0.12497  -0.0585  0.0022  1.0000  -10.2136   0.0000   0.0000   0.0000   0.2765
  17.300   1.1957   0.13072   0.12818  -0.0604  0.0022  1.0000  -10.1277   0.0000   0.0000   0.0000   0.2783
  17.400   1.1890   0.13391   0.13141  -0.0624  0.0022  1.0000  -10.0397   0.0000   0.0000   0.0000   0.2801
  17.500   1.1811   0.13744   0.13499  -0.0646  0.0023  1.0000  -9.9209   0.0000   0.0000   0.0000   0.2822
  17.600   1.1711   0.14147   0.13907  -0.0671  0.0023  1.0000  -9.7522   0.0000   0.0000   0.0000   0.2847
  17.700   1.1649   0.14435   0.14198  -0.0690  0.0023  1.0000  -9.6590   0.0000   0.0000   0.0000   0.2866
  17.800   1.1592   0.14712   0.14478  -0.0709  0.0023  1.0000  -9.5743   0.0000   0.0000   0.0000   0.2884
  17.900   1.1536   0.14998   0.14768  -0.0728  0.0023  1.0000  -9.4859   0.0000   0.0000   0.0000   0.2902
  18.000   1.1474   0.15312   0.15085  -0.0748  0.0023  1.0000  -9.3794   0.0000   0.0000   0.0000   0.2922
  18.100   1.1364   0.15767   0.15546  -0.0776  0.0024  1.0000  -9.1540   0.0000   0.0000   0.0000   0.2954
  18.200   1.1302   0.16108   0.15890  -0.0797  0.0024  1.0000  -9.0339   0.0000   0.0000   0.0000   0.2975
  18.300   1.1254   0.16421   0.16207  -0.0816  0.0024  1.0000  -8.9414   0.0000   0.0000   0.0000   0.2994
  18.400   1.1206   0.16741   0.16530  -0.0835  0.0024  1.0000  -8.8455   0.0000   0.0000   0.0000   0.3013
  18.500   1.1151   0.17088   0.16881  -0.0855  0.0024  1.0000  -8.7286   0.0000   0.0000   0.0000   0.3034
  18.600   1.1071   0.17524   0.17322  -0.0880  0.0025  1.0000  -8.5377   0.0000   0.0000   0.0000   0.3063
  18.700   1.0949   0.18115   0.17918  -0.0911  0.0026  1.0000  -8.2205   0.0000   0.0000   0.0000   0.3102
  18.800   1.0893   0.18503   0.18310  -0.0932  0.0026  1.0000  -8.0776   0.0000   0.0000   0.0000   0.3125
  18.900   1.0836   0.18906   0.18716  -0.0953  0.0026  1.0000  -7.9235   0.0000   0.0000   0.0000   0.3149
  19.000   1.0745   0.19440   0.19256  -0.0980  0.0026  1.0000  -7.6587   0.0000   0.0000   0.0000   0.3182
  19.200   0.9553   0.25925   0.25743  -0.1183  0.0040  1.0000  -2.6270   0.0000   0.0000   0.0000   0.3556
  19.300   0.9553   0.26264   0.26082  -0.1192  0.0042  1.0000  -2.5341   0.0000   0.0000   0.0000   0.3566
  19.400   0.9555   0.26585   0.26403  -0.1201  0.0044  1.0000  -2.4562   0.0000   0.0000   0.0000   0.3574
  19.500   0.9557   0.26892   0.26711  -0.1210  0.0047  1.0000  -2.3898   0.0000   0.0000   0.0000   0.3582
  19.600   0.9560   0.27189   0.27008  -0.1218  0.0049  1.0000  -2.3325   0.0000   0.0000   0.0000   0.3590
  19.700   0.9562   0.27481   0.27299  -0.1226  0.0052  1.0000  -2.2810   0.0000   0.0000   0.0000   0.3597
  19.800   0.9559   0.27787   0.27606  -0.1234  0.0056  1.0000  -2.2225   0.0000   0.0000   0.0000   0.3605
  19.900   0.9480   0.28491   0.28309  -0.1243  0.0067  1.0000  -1.9427   0.0000   0.0000   0.0000   0.3626
  20.000   0.9484   0.28758   0.28576  -0.1250  0.0067  1.0000  -1.9188   0.0000   0.0000   0.0000   0.3631
  20.100   0.9489   0.29016   0.28835  -0.1256  0.0068  1.0000  -1.8992   0.0000   0.0000   0.0000   0.3636
  20.200   0.9494   0.29270   0.29089  -0.1263  0.0068  1.0000  -1.8817   0.0000   0.0000   0.0000   0.3641
  20.300   0.9499   0.29520   0.29339  -0.1269  0.0068  1.0000  -1.8653   0.0000   0.0000   0.0000   0.3647
  20.400   0.9502   0.29767   0.29587  -0.1276  0.0068  1.0000  -1.8497   0.0000   0.0000   0.0000   0.3652
  20.500   0.9505   0.30012   0.29832  -0.1282  0.0068  1.0000  -1.8346   0.0000   0.0000   0.0000   0.3657
  20.600   0.9506   0.30254   0.30075  -0.1288  0.0068  1.0000  -1.8197   0.0000   0.0000   0.0000   0.3662
  20.700   0.9506   0.30493   0.30314  -0.1294  0.0068  1.0000  -1.8051   0.0000   0.0000   0.0000   0.3667
  20.800   0.9504   0.30728   0.30550  -0.1300  0.0068  1.0000  -1.7904   0.0000   0.0000   0.0000   0.3672
  20.900   0.9501   0.30959   0.30781  -0.1305  0.0068  1.0000  -1.7757   0.0000   0.0000   0.0000   0.3677
  21.000   0.9495   0.31186   0.31008  -0.1310  0.0068  1.0000  -1.7606   0.0000   0.0000   0.0000   0.3682
  21.100   0.9486   0.31406   0.31230  -0.1315  0.0068  1.0000  -1.7452   0.0000   0.0000   0.0000   0.3688
  21.200   0.9474   0.31619   0.31443  -0.1319  0.0068  1.0000  -1.7292   0.0000   0.0000   0.0000   0.3693
  21.300   0.9457   0.31822   0.31647  -0.1323  0.0068  1.0000  -1.7124   0.0000   0.0000   0.0000   0.3699
  21.400   0.9436   0.32012   0.31837  -0.1327  0.0068  1.0000  -1.6946   0.0000   0.0000   0.0000   0.3705
  21.500   0.9406   0.32182   0.32008  -0.1329  0.0068  1.0000  -1.6750   0.0000   0.0000   0.0000   0.3711
  21.600   0.8879   0.31071   0.30905  -0.1275  0.0068  1.0000  -1.5317   0.0000   0.0000   0.0000   0.3740
  21.700   0.8813   0.31034   0.30870  -0.1272  0.0068  1.0000  -1.5042   0.0000   0.0000   0.0000   0.3748
  21.800   0.8761   0.31027   0.30865  -0.1271  0.0068  1.0000  -1.4805   0.0000   0.0000   0.0000   0.3755
  21.900   0.8718   0.31036   0.30875  -0.1271  0.0068  1.0000  -1.4592   0.0000   0.0000   0.0000   0.3761
  22.000   0.8680   0.31056   0.30896  -0.1271  0.0068  1.0000  -1.4396   0.0000   0.0000   0.0000   0.3767
  22.100   0.8646   0.31083   0.30923  -0.1272  0.0068  1.0000  -1.4213   0.0000   0.0000   0.0000   0.3773
  22.200   0.8616   0.31115   0.30956  -0.1273  0.0068  1.0000  -1.4039   0.0000   0.0000   0.0000   0.3779
  22.300   0.8588   0.31151   0.30993  -0.1274  0.0068  1.0000  -1.3875   0.0000   0.0000   0.0000   0.3784
  22.400   0.8563   0.31191   0.31033  -0.1275  0.0068  1.0000  -1.3719   0.0000   0.0000   0.0000   0.3790
  22.500   0.8540   0.31234   0.31077  -0.1277  0.0068  1.0000  -1.3570   0.0000   0.0000   0.0000   0.3795
  22.600   0.8519   0.31279   0.31123  -0.1279  0.0068  1.0000  -1.3427   0.0000   0.0000   0.0000   0.3800
  22.700   0.8500   0.31327   0.31172  -0.1281  0.0068  1.0000  -1.3289   0.0000   0.0000   0.0000   0.3805
  22.800   0.8482   0.31377   0.31222  -0.1283  0.0068  1.0000  -1.3157   0.0000   0.0000   0.0000   0.3810
  22.900   0.8465   0.31428   0.31274  -0.1285  0.0068  1.0000  -1.3029   0.0000   0.0000   0.0000   0.3814
  23.000   0.8450   0.31481   0.31328  -0.1288  0.0068  1.0000  -1.2911   0.0000   0.0000   0.0000   0.3819
  23.100   0.8436   0.31535   0.31382  -0.1290  0.0068  1.0000  -1.2798   0.0000   0.0000   0.0000   0.3824
  23.200   0.8423   0.31590   0.31438  -0.1293  0.0068  1.0000  -1.2689   0.0000   0.0000   0.0000   0.3829
  23.300   0.8411   0.31646   0.31495  -0.1296  0.0067  1.0000  -1.2585   0.0000   0.0000   0.0000   0.3833
  23.400   0.8399   0.31703   0.31552  -0.1299  0.0067  1.0000  -1.2484   0.0000   0.0000   0.0000   0.3838
  23.500   0.8389   0.31761   0.31611  -0.1302  0.0067  1.0000  -1.2386   0.0000   0.0000   0.0000   0.3842
  23.600   0.8379   0.31819   0.31670  -0.1305  0.0067  1.0000  -1.2288   0.0000   0.0000   0.0000   0.3847
  23.700   0.8370   0.31879   0.31730  -0.1308  0.0067  1.0000  -1.2194   0.0000   0.0000   0.0000   0.3851
  23.800   0.8361   0.31939   0.31790  -0.1312  0.0067  1.0000  -1.2103   0.0000   0.0000   0.0000   0.3856
  23.900   0.8353   0.31999   0.31851  -0.1315  0.0067  1.0000  -1.2015   0.0000   0.0000   0.0000   0.3860
  24.000   0.8345   0.32061   0.31913  -0.1318  0.0067  1.0000  -1.1931   0.0000   0.0000   0.0000   0.3864
  24.100   0.8338   0.32122   0.31975  -0.1322  0.0067  1.0000  -1.1850   0.0000   0.0000   0.0000   0.3868
  24.200   0.8332   0.32184   0.32038  -0.1325  0.0067  1.0000  -1.1772   0.0000   0.0000   0.0000   0.3872
  24.300   0.8326   0.32247   0.32101  -0.1328  0.0066  1.0000  -1.1697   0.0000   0.0000   0.0000   0.3876
  24.400   0.8321   0.32310   0.32164  -0.1332  0.0066  1.0000  -1.1626   0.0000   0.0000   0.0000   0.3880
  24.500   0.8316   0.32373   0.32228  -0.1335  0.0066  1.0000  -1.1557   0.0000   0.0000   0.0000   0.3884
  24.600   0.8311   0.32437   0.32292  -0.1339  0.0066  1.0000  -1.1493   0.0000   0.0000   0.0000   0.3888
  24.700   0.8308   0.32500   0.32359  -0.1343  0.0066  1.0000  -1.1451   0.0000   0.0000   0.0000   0.3892
  24.800   0.8305   0.32564   0.32424  -0.1347  0.0065  1.0000  -1.1400   0.0000   0.0000   0.0000   0.3896
  24.900   0.8303   0.32630   0.32490  -0.1350  0.0065  1.0000  -1.1341   0.0000   0.0000   0.0000   0.3900
  25.000   0.8300   0.32697   0.32557  -0.1355  0.0065  1.0000  -1.1280   0.0000   0.0000   0.0000   0.3903
  25.100   0.8299   0.32764   0.32625  -0.1359  0.0064  1.0000  -1.1223   0.0000   0.0000   0.0000   0.3907
  25.200   0.8298   0.32833   0.32694  -0.1363  0.0064  1.0000  -1.1171   0.0000   0.0000   0.0000   0.3911
  25.300   0.8299   0.32903   0.32765  -0.1367  0.0063  1.0000  -1.1123   0.0000   0.0000   0.0000   0.3915
  25.400   0.8302   0.32976   0.32839  -0.1372  0.0062  1.0000  -1.1079   0.0000   0.0000   0.0000   0.3918
  25.500   0.8306   0.33053   0.32916  -0.1377  0.0061  1.0000  -1.1034   0.0000   0.0000   0.0000   0.3922
  25.600   0.8313   0.33136   0.32999  -0.1381  0.0058  1.0000  -1.0976   0.0000   0.0000   0.0000   0.3925
  25.700   0.8319   0.33219   0.33083  -0.1386  0.0055  1.0000  -1.0900   0.0000   0.0000   0.0000   0.3927
  25.800   0.8322   0.33297   0.33161  -0.1390  0.0052  1.0000  -1.0830   0.0000   0.0000   0.0000   0.3930
  25.900   0.8322   0.33370   0.33235  -0.1394  0.0049  1.0000  -1.0778   0.0000   0.0000   0.0000   0.3933
  26.000   0.8321   0.33440   0.33305  -0.1397  0.0046  1.0000  -1.0740   0.0000   0.0000   0.0000   0.3937
  26.100   0.8320   0.33508   0.33373  -0.1401  0.0044  1.0000  -1.0713   0.0000   0.0000   0.0000   0.3940
  26.200   0.8318   0.33575   0.33441  -0.1405  0.0042  1.0000  -1.0695   0.0000   0.0000   0.0000   0.3943
  26.300   0.8316   0.33641   0.33507  -0.1408  0.0040  1.0000  -1.0684   0.0000   0.0000   0.0000   0.3946
  26.400   0.8315   0.33707   0.33574  -0.1412  0.0038  1.0000  -1.0680   0.0000   0.0000   0.0000   0.3949
  26.500   0.8313   0.33772   0.33639  -0.1416  0.0036  1.0000  -1.0681   0.0000   0.0000   0.0000   0.3953
  26.600   0.8312   0.33837   0.33705  -0.1420  0.0035  1.0000  -1.0688   0.0000   0.0000   0.0000   0.3956


