xflr5 v6.61

 Calculated polar for: SD7003-085-88

 1 1 Reynolds number fixed          Mach number fixed         

 xtrf =   1.000 (top)        1.000 (bottom)
 Mach =   0.000     Re =     0.500 e 6     Ncrit =   9.000

  alpha     CL        CD       CDp       Cm    Top Xtr Bot Xtr   Cpmin    Chinge    XCp    
 ------- -------- --------- --------- -------- ------- ------- -------- --------- ---------
 -10.000  -0.5349   0.10897   0.10652   0.0051  1.0000  0.0190  -1.8732   0.0000   0.0000   0.0000   0.2542
  -9.900  -0.5339   0.10736   0.10492   0.0044  1.0000  0.0192  -1.8830   0.0000   0.0000   0.0000   0.2529
  -9.800  -0.5329   0.10574   0.10331   0.0036  1.0000  0.0193  -1.8939   0.0000   0.0000   0.0000   0.2516
  -9.700  -0.5321   0.10410   0.10168   0.0029  1.0000  0.0194  -1.9058   0.0000   0.0000   0.0000   0.2502
  -9.600  -0.5314   0.10245   0.10003   0.0021  1.0000  0.0196  -1.9189   0.0000   0.0000   0.0000   0.2488
  -9.500  -0.5308   0.10079   0.09838   0.0013  1.0000  0.0197  -1.9331   0.0000   0.0000   0.0000   0.2474
  -9.400  -0.5303   0.09911   0.09670   0.0005  1.0000  0.0198  -1.9486   0.0000   0.0000   0.0000   0.2459
  -9.300  -0.5299   0.09741   0.09502  -0.0004  1.0000  0.0199  -1.9652   0.0000   0.0000   0.0000   0.2444
  -9.200  -0.5298   0.09571   0.09332  -0.0012  1.0000  0.0200  -1.9833   0.0000   0.0000   0.0000   0.2428
  -9.100  -0.5298   0.09399   0.09162  -0.0021  1.0000  0.0201  -2.0027   0.0000   0.0000   0.0000   0.2412
  -9.000  -0.5299   0.09227   0.08990  -0.0030  1.0000  0.0202  -2.0237   0.0000   0.0000   0.0000   0.2396
  -8.900  -0.5302   0.09051   0.08815  -0.0039  1.0000  0.0203  -2.0461   0.0000   0.0000   0.0000   0.2379
  -8.800  -0.5305   0.08869   0.08634  -0.0049  1.0000  0.0204  -2.0700   0.0000   0.0000   0.0000   0.2361
  -8.700  -0.5310   0.08686   0.08452  -0.0059  1.0000  0.0204  -2.0955   0.0000   0.0000   0.0000   0.2342
  -8.600  -0.5317   0.08499   0.08266  -0.0070  1.0000  0.0205  -2.1229   0.0000   0.0000   0.0000   0.2323
  -7.100  -0.5618   0.03835   0.03527  -0.0376  1.0000  0.0133  -3.6172   0.0000   0.0000   0.0000   0.1786
  -7.000  -0.5696   0.03289   0.02943  -0.0382  1.0000  0.0126  -3.8963   0.0000   0.0000   0.0000   0.1784
  -6.900  -0.5700   0.02936   0.02558  -0.0381  1.0000  0.0120  -4.0466   0.0000   0.0000   0.0000   0.1786
  -6.800  -0.5678   0.02648   0.02241  -0.0377  1.0000  0.0115  -4.1543   0.0000   0.0000   0.0000   0.1789
  -6.700  -0.5637   0.02403   0.01968  -0.0372  1.0000  0.0110  -4.2346   0.0000   0.0000   0.0000   0.1793
  -6.600  -0.5583   0.02192   0.01731  -0.0366  1.0000  0.0106  -4.2926   0.0000   0.0000   0.0000   0.1797
  -6.500  -0.5520   0.02008   0.01523  -0.0360  1.0000  0.0103  -4.3313   0.0000   0.0000   0.0000   0.1800
  -6.400  -0.5448   0.01848   0.01340  -0.0355  1.0000  0.0099  -4.3519   0.0000   0.0000   0.0000   0.1802
  -6.300  -0.5370   0.01714   0.01186  -0.0349  1.0000  0.0097  -4.3511   0.0000   0.0000   0.0000   0.1804
  -6.200  -0.5288   0.01603   0.01058  -0.0343  1.0000  0.0095  -4.3313   0.0000   0.0000   0.0000   0.1804
  -6.100  -0.5202   0.01509   0.00949  -0.0338  1.0000  0.0093  -4.2967   0.0000   0.0000   0.0000   0.1804
  -6.000  -0.5114   0.01430   0.00857  -0.0333  1.0000  0.0092  -4.2486   0.0000   0.0000   0.0000   0.1803
  -5.900  -0.5025   0.01362   0.00779  -0.0328  1.0000  0.0092  -4.1892   0.0000   0.0000   0.0000   0.1802
  -5.800  -0.4933   0.01305   0.00712  -0.0324  1.0000  0.0091  -4.1199   0.0000   0.0000   0.0000   0.1799
  -5.700  -0.4840   0.01256   0.00654  -0.0320  1.0000  0.0092  -4.0418   0.0000   0.0000   0.0000   0.1796
  -5.600  -0.4745   0.01214   0.00604  -0.0316  1.0000  0.0092  -3.9559   0.0000   0.0000   0.0000   0.1791
  -5.500  -0.4649   0.01178   0.00561  -0.0312  1.0000  0.0094  -3.8629   0.0000   0.0000   0.0000   0.1786
  -5.400  -0.4552   0.01147   0.00524  -0.0309  1.0000  0.0095  -3.7633   0.0000   0.0000   0.0000   0.1780
  -5.300  -0.4454   0.01119   0.00490  -0.0305  1.0000  0.0098  -3.6648   0.0000   0.0000   0.0000   0.1773
  -5.200  -0.4355   0.01095   0.00461  -0.0302  1.0000  0.0102  -3.5739   0.0000   0.0000   0.0000   0.1765
  -5.100  -0.4257   0.01075   0.00437  -0.0299  1.0000  0.0107  -3.4790   0.0000   0.0000   0.0000   0.1757
  -5.000  -0.4157   0.01057   0.00416  -0.0296  1.0000  0.0113  -3.3781   0.0000   0.0000   0.0000   0.1748
  -4.900  -0.4058   0.01045   0.00400  -0.0293  1.0000  0.0115  -3.2630   0.0000   0.0000   0.0000   0.1738
  -4.800  -0.3959   0.01038   0.00379  -0.0290  1.0000  0.0104  -3.2263   0.0000   0.0000   0.0000   0.1727
  -4.700  -0.3860   0.01024   0.00363  -0.0288  1.0000  0.0110  -3.1168   0.0000   0.0000   0.0000   0.1716
  -4.600  -0.3762   0.01011   0.00349  -0.0285  1.0000  0.0117  -3.0111   0.0000   0.0000   0.0000   0.1705
  -4.500  -0.3663   0.01000   0.00337  -0.0282  1.0000  0.0125  -2.9116   0.0000   0.0000   0.0000   0.1693
  -4.400  -0.3564   0.00990   0.00327  -0.0279  1.0000  0.0134  -2.8187   0.0000   0.0000   0.0000   0.1680
  -4.300  -0.3466   0.00980   0.00318  -0.0276  1.0000  0.0155  -2.7338   0.0000   0.0000   0.0000   0.1666
  -4.200  -0.3369   0.00965   0.00308  -0.0274  1.0000  0.0204  -2.6524   0.0000   0.0000   0.0000   0.1651
  -4.100  -0.3272   0.00951   0.00299  -0.0271  1.0000  0.0256  -2.5724   0.0000   0.0000   0.0000   0.1635
  -4.000  -0.3176   0.00940   0.00292  -0.0269  1.0000  0.0310  -2.4949   0.0000   0.0000   0.0000   0.1618
  -3.900  -0.3079   0.00926   0.00285  -0.0267  1.0000  0.0379  -2.4188   0.0000   0.0000   0.0000   0.1599
  -3.800  -0.2949   0.00916   0.00279  -0.0271  0.9992  0.0436  -2.3320   0.0000   0.0000   0.0000   0.1546
  -3.700  -0.2791   0.00909   0.00274  -0.0281  0.9976  0.0467  -2.2370   0.0000   0.0000   0.0000   0.1457
  -3.600  -0.2632   0.00903   0.00268  -0.0291  0.9960  0.0492  -2.1448   0.0000   0.0000   0.0000   0.1358
  -3.500  -0.2475   0.00894   0.00262  -0.0301  0.9939  0.0544  -2.0554   0.0000   0.0000   0.0000   0.1248
  -3.400  -0.2315   0.00883   0.00256  -0.0311  0.9918  0.0596  -1.9663   0.0000   0.0000   0.0000   0.1119
  -3.300  -0.2153   0.00874   0.00250  -0.0322  0.9899  0.0645  -1.8779   0.0000   0.0000   0.0000   0.0967
  -3.200  -0.1990   0.00867   0.00245  -0.0333  0.9882  0.0687  -1.7906   0.0000   0.0000   0.0000   0.0788
  -3.100  -0.1839   0.00860   0.00239  -0.0341  0.9861  0.0717  -1.7087   0.0000   0.0000   0.0000   0.0605
  -3.000  -0.1697   0.00851   0.00233  -0.0348  0.9832  0.0795  -1.6315   0.0000   0.0000   0.0000   0.0412
  -2.900  -0.1548   0.00839   0.00228  -0.0356  0.9803  0.0882  -1.5528   0.0000   0.0000   0.0000   0.0160
  -2.800  -0.1391   0.00828   0.00222  -0.0366  0.9776  0.0975  -1.4730   0.0000   0.0000   0.0000  -0.0170
  -2.700  -0.1231   0.00808   0.00216  -0.0377  0.9751  0.1222  -1.3935   0.0000   0.0000   0.0000  -0.0606
  -2.600  -0.1072   0.00783   0.00210  -0.0388  0.9727  0.1596  -1.3157   0.0000   0.0000   0.0000  -0.1170
  -2.500  -0.0956   0.00757   0.00204  -0.0390  0.9670  0.2017  -1.2513   0.0000   0.0000   0.0000  -0.1635
  -2.400  -0.0828   0.00731   0.00199  -0.0395  0.9617  0.2498  -1.1842   0.0000   0.0000   0.0000  -0.2330
  -2.300  -0.0688   0.00708   0.00195  -0.0402  0.9572  0.2953  -1.1148   0.0000   0.0000   0.0000  -0.3408
  -2.200  -0.0539   0.00692   0.00190  -0.0410  0.9531  0.3259  -1.0434   0.0000   0.0000   0.0000  -0.5185
  -2.100  -0.0415   0.00679   0.00186  -0.0413  0.9465  0.3517  -0.9789   0.0000   0.0000   0.0000  -0.7519
  -2.000  -0.0289   0.00661   0.00182  -0.0416  0.9386  0.3867  -0.9111   0.0000   0.0000   0.0000  -1.2016
  -1.900  -0.0154   0.00640   0.00173  -0.0421  0.9308  0.4348  -0.8312   0.0000   0.0000   0.0000  -2.5030
  -1.800  -0.0027   0.00629   0.00168  -0.0423  0.9221  0.4630  -0.7919   0.0000   0.0000   0.0000  -15.3081
  -1.700   0.0085   0.00615   0.00165  -0.0422  0.9113  0.4971  -0.7554   0.0000   0.0000   0.0000   5.2735
  -1.600   0.0200   0.00605   0.00161  -0.0422  0.9008  0.5265  -0.7186   0.0000   0.0000   0.0000   2.3658
  -1.500   0.0309   0.00595   0.00159  -0.0420  0.8912  0.5572  -0.6833   0.0000   0.0000   0.0000   1.6165
  -1.400   0.0412   0.00586   0.00157  -0.0417  0.8804  0.5860  -0.6493   0.0000   0.0000   0.0000   1.2673
  -1.300   0.0516   0.00580   0.00155  -0.0414  0.8687  0.6130  -0.6182   0.0000   0.0000   0.0000   1.0553
  -1.200   0.0615   0.00573   0.00154  -0.0410  0.8577  0.6424  -0.5931   0.0000   0.0000   0.0000   0.9180
  -1.100   0.0717   0.00569   0.00154  -0.0406  0.8457  0.6686  -0.5679   0.0000   0.0000   0.0000   0.8179
  -1.000   0.0812   0.00563   0.00154  -0.0401  0.8325  0.6969  -0.5436   0.0000   0.0000   0.0000   0.7447
  -0.900   0.0912   0.00564   0.00153  -0.0397  0.8201  0.7178  -0.5189   0.0000   0.0000   0.0000   0.6854
  -0.800   0.1010   0.00559   0.00153  -0.0392  0.8089  0.7389  -0.4946   0.0000   0.0000   0.0000   0.6385
  -0.700   0.1110   0.00559   0.00153  -0.0388  0.7967  0.7566  -0.4702   0.0000   0.0000   0.0000   0.5995
  -0.600   0.1210   0.00561   0.00152  -0.0384  0.7850  0.7708  -0.4461   0.0000   0.0000   0.0000   0.5671
  -0.500   0.1307   0.00558   0.00153  -0.0379  0.7753  0.7892  -0.4435   0.0000   0.0000   0.0000   0.5397
  -0.400   0.1408   0.00558   0.00153  -0.0375  0.7651  0.8060  -0.4548   0.0000   0.0000   0.0000   0.5160
  -0.300   0.1504   0.00558   0.00153  -0.0370  0.7531  0.8209  -0.4659   0.0000   0.0000   0.0000   0.4954
  -0.200   0.1595   0.00560   0.00154  -0.0364  0.7399  0.8371  -0.4785   0.0000   0.0000   0.0000   0.4772
  -0.100   0.1696   0.00562   0.00154  -0.0360  0.7292  0.8507  -0.4919   0.0000   0.0000   0.0000   0.4613
   0.000   0.1789   0.00561   0.00154  -0.0354  0.7184  0.8643  -0.5049   0.0000   0.0000   0.0000   0.4469
   0.100   0.1883   0.00563   0.00154  -0.0348  0.7063  0.8778  -0.5180   0.0000   0.0000   0.0000   0.4339
   0.200   0.1979   0.00568   0.00154  -0.0344  0.6941  0.8893  -0.5313   0.0000   0.0000   0.0000   0.4224
   0.300   0.2071   0.00568   0.00154  -0.0337  0.6842  0.9018  -0.5443   0.0000   0.0000   0.0000   0.4116
   0.400   0.2168   0.00568   0.00154  -0.0332  0.6761  0.9154  -0.5577   0.0000   0.0000   0.0000   0.4020
   0.500   0.2268   0.00569   0.00154  -0.0328  0.6663  0.9277  -0.5714   0.0000   0.0000   0.0000   0.3933
   0.600   0.2374   0.00571   0.00153  -0.0325  0.6549  0.9408  -0.5856   0.0000   0.0000   0.0000   0.3855
   0.700   0.2489   0.00577   0.00152  -0.0325  0.6413  0.9531  -0.6029   0.0000   0.0000   0.0000   0.3788
   0.800   0.2631   0.00579   0.00151  -0.0330  0.6309  0.9646  -0.6229   0.0000   0.0000   0.0000   0.3738
   0.900   0.2780   0.00581   0.00150  -0.0337  0.6188  0.9750  -0.6435   0.0000   0.0000   0.0000   0.3697
   1.000   0.2934   0.00587   0.00148  -0.0346  0.6043  0.9843  -0.6647   0.0000   0.0000   0.0000   0.3662
   1.100   0.3088   0.00595   0.00147  -0.0355  0.5885  0.9930  -0.6859   0.0000   0.0000   0.0000   0.3632
   1.200   0.3232   0.00597   0.00147  -0.0362  0.5802  1.0000  -0.7064   0.0000   0.0000   0.0000   0.3602
   1.300   0.3337   0.00601   0.00148  -0.0361  0.5713  1.0000  -0.7236   0.0000   0.0000   0.0000   0.3563
   1.400   0.3441   0.00607   0.00151  -0.0360  0.5611  1.0000  -0.7409   0.0000   0.0000   0.0000   0.3525
   1.500   0.3544   0.00615   0.00151  -0.0358  0.5493  1.0000  -0.7581   0.0000   0.0000   0.0000   0.3489
   1.600   0.3646   0.00624   0.00153  -0.0356  0.5350  1.0000  -0.7753   0.0000   0.0000   0.0000   0.3455
   1.700   0.3754   0.00628   0.00154  -0.0355  0.5275  1.0000  -0.7933   0.0000   0.0000   0.0000   0.3425
   1.800   0.3861   0.00634   0.00155  -0.0354  0.5168  1.0000  -0.8149   0.0000   0.0000   0.0000   0.3395
   1.900   0.3966   0.00642   0.00156  -0.0353  0.5042  1.0000  -0.8365   0.0000   0.0000   0.0000   0.3367
   2.000   0.4069   0.00652   0.00159  -0.0351  0.4901  1.0000  -0.8579   0.0000   0.0000   0.0000   0.3340
   2.100   0.4177   0.00658   0.00161  -0.0350  0.4805  1.0000  -0.8800   0.0000   0.0000   0.0000   0.3315
   2.200   0.4286   0.00663   0.00164  -0.0350  0.4734  1.0000  -0.9024   0.0000   0.0000   0.0000   0.3292
   2.300   0.4394   0.00669   0.00166  -0.0349  0.4643  1.0000  -0.9247   0.0000   0.0000   0.0000   0.3269
   2.400   0.4501   0.00677   0.00168  -0.0348  0.4538  1.0000  -0.9471   0.0000   0.0000   0.0000   0.3248
   2.500   0.4606   0.00687   0.00172  -0.0347  0.4413  1.0000  -0.9693   0.0000   0.0000   0.0000   0.3227
   2.600   0.4713   0.00695   0.00175  -0.0346  0.4304  1.0000  -0.9918   0.0000   0.0000   0.0000   0.3207
   2.700   0.4822   0.00700   0.00179  -0.0345  0.4227  1.0000  -1.0199   0.0000   0.0000   0.0000   0.3189
   2.800   0.4930   0.00708   0.00182  -0.0345  0.4122  1.0000  -1.0480   0.0000   0.0000   0.0000   0.3171
   2.900   0.5035   0.00719   0.00185  -0.0344  0.3998  1.0000  -1.0759   0.0000   0.0000   0.0000   0.3154
   3.000   0.5140   0.00731   0.00190  -0.0342  0.3854  1.0000  -1.1038   0.0000   0.0000   0.0000   0.3137
   3.100   0.5249   0.00736   0.00194  -0.0342  0.3785  1.0000  -1.1326   0.0000   0.0000   0.0000   0.3122
   3.200   0.5359   0.00742   0.00198  -0.0341  0.3716  1.0000  -1.1615   0.0000   0.0000   0.0000   0.3107
   3.300   0.5467   0.00750   0.00203  -0.0341  0.3628  1.0000  -1.1905   0.0000   0.0000   0.0000   0.3092
   3.400   0.5573   0.00761   0.00207  -0.0340  0.3526  1.0000  -1.2194   0.0000   0.0000   0.0000   0.3078
   3.500   0.5678   0.00773   0.00213  -0.0339  0.3404  1.0000  -1.2482   0.0000   0.0000   0.0000   0.3064
   3.600   0.5786   0.00781   0.00219  -0.0338  0.3320  1.0000  -1.2776   0.0000   0.0000   0.0000   0.3051
   3.700   0.5896   0.00787   0.00224  -0.0338  0.3263  1.0000  -1.3075   0.0000   0.0000   0.0000   0.3039
   3.800   0.6004   0.00795   0.00229  -0.0337  0.3183  1.0000  -1.3373   0.0000   0.0000   0.0000   0.3027
   3.900   0.6110   0.00806   0.00235  -0.0336  0.3081  1.0000  -1.3670   0.0000   0.0000   0.0000   0.3015
   4.000   0.6214   0.00821   0.00242  -0.0335  0.2947  1.0000  -1.3965   0.0000   0.0000   0.0000   0.3003
   4.100   0.6322   0.00830   0.00249  -0.0335  0.2853  1.0000  -1.4341   0.0000   0.0000   0.0000   0.2992
   4.200   0.6430   0.00837   0.00255  -0.0334  0.2788  1.0000  -1.4737   0.0000   0.0000   0.0000   0.2982
   4.300   0.6537   0.00847   0.00261  -0.0333  0.2707  1.0000  -1.5131   0.0000   0.0000   0.0000   0.2972
   4.400   0.6643   0.00859   0.00268  -0.0333  0.2617  1.0000  -1.5525   0.0000   0.0000   0.0000   0.2961
   4.500   0.6747   0.00874   0.00276  -0.0332  0.2506  1.0000  -1.5922   0.0000   0.0000   0.0000   0.2952
   4.600   0.6855   0.00884   0.00285  -0.0331  0.2423  1.0000  -1.6450   0.0000   0.0000   0.0000   0.2942
   4.700   0.6964   0.00891   0.00292  -0.0330  0.2375  1.0000  -1.6991   0.0000   0.0000   0.0000   0.2933
   4.800   0.7070   0.00901   0.00300  -0.0330  0.2303  1.0000  -1.7532   0.0000   0.0000   0.0000   0.2924
   4.900   0.7176   0.00915   0.00325  -0.0329  0.2226  1.0000  -1.7837   0.0000   0.0000   0.0000   0.2915
   5.000   0.7280   0.00931   0.00336  -0.0328  0.2124  1.0000  -1.8282   0.0000   0.0000   0.0000   0.2906
   5.100   0.7384   0.00945   0.00347  -0.0327  0.2016  1.0000  -1.8907   0.0000   0.0000   0.0000   0.2897
   5.200   0.7493   0.00952   0.00355  -0.0326  0.1966  1.0000  -1.9759   0.0000   0.0000   0.0000   0.2890
   5.300   0.7598   0.00965   0.00363  -0.0326  0.1884  1.0000  -2.0601   0.0000   0.0000   0.0000   0.2882
   5.400   0.7700   0.00982   0.00373  -0.0325  0.1786  1.0000  -2.1435   0.0000   0.0000   0.0000   0.2874
   5.500   0.7803   0.01000   0.00384  -0.0324  0.1672  1.0000  -2.2273   0.0000   0.0000   0.0000   0.2866
   5.600   0.7910   0.01009   0.00395  -0.0323  0.1627  1.0000  -2.3144   0.0000   0.0000   0.0000   0.2859
   5.700   0.8017   0.01018   0.00404  -0.0322  0.1591  1.0000  -2.4027   0.0000   0.0000   0.0000   0.2851
   5.800   0.8123   0.01029   0.00415  -0.0322  0.1541  1.0000  -2.4913   0.0000   0.0000   0.0000   0.2844
   5.900   0.8227   0.01044   0.00426  -0.0321  0.1482  1.0000  -2.5799   0.0000   0.0000   0.0000   0.2837
   6.000   0.8330   0.01061   0.00437  -0.0320  0.1411  1.0000  -2.6685   0.0000   0.0000   0.0000   0.2830
   6.100   0.8432   0.01079   0.00452  -0.0318  0.1323  1.0000  -2.7573   0.0000   0.0000   0.0000   0.2823
   6.200   0.8538   0.01090   0.00464  -0.0318  0.1288  1.0000  -2.8495   0.0000   0.0000   0.0000   0.2817
   6.300   0.8645   0.01099   0.00475  -0.0317  0.1262  1.0000  -2.9439   0.0000   0.0000   0.0000   0.2810
   6.400   0.8751   0.01111   0.00487  -0.0316  0.1225  1.0000  -3.0383   0.0000   0.0000   0.0000   0.2804
   6.500   0.8854   0.01125   0.00500  -0.0315  0.1178  1.0000  -3.1328   0.0000   0.0000   0.0000   0.2798
   6.600   0.8956   0.01144   0.00513  -0.0314  0.1123  1.0000  -3.2269   0.0000   0.0000   0.0000   0.2791
   6.700   0.9056   0.01165   0.00530  -0.0313  0.1050  1.0000  -3.3204   0.0000   0.0000   0.0000   0.2785
   6.800   0.9157   0.01185   0.00549  -0.0311  0.0989  1.0000  -3.4144   0.0000   0.0000   0.0000   0.2778
   6.900   0.9264   0.01192   0.00559  -0.0311  0.0970  1.0000  -3.5160   0.0000   0.0000   0.0000   0.2773
   7.000   0.9369   0.01203   0.00570  -0.0310  0.0935  1.0000  -3.6173   0.0000   0.0000   0.0000   0.2767
   7.100   0.9470   0.01220   0.00583  -0.0309  0.0883  1.0000  -3.7177   0.0000   0.0000   0.0000   0.2762
   7.200   0.9568   0.01244   0.00599  -0.0308  0.0814  1.0000  -3.8164   0.0000   0.0000   0.0000   0.2756
   7.300   0.9663   0.01272   0.00623  -0.0306  0.0725  1.0000  -3.9119   0.0000   0.0000   0.0000   0.2750
   7.400   0.9770   0.01279   0.00631  -0.0306  0.0705  1.0000  -4.0197   0.0000   0.0000   0.0000   0.2745
   7.500   0.9872   0.01293   0.00644  -0.0305  0.0668  1.0000  -4.1257   0.0000   0.0000   0.0000   0.2739
   7.600   0.9970   0.01314   0.00659  -0.0304  0.0614  1.0000  -4.2299   0.0000   0.0000   0.0000   0.2734
   7.700   1.0065   0.01341   0.00679  -0.0302  0.0550  1.0000  -4.3319   0.0000   0.0000   0.0000   0.2729
   7.800   1.0163   0.01364   0.00700  -0.0301  0.0495  1.0000  -4.4346   0.0000   0.0000   0.0000   0.2723
   7.900   1.0265   0.01377   0.00715  -0.0300  0.0477  1.0000  -4.5447   0.0000   0.0000   0.0000   0.2718
   8.000   1.0360   0.01410   0.00768  -0.0296  0.0494  1.0000  -4.6100   0.0000   0.0000   0.0000   0.2710
   8.100   1.0462   0.01425   0.00787  -0.0295  0.0486  1.0000  -4.7121   0.0000   0.0000   0.0000   0.2705
   8.200   1.0565   0.01437   0.00800  -0.0294  0.0470  1.0000  -4.8224   0.0000   0.0000   0.0000   0.2700
   8.300   1.0666   0.01452   0.00815  -0.0293  0.0444  1.0000  -4.9338   0.0000   0.0000   0.0000   0.2696
   8.400   1.0763   0.01473   0.00832  -0.0292  0.0411  1.0000  -5.0441   0.0000   0.0000   0.0000   0.2691
   8.500   1.0855   0.01502   0.00855  -0.0290  0.0372  1.0000  -5.1503   0.0000   0.0000   0.0000   0.2686
   8.600   1.0942   0.01542   0.00895  -0.0287  0.0324  1.0000  -5.2441   0.0000   0.0000   0.0000   0.2680
   8.700   1.1039   0.01561   0.00916  -0.0285  0.0309  1.0000  -5.3554   0.0000   0.0000   0.0000   0.2675
   8.800   1.1141   0.01573   0.00930  -0.0285  0.0302  1.0000  -5.4751   0.0000   0.0000   0.0000   0.2670
   8.900   1.1240   0.01589   0.00948  -0.0283  0.0292  1.0000  -5.5908   0.0000   0.0000   0.0000   0.2666
   9.000   1.1338   0.01608   0.00970  -0.0282  0.0281  1.0000  -5.7040   0.0000   0.0000   0.0000   0.2661
   9.100   1.1433   0.01630   0.00993  -0.0280  0.0268  1.0000  -5.8162   0.0000   0.0000   0.0000   0.2656
   9.200   1.1527   0.01653   0.01017  -0.0278  0.0254  1.0000  -5.9277   0.0000   0.0000   0.0000   0.2651
   9.300   1.1619   0.01680   0.01043  -0.0276  0.0239  1.0000  -6.0381   0.0000   0.0000   0.0000   0.2646
   9.400   1.1709   0.01709   0.01072  -0.0274  0.0223  1.0000  -6.1452   0.0000   0.0000   0.0000   0.2641
   9.500   1.1794   0.01749   0.01113  -0.0271  0.0200  1.0000  -6.2384   0.0000   0.0000   0.0000   0.2635
   9.600   1.1868   0.01805   0.01176  -0.0266  0.0167  1.0000  -6.2942   0.0000   0.0000   0.0000   0.2628
   9.700   1.1970   0.01812   0.01184  -0.0266  0.0157  1.0000  -6.4157   0.0000   0.0000   0.0000   0.2625
   9.800   1.2043   0.01869   0.01243  -0.0261  0.0124  1.0000  -6.4394   0.0000   0.0000   0.0000   0.2618
   9.900   1.2121   0.01916   0.01293  -0.0257  0.0115  1.0000  -6.5098   0.0000   0.0000   0.0000   0.2612
  10.000   1.2198   0.01962   0.01344  -0.0253  0.0109  1.0000  -6.5869   0.0000   0.0000   0.0000   0.2606
  10.100   1.2274   0.02009   0.01396  -0.0249  0.0104  1.0000  -6.6650   0.0000   0.0000   0.0000   0.2600
  10.200   1.2348   0.02059   0.01452  -0.0244  0.0100  1.0000  -6.7423   0.0000   0.0000   0.0000   0.2594
  10.300   1.2418   0.02111   0.01510  -0.0240  0.0097  1.0000  -6.8186   0.0000   0.0000   0.0000   0.2587
  10.400   1.2485   0.02165   0.01572  -0.0235  0.0093  1.0000  -6.8935   0.0000   0.0000   0.0000   0.2581
  10.500   1.2549   0.02223   0.01637  -0.0230  0.0091  1.0000  -6.9664   0.0000   0.0000   0.0000   0.2575
  10.600   1.2609   0.02284   0.01706  -0.0224  0.0088  1.0000  -7.0369   0.0000   0.0000   0.0000   0.2568
  10.700   1.2664   0.02350   0.01780  -0.0218  0.0086  1.0000  -7.1035   0.0000   0.0000   0.0000   0.2561
  10.800   1.2713   0.02421   0.01860  -0.0212  0.0083  1.0000  -7.1658   0.0000   0.0000   0.0000   0.2554
  10.900   1.2755   0.02498   0.01946  -0.0205  0.0081  1.0000  -7.2224   0.0000   0.0000   0.0000   0.2547
  11.000   1.2790   0.02583   0.02041  -0.0197  0.0079  1.0000  -7.2720   0.0000   0.0000   0.0000   0.2539
  11.100   1.2816   0.02676   0.02145  -0.0189  0.0077  1.0000  -7.3133   0.0000   0.0000   0.0000   0.2531
  11.200   1.2830   0.02779   0.02259  -0.0180  0.0075  1.0000  -7.3448   0.0000   0.0000   0.0000   0.2522
  11.300   1.2832   0.02893   0.02385  -0.0170  0.0074  1.0000  -7.3649   0.0000   0.0000   0.0000   0.2513
  11.400   1.2820   0.03018   0.02524  -0.0159  0.0072  1.0000  -7.3725   0.0000   0.0000   0.0000   0.2504
  11.500   1.2791   0.03155   0.02674  -0.0147  0.0071  1.0000  -7.3673   0.0000   0.0000   0.0000   0.2493
  11.600   1.2740   0.03287   0.02819  -0.0133  0.0070  1.0000  -7.3520   0.0000   0.0000   0.0000   0.2481
  11.700   1.2698   0.03401   0.02941  -0.0120  0.0069  1.0000  -7.3565   0.0000   0.0000   0.0000   0.2470
  11.800   1.2783   0.03392   0.02930  -0.0117  0.0069  1.0000  -7.5247   0.0000   0.0000   0.0000   0.2466
  11.900   1.2866   0.03385   0.02923  -0.0115  0.0068  1.0000  -7.6925   0.0000   0.0000   0.0000   0.2462
  12.000   1.2948   0.03381   0.02917  -0.0113  0.0068  1.0000  -7.8606   0.0000   0.0000   0.0000   0.2458
  12.100   1.3568   0.02901   0.02393  -0.0162  0.0062  1.0000  -8.8905   0.0000   0.0000   0.0000   0.2487
  12.200   1.3647   0.02916   0.02409  -0.0159  0.0060  1.0000  -9.0641   0.0000   0.0000   0.0000   0.2482
  12.300   1.3715   0.02940   0.02433  -0.0156  0.0058  1.0000  -9.2239   0.0000   0.0000   0.0000   0.2478
  12.400   1.3770   0.02969   0.02464  -0.0151  0.0057  1.0000  -9.3694   0.0000   0.0000   0.0000   0.2472
  12.500   1.3817   0.03003   0.02501  -0.0145  0.0055  1.0000  -9.5059   0.0000   0.0000   0.0000   0.2465
  12.600   1.3856   0.03041   0.02542  -0.0138  0.0054  1.0000  -9.6348   0.0000   0.0000   0.0000   0.2459
  12.700   1.3888   0.03084   0.02588  -0.0131  0.0052  1.0000  -9.7567   0.0000   0.0000   0.0000   0.2451
  12.800   1.3914   0.03132   0.02639  -0.0123  0.0051  1.0000  -9.8724   0.0000   0.0000   0.0000   0.2444
  12.900   1.3934   0.03185   0.02696  -0.0116  0.0049  1.0000  -9.9817   0.0000   0.0000   0.0000   0.2437
  13.000   1.3948   0.03244   0.02759  -0.0109  0.0048  1.0000  -10.0855   0.0000   0.0000   0.0000   0.2431
  13.100   1.3957   0.03309   0.02829  -0.0103  0.0046  1.0000  -10.1846   0.0000   0.0000   0.0000   0.2425
  13.200   1.3960   0.03380   0.02905  -0.0097  0.0045  1.0000  -10.2766   0.0000   0.0000   0.0000   0.2419
  13.300   1.3958   0.03460   0.02989  -0.0092  0.0044  1.0000  -10.3633   0.0000   0.0000   0.0000   0.2413
  13.400   1.3953   0.03547   0.03081  -0.0089  0.0043  1.0000  -10.4459   0.0000   0.0000   0.0000   0.2409
  13.500   1.3943   0.03644   0.03184  -0.0086  0.0042  1.0000  -10.5216   0.0000   0.0000   0.0000   0.2405
  13.600   1.3930   0.03751   0.03296  -0.0085  0.0041  1.0000  -10.5930   0.0000   0.0000   0.0000   0.2403
  13.700   1.3911   0.03870   0.03421  -0.0085  0.0040  1.0000  -10.6560   0.0000   0.0000   0.0000   0.2401
  13.800   1.3887   0.04000   0.03557  -0.0087  0.0039  1.0000  -10.7118   0.0000   0.0000   0.0000   0.2401
  13.900   1.3856   0.04141   0.03704  -0.0090  0.0039  1.0000  -10.7580   0.0000   0.0000   0.0000   0.2401
  14.000   1.3820   0.04299   0.03868  -0.0095  0.0038  1.0000  -10.7942   0.0000   0.0000   0.0000   0.2403
  14.100   1.3783   0.04466   0.04042  -0.0101  0.0038  1.0000  -10.8281   0.0000   0.0000   0.0000   0.2405
  14.200   1.3738   0.04655   0.04238  -0.0110  0.0037  1.0000  -10.8478   0.0000   0.0000   0.0000   0.2410
  14.300   1.3694   0.04851   0.04441  -0.0119  0.0037  1.0000  -10.8661   0.0000   0.0000   0.0000   0.2415
  14.400   1.3640   0.05071   0.04668  -0.0131  0.0036  1.0000  -10.8688   0.0000   0.0000   0.0000   0.2422
  14.500   1.3586   0.05298   0.04902  -0.0143  0.0036  1.0000  -10.8676   0.0000   0.0000   0.0000   0.2430
  14.600   1.3524   0.05546   0.05157  -0.0158  0.0036  1.0000  -10.8522   0.0000   0.0000   0.0000   0.2439
  14.700   1.3458   0.05804   0.05423  -0.0173  0.0036  1.0000  -10.8295   0.0000   0.0000   0.0000   0.2448
  14.800   1.3386   0.06078   0.05704  -0.0189  0.0036  1.0000  -10.7951   0.0000   0.0000   0.0000   0.2459
  14.900   1.3310   0.06361   0.05994  -0.0206  0.0036  1.0000  -10.7531   0.0000   0.0000   0.0000   0.2471
  15.000   1.3227   0.06663   0.06303  -0.0224  0.0036  1.0000  -10.6968   0.0000   0.0000   0.0000   0.2484
  15.100   1.3144   0.06961   0.06608  -0.0241  0.0036  1.0000  -10.6403   0.0000   0.0000   0.0000   0.2496
  15.200   1.3043   0.07291   0.06944  -0.0261  0.0036  1.0000  -10.5533   0.0000   0.0000   0.0000   0.2511
  15.300   1.2952   0.07594   0.07254  -0.0278  0.0036  1.0000  -10.4820   0.0000   0.0000   0.0000   0.2523
  15.400   1.2841   0.07955   0.07623  -0.0299  0.0037  1.0000  -10.3731   0.0000   0.0000   0.0000   0.2540
  15.500   1.2745   0.08289   0.07962  -0.0318  0.0037  1.0000  -10.2853   0.0000   0.0000   0.0000   0.2555
  15.600   1.2645   0.08635   0.08315  -0.0338  0.0037  1.0000  -10.1886   0.0000   0.0000   0.0000   0.2572
  15.700   1.2529   0.09027   0.08713  -0.0361  0.0038  1.0000  -10.0599   0.0000   0.0000   0.0000   0.2591
  15.800   1.2433   0.09373   0.09066  -0.0380  0.0038  1.0000  -9.9617   0.0000   0.0000   0.0000   0.2608
  15.900   1.2325   0.09757   0.09456  -0.0403  0.0038  1.0000  -9.8378   0.0000   0.0000   0.0000   0.2627
  16.000   1.2209   0.10168   0.09873  -0.0427  0.0039  1.0000  -9.6938   0.0000   0.0000   0.0000   0.2649
  16.100   1.2114   0.10531   0.10242  -0.0448  0.0039  1.0000  -9.5840   0.0000   0.0000   0.0000   0.2668
  16.200   1.2013   0.10913   0.10630  -0.0471  0.0040  1.0000  -9.4578   0.0000   0.0000   0.0000   0.2689
  16.300   1.1883   0.11375   0.11099  -0.0499  0.0041  1.0000  -9.2695   0.0000   0.0000   0.0000   0.2716
  16.400   1.1787   0.11755   0.11484  -0.0522  0.0041  1.0000  -9.1407   0.0000   0.0000   0.0000   0.2737
  16.500   1.1690   0.12139   0.11874  -0.0545  0.0042  1.0000  -9.0068   0.0000   0.0000   0.0000   0.2760
  16.600   1.1541   0.12659   0.12402  -0.0576  0.0043  1.0000  -8.7599   0.0000   0.0000   0.0000   0.2793
  16.700   1.1434   0.13080   0.12828  -0.0602  0.0044  1.0000  -8.5891   0.0000   0.0000   0.0000   0.2820
  16.800   1.1329   0.13498   0.13252  -0.0627  0.0045  1.0000  -8.4160   0.0000   0.0000   0.0000   0.2846
  16.900   1.1117   0.14179   0.13943  -0.0670  0.0048  1.0000  -8.0053   0.0000   0.0000   0.0000   0.2896
  17.000   1.0955   0.14714   0.14485  -0.0704  0.0050  1.0000  -7.6831   0.0000   0.0000   0.0000   0.2938
  17.200   0.9250   0.20968   0.20751  -0.0993  0.0069  1.0000  -2.9672   0.0000   0.0000   0.0000   0.3411
  17.300   0.9291   0.21065   0.20848  -0.0999  0.0068  1.0000  -3.0586   0.0000   0.0000   0.0000   0.3411
  17.400   0.9328   0.21177   0.20960  -0.1005  0.0067  1.0000  -3.1379   0.0000   0.0000   0.0000   0.3412
  17.500   0.9362   0.21301   0.21085  -0.1012  0.0066  1.0000  -3.2090   0.0000   0.0000   0.0000   0.3413
  17.600   0.9393   0.21436   0.21220  -0.1019  0.0065  1.0000  -3.2722   0.0000   0.0000   0.0000   0.3415
  17.700   0.9423   0.21583   0.21368  -0.1026  0.0064  1.0000  -3.3267   0.0000   0.0000   0.0000   0.3417
  17.800   0.9449   0.21745   0.21529  -0.1033  0.0062  1.0000  -3.3703   0.0000   0.0000   0.0000   0.3421
  17.900   0.9472   0.21925   0.21709  -0.1041  0.0060  1.0000  -3.3997   0.0000   0.0000   0.0000   0.3425
  18.000   0.9490   0.22130   0.21914  -0.1050  0.0059  1.0000  -3.4088   0.0000   0.0000   0.0000   0.3430
  18.100   0.9502   0.22372   0.22156  -0.1059  0.0056  1.0000  -3.3879   0.0000   0.0000   0.0000   0.3438
  18.200   0.9506   0.22664   0.22448  -0.1069  0.0054  1.0000  -3.3313   0.0000   0.0000   0.0000   0.3448
  18.300   0.9503   0.23006   0.22790  -0.1081  0.0052  1.0000  -3.2488   0.0000   0.0000   0.0000   0.3460
  18.400   0.9495   0.23376   0.23160  -0.1093  0.0050  1.0000  -3.1429   0.0000   0.0000   0.0000   0.3473
  18.500   0.9489   0.23744   0.23526  -0.1104  0.0049  1.0000  -3.0362   0.0000   0.0000   0.0000   0.3486
  18.600   0.9485   0.24098   0.23880  -0.1115  0.0049  1.0000  -2.9376   0.0000   0.0000   0.0000   0.3498
  18.700   0.9484   0.24437   0.24219  -0.1125  0.0049  1.0000  -2.8488   0.0000   0.0000   0.0000   0.3509
  18.800   0.9485   0.24763   0.24545  -0.1135  0.0049  1.0000  -2.7691   0.0000   0.0000   0.0000   0.3519
  18.900   0.9487   0.25079   0.24861  -0.1145  0.0050  1.0000  -2.6971   0.0000   0.0000   0.0000   0.3528
  19.000   0.9491   0.25386   0.25168  -0.1154  0.0050  1.0000  -2.6319   0.0000   0.0000   0.0000   0.3537
  19.100   0.9495   0.25686   0.25468  -0.1163  0.0051  1.0000  -2.5722   0.0000   0.0000   0.0000   0.3545
  19.200   0.9499   0.25981   0.25763  -0.1172  0.0052  1.0000  -2.5168   0.0000   0.0000   0.0000   0.3553
  19.300   0.9504   0.26272   0.26053  -0.1181  0.0053  1.0000  -2.4651   0.0000   0.0000   0.0000   0.3560
  19.400   0.9508   0.26560   0.26342  -0.1189  0.0054  1.0000  -2.4160   0.0000   0.0000   0.0000   0.3568
  19.500   0.9511   0.26848   0.26630  -0.1197  0.0056  1.0000  -2.3679   0.0000   0.0000   0.0000   0.3575
  19.600   0.9513   0.27141   0.26923  -0.1206  0.0058  1.0000  -2.3176   0.0000   0.0000   0.0000   0.3583
  19.700   0.9510   0.27452   0.27234  -0.1214  0.0060  1.0000  -2.2575   0.0000   0.0000   0.0000   0.3591
  19.800   0.9442   0.28109   0.27891  -0.1219  0.0068  1.0000  -2.0063   0.0000   0.0000   0.0000   0.3606
  19.900   0.9448   0.28371   0.28152  -0.1225  0.0068  1.0000  -1.9854   0.0000   0.0000   0.0000   0.3611
  20.000   0.9455   0.28625   0.28408  -0.1232  0.0069  1.0000  -1.9676   0.0000   0.0000   0.0000   0.3616
  20.100   0.9461   0.28877   0.28659  -0.1238  0.0069  1.0000  -1.9513   0.0000   0.0000   0.0000   0.3621
  20.200   0.9466   0.29125   0.28908  -0.1244  0.0069  1.0000  -1.9357   0.0000   0.0000   0.0000   0.3626
  20.300   0.9470   0.29371   0.29155  -0.1251  0.0069  1.0000  -1.9207   0.0000   0.0000   0.0000   0.3630
  20.400   0.9474   0.29615   0.29399  -0.1257  0.0069  1.0000  -1.9060   0.0000   0.0000   0.0000   0.3635
  20.500   0.9476   0.29857   0.29641  -0.1263  0.0069  1.0000  -1.8915   0.0000   0.0000   0.0000   0.3640
  20.600   0.9477   0.30096   0.29881  -0.1269  0.0069  1.0000  -1.8770   0.0000   0.0000   0.0000   0.3645
  20.700   0.9477   0.30332   0.30117  -0.1274  0.0069  1.0000  -1.8626   0.0000   0.0000   0.0000   0.3650
  20.800   0.9475   0.30565   0.30351  -0.1280  0.0069  1.0000  -1.8480   0.0000   0.0000   0.0000   0.3655
  20.900   0.9471   0.30794   0.30580  -0.1285  0.0069  1.0000  -1.8332   0.0000   0.0000   0.0000   0.3660
  21.000   0.9465   0.31018   0.30805  -0.1290  0.0069  1.0000  -1.8182   0.0000   0.0000   0.0000   0.3665
  21.100   0.9456   0.31236   0.31024  -0.1294  0.0069  1.0000  -1.8027   0.0000   0.0000   0.0000   0.3670
  21.200   0.9443   0.31447   0.31235  -0.1299  0.0069  1.0000  -1.7867   0.0000   0.0000   0.0000   0.3675
  21.300   0.9427   0.31647   0.31436  -0.1302  0.0069  1.0000  -1.7698   0.0000   0.0000   0.0000   0.3680
  21.400   0.9405   0.31835   0.31625  -0.1305  0.0069  1.0000  -1.7518   0.0000   0.0000   0.0000   0.3686
  21.500   0.9376   0.32003   0.31794  -0.1307  0.0069  1.0000  -1.7322   0.0000   0.0000   0.0000   0.3692
  21.600   0.8894   0.31024   0.30824  -0.1257  0.0069  1.0000  -1.5991   0.0000   0.0000   0.0000   0.3717
  21.700   0.8820   0.30969   0.30771  -0.1253  0.0069  1.0000  -1.5691   0.0000   0.0000   0.0000   0.3724
  21.800   0.8763   0.30953   0.30756  -0.1251  0.0069  1.0000  -1.5439   0.0000   0.0000   0.0000   0.3731
  21.900   0.8716   0.30957   0.30762  -0.1251  0.0069  1.0000  -1.5214   0.0000   0.0000   0.0000   0.3738
  22.000   0.8676   0.30973   0.30779  -0.1250  0.0069  1.0000  -1.5008   0.0000   0.0000   0.0000   0.3744
  22.100   0.8641   0.30998   0.30805  -0.1251  0.0069  1.0000  -1.4816   0.0000   0.0000   0.0000   0.3749
  22.200   0.8609   0.31029   0.30837  -0.1252  0.0069  1.0000  -1.4636   0.0000   0.0000   0.0000   0.3755
  22.300   0.8580   0.31064   0.30873  -0.1253  0.0069  1.0000  -1.4465   0.0000   0.0000   0.0000   0.3760
  22.400   0.8554   0.31103   0.30913  -0.1254  0.0069  1.0000  -1.4302   0.0000   0.0000   0.0000   0.3766
  22.500   0.8530   0.31145   0.30956  -0.1255  0.0069  1.0000  -1.4146   0.0000   0.0000   0.0000   0.3771
  22.600   0.8508   0.31190   0.31001  -0.1257  0.0069  1.0000  -1.3995   0.0000   0.0000   0.0000   0.3776
  22.700   0.8488   0.31237   0.31050  -0.1259  0.0069  1.0000  -1.3850   0.0000   0.0000   0.0000   0.3781
  22.800   0.8469   0.31287   0.31100  -0.1261  0.0069  1.0000  -1.3710   0.0000   0.0000   0.0000   0.3786
  22.900   0.8451   0.31338   0.31152  -0.1263  0.0069  1.0000  -1.3575   0.0000   0.0000   0.0000   0.3791
  23.000   0.8434   0.31390   0.31205  -0.1266  0.0068  1.0000  -1.3445   0.0000   0.0000   0.0000   0.3796
  23.100   0.8419   0.31444   0.31260  -0.1268  0.0068  1.0000  -1.3319   0.0000   0.0000   0.0000   0.3800
  23.200   0.8405   0.31500   0.31316  -0.1271  0.0068  1.0000  -1.3196   0.0000   0.0000   0.0000   0.3805
  23.300   0.8391   0.31556   0.31373  -0.1273  0.0068  1.0000  -1.3077   0.0000   0.0000   0.0000   0.3809
  23.400   0.8379   0.31614   0.31431  -0.1276  0.0068  1.0000  -1.2962   0.0000   0.0000   0.0000   0.3814
  23.500   0.8367   0.31672   0.31490  -0.1279  0.0068  1.0000  -1.2849   0.0000   0.0000   0.0000   0.3818
  23.600   0.8356   0.31731   0.31550  -0.1282  0.0068  1.0000  -1.2740   0.0000   0.0000   0.0000   0.3823
  23.700   0.8345   0.31791   0.31611  -0.1284  0.0068  1.0000  -1.2633   0.0000   0.0000   0.0000   0.3827
  23.800   0.8335   0.31852   0.31672  -0.1287  0.0068  1.0000  -1.2529   0.0000   0.0000   0.0000   0.3831
  23.900   0.8326   0.31913   0.31734  -0.1290  0.0068  1.0000  -1.2427   0.0000   0.0000   0.0000   0.3836
  24.000   0.8317   0.31975   0.31796  -0.1293  0.0068  1.0000  -1.2328   0.0000   0.0000   0.0000   0.3840
  24.100   0.8309   0.32037   0.31859  -0.1296  0.0068  1.0000  -1.2231   0.0000   0.0000   0.0000   0.3844
  24.200   0.8301   0.32100   0.31923  -0.1300  0.0068  1.0000  -1.2136   0.0000   0.0000   0.0000   0.3848
  24.300   0.8294   0.32163   0.31987  -0.1303  0.0068  1.0000  -1.2044   0.0000   0.0000   0.0000   0.3852
  24.400   0.8287   0.32227   0.32051  -0.1306  0.0068  1.0000  -1.1953   0.0000   0.0000   0.0000   0.3856
  24.500   0.8280   0.32291   0.32116  -0.1309  0.0068  1.0000  -1.1864   0.0000   0.0000   0.0000   0.3860
  24.600   0.8274   0.32356   0.32181  -0.1313  0.0068  1.0000  -1.1777   0.0000   0.0000   0.0000   0.3864
  24.700   0.8268   0.32420   0.32249  -0.1316  0.0068  1.0000  -1.1696   0.0000   0.0000   0.0000   0.3868
  24.800   0.8263   0.32484   0.32314  -0.1320  0.0068  1.0000  -1.1612   0.0000   0.0000   0.0000   0.3872
  24.900   0.8258   0.32549   0.32379  -0.1323  0.0068  1.0000  -1.1529   0.0000   0.0000   0.0000   0.3876
  25.000   0.8253   0.32613   0.32445  -0.1327  0.0068  1.0000  -1.1449   0.0000   0.0000   0.0000   0.3880
  25.100   0.8249   0.32679   0.32510  -0.1331  0.0068  1.0000  -1.1371   0.0000   0.0000   0.0000   0.3884
  25.200   0.8244   0.32744   0.32576  -0.1335  0.0068  1.0000  -1.1293   0.0000   0.0000   0.0000   0.3888
  25.300   0.8240   0.32809   0.32642  -0.1338  0.0068  1.0000  -1.1215   0.0000   0.0000   0.0000   0.3892
  25.400   0.8237   0.32875   0.32709  -0.1342  0.0068  1.0000  -1.1138   0.0000   0.0000   0.0000   0.3896
  25.500   0.8233   0.32941   0.32775  -0.1346  0.0068  1.0000  -1.1064   0.0000   0.0000   0.0000   0.3900
  25.600   0.8230   0.33008   0.32842  -0.1350  0.0067  1.0000  -1.0991   0.0000   0.0000   0.0000   0.3904
  25.700   0.8227   0.33074   0.32909  -0.1354  0.0067  1.0000  -1.0920   0.0000   0.0000   0.0000   0.3908
  25.800   0.8224   0.33141   0.32976  -0.1357  0.0067  1.0000  -1.0851   0.0000   0.0000   0.0000   0.3912
  25.900   0.8222   0.33207   0.33044  -0.1361  0.0067  1.0000  -1.0783   0.0000   0.0000   0.0000   0.3916
  26.000   0.8219   0.33274   0.33111  -0.1365  0.0067  1.0000  -1.0718   0.0000   0.0000   0.0000   0.3919
  26.100   0.8217   0.33342   0.33179  -0.1369  0.0067  1.0000  -1.0653   0.0000   0.0000   0.0000   0.3923
  26.200   0.8215   0.33409   0.33247  -0.1373  0.0067  1.0000  -1.0591   0.0000   0.0000   0.0000   0.3927
  26.300   0.8213   0.33477   0.33315  -0.1377  0.0067  1.0000  -1.0529   0.0000   0.0000   0.0000   0.3930
  26.400   0.8212   0.33544   0.33383  -0.1381  0.0067  1.0000  -1.0469   0.0000   0.0000   0.0000   0.3934
  26.500   0.8210   0.33612   0.33451  -0.1385  0.0067  1.0000  -1.0411   0.0000   0.0000   0.0000   0.3938
  26.600   0.8209   0.33680   0.33520  -0.1389  0.0067  1.0000  -1.0354   0.0000   0.0000   0.0000   0.3941
  26.700   0.8208   0.33748   0.33588  -0.1393  0.0066  1.0000  -1.0299   0.0000   0.0000   0.0000   0.3945
  26.800   0.8207   0.33816   0.33657  -0.1397  0.0066  1.0000  -1.0244   0.0000   0.0000   0.0000   0.3948
  26.900   0.8206   0.33884   0.33726  -0.1401  0.0066  1.0000  -1.0192   0.0000   0.0000   0.0000   0.3952
  27.000   0.8206   0.33953   0.33795  -0.1405  0.0066  1.0000  -1.0134   0.0000   0.0000   0.0000   0.3955
  27.100   0.8205   0.34023   0.33865  -0.1409  0.0066  1.0000  -1.0074   0.0000   0.0000   0.0000   0.3959
  27.200   0.8204   0.34092   0.33935  -0.1414  0.0066  1.0000  -1.0015   0.0000   0.0000   0.0000   0.3962
  27.300   0.8204   0.34162   0.34005  -0.1418  0.0066  1.0000  -0.9958   0.0000   0.0000   0.0000   0.3966
  27.400   0.8204   0.34231   0.34076  -0.1422  0.0065  1.0000  -0.9901   0.0000   0.0000   0.0000   0.3969
  27.500   0.8204   0.34301   0.34146  -0.1426  0.0065  1.0000  -0.9847   0.0000   0.0000   0.0000   0.3973
  27.600   0.8204   0.34372   0.34217  -0.1431  0.0065  1.0000  -0.9793   0.0000   0.0000   0.0000   0.3976
  27.700   0.8204   0.34442   0.34288  -0.1435  0.0065  1.0000  -0.9741   0.0000   0.0000   0.0000   0.3980
  27.800   0.8204   0.34513   0.34359  -0.1439  0.0065  1.0000  -0.9689   0.0000   0.0000   0.0000   0.3983
  27.900   0.8205   0.34584   0.34431  -0.1444  0.0064  1.0000  -0.9639   0.0000   0.0000   0.0000   0.3986
  28.000   0.8206   0.34655   0.34502  -0.1448  0.0064  1.0000  -0.9590   0.0000   0.0000   0.0000   0.3990
  28.100   0.8207   0.34727   0.34574  -0.1452  0.0064  1.0000  -0.9542   0.0000   0.0000   0.0000   0.3993


