xflr5 v6.61

 Calculated polar for: SD7003-085-88

 1 1 Reynolds number fixed          Mach number fixed         

 xtrf =   1.000 (top)        1.000 (bottom)
 Mach =   0.000     Re =     0.400 e 6     Ncrit =   9.000

  alpha     CL        CD       CDp       Cm    Top Xtr Bot Xtr   Cpmin    Chinge    XCp    
 ------- -------- --------- --------- -------- ------- ------- -------- --------- ---------
 -10.000  -0.5304   0.11092   0.10819   0.0053  1.0000  0.0243  -1.7607   0.0000   0.0000   0.0000   0.2548
  -9.900  -0.5293   0.10928   0.10656   0.0045  1.0000  0.0246  -1.7778   0.0000   0.0000   0.0000   0.2532
  -9.800  -0.5282   0.10763   0.10492   0.0036  1.0000  0.0250  -1.7959   0.0000   0.0000   0.0000   0.2516
  -9.700  -0.5270   0.10600   0.10329   0.0026  1.0000  0.0253  -1.8137   0.0000   0.0000   0.0000   0.2499
  -9.600  -0.5256   0.10439   0.10169   0.0017  1.0000  0.0257  -1.8316   0.0000   0.0000   0.0000   0.2481
  -9.500  -0.5236   0.10292   0.10023   0.0007  1.0000  0.0262  -1.8446   0.0000   0.0000   0.0000   0.2464
  -9.400  -0.5192   0.10193   0.09924  -0.0002  1.0000  0.0270  -1.8381   0.0000   0.0000   0.0000   0.2447
  -9.300  -0.5157   0.10084   0.09816  -0.0010  1.0000  0.0274  -1.8334   0.0000   0.0000   0.0000   0.2431
  -9.200  -0.5137   0.09942   0.09675  -0.0019  1.0000  0.0276  -1.8398   0.0000   0.0000   0.0000   0.2415
  -7.200  -0.5723   0.03864   0.03517  -0.0380  1.0000  0.0147  -3.7256   0.0000   0.0000   0.0000   0.1789
  -7.100  -0.5686   0.03672   0.03320  -0.0378  1.0000  0.0130  -3.7716   0.0000   0.0000   0.0000   0.1790
  -7.000  -0.5701   0.03313   0.02933  -0.0380  1.0000  0.0126  -3.9156   0.0000   0.0000   0.0000   0.1787
  -6.900  -0.5687   0.03019   0.02612  -0.0380  1.0000  0.0123  -4.0173   0.0000   0.0000   0.0000   0.1786
  -6.800  -0.5655   0.02767   0.02334  -0.0377  1.0000  0.0120  -4.0913   0.0000   0.0000   0.0000   0.1787
  -6.700  -0.5610   0.02548   0.02089  -0.0373  1.0000  0.0117  -4.1439   0.0000   0.0000   0.0000   0.1788
  -6.600  -0.5553   0.02356   0.01873  -0.0369  1.0000  0.0114  -4.1782   0.0000   0.0000   0.0000   0.1790
  -6.500  -0.5488   0.02186   0.01681  -0.0364  1.0000  0.0111  -4.1967   0.0000   0.0000   0.0000   0.1791
  -6.400  -0.5417   0.02035   0.01509  -0.0359  1.0000  0.0109  -4.2019   0.0000   0.0000   0.0000   0.1792
  -6.300  -0.5340   0.01902   0.01357  -0.0353  1.0000  0.0108  -4.1934   0.0000   0.0000   0.0000   0.1792
  -6.200  -0.5258   0.01786   0.01223  -0.0348  1.0000  0.0106  -4.1717   0.0000   0.0000   0.0000   0.1792
  -6.100  -0.5173   0.01685   0.01107  -0.0343  1.0000  0.0105  -4.1378   0.0000   0.0000   0.0000   0.1791
  -6.000  -0.5086   0.01598   0.01006  -0.0339  1.0000  0.0105  -4.0919   0.0000   0.0000   0.0000   0.1789
  -5.900  -0.4998   0.01522   0.00918  -0.0334  1.0000  0.0104  -4.0368   0.0000   0.0000   0.0000   0.1787
  -5.800  -0.4907   0.01455   0.00841  -0.0329  1.0000  0.0105  -3.9733   0.0000   0.0000   0.0000   0.1785
  -5.700  -0.4816   0.01396   0.00773  -0.0325  1.0000  0.0105  -3.9022   0.0000   0.0000   0.0000   0.1782
  -5.600  -0.4723   0.01344   0.00712  -0.0321  1.0000  0.0106  -3.8240   0.0000   0.0000   0.0000   0.1778
  -5.500  -0.4629   0.01298   0.00659  -0.0317  1.0000  0.0108  -3.7392   0.0000   0.0000   0.0000   0.1773
  -5.400  -0.4534   0.01258   0.00611  -0.0313  1.0000  0.0111  -3.6582   0.0000   0.0000   0.0000   0.1767
  -5.300  -0.4438   0.01223   0.00569  -0.0310  1.0000  0.0115  -3.5797   0.0000   0.0000   0.0000   0.1761
  -5.200  -0.4340   0.01192   0.00533  -0.0306  1.0000  0.0119  -3.4967   0.0000   0.0000   0.0000   0.1753
  -5.100  -0.4242   0.01167   0.00503  -0.0303  1.0000  0.0125  -3.4064   0.0000   0.0000   0.0000   0.1745
  -5.000  -0.4144   0.01147   0.00479  -0.0300  1.0000  0.0130  -3.3059   0.0000   0.0000   0.0000   0.1736
  -4.900  -0.4046   0.01133   0.00447  -0.0297  1.0000  0.0117  -3.2590   0.0000   0.0000   0.0000   0.1725
  -4.800  -0.3947   0.01114   0.00424  -0.0294  1.0000  0.0123  -3.1568   0.0000   0.0000   0.0000   0.1715
  -4.700  -0.3848   0.01097   0.00404  -0.0291  1.0000  0.0130  -3.0558   0.0000   0.0000   0.0000   0.1704
  -4.600  -0.3749   0.01083   0.00388  -0.0288  1.0000  0.0138  -2.9586   0.0000   0.0000   0.0000   0.1692
  -4.500  -0.3650   0.01064   0.00369  -0.0285  1.0000  0.0173  -2.8851   0.0000   0.0000   0.0000   0.1680
  -4.400  -0.3552   0.01044   0.00356  -0.0283  1.0000  0.0222  -2.8032   0.0000   0.0000   0.0000   0.1666
  -4.300  -0.3455   0.01029   0.00345  -0.0280  1.0000  0.0270  -2.7216   0.0000   0.0000   0.0000   0.1651
  -4.200  -0.3358   0.01013   0.00336  -0.0278  1.0000  0.0343  -2.6421   0.0000   0.0000   0.0000   0.1635
  -4.100  -0.3261   0.01000   0.00329  -0.0276  1.0000  0.0409  -2.5635   0.0000   0.0000   0.0000   0.1618
  -4.000  -0.3163   0.00991   0.00322  -0.0273  1.0000  0.0448  -2.4866   0.0000   0.0000   0.0000   0.1600
  -3.900  -0.3066   0.00985   0.00316  -0.0271  1.0000  0.0471  -2.4107   0.0000   0.0000   0.0000   0.1581
  -3.800  -0.2969   0.00976   0.00308  -0.0268  1.0000  0.0512  -2.3379   0.0000   0.0000   0.0000   0.1562
  -3.700  -0.2872   0.00967   0.00302  -0.0266  1.0000  0.0557  -2.2664   0.0000   0.0000   0.0000   0.1540
  -3.600  -0.2776   0.00958   0.00296  -0.0263  1.0000  0.0595  -2.1957   0.0000   0.0000   0.0000   0.1517
  -3.500  -0.2680   0.00951   0.00291  -0.0261  1.0000  0.0630  -2.1260   0.0000   0.0000   0.0000   0.1493
  -3.400  -0.2571   0.00944   0.00287  -0.0261  0.9997  0.0664  -2.0529   0.0000   0.0000   0.0000   0.1452
  -3.300  -0.2404   0.00938   0.00282  -0.0273  0.9977  0.0700  -1.9614   0.0000   0.0000   0.0000   0.1330
  -3.200  -0.2238   0.00932   0.00276  -0.0284  0.9956  0.0740  -1.8724   0.0000   0.0000   0.0000   0.1194
  -3.100  -0.2074   0.00920   0.00269  -0.0296  0.9932  0.0826  -1.7861   0.0000   0.0000   0.0000   0.1039
  -3.000  -0.1909   0.00909   0.00264  -0.0307  0.9908  0.0909  -1.7002   0.0000   0.0000   0.0000   0.0853
  -2.900  -0.1743   0.00899   0.00259  -0.0319  0.9888  0.1024  -1.6150   0.0000   0.0000   0.0000   0.0630
  -2.800  -0.1586   0.00877   0.00254  -0.0331  0.9868  0.1292  -1.5340   0.0000   0.0000   0.0000   0.0376
  -2.700  -0.1444   0.00853   0.00249  -0.0338  0.9836  0.1635  -1.4591   0.0000   0.0000   0.0000   0.0116
  -2.600  -0.1295   0.00826   0.00244  -0.0348  0.9804  0.2072  -1.3830   0.0000   0.0000   0.0000  -0.0232
  -2.500  -0.1137   0.00800   0.00239  -0.0360  0.9774  0.2556  -1.3060   0.0000   0.0000   0.0000  -0.0705
  -2.400  -0.0973   0.00776   0.00235  -0.0372  0.9748  0.3019  -1.2283   0.0000   0.0000   0.0000  -0.1370
  -2.300  -0.0806   0.00755   0.00230  -0.0385  0.9724  0.3404  -1.1505   0.0000   0.0000   0.0000  -0.2331
  -2.200  -0.0685   0.00738   0.00225  -0.0387  0.9665  0.3718  -1.0865   0.0000   0.0000   0.0000  -0.3203
  -2.100  -0.0548   0.00723   0.00221  -0.0392  0.9613  0.4052  -1.0181   0.0000   0.0000   0.0000  -0.4718
  -2.000  -0.0405   0.00703   0.00217  -0.0399  0.9569  0.4458  -0.9472   0.0000   0.0000   0.0000  -0.7434
  -1.900  -0.0253   0.00685   0.00209  -0.0407  0.9529  0.4855  -0.8553   0.0000   0.0000   0.0000  -1.3707
  -1.800  -0.0132   0.00672   0.00205  -0.0408  0.9459  0.5172  -0.8088   0.0000   0.0000   0.0000  -2.8609
  -1.700  -0.0005   0.00656   0.00202  -0.0411  0.9383  0.5543  -0.7695   0.0000   0.0000   0.0000  -90.1096
  -1.600   0.0134   0.00641   0.00199  -0.0415  0.9310  0.5889  -0.7289   0.0000   0.0000   0.0000   3.3694
  -1.500   0.0264   0.00632   0.00196  -0.0418  0.9231  0.6189  -0.6900   0.0000   0.0000   0.0000   1.8377
  -1.400   0.0372   0.00620   0.00196  -0.0415  0.9129  0.6522  -0.6550   0.0000   0.0000   0.0000   1.3695
  -1.300   0.0489   0.00611   0.00194  -0.0414  0.9032  0.6810  -0.6214   0.0000   0.0000   0.0000   1.0999
  -1.200   0.0600   0.00604   0.00193  -0.0411  0.8943  0.7100  -0.5947   0.0000   0.0000   0.0000   0.9374
  -1.100   0.0699   0.00599   0.00192  -0.0407  0.8836  0.7316  -0.5697   0.0000   0.0000   0.0000   0.8330
  -1.000   0.0800   0.00595   0.00191  -0.0402  0.8720  0.7529  -0.5447   0.0000   0.0000   0.0000   0.7531
  -0.900   0.0906   0.00595   0.00188  -0.0398  0.8606  0.7682  -0.5193   0.0000   0.0000   0.0000   0.6901
  -0.800   0.0999   0.00591   0.00189  -0.0392  0.8491  0.7850  -0.4955   0.0000   0.0000   0.0000   0.6425
  -0.700   0.1095   0.00591   0.00188  -0.0386  0.8362  0.8024  -0.4716   0.0000   0.0000   0.0000   0.6026
  -0.500   0.1281   0.00590   0.00187  -0.0373  0.8132  0.8346  -0.4418   0.0000   0.0000   0.0000   0.5408
  -0.400   0.1376   0.00590   0.00187  -0.0367  0.8017  0.8501  -0.4528   0.0000   0.0000   0.0000   0.5164
  -0.300   0.1464   0.00590   0.00186  -0.0360  0.7904  0.8647  -0.4634   0.0000   0.0000   0.0000   0.4949
  -0.200   0.1553   0.00593   0.00185  -0.0352  0.7791  0.8794  -0.4755   0.0000   0.0000   0.0000   0.4759
  -0.100   0.1649   0.00593   0.00185  -0.0347  0.7693  0.8921  -0.4886   0.0000   0.0000   0.0000   0.4594
   0.000   0.1741   0.00593   0.00184  -0.0340  0.7575  0.9050  -0.5014   0.0000   0.0000   0.0000   0.4443
   0.100   0.1832   0.00596   0.00182  -0.0333  0.7448  0.9184  -0.5144   0.0000   0.0000   0.0000   0.4308
   0.200   0.1934   0.00600   0.00181  -0.0329  0.7326  0.9308  -0.5281   0.0000   0.0000   0.0000   0.4188
   0.300   0.2048   0.00600   0.00179  -0.0327  0.7222  0.9442  -0.5427   0.0000   0.0000   0.0000   0.4085
   0.400   0.2179   0.00602   0.00177  -0.0330  0.7100  0.9555  -0.5585   0.0000   0.0000   0.0000   0.4000
   0.500   0.2323   0.00606   0.00175  -0.0335  0.6977  0.9670  -0.5754   0.0000   0.0000   0.0000   0.3929
   0.600   0.2478   0.00611   0.00173  -0.0344  0.6856  0.9766  -0.5939   0.0000   0.0000   0.0000   0.3872
   0.700   0.2641   0.00611   0.00171  -0.0354  0.6763  0.9860  -0.6155   0.0000   0.0000   0.0000   0.3825
   0.800   0.2805   0.00614   0.00169  -0.0365  0.6639  0.9939  -0.6373   0.0000   0.0000   0.0000   0.3785
   0.900   0.2944   0.00620   0.00167  -0.0371  0.6499  1.0000  -0.6571   0.0000   0.0000   0.0000   0.3743
   1.000   0.3039   0.00629   0.00167  -0.0368  0.6363  1.0000  -0.6732   0.0000   0.0000   0.0000   0.3692
   1.100   0.3142   0.00632   0.00168  -0.0366  0.6267  1.0000  -0.6900   0.0000   0.0000   0.0000   0.3647
   1.200   0.3243   0.00637   0.00168  -0.0364  0.6147  1.0000  -0.7069   0.0000   0.0000   0.0000   0.3603
   1.300   0.3344   0.00645   0.00168  -0.0361  0.6020  1.0000  -0.7237   0.0000   0.0000   0.0000   0.3562
   1.400   0.3443   0.00654   0.00171  -0.0359  0.5891  1.0000  -0.7406   0.0000   0.0000   0.0000   0.3523
   1.500   0.3550   0.00658   0.00172  -0.0358  0.5808  1.0000  -0.7581   0.0000   0.0000   0.0000   0.3488
   1.600   0.3657   0.00663   0.00174  -0.0357  0.5717  1.0000  -0.7757   0.0000   0.0000   0.0000   0.3455
   1.700   0.3762   0.00669   0.00175  -0.0355  0.5607  1.0000  -0.7932   0.0000   0.0000   0.0000   0.3423
   1.800   0.3864   0.00678   0.00175  -0.0353  0.5480  1.0000  -0.8143   0.0000   0.0000   0.0000   0.3393
   1.900   0.3966   0.00688   0.00178  -0.0352  0.5342  1.0000  -0.8355   0.0000   0.0000   0.0000   0.3364
   2.000   0.4075   0.00692   0.00180  -0.0351  0.5256  1.0000  -0.8576   0.0000   0.0000   0.0000   0.3338
   2.100   0.4181   0.00699   0.00182  -0.0350  0.5141  1.0000  -0.8795   0.0000   0.0000   0.0000   0.3312
   2.200   0.4285   0.00708   0.00183  -0.0348  0.5015  1.0000  -0.9014   0.0000   0.0000   0.0000   0.3288
   2.300   0.4388   0.00719   0.00186  -0.0346  0.4879  1.0000  -0.9231   0.0000   0.0000   0.0000   0.3264
   2.400   0.4496   0.00725   0.00190  -0.0345  0.4795  1.0000  -0.9456   0.0000   0.0000   0.0000   0.3243
   2.500   0.4605   0.00730   0.00193  -0.0345  0.4715  1.0000  -0.9682   0.0000   0.0000   0.0000   0.3223
   2.600   0.4713   0.00737   0.00196  -0.0344  0.4617  1.0000  -0.9910   0.0000   0.0000   0.0000   0.3203
   2.700   0.4818   0.00747   0.00199  -0.0343  0.4505  1.0000  -1.0185   0.0000   0.0000   0.0000   0.3184
   2.800   0.4921   0.00758   0.00203  -0.0341  0.4368  1.0000  -1.0458   0.0000   0.0000   0.0000   0.3165
   2.900   0.5029   0.00765   0.00208  -0.0340  0.4280  1.0000  -1.0741   0.0000   0.0000   0.0000   0.3148
   3.000   0.5138   0.00771   0.00212  -0.0340  0.4186  1.0000  -1.1025   0.0000   0.0000   0.0000   0.3132
   3.100   0.5243   0.00781   0.00216  -0.0339  0.4071  1.0000  -1.1308   0.0000   0.0000   0.0000   0.3116
   3.200   0.5347   0.00793   0.00220  -0.0337  0.3941  1.0000  -1.1589   0.0000   0.0000   0.0000   0.3100
   3.300   0.5452   0.00805   0.00226  -0.0336  0.3816  1.0000  -1.1873   0.0000   0.0000   0.0000   0.3086
   3.400   0.5562   0.00810   0.00231  -0.0336  0.3755  1.0000  -1.2166   0.0000   0.0000   0.0000   0.3072
   3.500   0.5670   0.00817   0.00236  -0.0335  0.3672  1.0000  -1.2458   0.0000   0.0000   0.0000   0.3058
   3.600   0.5776   0.00827   0.00241  -0.0334  0.3574  1.0000  -1.2750   0.0000   0.0000   0.0000   0.3045
   3.700   0.5881   0.00840   0.00247  -0.0333  0.3462  1.0000  -1.3040   0.0000   0.0000   0.0000   0.3032
   3.800   0.5985   0.00853   0.00255  -0.0332  0.3337  1.0000  -1.3330   0.0000   0.0000   0.0000   0.3020
   3.900   0.6095   0.00858   0.00261  -0.0331  0.3286  1.0000  -1.3632   0.0000   0.0000   0.0000   0.3008
   4.000   0.6203   0.00866   0.00267  -0.0331  0.3207  1.0000  -1.3933   0.0000   0.0000   0.0000   0.2997
   4.100   0.6308   0.00878   0.00274  -0.0330  0.3104  1.0000  -1.4288   0.0000   0.0000   0.0000   0.2986
   4.200   0.6411   0.00893   0.00280  -0.0329  0.2979  1.0000  -1.4671   0.0000   0.0000   0.0000   0.2975
   4.300   0.6516   0.00906   0.00289  -0.0328  0.2863  1.0000  -1.5059   0.0000   0.0000   0.0000   0.2964
   4.400   0.6625   0.00913   0.00296  -0.0327  0.2802  1.0000  -1.5460   0.0000   0.0000   0.0000   0.2955
   4.500   0.6732   0.00923   0.00304  -0.0326  0.2723  1.0000  -1.5870   0.0000   0.0000   0.0000   0.2945
   4.600   0.6837   0.00936   0.00312  -0.0325  0.2633  1.0000  -1.6392   0.0000   0.0000   0.0000   0.2935
   4.700   0.6940   0.00952   0.00320  -0.0324  0.2525  1.0000  -1.6914   0.0000   0.0000   0.0000   0.2926
   4.800   0.7044   0.00966   0.00331  -0.0323  0.2427  1.0000  -1.7442   0.0000   0.0000   0.0000   0.2916
   4.900   0.7154   0.00973   0.00358  -0.0322  0.2377  1.0000  -1.7817   0.0000   0.0000   0.0000   0.2908
   5.000   0.7260   0.00984   0.00370  -0.0322  0.2305  1.0000  -1.8189   0.0000   0.0000   0.0000   0.2899
   5.100   0.7364   0.00998   0.00380  -0.0321  0.2225  1.0000  -1.8793   0.0000   0.0000   0.0000   0.2890
   5.200   0.7466   0.01016   0.00390  -0.0320  0.2124  1.0000  -1.9612   0.0000   0.0000   0.0000   0.2882
   5.300   0.7569   0.01033   0.00403  -0.0318  0.2017  1.0000  -2.0433   0.0000   0.0000   0.0000   0.2874
   5.400   0.7678   0.01040   0.00412  -0.0318  0.1971  1.0000  -2.1297   0.0000   0.0000   0.0000   0.2866
   5.500   0.7783   0.01051   0.00421  -0.0317  0.1897  1.0000  -2.2154   0.0000   0.0000   0.0000   0.2859
   5.600   0.7885   0.01068   0.00432  -0.0316  0.1809  1.0000  -2.3004   0.0000   0.0000   0.0000   0.2851
   5.700   0.7985   0.01089   0.00445  -0.0315  0.1701  1.0000  -2.3848   0.0000   0.0000   0.0000   0.2844
   5.800   0.8090   0.01103   0.00458  -0.0314  0.1632  1.0000  -2.4719   0.0000   0.0000   0.0000   0.2837
   5.900   0.8197   0.01111   0.00468  -0.0313  0.1595  1.0000  -2.5622   0.0000   0.0000   0.0000   0.2830
   6.000   0.8303   0.01123   0.00479  -0.0312  0.1543  1.0000  -2.6523   0.0000   0.0000   0.0000   0.2823
   6.100   0.8406   0.01139   0.00492  -0.0311  0.1483  1.0000  -2.7422   0.0000   0.0000   0.0000   0.2816
   6.200   0.8506   0.01158   0.00506  -0.0310  0.1413  1.0000  -2.8316   0.0000   0.0000   0.0000   0.2810
   6.300   0.8605   0.01182   0.00525  -0.0309  0.1324  1.0000  -2.9198   0.0000   0.0000   0.0000   0.2802
   6.400   0.8710   0.01194   0.00539  -0.0308  0.1287  1.0000  -3.0128   0.0000   0.0000   0.0000   0.2796
   6.500   0.8817   0.01203   0.00551  -0.0307  0.1260  1.0000  -3.1087   0.0000   0.0000   0.0000   0.2790
   6.600   0.8922   0.01215   0.00564  -0.0306  0.1220  1.0000  -3.2044   0.0000   0.0000   0.0000   0.2784
   6.700   0.9024   0.01232   0.00578  -0.0305  0.1172  1.0000  -3.2997   0.0000   0.0000   0.0000   0.2778
   6.800   0.9124   0.01252   0.00594  -0.0304  0.1116  1.0000  -3.3943   0.0000   0.0000   0.0000   0.2771
   6.900   0.9220   0.01279   0.00616  -0.0302  0.1042  1.0000  -3.4864   0.0000   0.0000   0.0000   0.2765
   7.000   0.9318   0.01304   0.00641  -0.0300  0.0987  1.0000  -3.5790   0.0000   0.0000   0.0000   0.2758
   7.100   0.9425   0.01313   0.00653  -0.0299  0.0969  1.0000  -3.6810   0.0000   0.0000   0.0000   0.2753
   7.200   0.9529   0.01324   0.00668  -0.0298  0.0941  1.0000  -3.7824   0.0000   0.0000   0.0000   0.2747
   7.300   0.9632   0.01339   0.00683  -0.0297  0.0901  1.0000  -3.8834   0.0000   0.0000   0.0000   0.2742
   7.400   0.9730   0.01361   0.00699  -0.0296  0.0850  1.0000  -3.9834   0.0000   0.0000   0.0000   0.2736
   7.500   0.9823   0.01392   0.00724  -0.0294  0.0780  1.0000  -4.0789   0.0000   0.0000   0.0000   0.2730
   7.600   0.9914   0.01426   0.00757  -0.0291  0.0720  1.0000  -4.1717   0.0000   0.0000   0.0000   0.2724
   7.700   1.0022   0.01430   0.00764  -0.0291  0.0701  1.0000  -4.2833   0.0000   0.0000   0.0000   0.2719
   7.800   1.0126   0.01440   0.00775  -0.0291  0.0669  1.0000  -4.3928   0.0000   0.0000   0.0000   0.2714
   7.900   1.0225   0.01458   0.00789  -0.0290  0.0625  1.0000  -4.5002   0.0000   0.0000   0.0000   0.2709
   8.100   1.0408   0.01530   0.00878  -0.0283  0.0583  1.0000  -4.6533   0.0000   0.0000   0.0000   0.2696
   8.200   1.0486   0.01586   0.00933  -0.0279  0.0526  1.0000  -4.7300   0.0000   0.0000   0.0000   0.2688
   8.300   1.0569   0.01633   0.00985  -0.0275  0.0493  1.0000  -4.8139   0.0000   0.0000   0.0000   0.2682
   8.400   1.0679   0.01630   0.00982  -0.0275  0.0482  1.0000  -4.9354   0.0000   0.0000   0.0000   0.2678
   8.500   1.0786   0.01634   0.00987  -0.0275  0.0463  1.0000  -5.0544   0.0000   0.0000   0.0000   0.2674
   8.600   1.0887   0.01645   0.00999  -0.0275  0.0438  1.0000  -5.1698   0.0000   0.0000   0.0000   0.2670
   8.700   1.0985   0.01663   0.01014  -0.0274  0.0408  1.0000  -5.2829   0.0000   0.0000   0.0000   0.2665
   8.800   1.1075   0.01693   0.01038  -0.0272  0.0373  1.0000  -5.3892   0.0000   0.0000   0.0000   0.2660
   8.900   1.1141   0.01764   0.01111  -0.0266  0.0324  1.0000  -5.4564   0.0000   0.0000   0.0000   0.2653
   9.000   1.1234   0.01789   0.01139  -0.0265  0.0309  1.0000  -5.5646   0.0000   0.0000   0.0000   0.2648
   9.100   1.1342   0.01788   0.01138  -0.0265  0.0301  1.0000  -5.6981   0.0000   0.0000   0.0000   0.2645
   9.200   1.1443   0.01797   0.01148  -0.0264  0.0290  1.0000  -5.8233   0.0000   0.0000   0.0000   0.2641
   9.300   1.1541   0.01813   0.01166  -0.0263  0.0277  1.0000  -5.9417   0.0000   0.0000   0.0000   0.2636
   9.400   1.1635   0.01834   0.01190  -0.0261  0.0262  1.0000  -6.0543   0.0000   0.0000   0.0000   0.2632
   9.500   1.1725   0.01861   0.01217  -0.0259  0.0246  1.0000  -6.1612   0.0000   0.0000   0.0000   0.2627
   9.600   1.1812   0.01894   0.01248  -0.0257  0.0224  1.0000  -6.2607   0.0000   0.0000   0.0000   0.2622
   9.700   1.1855   0.02000   0.01359  -0.0249  0.0158  1.0000  -6.2109   0.0000   0.0000   0.0000   0.2613
   9.800   1.1934   0.02043   0.01408  -0.0245  0.0146  1.0000  -6.2768   0.0000   0.0000   0.0000   0.2607
   9.900   1.2009   0.02092   0.01464  -0.0240  0.0138  1.0000  -6.3428   0.0000   0.0000   0.0000   0.2600
  10.000   1.2082   0.02142   0.01520  -0.0236  0.0132  1.0000  -6.4143   0.0000   0.0000   0.0000   0.2594
  10.100   1.2155   0.02191   0.01575  -0.0232  0.0128  1.0000  -6.4901   0.0000   0.0000   0.0000   0.2588
  10.200   1.2226   0.02240   0.01630  -0.0227  0.0124  1.0000  -6.5694   0.0000   0.0000   0.0000   0.2582
  10.300   1.2297   0.02289   0.01684  -0.0223  0.0120  1.0000  -6.6517   0.0000   0.0000   0.0000   0.2576
  10.400   1.2367   0.02337   0.01739  -0.0219  0.0117  1.0000  -6.7362   0.0000   0.0000   0.0000   0.2570
  10.500   1.2436   0.02386   0.01793  -0.0214  0.0114  1.0000  -6.8224   0.0000   0.0000   0.0000   0.2564
  10.600   1.2503   0.02436   0.01848  -0.0210  0.0111  1.0000  -6.9096   0.0000   0.0000   0.0000   0.2558
  10.700   1.2568   0.02486   0.01904  -0.0205  0.0109  1.0000  -6.9973   0.0000   0.0000   0.0000   0.2552
  10.800   1.2630   0.02538   0.01961  -0.0200  0.0106  1.0000  -7.0849   0.0000   0.0000   0.0000   0.2546
  10.900   1.2690   0.02592   0.02020  -0.0196  0.0104  1.0000  -7.1713   0.0000   0.0000   0.0000   0.2540
  11.000   1.2746   0.02648   0.02081  -0.0190  0.0101  1.0000  -7.2561   0.0000   0.0000   0.0000   0.2534
  11.100   1.2798   0.02706   0.02146  -0.0185  0.0099  1.0000  -7.3384   0.0000   0.0000   0.0000   0.2528
  11.200   1.2845   0.02768   0.02213  -0.0179  0.0097  1.0000  -7.4173   0.0000   0.0000   0.0000   0.2521
  11.300   1.2887   0.02834   0.02285  -0.0173  0.0094  1.0000  -7.4915   0.0000   0.0000   0.0000   0.2515
  11.400   1.2922   0.02904   0.02362  -0.0166  0.0092  1.0000  -7.5602   0.0000   0.0000   0.0000   0.2508
  11.500   1.2950   0.02980   0.02445  -0.0159  0.0090  1.0000  -7.6222   0.0000   0.0000   0.0000   0.2500
  11.600   1.2968   0.03061   0.02534  -0.0151  0.0088  1.0000  -7.6768   0.0000   0.0000   0.0000   0.2493
  11.700   1.2974   0.03147   0.02627  -0.0142  0.0086  1.0000  -7.7216   0.0000   0.0000   0.0000   0.2484
  11.800   1.2963   0.03235   0.02723  -0.0131  0.0084  1.0000  -7.7546   0.0000   0.0000   0.0000   0.2474
  11.900   1.2940   0.03329   0.02826  -0.0119  0.0082  1.0000  -7.7790   0.0000   0.0000   0.0000   0.2464
  12.000   1.2909   0.03432   0.02937  -0.0108  0.0081  1.0000  -7.7954   0.0000   0.0000   0.0000   0.2454
  12.100   1.2869   0.03544   0.03058  -0.0098  0.0080  1.0000  -7.8047   0.0000   0.0000   0.0000   0.2445
  13.000   1.2629   0.04666   0.04249  -0.0096  0.0066  1.0000  -8.2150   0.0000   0.0000   0.0000   0.2430
  13.100   1.2753   0.04621   0.04200  -0.0096  0.0065  1.0000  -8.4666   0.0000   0.0000   0.0000   0.2427
  13.200   1.2813   0.04662   0.04241  -0.0098  0.0064  1.0000  -8.6271   0.0000   0.0000   0.0000   0.2427
  13.300   1.2846   0.04740   0.04321  -0.0102  0.0063  1.0000  -8.7497   0.0000   0.0000   0.0000   0.2428
  13.400   1.2859   0.04851   0.04435  -0.0108  0.0062  1.0000  -8.8424   0.0000   0.0000   0.0000   0.2430
  13.500   1.2865   0.04974   0.04563  -0.0114  0.0061  1.0000  -8.9238   0.0000   0.0000   0.0000   0.2433
  13.600   1.2856   0.05124   0.04717  -0.0123  0.0061  1.0000  -8.9841   0.0000   0.0000   0.0000   0.2438
  13.700   1.2838   0.05293   0.04891  -0.0132  0.0060  1.0000  -9.0299   0.0000   0.0000   0.0000   0.2443
  13.800   1.2816   0.05471   0.05075  -0.0142  0.0059  1.0000  -9.0683   0.0000   0.0000   0.0000   0.2450
  13.900   1.2777   0.05682   0.05292  -0.0155  0.0059  1.0000  -9.0824   0.0000   0.0000   0.0000   0.2458
  14.000   1.2741   0.05890   0.05506  -0.0167  0.0058  1.0000  -9.0985   0.0000   0.0000   0.0000   0.2466
  14.100   1.2684   0.06142   0.05764  -0.0183  0.0058  1.0000  -9.0824   0.0000   0.0000   0.0000   0.2477
  14.200   1.2632   0.06383   0.06012  -0.0197  0.0058  1.0000  -9.0728   0.0000   0.0000   0.0000   0.2487
  14.300   1.2559   0.06668   0.06305  -0.0215  0.0058  1.0000  -9.0305   0.0000   0.0000   0.0000   0.2500
  14.400   1.2488   0.06950   0.06593  -0.0232  0.0058  1.0000  -8.9890   0.0000   0.0000   0.0000   0.2513
  14.500   1.2395   0.07263   0.06913  -0.0250  0.0058  1.0000  -8.9154   0.0000   0.0000   0.0000   0.2528
  14.600   1.2293   0.07597   0.07255  -0.0270  0.0058  1.0000  -8.8251   0.0000   0.0000   0.0000   0.2544
  14.700   1.2195   0.07931   0.07596  -0.0290  0.0059  1.0000  -8.7375   0.0000   0.0000   0.0000   0.2561
  14.800   1.2059   0.08355   0.08029  -0.0315  0.0060  1.0000  -8.5828   0.0000   0.0000   0.0000   0.2583
  14.900   1.1944   0.08737   0.08418  -0.0338  0.0060  1.0000  -8.4594   0.0000   0.0000   0.0000   0.2603
  15.200   1.0878   0.11538   0.11266  -0.0505  0.0076  1.0000  -6.7278   0.0000   0.0000   0.0000   0.2787
  15.300   1.0818   0.11865   0.11596  -0.0525  0.0076  1.0000  -6.6616   0.0000   0.0000   0.0000   0.2807
  15.400   1.0758   0.12195   0.11931  -0.0545  0.0077  1.0000  -6.5914   0.0000   0.0000   0.0000   0.2828
  15.500   1.0694   0.12552   0.12291  -0.0566  0.0078  1.0000  -6.5085   0.0000   0.0000   0.0000   0.2850
  15.600   1.0630   0.12901   0.12643  -0.0587  0.0079  1.0000  -6.4238   0.0000   0.0000   0.0000   0.2872
  15.700   1.0567   0.13249   0.12995  -0.0608  0.0079  1.0000  -6.3343   0.0000   0.0000   0.0000   0.2895
  15.800   1.0496   0.13625   0.13376  -0.0630  0.0081  1.0000  -6.2254   0.0000   0.0000   0.0000   0.2920
  15.900   1.0411   0.14052   0.13806  -0.0655  0.0082  1.0000  -6.0790   0.0000   0.0000   0.0000   0.2949
  16.000   1.0313   0.14484   0.14243  -0.0681  0.0085  1.0000  -5.9005   0.0000   0.0000   0.0000   0.2980
  16.200   0.9101   0.19134   0.18894  -0.0892  0.0123  1.0000  -2.7612   0.0000   0.0000   0.0000   0.3331
  16.300   0.9106   0.19379   0.19139  -0.0903  0.0121  1.0000  -2.7222   0.0000   0.0000   0.0000   0.3342
  16.400   0.9114   0.19617   0.19376  -0.0913  0.0119  1.0000  -2.6902   0.0000   0.0000   0.0000   0.3352
  16.500   0.9125   0.19844   0.19604  -0.0923  0.0117  1.0000  -2.6708   0.0000   0.0000   0.0000   0.3361
  16.600   0.9138   0.20061   0.19820  -0.0933  0.0114  1.0000  -2.6660   0.0000   0.0000   0.0000   0.3369
  16.700   0.9153   0.20263   0.20022  -0.0942  0.0110  1.0000  -2.6708   0.0000   0.0000   0.0000   0.3377
  16.800   0.9172   0.20448   0.20207  -0.0951  0.0107  1.0000  -2.6878   0.0000   0.0000   0.0000   0.3383
  16.900   0.9195   0.20607   0.20366  -0.0959  0.0103  1.0000  -2.7222   0.0000   0.0000   0.0000   0.3387
  17.000   0.9224   0.20730   0.20490  -0.0966  0.0099  1.0000  -2.7813   0.0000   0.0000   0.0000   0.3390
  17.100   0.9261   0.20808   0.20568  -0.0971  0.0094  1.0000  -2.8719   0.0000   0.0000   0.0000   0.3389
  17.200   0.9292   0.20913   0.20673  -0.0978  0.0090  1.0000  -2.9468   0.0000   0.0000   0.0000   0.3391
  17.300   0.9328   0.20992   0.20752  -0.0984  0.0087  1.0000  -3.0415   0.0000   0.0000   0.0000   0.3391
  17.400   0.9364   0.21057   0.20818  -0.0989  0.0083  1.0000  -3.1471   0.0000   0.0000   0.0000   0.3390
  17.500   0.9395   0.21151   0.20912  -0.0996  0.0080  1.0000  -3.2341   0.0000   0.0000   0.0000   0.3391
  17.600   0.9403   0.21352   0.21113  -0.1006  0.0077  1.0000  -3.2450   0.0000   0.0000   0.0000   0.3399
  17.700   0.9329   0.21967   0.21726  -0.1027  0.0071  1.0000  -2.9621   0.0000   0.0000   0.0000   0.3432
  17.800   0.9281   0.22518   0.22274  -0.1045  0.0068  1.0000  -2.7360   0.0000   0.0000   0.0000   0.3459
  17.900   0.9311   0.22666   0.22422  -0.1053  0.0067  1.0000  -2.7859   0.0000   0.0000   0.0000   0.3462
  18.000   0.9337   0.22841   0.22597  -0.1060  0.0066  1.0000  -2.8193   0.0000   0.0000   0.0000   0.3465
  18.100   0.9358   0.23040   0.22796  -0.1068  0.0065  1.0000  -2.8379   0.0000   0.0000   0.0000   0.3470
  18.200   0.9375   0.23264   0.23020  -0.1077  0.0064  1.0000  -2.8390   0.0000   0.0000   0.0000   0.3476
  18.300   0.9389   0.23510   0.23266  -0.1086  0.0063  1.0000  -2.8237   0.0000   0.0000   0.0000   0.3483
  18.400   0.9399   0.23774   0.23530  -0.1095  0.0062  1.0000  -2.7947   0.0000   0.0000   0.0000   0.3490
  18.500   0.9407   0.24051   0.23807  -0.1104  0.0061  1.0000  -2.7556   0.0000   0.0000   0.0000   0.3498
  18.600   0.9414   0.24336   0.24091  -0.1113  0.0061  1.0000  -2.7102   0.0000   0.0000   0.0000   0.3506
  18.700   0.9420   0.24625   0.24380  -0.1122  0.0060  1.0000  -2.6613   0.0000   0.0000   0.0000   0.3514
  18.800   0.9426   0.24916   0.24672  -0.1131  0.0060  1.0000  -2.6105   0.0000   0.0000   0.0000   0.3523
  18.900   0.9431   0.25209   0.24964  -0.1140  0.0061  1.0000  -2.5588   0.0000   0.0000   0.0000   0.3531
  19.000   0.9435   0.25504   0.25259  -0.1149  0.0061  1.0000  -2.5060   0.0000   0.0000   0.0000   0.3539
  19.100   0.9438   0.25803   0.25558  -0.1158  0.0062  1.0000  -2.4509   0.0000   0.0000   0.0000   0.3547
  19.200   0.9438   0.26113   0.25868  -0.1166  0.0063  1.0000  -2.3896   0.0000   0.0000   0.0000   0.3555
  19.300   0.9427   0.26480   0.26235  -0.1175  0.0065  1.0000  -2.2926   0.0000   0.0000   0.0000   0.3565
  19.800   0.9502   0.27835   0.27594  -0.1212  0.0088  1.0000  -2.0462   0.0000   0.0000   0.0000   0.3591
  19.900   0.9505   0.28130   0.27888  -0.1220  0.0089  1.0000  -1.9977   0.0000   0.0000   0.0000   0.3598
  20.000   0.9510   0.28390   0.28149  -0.1228  0.0089  1.0000  -1.9711   0.0000   0.0000   0.0000   0.3605
  20.100   0.9517   0.28638   0.28397  -0.1235  0.0089  1.0000  -1.9527   0.0000   0.0000   0.0000   0.3610
  20.200   0.9523   0.28879   0.28638  -0.1242  0.0089  1.0000  -1.9387   0.0000   0.0000   0.0000   0.3615
  20.300   0.9529   0.29114   0.28874  -0.1248  0.0089  1.0000  -1.9277   0.0000   0.0000   0.0000   0.3620
  20.400   0.9535   0.29345   0.29105  -0.1255  0.0089  1.0000  -1.9187   0.0000   0.0000   0.0000   0.3625
  20.500   0.9540   0.29572   0.29333  -0.1261  0.0088  1.0000  -1.9113   0.0000   0.0000   0.0000   0.3630
  20.600   0.9543   0.29797   0.29558  -0.1267  0.0088  1.0000  -1.9050   0.0000   0.0000   0.0000   0.3634
  20.700   0.9546   0.30018   0.29779  -0.1273  0.0087  1.0000  -1.8998   0.0000   0.0000   0.0000   0.3639
  20.800   0.9548   0.30235   0.29998  -0.1279  0.0087  1.0000  -1.8953   0.0000   0.0000   0.0000   0.3643
  20.900   0.9549   0.30449   0.30212  -0.1284  0.0086  1.0000  -1.8914   0.0000   0.0000   0.0000   0.3647
  21.000   0.9548   0.30660   0.30423  -0.1289  0.0086  1.0000  -1.8881   0.0000   0.0000   0.0000   0.3652
  21.100   0.9545   0.30866   0.30630  -0.1294  0.0085  1.0000  -1.8850   0.0000   0.0000   0.0000   0.3656
  21.200   0.9540   0.31067   0.30831  -0.1299  0.0084  1.0000  -1.8821   0.0000   0.0000   0.0000   0.3660
  21.300   0.9533   0.31262   0.31027  -0.1303  0.0084  1.0000  -1.8792   0.0000   0.0000   0.0000   0.3665
  21.400   0.9522   0.31450   0.31216  -0.1307  0.0083  1.0000  -1.8760   0.0000   0.0000   0.0000   0.3669
  21.500   0.9508   0.31629   0.31397  -0.1310  0.0083  1.0000  -1.8723   0.0000   0.0000   0.0000   0.3673
  21.600   0.9490   0.31797   0.31566  -0.1313  0.0082  1.0000  -1.8675   0.0000   0.0000   0.0000   0.3678
  21.700   0.9464   0.31950   0.31719  -0.1315  0.0082  1.0000  -1.8610   0.0000   0.0000   0.0000   0.3683
  21.800   0.9013   0.31153   0.30931  -0.1270  0.0083  1.0000  -1.6969   0.0000   0.0000   0.0000   0.3708
  21.900   0.8930   0.31074   0.30854  -0.1265  0.0082  1.0000  -1.6704   0.0000   0.0000   0.0000   0.3715
  22.000   0.8871   0.31042   0.30824  -0.1262  0.0082  1.0000  -1.6531   0.0000   0.0000   0.0000   0.3722
  22.100   0.8823   0.31031   0.30815  -0.1261  0.0081  1.0000  -1.6406   0.0000   0.0000   0.0000   0.3727
  22.200   0.8783   0.31032   0.30817  -0.1260  0.0081  1.0000  -1.6313   0.0000   0.0000   0.0000   0.3732
  22.300   0.8748   0.31041   0.30828  -0.1260  0.0080  1.0000  -1.6244   0.0000   0.0000   0.0000   0.3737
  22.400   0.8716   0.31056   0.30843  -0.1260  0.0079  1.0000  -1.6194   0.0000   0.0000   0.0000   0.3741
  22.500   0.8688   0.31074   0.30862  -0.1260  0.0079  1.0000  -1.6159   0.0000   0.0000   0.0000   0.3745
  22.600   0.8662   0.31095   0.30885  -0.1261  0.0078  1.0000  -1.6137   0.0000   0.0000   0.0000   0.3749
  22.700   0.8638   0.31120   0.30911  -0.1261  0.0078  1.0000  -1.6126   0.0000   0.0000   0.0000   0.3753
  22.800   0.8617   0.31147   0.30939  -0.1262  0.0077  1.0000  -1.6123   0.0000   0.0000   0.0000   0.3756
  22.900   0.8596   0.31177   0.30970  -0.1262  0.0076  1.0000  -1.6125   0.0000   0.0000   0.0000   0.3759
  23.000   0.8574   0.31214   0.31008  -0.1264  0.0076  1.0000  -1.6063   0.0000   0.0000   0.0000   0.3763
  23.100   0.8551   0.31254   0.31049  -0.1265  0.0075  1.0000  -1.5975   0.0000   0.0000   0.0000   0.3768
  23.200   0.8526   0.31300   0.31095  -0.1265  0.0074  1.0000  -1.5844   0.0000   0.0000   0.0000   0.3772
  23.300   0.8496   0.31355   0.31152  -0.1266  0.0073  1.0000  -1.5586   0.0000   0.0000   0.0000   0.3777
  23.400   0.8372   0.31561   0.31356  -0.1260  0.0069  1.0000  -1.3379   0.0000   0.0000   0.0000   0.3796
  23.500   0.8360   0.31620   0.31416  -0.1263  0.0069  1.0000  -1.3264   0.0000   0.0000   0.0000   0.3801
  23.600   0.8349   0.31680   0.31476  -0.1266  0.0069  1.0000  -1.3151   0.0000   0.0000   0.0000   0.3805
  23.700   0.8338   0.31740   0.31537  -0.1269  0.0069  1.0000  -1.3041   0.0000   0.0000   0.0000   0.3809
  23.800   0.8328   0.31801   0.31599  -0.1272  0.0069  1.0000  -1.2932   0.0000   0.0000   0.0000   0.3814
  23.900   0.8318   0.31862   0.31661  -0.1275  0.0069  1.0000  -1.2825   0.0000   0.0000   0.0000   0.3818
  24.000   0.8309   0.31924   0.31724  -0.1278  0.0069  1.0000  -1.2722   0.0000   0.0000   0.0000   0.3822
  24.100   0.8301   0.31987   0.31787  -0.1281  0.0069  1.0000  -1.2620   0.0000   0.0000   0.0000   0.3827
  24.200   0.8292   0.32050   0.31851  -0.1284  0.0069  1.0000  -1.2521   0.0000   0.0000   0.0000   0.3831
  24.300   0.8285   0.32114   0.31915  -0.1287  0.0069  1.0000  -1.2424   0.0000   0.0000   0.0000   0.3835
  24.400   0.8278   0.32178   0.31980  -0.1291  0.0069  1.0000  -1.2329   0.0000   0.0000   0.0000   0.3839
  24.500   0.8271   0.32242   0.32045  -0.1294  0.0069  1.0000  -1.2236   0.0000   0.0000   0.0000   0.3843
  24.600   0.8264   0.32308   0.32116  -0.1297  0.0069  1.0000  -1.2152   0.0000   0.0000   0.0000   0.3847
  24.700   0.8258   0.32373   0.32182  -0.1300  0.0069  1.0000  -1.2065   0.0000   0.0000   0.0000   0.3851
  24.800   0.8253   0.32439   0.32248  -0.1304  0.0069  1.0000  -1.1979   0.0000   0.0000   0.0000   0.3855
  24.900   0.8247   0.32505   0.32315  -0.1307  0.0069  1.0000  -1.1894   0.0000   0.0000   0.0000   0.3859
  25.000   0.8242   0.32571   0.32381  -0.1311  0.0069  1.0000  -1.1811   0.0000   0.0000   0.0000   0.3863
  25.100   0.8237   0.32637   0.32448  -0.1314  0.0069  1.0000  -1.1729   0.0000   0.0000   0.0000   0.3867
  25.200   0.8233   0.32704   0.32516  -0.1318  0.0069  1.0000  -1.1649   0.0000   0.0000   0.0000   0.3870
  25.300   0.8228   0.32771   0.32583  -0.1321  0.0069  1.0000  -1.1570   0.0000   0.0000   0.0000   0.3874
  25.400   0.8224   0.32838   0.32651  -0.1325  0.0069  1.0000  -1.1493   0.0000   0.0000   0.0000   0.3878
  25.500   0.8220   0.32905   0.32719  -0.1328  0.0069  1.0000  -1.1417   0.0000   0.0000   0.0000   0.3882
  25.600   0.8217   0.32972   0.32787  -0.1332  0.0069  1.0000  -1.1342   0.0000   0.0000   0.0000   0.3885
  25.700   0.8213   0.33040   0.32855  -0.1336  0.0068  1.0000  -1.1268   0.0000   0.0000   0.0000   0.3889
  25.800   0.8210   0.33107   0.32922  -0.1339  0.0068  1.0000  -1.1193   0.0000   0.0000   0.0000   0.3893
  25.900   0.8207   0.33173   0.32989  -0.1343  0.0068  1.0000  -1.1116   0.0000   0.0000   0.0000   0.3897
  26.000   0.8204   0.33240   0.33056  -0.1347  0.0068  1.0000  -1.1041   0.0000   0.0000   0.0000   0.3901
  26.100   0.8201   0.33306   0.33124  -0.1351  0.0068  1.0000  -1.0967   0.0000   0.0000   0.0000   0.3905
  26.200   0.8198   0.33373   0.33191  -0.1355  0.0068  1.0000  -1.0895   0.0000   0.0000   0.0000   0.3909
  26.300   0.8196   0.33440   0.33259  -0.1359  0.0068  1.0000  -1.0825   0.0000   0.0000   0.0000   0.3912
  26.400   0.8194   0.33507   0.33326  -0.1363  0.0068  1.0000  -1.0756   0.0000   0.0000   0.0000   0.3916
  26.500   0.8191   0.33574   0.33394  -0.1367  0.0068  1.0000  -1.0684   0.0000   0.0000   0.0000   0.3920
  26.600   0.8189   0.33642   0.33462  -0.1371  0.0068  1.0000  -1.0615   0.0000   0.0000   0.0000   0.3924
  26.700   0.8187   0.33709   0.33530  -0.1375  0.0068  1.0000  -1.0547   0.0000   0.0000   0.0000   0.3928
  26.800   0.8186   0.33776   0.33598  -0.1379  0.0068  1.0000  -1.0480   0.0000   0.0000   0.0000   0.3931
  26.900   0.8184   0.33844   0.33666  -0.1383  0.0068  1.0000  -1.0414   0.0000   0.0000   0.0000   0.3935
  27.000   0.8182   0.33912   0.33734  -0.1387  0.0068  1.0000  -1.0350   0.0000   0.0000   0.0000   0.3939
  27.100   0.8181   0.33979   0.33802  -0.1392  0.0068  1.0000  -1.0288   0.0000   0.0000   0.0000   0.3942
  27.200   0.8180   0.34047   0.33871  -0.1396  0.0068  1.0000  -1.0226   0.0000   0.0000   0.0000   0.3946
  27.300   0.8179   0.34115   0.33940  -0.1400  0.0068  1.0000  -1.0166   0.0000   0.0000   0.0000   0.3950
  27.400   0.8178   0.34184   0.34008  -0.1404  0.0067  1.0000  -1.0107   0.0000   0.0000   0.0000   0.3953
  27.500   0.8177   0.34252   0.34077  -0.1408  0.0067  1.0000  -1.0050   0.0000   0.0000   0.0000   0.3957
  27.600   0.8176   0.34320   0.34146  -0.1412  0.0067  1.0000  -0.9993   0.0000   0.0000   0.0000   0.3960
  27.700   0.8175   0.34389   0.34216  -0.1416  0.0067  1.0000  -0.9937   0.0000   0.0000   0.0000   0.3964
  27.800   0.8174   0.34457   0.34284  -0.1420  0.0067  1.0000  -0.9883   0.0000   0.0000   0.0000   0.3967
  27.900   0.8174   0.34526   0.34354  -0.1425  0.0067  1.0000  -0.9830   0.0000   0.0000   0.0000   0.3971
  28.000   0.8174   0.34595   0.34423  -0.1429  0.0067  1.0000  -0.9777   0.0000   0.0000   0.0000   0.3974
  28.100   0.8173   0.34664   0.34492  -0.1433  0.0067  1.0000  -0.9726   0.0000   0.0000   0.0000   0.3977
  28.200   0.8173   0.34732   0.34562  -0.1437  0.0067  1.0000  -0.9675   0.0000   0.0000   0.0000   0.3981
  28.300   0.8173   0.34801   0.34631  -0.1441  0.0067  1.0000  -0.9626   0.0000   0.0000   0.0000   0.3984
  28.400   0.8173   0.34870   0.34701  -0.1446  0.0067  1.0000  -0.9577   0.0000   0.0000   0.0000   0.3987
  28.500   0.8172   0.34940   0.34771  -0.1450  0.0067  1.0000  -0.9526   0.0000   0.0000   0.0000   0.3991
  28.600   0.8172   0.35009   0.34841  -0.1454  0.0066  1.0000  -0.9471   0.0000   0.0000   0.0000   0.3994
  28.700   0.8172   0.35078   0.34911  -0.1459  0.0066  1.0000  -0.9417   0.0000   0.0000   0.0000   0.3998
  28.800   0.8172   0.35148   0.34981  -0.1463  0.0066  1.0000  -0.9365   0.0000   0.0000   0.0000   0.4001
  28.900   0.8172   0.35217   0.35051  -0.1467  0.0066  1.0000  -0.9313   0.0000   0.0000   0.0000   0.4004
  29.000   0.8172   0.35287   0.35121  -0.1472  0.0066  1.0000  -0.9262   0.0000   0.0000   0.0000   0.4008
  29.100   0.8172   0.35356   0.35191  -0.1476  0.0066  1.0000  -0.9212   0.0000   0.0000   0.0000   0.4011


