xflr5 v6.61

 Calculated polar for: SD7032-099-88

 1 1 Reynolds number fixed          Mach number fixed         

 xtrf =   1.000 (top)        1.000 (bottom)
 Mach =   0.000     Re =     0.200 e 6     Ncrit =   9.000

  alpha     CL        CD       CDp       Cm    Top Xtr Bot Xtr   Cpmin    Chinge    XCp    
 ------- -------- --------- --------- -------- ------- ------- -------- --------- ---------
 -10.000  -0.3150   0.11898   0.11511  -0.0333  1.0000  0.0323  -1.4026   0.0000   0.0000   0.0000   0.1354
  -9.900  -0.3129   0.11787   0.11400  -0.0339  1.0000  0.0324  -1.4077   0.0000   0.0000   0.0000   0.1330
  -9.800  -0.3108   0.11673   0.11288  -0.0344  1.0000  0.0325  -1.4129   0.0000   0.0000   0.0000   0.1306
  -9.700  -0.3088   0.11557   0.11174  -0.0349  1.0000  0.0325  -1.4184   0.0000   0.0000   0.0000   0.1283
  -9.600  -0.3070   0.11441   0.11059  -0.0354  1.0000  0.0326  -1.4241   0.0000   0.0000   0.0000   0.1261
  -9.500  -0.3052   0.11323   0.10943  -0.0359  1.0000  0.0326  -1.4300   0.0000   0.0000   0.0000   0.1239
  -9.400  -0.3035   0.11205   0.10826  -0.0363  1.0000  0.0327  -1.4361   0.0000   0.0000   0.0000   0.1218
  -9.300  -0.3020   0.11087   0.10710  -0.0368  1.0000  0.0327  -1.4425   0.0000   0.0000   0.0000   0.1199
  -9.200  -0.3006   0.10970   0.10594  -0.0372  1.0000  0.0327  -1.4492   0.0000   0.0000   0.0000   0.1181
  -9.100  -0.2994   0.10853   0.10479  -0.0375  1.0000  0.0327  -1.4560   0.0000   0.0000   0.0000   0.1164
  -9.000  -0.2984   0.10737   0.10364  -0.0378  1.0000  0.0328  -1.4632   0.0000   0.0000   0.0000   0.1150
  -8.900  -0.2975   0.10622   0.10252  -0.0381  1.0000  0.0328  -1.4706   0.0000   0.0000   0.0000   0.1138
  -8.800  -0.2969   0.10509   0.10140  -0.0384  1.0000  0.0328  -1.4783   0.0000   0.0000   0.0000   0.1128
  -8.700  -0.2966   0.10398   0.10031  -0.0385  1.0000  0.0328  -1.4863   0.0000   0.0000   0.0000   0.1122
  -8.600  -0.2966   0.10290   0.09926  -0.0386  1.0000  0.0329  -1.4946   0.0000   0.0000   0.0000   0.1121
  -8.500  -0.2971   0.10186   0.09824  -0.0386  1.0000  0.0329  -1.5033   0.0000   0.0000   0.0000   0.1124
  -8.400  -0.2979   0.10085   0.09726  -0.0385  1.0000  0.0329  -1.5124   0.0000   0.0000   0.0000   0.1132
  -8.300  -0.2993   0.09991   0.09634  -0.0383  1.0000  0.0329  -1.5218   0.0000   0.0000   0.0000   0.1147
  -8.200  -0.3013   0.09903   0.09549  -0.0379  1.0000  0.0329  -1.5317   0.0000   0.0000   0.0000   0.1170
  -8.100  -0.3041   0.09822   0.09471  -0.0374  1.0000  0.0329  -1.5421   0.0000   0.0000   0.0000   0.1201
  -8.000  -0.3076   0.09749   0.09401  -0.0367  1.0000  0.0329  -1.5529   0.0000   0.0000   0.0000   0.1239
  -7.900  -0.3118   0.09684   0.09338  -0.0359  1.0000  0.0329  -1.5642   0.0000   0.0000   0.0000   0.1284
  -7.800  -0.3166   0.09624   0.09281  -0.0349  1.0000  0.0329  -1.5759   0.0000   0.0000   0.0000   0.1335
  -7.700  -0.3219   0.09570   0.09230  -0.0338  1.0000  0.0329  -1.5880   0.0000   0.0000   0.0000   0.1388
  -7.600  -0.3278   0.09520   0.09184  -0.0327  1.0000  0.0329  -1.6006   0.0000   0.0000   0.0000   0.1444
  -7.500  -0.3342   0.09475   0.09142  -0.0315  1.0000  0.0329  -1.6135   0.0000   0.0000   0.0000   0.1502
  -7.400  -0.3410   0.09434   0.09104  -0.0302  1.0000  0.0329  -1.6269   0.0000   0.0000   0.0000   0.1560
  -7.300  -0.3481   0.09394   0.09067  -0.0290  1.0000  0.0330  -1.6407   0.0000   0.0000   0.0000   0.1616
  -7.200  -0.3548   0.09347   0.09023  -0.0279  1.0000  0.0330  -1.6546   0.0000   0.0000   0.0000   0.1665
  -7.100  -0.3601   0.09281   0.08960  -0.0272  1.0000  0.0330  -1.6683   0.0000   0.0000   0.0000   0.1697
  -7.000  -0.3644   0.09202   0.08883  -0.0269  1.0000  0.0330  -1.6821   0.0000   0.0000   0.0000   0.1717
  -6.900  -0.3683   0.09116   0.08800  -0.0266  1.0000  0.0330  -1.6962   0.0000   0.0000   0.0000   0.1732
  -6.800  -0.3588   0.08876   0.08559  -0.0303  0.9981  0.0330  -1.7093   0.0000   0.0000   0.0000   0.1609
  -6.700  -0.3549   0.08375   0.08062  -0.0356  0.9957  0.0334  -1.8119   0.0000   0.0000   0.0000   0.1450
  -6.600  -0.3559   0.07858   0.07545  -0.0396  0.9932  0.0343  -1.9080   0.0000   0.0000   0.0000   0.1342
  -6.500  -0.3495   0.07564   0.07249  -0.0427  0.9911  0.0349  -1.9204   0.0000   0.0000   0.0000   0.1233
  -6.400  -0.3407   0.07308   0.06992  -0.0458  0.9892  0.0354  -1.9159   0.0000   0.0000   0.0000   0.1111
  -6.300  -0.3309   0.07119   0.06802  -0.0477  0.9878  0.0359  -1.8815   0.0000   0.0000   0.0000   0.1013
  -6.200  -0.3219   0.06940   0.06623  -0.0495  0.9856  0.0364  -1.8531   0.0000   0.0000   0.0000   0.0914
  -6.100  -0.3134   0.06765   0.06446  -0.0515  0.9828  0.0368  -1.8293   0.0000   0.0000   0.0000   0.0811
  -6.000  -0.3033   0.06578   0.06258  -0.0538  0.9801  0.0374  -1.8061   0.0000   0.0000   0.0000   0.0678
  -5.900  -0.2920   0.06381   0.06059  -0.0566  0.9777  0.0379  -1.7844   0.0000   0.0000   0.0000   0.0513
  -5.800  -0.2794   0.06175   0.05850  -0.0597  0.9757  0.0386  -1.7642   0.0000   0.0000   0.0000   0.0314
  -5.700  -0.2659   0.05964   0.05635  -0.0630  0.9739  0.0393  -1.7454   0.0000   0.0000   0.0000   0.0081
  -5.600  -0.2516   0.05746   0.05412  -0.0665  0.9725  0.0402  -1.7296   0.0000   0.0000   0.0000  -0.0195
  -5.500  -0.2407   0.05552   0.05214  -0.0690  0.9699  0.0410  -1.7210   0.0000   0.0000   0.0000  -0.0421
  -5.400  -0.2333   0.05384   0.05042  -0.0705  0.9658  0.0417  -1.7175   0.0000   0.0000   0.0000  -0.0577
  -5.300  -0.2223   0.05192   0.04843  -0.0728  0.9627  0.0426  -1.7127   0.0000   0.0000   0.0000  -0.0832
  -5.200  -0.2094   0.04989   0.04632  -0.0755  0.9602  0.0437  -1.7085   0.0000   0.0000   0.0000  -0.1163
  -5.100  -0.1951   0.04780   0.04403  -0.0783  0.9580  0.0449  -1.7085   0.0000   0.0000   0.0000  -0.1576
  -5.000  -0.1795   0.04566   0.04177  -0.0811  0.9561  0.0462  -1.7077   0.0000   0.0000   0.0000  -0.2089
  -4.900  -0.1629   0.04353   0.03951  -0.0840  0.9545  0.0476  -1.7085   0.0000   0.0000   0.0000  -0.2731
  -4.800  -0.1459   0.04144   0.03728  -0.0866  0.9531  0.0484  -1.7075   0.0000   0.0000   0.0000  -0.3522
  -4.700  -0.1290   0.03914   0.03482  -0.0892  0.9520  0.0479  -1.7130   0.0000   0.0000   0.0000  -0.4509
  -4.600  -0.1090   0.03258   0.02762  -0.0922  0.9509  0.0277  -2.0738   0.0000   0.0000   0.0000  -0.6084
  -4.500  -0.1058   0.03088   0.02576  -0.0913  0.9454  0.0259  -2.1201   0.0000   0.0000   0.0000  -0.6257
  -4.400  -0.0946   0.02815   0.02268  -0.0918  0.9419  0.0230  -2.2324   0.0000   0.0000   0.0000  -0.7346
  -4.300  -0.0801   0.02505   0.01905  -0.0924  0.9396  0.0200  -2.4122   0.0000   0.0000   0.0000  -0.9206
  -4.200  -0.0647   0.02363   0.01734  -0.0930  0.9376  0.0189  -2.4402   0.0000   0.0000   0.0000  -1.2072
  -4.100  -0.0491   0.02270   0.01623  -0.0937  0.9358  0.0184  -2.4082   0.0000   0.0000   0.0000  -1.6863
  -4.000  -0.0333   0.02185   0.01522  -0.0945  0.9343  0.0182  -2.3628   0.0000   0.0000   0.0000  -2.6278
  -3.900  -0.0173   0.02098   0.01421  -0.0954  0.9330  0.0181  -2.3147   0.0000   0.0000   0.0000  -5.3394
  -3.800  -0.0010   0.02008   0.01317  -0.0964  0.9318  0.0182  -2.2663   0.0000   0.0000   0.0000  -96.4608
  -3.700   0.0152   0.01918   0.01215  -0.0973  0.9305  0.0185  -2.2169   0.0000   0.0000   0.0000   6.7340
  -3.600   0.0314   0.01835   0.01121  -0.0981  0.9293  0.0191  -2.1620   0.0000   0.0000   0.0000   3.4161
  -3.500   0.0477   0.01762   0.01041  -0.0990  0.9280  0.0199  -2.0966   0.0000   0.0000   0.0000   2.3505
  -3.400   0.0641   0.01704   0.00979  -0.0999  0.9268  0.0210  -2.0187   0.0000   0.0000   0.0000   1.8271
  -3.300   0.0803   0.01659   0.00932  -0.1008  0.9255  0.0224  -1.9331   0.0000   0.0000   0.0000   1.5178
  -3.200   0.0893   0.01633   0.00904  -0.1003  0.9216  0.0237  -1.8708   0.0000   0.0000   0.0000   1.3839
  -3.100   0.0968   0.01610   0.00881  -0.0995  0.9166  0.0249  -1.8155   0.0000   0.0000   0.0000   1.2881
  -3.000   0.1081   0.01584   0.00854  -0.0994  0.9129  0.0266  -1.7520   0.0000   0.0000   0.0000   1.1783
  -2.900   0.1208   0.01558   0.00826  -0.0996  0.9100  0.0284  -1.6889   0.0000   0.0000   0.0000   1.0820
  -2.800   0.1340   0.01534   0.00800  -0.0998  0.9074  0.0302  -1.6276   0.0000   0.0000   0.0000   1.0015
  -2.700   0.1477   0.01512   0.00776  -0.1002  0.9050  0.0317  -1.5664   0.0000   0.0000   0.0000   0.9340
  -2.600   0.1616   0.01493   0.00756  -0.1005  0.9027  0.0329  -1.5035   0.0000   0.0000   0.0000   0.8771
  -2.500   0.1755   0.01432   0.00688  -0.1009  0.9005  0.0369  -1.4952   0.0000   0.0000   0.0000   0.8293
  -2.400   0.1896   0.01400   0.00664  -0.1014  0.8984  0.0462  -1.4386   0.0000   0.0000   0.0000   0.7887
  -2.300   0.2026   0.01278   0.00608  -0.1020  0.8964  0.1855  -1.5259   0.0000   0.0000   0.0000   0.7567
  -2.200   0.2142   0.01225   0.00600  -0.1023  0.8938  0.2964  -1.4796   0.0000   0.0000   0.0000   0.7305
  -2.100   0.2207   0.01197   0.00599  -0.1015  0.8885  0.3641  -1.4362   0.0000   0.0000   0.0000   0.7128
  -2.000   0.2289   0.01166   0.00598  -0.1010  0.8839  0.4471  -1.3854   0.0000   0.0000   0.0000   0.6936
  -1.900   0.2375   0.01133   0.00600  -0.1004  0.8798  0.5450  -1.3318   0.0000   0.0000   0.0000   0.6748
  -1.800   0.2464   0.01106   0.00601  -0.0996  0.8763  0.6179  -1.2766   0.0000   0.0000   0.0000   0.6562
  -1.700   0.2562   0.01088   0.00597  -0.0990  0.8730  0.6676  -1.2186   0.0000   0.0000   0.0000   0.6379
  -1.500   0.2765   0.01059   0.00582  -0.0976  0.8671  0.7405  -1.0991   0.0000   0.0000   0.0000   0.6043
  -1.400   0.2867   0.01046   0.00572  -0.0969  0.8642  0.7690  -1.0364   0.0000   0.0000   0.0000   0.5892
  -1.300   0.2965   0.01035   0.00556  -0.0961  0.8612  0.8022  -0.9414   0.0000   0.0000   0.0000   0.5750
  -1.200   0.3019   0.01027   0.00556  -0.0945  0.8568  0.8360  -0.9004   0.0000   0.0000   0.0000   0.5635
  -1.100   0.3080   0.01019   0.00552  -0.0930  0.8516  0.8639  -0.8585   0.0000   0.0000   0.0000   0.5526
  -1.000   0.3161   0.01009   0.00544  -0.0920  0.8467  0.8909  -0.8120   0.0000   0.0000   0.0000   0.5414
  -0.800   0.3458   0.00981   0.00513  -0.0926  0.8391  0.9561  -0.6884   0.0000   0.0000   0.0000   0.5179
  -0.700   0.3684   0.00966   0.00493  -0.0948  0.8360  1.0000  -0.6224   0.0000   0.0000   0.0000   0.5072
  -0.600   0.3800   0.00961   0.00481  -0.0948  0.8322  1.0000  -0.6332   0.0000   0.0000   0.0000   0.4992
  -0.500   0.3918   0.00956   0.00468  -0.0948  0.8284  1.0000  -0.6443   0.0000   0.0000   0.0000   0.4915
  -0.400   0.4039   0.00953   0.00457  -0.0948  0.8246  1.0000  -0.6556   0.0000   0.0000   0.0000   0.4842
  -0.300   0.4146   0.00954   0.00453  -0.0947  0.8199  1.0000  -0.6658   0.0000   0.0000   0.0000   0.4778
  -0.200   0.4245   0.00954   0.00450  -0.0945  0.8143  1.0000  -0.6755   0.0000   0.0000   0.0000   0.4718
  -0.100   0.4348   0.00953   0.00444  -0.0943  0.8086  1.0000  -0.6857   0.0000   0.0000   0.0000   0.4660
   0.000   0.4456   0.00951   0.00437  -0.0941  0.8030  1.0000  -0.6961   0.0000   0.0000   0.0000   0.4602
   0.100   0.4566   0.00947   0.00428  -0.0940  0.7978  1.0000  -0.7068   0.0000   0.0000   0.0000   0.4547
   0.200   0.4681   0.00944   0.00418  -0.0939  0.7930  1.0000  -0.7179   0.0000   0.0000   0.0000   0.4493
   0.300   0.4797   0.00942   0.00409  -0.0938  0.7884  1.0000  -0.7290   0.0000   0.0000   0.0000   0.4442
   0.400   0.4915   0.00943   0.00403  -0.0938  0.7837  1.0000  -0.7416   0.0000   0.0000   0.0000   0.4394
   0.500   0.5022   0.00946   0.00403  -0.0937  0.7788  1.0000  -0.7536   0.0000   0.0000   0.0000   0.4350
   0.600   0.5125   0.00948   0.00403  -0.0935  0.7732  1.0000  -0.7653   0.0000   0.0000   0.0000   0.4308
   0.700   0.5230   0.00948   0.00401  -0.0933  0.7672  1.0000  -0.7772   0.0000   0.0000   0.0000   0.4268
   0.800   0.5337   0.00948   0.00397  -0.0932  0.7610  1.0000  -0.7894   0.0000   0.0000   0.0000   0.4228
   0.900   0.5448   0.00948   0.00391  -0.0930  0.7549  1.0000  -0.8019   0.0000   0.0000   0.0000   0.4188
   1.000   0.5560   0.00947   0.00384  -0.0929  0.7490  1.0000  -0.8156   0.0000   0.0000   0.0000   0.4150
   1.100   0.5674   0.00949   0.00377  -0.0927  0.7429  1.0000  -0.8303   0.0000   0.0000   0.0000   0.4114
   1.200   0.5784   0.00953   0.00376  -0.0926  0.7368  1.0000  -0.8447   0.0000   0.0000   0.0000   0.4080
   1.300   0.5887   0.00955   0.00378  -0.0925  0.7307  1.0000  -0.8585   0.0000   0.0000   0.0000   0.4048
   1.400   0.5992   0.00958   0.00379  -0.0923  0.7241  1.0000  -0.8726   0.0000   0.0000   0.0000   0.4017
   1.500   0.6100   0.00960   0.00378  -0.0922  0.7175  1.0000  -0.8869   0.0000   0.0000   0.0000   0.3987
   1.600   0.6209   0.00963   0.00376  -0.0920  0.7111  1.0000  -0.9014   0.0000   0.0000   0.0000   0.3957
   1.700   0.6319   0.00966   0.00373  -0.0919  0.7049  1.0000  -0.9161   0.0000   0.0000   0.0000   0.3928
   1.800   0.6430   0.00972   0.00371  -0.0918  0.6984  1.0000  -0.9309   0.0000   0.0000   0.0000   0.3900
   1.900   0.6540   0.00980   0.00374  -0.0917  0.6920  1.0000  -0.9456   0.0000   0.0000   0.0000   0.3874
   2.000   0.6644   0.00983   0.00378  -0.0916  0.6862  1.0000  -0.9597   0.0000   0.0000   0.0000   0.3849
   2.100   0.6749   0.00987   0.00382  -0.0914  0.6794  1.0000  -0.9740   0.0000   0.0000   0.0000   0.3825
   2.200   0.6855   0.00991   0.00389  -0.0913  0.6720  1.0000  -0.9886   0.0000   0.0000   0.0000   0.3800
   2.300   0.6961   0.00996   0.00388  -0.0911  0.6645  1.0000  -1.0048   0.0000   0.0000   0.0000   0.3777
   2.400   0.7068   0.01002   0.00386  -0.0909  0.6569  1.0000  -1.0220   0.0000   0.0000   0.0000   0.3753
   2.500   0.7176   0.01012   0.00387  -0.0907  0.6488  1.0000  -1.0392   0.0000   0.0000   0.0000   0.3731
   2.600   0.7281   0.01018   0.00392  -0.0906  0.6424  1.0000  -1.0562   0.0000   0.0000   0.0000   0.3710
   2.700   0.7386   0.01022   0.00397  -0.0905  0.6358  1.0000  -1.0731   0.0000   0.0000   0.0000   0.3689
   2.800   0.7491   0.01028   0.00400  -0.0903  0.6284  1.0000  -1.0902   0.0000   0.0000   0.0000   0.3669
   2.900   0.7595   0.01034   0.00403  -0.0902  0.6207  1.0000  -1.1074   0.0000   0.0000   0.0000   0.3650
   3.000   0.7700   0.01042   0.00404  -0.0900  0.6129  1.0000  -1.1246   0.0000   0.0000   0.0000   0.3630
   3.100   0.7803   0.01053   0.00406  -0.0898  0.6046  1.0000  -1.1419   0.0000   0.0000   0.0000   0.3611
   3.200   0.7909   0.01065   0.00411  -0.0896  0.5965  1.0000  -1.1592   0.0000   0.0000   0.0000   0.3593
   3.300   0.8013   0.01069   0.00418  -0.0895  0.5903  1.0000  -1.1764   0.0000   0.0000   0.0000   0.3575
   3.400   0.8117   0.01075   0.00424  -0.0894  0.5830  1.0000  -1.1937   0.0000   0.0000   0.0000   0.3558
   3.500   0.8220   0.01082   0.00428  -0.0892  0.5754  1.0000  -1.2110   0.0000   0.0000   0.0000   0.3542
   3.600   0.8323   0.01092   0.00433  -0.0890  0.5679  1.0000  -1.2284   0.0000   0.0000   0.0000   0.3525
   3.700   0.8426   0.01103   0.00437  -0.0888  0.5603  1.0000  -1.2458   0.0000   0.0000   0.0000   0.3509
   3.800   0.8528   0.01119   0.00444  -0.0886  0.5520  1.0000  -1.2654   0.0000   0.0000   0.0000   0.3493
   3.900   0.8633   0.01128   0.00453  -0.0885  0.5457  1.0000  -1.2860   0.0000   0.0000   0.0000   0.3478
   4.000   0.8737   0.01134   0.00462  -0.0884  0.5397  1.0000  -1.3066   0.0000   0.0000   0.0000   0.3463
   4.100   0.8840   0.01142   0.00469  -0.0883  0.5324  1.0000  -1.3273   0.0000   0.0000   0.0000   0.3449
   4.200   0.8941   0.01151   0.00475  -0.0881  0.5246  1.0000  -1.3480   0.0000   0.0000   0.0000   0.3435
   4.300   0.9041   0.01162   0.00481  -0.0878  0.5164  1.0000  -1.3686   0.0000   0.0000   0.0000   0.3420
   4.400   0.9139   0.01178   0.00488  -0.0876  0.5078  1.0000  -1.3891   0.0000   0.0000   0.0000   0.3406
   4.500   0.9239   0.01196   0.00499  -0.0874  0.4988  1.0000  -1.4131   0.0000   0.0000   0.0000   0.3392
   4.600   0.9342   0.01201   0.00508  -0.0873  0.4934  1.0000  -1.4384   0.0000   0.0000   0.0000   0.3380
   4.700   0.9445   0.01209   0.00517  -0.0872  0.4868  1.0000  -1.4637   0.0000   0.0000   0.0000   0.3367
   4.800   0.9546   0.01219   0.00526  -0.0870  0.4797  1.0000  -1.4890   0.0000   0.0000   0.0000   0.3354
   4.900   0.9646   0.01231   0.00535  -0.0868  0.4725  1.0000  -1.5142   0.0000   0.0000   0.0000   0.3342
   5.000   0.9743   0.01246   0.00544  -0.0866  0.4650  1.0000  -1.5399   0.0000   0.0000   0.0000   0.3329
   5.100   0.9839   0.01265   0.00556  -0.0863  0.4568  1.0000  -1.5700   0.0000   0.0000   0.0000   0.3317
   5.200   0.9940   0.01284   0.00570  -0.0862  0.4492  1.0000  -1.6008   0.0000   0.0000   0.0000   0.3305
   5.300   1.0042   0.01291   0.00582  -0.0860  0.4444  1.0000  -1.6322   0.0000   0.0000   0.0000   0.3294
   5.400   1.0144   0.01299   0.00594  -0.0859  0.4384  1.0000  -1.6637   0.0000   0.0000   0.0000   0.3283
   5.500   1.0243   0.01310   0.00604  -0.0857  0.4314  1.0000  -1.6972   0.0000   0.0000   0.0000   0.3272
   5.600   1.0340   0.01324   0.00615  -0.0855  0.4240  1.0000  -1.7370   0.0000   0.0000   0.0000   0.3261
   5.700   1.0433   0.01341   0.00625  -0.0852  0.4162  1.0000  -1.7764   0.0000   0.0000   0.0000   0.3249
   5.800   1.0524   0.01365   0.00640  -0.0849  0.4071  1.0000  -1.8154   0.0000   0.0000   0.0000   0.3238
   5.900   1.0625   0.01381   0.00685  -0.0847  0.4006  1.0000  -1.8627   0.0000   0.0000   0.0000   0.3228
   6.000   1.0726   0.01387   0.00698  -0.0846  0.3963  1.0000  -1.9026   0.0000   0.0000   0.0000   0.3218
   6.100   1.0826   0.01395   0.00711  -0.0844  0.3909  1.0000  -1.9428   0.0000   0.0000   0.0000   0.3208
   6.200   1.0925   0.01407   0.00723  -0.0843  0.3847  1.0000  -1.9830   0.0000   0.0000   0.0000   0.3198
   6.300   1.1020   0.01421   0.00736  -0.0840  0.3782  1.0000  -2.0230   0.0000   0.0000   0.0000   0.3188
   6.400   1.1112   0.01438   0.00749  -0.0837  0.3713  1.0000  -2.0625   0.0000   0.0000   0.0000   0.3178
   6.500   1.1199   0.01461   0.00764  -0.0834  0.3634  1.0000  -2.1014   0.0000   0.0000   0.0000   0.3168
   6.600   1.1292   0.01489   0.00786  -0.0832  0.3545  1.0000  -2.1410   0.0000   0.0000   0.0000   0.3158
   6.700   1.1390   0.01495   0.00799  -0.0830  0.3504  1.0000  -2.1827   0.0000   0.0000   0.0000   0.3149
   6.800   1.1488   0.01504   0.00812  -0.0828  0.3450  1.0000  -2.2244   0.0000   0.0000   0.0000   0.3140
   6.900   1.1581   0.01515   0.00824  -0.0826  0.3375  1.0000  -2.2657   0.0000   0.0000   0.0000   0.3131
   7.000   1.1665   0.01531   0.00833  -0.0822  0.3279  1.0000  -2.3059   0.0000   0.0000   0.0000   0.3121
   7.100   1.1736   0.01557   0.00846  -0.0816  0.3159  1.0000  -2.3640   0.0000   0.0000   0.0000   0.3110
   7.200   1.1821   0.01572   0.00859  -0.0813  0.3052  1.0000  -2.4413   0.0000   0.0000   0.0000   0.3101
   7.300   1.1909   0.01580   0.00865  -0.0810  0.2935  1.0000  -2.5209   0.0000   0.0000   0.0000   0.3092
   7.400   1.1978   0.01603   0.00875  -0.0804  0.2789  1.0000  -2.5944   0.0000   0.0000   0.0000   0.3082
   7.500   1.2044   0.01633   0.00893  -0.0799  0.2641  1.0000  -2.6664   0.0000   0.0000   0.0000   0.3073
   7.600   1.2131   0.01648   0.00905  -0.0796  0.2511  1.0000  -2.7482   0.0000   0.0000   0.0000   0.3064
   7.700   1.2197   0.01678   0.00922  -0.0791  0.2361  1.0000  -2.8222   0.0000   0.0000   0.0000   0.3055
   7.800   1.2265   0.01710   0.00943  -0.0785  0.2230  1.0000  -2.8968   0.0000   0.0000   0.0000   0.3046
   7.900   1.2353   0.01728   0.00960  -0.0783  0.2134  1.0000  -2.9809   0.0000   0.0000   0.0000   0.3038
   8.000   1.2435   0.01751   0.00979  -0.0780  0.2051  1.0000  -3.0631   0.0000   0.0000   0.0000   0.3029
   8.100   1.2509   0.01778   0.01001  -0.0775  0.1970  1.0000  -3.1429   0.0000   0.0000   0.0000   0.3021
   8.200   1.2577   0.01810   0.01026  -0.0770  0.1883  1.0000  -3.2208   0.0000   0.0000   0.0000   0.3012
   8.300   1.2663   0.01830   0.01046  -0.0767  0.1821  1.0000  -3.3075   0.0000   0.0000   0.0000   0.3004
   8.400   1.2746   0.01852   0.01067  -0.0764  0.1748  1.0000  -3.3942   0.0000   0.0000   0.0000   0.2996
   8.500   1.2820   0.01880   0.01090  -0.0760  0.1664  1.0000  -3.4783   0.0000   0.0000   0.0000   0.2988
   8.600   1.2885   0.01913   0.01116  -0.0754  0.1578  1.0000  -3.5591   0.0000   0.0000   0.0000   0.2979
   8.700   1.2954   0.01944   0.01143  -0.0749  0.1503  1.0000  -3.6421   0.0000   0.0000   0.0000   0.2971
   8.800   1.3035   0.01966   0.01166  -0.0746  0.1447  1.0000  -3.7325   0.0000   0.0000   0.0000   0.2963
   8.900   1.3111   0.01992   0.01191  -0.0742  0.1380  1.0000  -3.8211   0.0000   0.0000   0.0000   0.2955
   9.000   1.3178   0.02024   0.01219  -0.0737  0.1308  1.0000  -3.9072   0.0000   0.0000   0.0000   0.2947
   9.100   1.3238   0.02060   0.01249  -0.0731  0.1234  1.0000  -3.9908   0.0000   0.0000   0.0000   0.2938
   9.200   1.3306   0.02091   0.01278  -0.0726  0.1175  1.0000  -4.0789   0.0000   0.0000   0.0000   0.2930
   9.300   1.3378   0.02117   0.01305  -0.0721  0.1119  1.0000  -4.1709   0.0000   0.0000   0.0000   0.2922
   9.400   1.3483   0.02120   0.01350  -0.0719  0.1239  1.0000  -4.1929   0.0000   0.0000   0.0000   0.2915
   9.500   1.3545   0.02152   0.01382  -0.0713  0.1192  1.0000  -4.2704   0.0000   0.0000   0.0000   0.2907
   9.600   1.3618   0.02177   0.01410  -0.0709  0.1153  1.0000  -4.3594   0.0000   0.0000   0.0000   0.2899
   9.700   1.3685   0.02205   0.01440  -0.0703  0.1101  1.0000  -4.4481   0.0000   0.0000   0.0000   0.2891
   9.800   1.3740   0.02239   0.01472  -0.0696  0.1041  1.0000  -4.5332   0.0000   0.0000   0.0000   0.2883
   9.900   1.3781   0.02278   0.01507  -0.0688  0.0980  1.0000  -4.6131   0.0000   0.0000   0.0000   0.2873
  10.000   1.3818   0.02321   0.01545  -0.0679  0.0918  1.0000  -4.6915   0.0000   0.0000   0.0000   0.2864
  10.100   1.3873   0.02353   0.01579  -0.0672  0.0875  1.0000  -4.7816   0.0000   0.0000   0.0000   0.2856
  10.200   1.3924   0.02387   0.01614  -0.0665  0.0828  1.0000  -4.8708   0.0000   0.0000   0.0000   0.2847
  10.300   1.3967   0.02427   0.01653  -0.0657  0.0777  1.0000  -4.9572   0.0000   0.0000   0.0000   0.2838
  10.400   1.3992   0.02480   0.01699  -0.0647  0.0711  1.0000  -5.0346   0.0000   0.0000   0.0000   0.2829
  10.500   1.4016   0.02534   0.01748  -0.0637  0.0639  1.0000  -5.1122   0.0000   0.0000   0.0000   0.2820
  10.600   1.4037   0.02590   0.01799  -0.0628  0.0558  1.0000  -5.1900   0.0000   0.0000   0.0000   0.2811
  10.700   1.4035   0.02664   0.01863  -0.0617  0.0475  1.0000  -5.2536   0.0000   0.0000   0.0000   0.2801
  10.800   1.4058   0.02721   0.01918  -0.0608  0.0417  1.0000  -5.3326   0.0000   0.0000   0.0000   0.2793
  10.900   1.4077   0.02781   0.01976  -0.0599  0.0360  1.0000  -5.4099   0.0000   0.0000   0.0000   0.2784
  11.000   1.4075   0.02858   0.02047  -0.0588  0.0299  1.0000  -5.4734   0.0000   0.0000   0.0000   0.2775
  11.100   1.4082   0.02928   0.02117  -0.0578  0.0242  1.0000  -5.5422   0.0000   0.0000   0.0000   0.2766
  11.200   1.4075   0.03011   0.02196  -0.0568  0.0183  1.0000  -5.6018   0.0000   0.0000   0.0000   0.2757
  11.300   1.4063   0.03100   0.02282  -0.0558  0.0143  1.0000  -5.6568   0.0000   0.0000   0.0000   0.2749
  11.400   1.4070   0.03175   0.02360  -0.0549  0.0126  1.0000  -5.7228   0.0000   0.0000   0.0000   0.2741
  11.500   1.4074   0.03253   0.02442  -0.0540  0.0112  1.0000  -5.7864   0.0000   0.0000   0.0000   0.2733
  11.600   1.4077   0.03336   0.02527  -0.0532  0.0101  1.0000  -5.8478   0.0000   0.0000   0.0000   0.2725
  11.700   1.4076   0.03420   0.02615  -0.0524  0.0092  1.0000  -5.9058   0.0000   0.0000   0.0000   0.2717
  11.800   1.4072   0.03509   0.02709  -0.0516  0.0085  1.0000  -5.9589   0.0000   0.0000   0.0000   0.2710
  11.900   1.4066   0.03602   0.02809  -0.0508  0.0079  1.0000  -6.0080   0.0000   0.0000   0.0000   0.2703
  12.000   1.4058   0.03700   0.02915  -0.0501  0.0075  1.0000  -6.0537   0.0000   0.0000   0.0000   0.2696
  12.100   1.4045   0.03804   0.03030  -0.0494  0.0071  1.0000  -6.0949   0.0000   0.0000   0.0000   0.2690
  12.200   1.4025   0.03918   0.03153  -0.0487  0.0069  1.0000  -6.1306   0.0000   0.0000   0.0000   0.2684
  12.300   1.4002   0.04037   0.03283  -0.0482  0.0067  1.0000  -6.1633   0.0000   0.0000   0.0000   0.2678
  12.400   1.3977   0.04162   0.03419  -0.0477  0.0065  1.0000  -6.1939   0.0000   0.0000   0.0000   0.2673
  12.500   1.3946   0.04296   0.03563  -0.0472  0.0064  1.0000  -6.2196   0.0000   0.0000   0.0000   0.2669
  12.600   1.3909   0.04439   0.03716  -0.0469  0.0063  1.0000  -6.2416   0.0000   0.0000   0.0000   0.2665
  12.700   1.3872   0.04586   0.03873  -0.0466  0.0062  1.0000  -6.2619   0.0000   0.0000   0.0000   0.2662
  12.800   1.3829   0.04742   0.04039  -0.0464  0.0061  1.0000  -6.2778   0.0000   0.0000   0.0000   0.2660
  12.900   1.3783   0.04905   0.04212  -0.0463  0.0061  1.0000  -6.2909   0.0000   0.0000   0.0000   0.2658
  13.000   1.3737   0.05071   0.04387  -0.0462  0.0060  1.0000  -6.3034   0.0000   0.0000   0.0000   0.2657
  13.100   1.3688   0.05245   0.04570  -0.0462  0.0060  1.0000  -6.3129   0.0000   0.0000   0.0000   0.2656
  13.200   1.3647   0.05410   0.04739  -0.0463  0.0060  1.0000  -6.3326   0.0000   0.0000   0.0000   0.2656
  13.300   1.3609   0.05570   0.04907  -0.0464  0.0060  1.0000  -6.3561   0.0000   0.0000   0.0000   0.2656
  13.400   1.3571   0.05736   0.05081  -0.0466  0.0059  1.0000  -6.3781   0.0000   0.0000   0.0000   0.2656
  13.500   1.3528   0.05916   0.05268  -0.0469  0.0059  1.0000  -6.3945   0.0000   0.0000   0.0000   0.2657
  13.600   1.3488   0.06097   0.05456  -0.0472  0.0059  1.0000  -6.4125   0.0000   0.0000   0.0000   0.2658
  13.700   1.3450   0.06279   0.05647  -0.0475  0.0059  1.0000  -6.4305   0.0000   0.0000   0.0000   0.2660
  13.800   1.3408   0.06472   0.05847  -0.0480  0.0059  1.0000  -6.4449   0.0000   0.0000   0.0000   0.2662
  13.900   1.3364   0.06674   0.06057  -0.0485  0.0059  1.0000  -6.4560   0.0000   0.0000   0.0000   0.2665
  14.000   1.3324   0.06873   0.06263  -0.0490  0.0059  1.0000  -6.4691   0.0000   0.0000   0.0000   0.2669
  14.100   1.3285   0.07071   0.06468  -0.0495  0.0059  1.0000  -6.4827   0.0000   0.0000   0.0000   0.2672
  14.200   1.3244   0.07277   0.06681  -0.0502  0.0059  1.0000  -6.4930   0.0000   0.0000   0.0000   0.2675
  14.300   1.3200   0.07493   0.06904  -0.0509  0.0059  1.0000  -6.4996   0.0000   0.0000   0.0000   0.2680
  14.400   1.3160   0.07703   0.07122  -0.0515  0.0059  1.0000  -6.5082   0.0000   0.0000   0.0000   0.2684
  14.500   1.3122   0.07910   0.07336  -0.0522  0.0058  1.0000  -6.5173   0.0000   0.0000   0.0000   0.2689
  14.600   1.3084   0.08118   0.07551  -0.0529  0.0058  1.0000  -6.5258   0.0000   0.0000   0.0000   0.2693
  14.700   1.3040   0.08341   0.07781  -0.0537  0.0058  1.0000  -6.5279   0.0000   0.0000   0.0000   0.2699
  14.800   1.2998   0.08562   0.08009  -0.0546  0.0058  1.0000  -6.5300   0.0000   0.0000   0.0000   0.2705
  14.900   1.2959   0.08778   0.08232  -0.0554  0.0058  1.0000  -6.5336   0.0000   0.0000   0.0000   0.2710
  15.000   1.2921   0.08991   0.08452  -0.0562  0.0058  1.0000  -6.5370   0.0000   0.0000   0.0000   0.2716
  15.100   1.2883   0.09204   0.08672  -0.0570  0.0058  1.0000  -6.5391   0.0000   0.0000   0.0000   0.2721
  15.200   1.2840   0.09432   0.08908  -0.0580  0.0058  1.0000  -6.5352   0.0000   0.0000   0.0000   0.2729
  15.300   1.2797   0.09663   0.09146  -0.0590  0.0058  1.0000  -6.5289   0.0000   0.0000   0.0000   0.2736
  15.400   1.2756   0.09886   0.09376  -0.0600  0.0058  1.0000  -6.5242   0.0000   0.0000   0.0000   0.2744
  15.500   1.2717   0.10106   0.09602  -0.0610  0.0058  1.0000  -6.5198   0.0000   0.0000   0.0000   0.2751
  15.600   1.2678   0.10325   0.09829  -0.0620  0.0058  1.0000  -6.5142   0.0000   0.0000   0.0000   0.2758
  15.700   1.2638   0.10549   0.10059  -0.0630  0.0058  1.0000  -6.5057   0.0000   0.0000   0.0000   0.2766
  15.800   1.2591   0.10791   0.10308  -0.0643  0.0059  1.0000  -6.4886   0.0000   0.0000   0.0000   0.2776
  15.900   1.2547   0.11030   0.10555  -0.0655  0.0059  1.0000  -6.4722   0.0000   0.0000   0.0000   0.2786
  16.000   1.2504   0.11257   0.10789  -0.0667  0.0059  1.0000  -6.4562   0.0000   0.0000   0.0000   0.2796
  16.100   1.2461   0.11480   0.11018  -0.0680  0.0059  1.0000  -6.4377   0.0000   0.0000   0.0000   0.2806
  16.200   1.2416   0.11705   0.11251  -0.0693  0.0059  1.0000  -6.4164   0.0000   0.0000   0.0000   0.2817
  16.300   1.2368   0.11951   0.11504  -0.0707  0.0059  1.0000  -6.3887   0.0000   0.0000   0.0000   0.2829
  16.400   1.2315   0.12215   0.11776  -0.0723  0.0059  1.0000  -6.3541   0.0000   0.0000   0.0000   0.2843
  16.500   1.2265   0.12477   0.12044  -0.0739  0.0059  1.0000  -6.3203   0.0000   0.0000   0.0000   0.2857
  16.600   1.2217   0.12742   0.12316  -0.0755  0.0059  1.0000  -6.2854   0.0000   0.0000   0.0000   0.2870
  16.700   1.2167   0.13016   0.12597  -0.0771  0.0059  1.0000  -6.2473   0.0000   0.0000   0.0000   0.2885
  16.800   1.2113   0.13312   0.12900  -0.0789  0.0059  1.0000  -6.2010   0.0000   0.0000   0.0000   0.2901
  16.900   1.2054   0.13628   0.13223  -0.0809  0.0059  1.0000  -6.1476   0.0000   0.0000   0.0000   0.2919
  17.000   1.2000   0.13941   0.13542  -0.0827  0.0060  1.0000  -6.0951   0.0000   0.0000   0.0000   0.2936
  17.100   1.1946   0.14259   0.13867  -0.0846  0.0060  1.0000  -6.0398   0.0000   0.0000   0.0000   0.2954
  17.200   1.1889   0.14590   0.14205  -0.0866  0.0060  1.0000  -5.9790   0.0000   0.0000   0.0000   0.2973
  17.400   1.1787   0.15263   0.14894  -0.0906  0.0060  1.0000  -5.8746   0.0000   0.0000   0.0000   0.3011
  17.500   1.1748   0.15575   0.15212  -0.0924  0.0060  1.0000  -5.8370   0.0000   0.0000   0.0000   0.3027
  17.600   1.1709   0.15891   0.15533  -0.0942  0.0061  1.0000  -5.7977   0.0000   0.0000   0.0000   0.3044
  17.700   1.1668   0.16223   0.15869  -0.0961  0.0061  1.0000  -5.7532   0.0000   0.0000   0.0000   0.3062
  17.800   1.1623   0.16579   0.16230  -0.0981  0.0061  1.0000  -5.7004   0.0000   0.0000   0.0000   0.3082
  17.900   1.1582   0.16926   0.16582  -0.1000  0.0061  1.0000  -5.6500   0.0000   0.0000   0.0000   0.3100
  18.000   1.1542   0.17273   0.16932  -0.1018  0.0062  1.0000  -5.5991   0.0000   0.0000   0.0000   0.3118
  18.100   1.1502   0.17628   0.17292  -0.1037  0.0062  1.0000  -5.5447   0.0000   0.0000   0.0000   0.3137
  18.200   1.1456   0.18016   0.17684  -0.1057  0.0062  1.0000  -5.4780   0.0000   0.0000   0.0000   0.3157
  18.300   1.1412   0.18404   0.18076  -0.1077  0.0063  1.0000  -5.4101   0.0000   0.0000   0.0000   0.3178
  18.400   1.1370   0.18786   0.18462  -0.1096  0.0063  1.0000  -5.3429   0.0000   0.0000   0.0000   0.3197
  18.500   1.1328   0.19180   0.18859  -0.1115  0.0064  1.0000  -5.2708   0.0000   0.0000   0.0000   0.3217
  18.600   1.1280   0.19607   0.19289  -0.1134  0.0064  1.0000  -5.1839   0.0000   0.0000   0.0000   0.3238
  18.700   1.1231   0.20045   0.19731  -0.1154  0.0065  1.0000  -5.0899   0.0000   0.0000   0.0000   0.3260
  18.800   1.1185   0.20478   0.20167  -0.1173  0.0065  1.0000  -4.9963   0.0000   0.0000   0.0000   0.3281
  18.900   1.1138   0.20926   0.20618  -0.1192  0.0066  1.0000  -4.8937   0.0000   0.0000   0.0000   0.3302
  19.000   1.1081   0.21428   0.21122  -0.1212  0.0067  1.0000  -4.7631   0.0000   0.0000   0.0000   0.3326
  19.100   1.1024   0.21941   0.21637  -0.1231  0.0068  1.0000  -4.6219   0.0000   0.0000   0.0000   0.3350
  19.200   1.0965   0.22479   0.22177  -0.1250  0.0070  1.0000  -4.4618   0.0000   0.0000   0.0000   0.3374
  19.300   1.0877   0.23180   0.22879  -0.1272  0.0072  1.0000  -4.2034   0.0000   0.0000   0.0000   0.3405
  19.400   1.0625   0.24850   0.24545  -0.1312  0.0082  1.0000  -3.3445   0.0000   0.0000   0.0000   0.3480
  19.500   1.0556   0.25528   0.25222  -0.1328  0.0087  1.0000  -3.0855   0.0000   0.0000   0.0000   0.3505
  19.600   1.0501   0.26125   0.25817  -0.1342  0.0092  1.0000  -2.8804   0.0000   0.0000   0.0000   0.3527
  19.700   1.0466   0.26601   0.26292  -0.1354  0.0095  1.0000  -2.7447   0.0000   0.0000   0.0000   0.3542
  19.800   1.0439   0.27020   0.26711  -0.1364  0.0099  1.0000  -2.6408   0.0000   0.0000   0.0000   0.3555
  19.900   1.0416   0.27405   0.27095  -0.1373  0.0102  1.0000  -2.5558   0.0000   0.0000   0.0000   0.3566
  20.000   1.0395   0.27764   0.27455  -0.1381  0.0106  1.0000  -2.4842   0.0000   0.0000   0.0000   0.3576
  20.100   1.0376   0.28104   0.27794  -0.1388  0.0109  1.0000  -2.4225   0.0000   0.0000   0.0000   0.3584
  20.200   1.0358   0.28425   0.28116  -0.1395  0.0113  1.0000  -2.3690   0.0000   0.0000   0.0000   0.3592
  20.300   1.0339   0.28732   0.28423  -0.1401  0.0117  1.0000  -2.3220   0.0000   0.0000   0.0000   0.3600
  20.400   1.0319   0.29025   0.28716  -0.1407  0.0121  1.0000  -2.2808   0.0000   0.0000   0.0000   0.3607
  20.500   1.0297   0.29304   0.28996  -0.1412  0.0125  1.0000  -2.2443   0.0000   0.0000   0.0000   0.3613
  20.600   1.0272   0.29571   0.29264  -0.1415  0.0130  1.0000  -2.2114   0.0000   0.0000   0.0000   0.3620
  20.700   1.0238   0.29830   0.29523  -0.1418  0.0135  1.0000  -2.1790   0.0000   0.0000   0.0000   0.3626
  20.800   1.0036   0.30753   0.30453  -0.1394  0.0275  1.0000  -1.7762   0.0000   0.0000   0.0000   0.3635
  20.900   0.9584   0.30024   0.29735  -0.1348  0.0275  1.0000  -1.6537   0.0000   0.0000   0.0000   0.3658
  21.000   0.9487   0.29980   0.29693  -0.1342  0.0275  1.0000  -1.6170   0.0000   0.0000   0.0000   0.3667
  21.100   0.9413   0.29980   0.29695  -0.1339  0.0275  1.0000  -1.5867   0.0000   0.0000   0.0000   0.3674
  21.200   0.9353   0.30000   0.29716  -0.1338  0.0275  1.0000  -1.5598   0.0000   0.0000   0.0000   0.3682
  21.300   0.9301   0.30031   0.29749  -0.1338  0.0275  1.0000  -1.5350   0.0000   0.0000   0.0000   0.3689
  21.400   0.9255   0.30070   0.29789  -0.1338  0.0274  1.0000  -1.5119   0.0000   0.0000   0.0000   0.3696
  21.500   0.9214   0.30113   0.29834  -0.1339  0.0274  1.0000  -1.4902   0.0000   0.0000   0.0000   0.3703
  21.600   0.9177   0.30161   0.29883  -0.1340  0.0273  1.0000  -1.4695   0.0000   0.0000   0.0000   0.3709
  21.700   0.9144   0.30210   0.29934  -0.1342  0.0272  1.0000  -1.4494   0.0000   0.0000   0.0000   0.3716
  21.800   0.9110   0.30261   0.29986  -0.1345  0.0271  1.0000  -1.4265   0.0000   0.0000   0.0000   0.3725
  21.900   0.9074   0.30313   0.30039  -0.1350  0.0270  1.0000  -1.3990   0.0000   0.0000   0.0000   0.3735
  22.000   0.9042   0.30374   0.30100  -0.1356  0.0267  1.0000  -1.3691   0.0000   0.0000   0.0000   0.3746
  22.100   0.9015   0.30453   0.30180  -0.1363  0.0262  1.0000  -1.3360   0.0000   0.0000   0.0000   0.3758
  22.200   0.8992   0.30542   0.30270  -0.1370  0.0256  1.0000  -1.3055   0.0000   0.0000   0.0000   0.3769
  22.300   0.8970   0.30627   0.30356  -0.1375  0.0251  1.0000  -1.2818   0.0000   0.0000   0.0000   0.3777
  22.400   0.8949   0.30705   0.30435  -0.1378  0.0246  1.0000  -1.2625   0.0000   0.0000   0.0000   0.3784
  22.500   0.8930   0.30780   0.30511  -0.1382  0.0241  1.0000  -1.2460   0.0000   0.0000   0.0000   0.3790
  22.600   0.8911   0.30852   0.30584  -0.1385  0.0237  1.0000  -1.2315   0.0000   0.0000   0.0000   0.3796
  22.700   0.8893   0.30923   0.30656  -0.1388  0.0233  1.0000  -1.2185   0.0000   0.0000   0.0000   0.3801
  22.800   0.8877   0.30994   0.30728  -0.1390  0.0230  1.0000  -1.2067   0.0000   0.0000   0.0000   0.3806
  22.900   0.8861   0.31063   0.30798  -0.1393  0.0226  1.0000  -1.1959   0.0000   0.0000   0.0000   0.3811
  23.000   0.8846   0.31132   0.30868  -0.1396  0.0223  1.0000  -1.1860   0.0000   0.0000   0.0000   0.3815
  23.100   0.8832   0.31201   0.30938  -0.1399  0.0219  1.0000  -1.1770   0.0000   0.0000   0.0000   0.3820
  23.200   0.8819   0.31270   0.31008  -0.1402  0.0216  1.0000  -1.1686   0.0000   0.0000   0.0000   0.3824
  23.300   0.8806   0.31338   0.31077  -0.1404  0.0213  1.0000  -1.1609   0.0000   0.0000   0.0000   0.3828
  23.400   0.8794   0.31406   0.31146  -0.1407  0.0210  1.0000  -1.1538   0.0000   0.0000   0.0000   0.3832
  23.500   0.8783   0.31475   0.31215  -0.1410  0.0208  1.0000  -1.1473   0.0000   0.0000   0.0000   0.3836
  23.600   0.8772   0.31542   0.31284  -0.1413  0.0205  1.0000  -1.1414   0.0000   0.0000   0.0000   0.3840
  23.700   0.8762   0.31610   0.31353  -0.1416  0.0202  1.0000  -1.1360   0.0000   0.0000   0.0000   0.3844
  23.800   0.8753   0.31678   0.31421  -0.1419  0.0200  1.0000  -1.1311   0.0000   0.0000   0.0000   0.3848
  23.900   0.8744   0.31745   0.31489  -0.1422  0.0197  1.0000  -1.1268   0.0000   0.0000   0.0000   0.3851
  24.000   0.8736   0.31812   0.31557  -0.1424  0.0195  1.0000  -1.1230   0.0000   0.0000   0.0000   0.3854
  24.100   0.8728   0.31879   0.31625  -0.1427  0.0192  1.0000  -1.1197   0.0000   0.0000   0.0000   0.3858
  24.200   0.8720   0.31945   0.31692  -0.1430  0.0190  1.0000  -1.1169   0.0000   0.0000   0.0000   0.3861
  24.300   0.8713   0.32011   0.31759  -0.1433  0.0188  1.0000  -1.1147   0.0000   0.0000   0.0000   0.3864
  24.400   0.8706   0.32076   0.31825  -0.1436  0.0186  1.0000  -1.1130   0.0000   0.0000   0.0000   0.3867
  24.500   0.8700   0.32141   0.31891  -0.1439  0.0184  1.0000  -1.1119   0.0000   0.0000   0.0000   0.3870
  24.600   0.8694   0.32206   0.31956  -0.1442  0.0182  1.0000  -1.1114   0.0000   0.0000   0.0000   0.3873
  24.700   0.8689   0.32270   0.32021  -0.1444  0.0180  1.0000  -1.1115   0.0000   0.0000   0.0000   0.3875
  24.800   0.8683   0.32333   0.32085  -0.1447  0.0178  1.0000  -1.1122   0.0000   0.0000   0.0000   0.3878
  24.900   0.8678   0.32395   0.32148  -0.1450  0.0176  1.0000  -1.1137   0.0000   0.0000   0.0000   0.3880
  25.000   0.8674   0.32456   0.32210  -0.1453  0.0174  1.0000  -1.1159   0.0000   0.0000   0.0000   0.3882
  25.100   0.8670   0.32517   0.32271  -0.1455  0.0172  1.0000  -1.1189   0.0000   0.0000   0.0000   0.3885
  25.200   0.8666   0.32576   0.32332  -0.1458  0.0171  1.0000  -1.1227   0.0000   0.0000   0.0000   0.3886
  25.300   0.8662   0.32635   0.32391  -0.1460  0.0169  1.0000  -1.1275   0.0000   0.0000   0.0000   0.3888
  25.400   0.8659   0.32692   0.32449  -0.1462  0.0167  1.0000  -1.1332   0.0000   0.0000   0.0000   0.3889
  25.500   0.8656   0.32748   0.32506  -0.1465  0.0166  1.0000  -1.1401   0.0000   0.0000   0.0000   0.3890
  25.600   0.8654   0.32804   0.32563  -0.1466  0.0164  1.0000  -1.1482   0.0000   0.0000   0.0000   0.3891
  25.700   0.8651   0.32859   0.32619  -0.1468  0.0163  1.0000  -1.1574   0.0000   0.0000   0.0000   0.3892
  25.800   0.8650   0.32915   0.32675  -0.1469  0.0161  1.0000  -1.1679   0.0000   0.0000   0.0000   0.3891
  25.900   0.8649   0.32972   0.32734  -0.1470  0.0160  1.0000  -1.1798   0.0000   0.0000   0.0000   0.3891
  26.000   0.8649   0.33036   0.32799  -0.1471  0.0158  1.0000  -1.1931   0.0000   0.0000   0.0000   0.3889
  26.100   0.8650   0.33115   0.32878  -0.1470  0.0156  1.0000  -1.2074   0.0000   0.0000   0.0000   0.3886
  26.200   0.8649   0.33246   0.33011  -0.1468  0.0154  1.0000  -1.2153   0.0000   0.0000   0.0000   0.3882
  26.300   0.8607   0.33566   0.33328  -0.1466  0.0149  1.0000  -1.1346   0.0000   0.0000   0.0000   0.3889
  26.400   0.8602   0.33644   0.33407  -0.1470  0.0149  1.0000  -1.1267   0.0000   0.0000   0.0000   0.3893
  26.500   0.8598   0.33722   0.33485  -0.1474  0.0149  1.0000  -1.1189   0.0000   0.0000   0.0000   0.3897
  26.600   0.8593   0.33800   0.33564  -0.1478  0.0149  1.0000  -1.1111   0.0000   0.0000   0.0000   0.3900
  26.700   0.8589   0.33877   0.33642  -0.1482  0.0149  1.0000  -1.1035   0.0000   0.0000   0.0000   0.3904
  26.800   0.8585   0.33954   0.33719  -0.1486  0.0149  1.0000  -1.0960   0.0000   0.0000   0.0000   0.3908
  26.900   0.8581   0.34030   0.33796  -0.1490  0.0149  1.0000  -1.0884   0.0000   0.0000   0.0000   0.3911
  27.000   0.8577   0.34104   0.33871  -0.1494  0.0149  1.0000  -1.0808   0.0000   0.0000   0.0000   0.3915
  27.100   0.8573   0.34179   0.33947  -0.1498  0.0149  1.0000  -1.0733   0.0000   0.0000   0.0000   0.3919
  27.200   0.8569   0.34253   0.34022  -0.1502  0.0149  1.0000  -1.0658   0.0000   0.0000   0.0000   0.3922
  27.300   0.8565   0.34329   0.34104  -0.1506  0.0149  1.0000  -1.0593   0.0000   0.0000   0.0000   0.3926
  27.400   0.8562   0.34404   0.34179  -0.1510  0.0148  1.0000  -1.0523   0.0000   0.0000   0.0000   0.3929
  27.500   0.8558   0.34478   0.34253  -0.1514  0.0148  1.0000  -1.0453   0.0000   0.0000   0.0000   0.3933
  27.600   0.8555   0.34551   0.34327  -0.1518  0.0148  1.0000  -1.0384   0.0000   0.0000   0.0000   0.3937
  27.700   0.8551   0.34624   0.34401  -0.1522  0.0148  1.0000  -1.0315   0.0000   0.0000   0.0000   0.3940
  27.800   0.8548   0.34695   0.34473  -0.1526  0.0148  1.0000  -1.0245   0.0000   0.0000   0.0000   0.3944
  27.900   0.8544   0.34766   0.34545  -0.1530  0.0148  1.0000  -1.0173   0.0000   0.0000   0.0000   0.3948
  28.000   0.8540   0.34837   0.34616  -0.1535  0.0148  1.0000  -1.0101   0.0000   0.0000   0.0000   0.3951
  28.100   0.8537   0.34907   0.34688  -0.1539  0.0147  1.0000  -1.0031   0.0000   0.0000   0.0000   0.3955
  28.200   0.8534   0.34978   0.34759  -0.1543  0.0147  1.0000  -0.9961   0.0000   0.0000   0.0000   0.3959
  28.300   0.8530   0.35047   0.34828  -0.1548  0.0147  1.0000  -0.9882   0.0000   0.0000   0.0000   0.3963
  28.400   0.8526   0.35115   0.34897  -0.1553  0.0147  1.0000  -0.9795   0.0000   0.0000   0.0000   0.3968
  28.500   0.8521   0.35183   0.34966  -0.1557  0.0146  1.0000  -0.9708   0.0000   0.0000   0.0000   0.3972
  28.600   0.8518   0.35252   0.35036  -0.1562  0.0146  1.0000  -0.9623   0.0000   0.0000   0.0000   0.3976
  28.700   0.8514   0.35321   0.35105  -0.1567  0.0146  1.0000  -0.9538   0.0000   0.0000   0.0000   0.3981
  28.800   0.8511   0.35391   0.35176  -0.1572  0.0145  1.0000  -0.9453   0.0000   0.0000   0.0000   0.3985
  28.900   0.8508   0.35463   0.35248  -0.1577  0.0145  1.0000  -0.9368   0.0000   0.0000   0.0000   0.3989
  29.000   0.8506   0.35535   0.35321  -0.1582  0.0145  1.0000  -0.9282   0.0000   0.0000   0.0000   0.3994
  29.100   0.8504   0.35609   0.35396  -0.1587  0.0144  1.0000  -0.9196   0.0000   0.0000   0.0000   0.3998
  29.200   0.8502   0.35685   0.35472  -0.1592  0.0143  1.0000  -0.9109   0.0000   0.0000   0.0000   0.4003
  29.300   0.8501   0.35763   0.35552  -0.1598  0.0143  1.0000  -0.9020   0.0000   0.0000   0.0000   0.4007
  29.400   0.8501   0.35845   0.35634  -0.1603  0.0142  1.0000  -0.8928   0.0000   0.0000   0.0000   0.4011
  29.500   0.8502   0.35930   0.35720  -0.1609  0.0141  1.0000  -0.8834   0.0000   0.0000   0.0000   0.4015
  29.600   0.8504   0.36020   0.35810  -0.1615  0.0139  1.0000  -0.8738   0.0000   0.0000   0.0000   0.4019
  29.700   0.8506   0.36112   0.35903  -0.1620  0.0138  1.0000  -0.8643   0.0000   0.0000   0.0000   0.4023
  29.800   0.8508   0.36206   0.35997  -0.1625  0.0136  1.0000  -0.8552   0.0000   0.0000   0.0000   0.4027
  29.900   0.8510   0.36299   0.36091  -0.1630  0.0134  1.0000  -0.8470   0.0000   0.0000   0.0000   0.4030


