xflr5 v6.61

 Calculated polar for: SD7003-085-88

 1 1 Reynolds number fixed          Mach number fixed         

 xtrf =   1.000 (top)        1.000 (bottom)
 Mach =   0.000     Re =     0.625 e 6     Ncrit =   9.000

  alpha     CL        CD       CDp       Cm    Top Xtr Bot Xtr   Cpmin    Chinge    XCp    
 ------- -------- --------- --------- -------- ------- ------- -------- --------- ---------
 -10.000  -0.5467   0.10457   0.10238   0.0023  1.0000  0.0165  -2.2144   0.0000   0.0000   0.0000   0.2486
  -9.900  -0.5457   0.10301   0.10083   0.0016  1.0000  0.0166  -2.2176   0.0000   0.0000   0.0000   0.2475
  -9.800  -0.5447   0.10144   0.09926   0.0009  1.0000  0.0167  -2.2223   0.0000   0.0000   0.0000   0.2462
  -9.700  -0.5439   0.09985   0.09768   0.0002  1.0000  0.0167  -2.2284   0.0000   0.0000   0.0000   0.2450
  -9.600  -0.5431   0.09824   0.09608  -0.0005  1.0000  0.0168  -2.2360   0.0000   0.0000   0.0000   0.2437
  -9.500  -0.5426   0.09662   0.09447  -0.0013  1.0000  0.0169  -2.2453   0.0000   0.0000   0.0000   0.2424
  -9.400  -0.5422   0.09498   0.09284  -0.0021  1.0000  0.0170  -2.2563   0.0000   0.0000   0.0000   0.2410
  -9.300  -0.5420   0.09334   0.09120  -0.0028  1.0000  0.0171  -2.2691   0.0000   0.0000   0.0000   0.2396
  -9.200  -0.5420   0.09167   0.08954  -0.0037  1.0000  0.0172  -2.2837   0.0000   0.0000   0.0000   0.2382
  -9.100  -0.5421   0.08998   0.08786  -0.0045  1.0000  0.0173  -2.3001   0.0000   0.0000   0.0000   0.2367
  -9.000  -0.5422   0.08824   0.08612  -0.0054  1.0000  0.0173  -2.3184   0.0000   0.0000   0.0000   0.2350
  -8.900  -0.5425   0.08645   0.08435  -0.0064  1.0000  0.0174  -2.3387   0.0000   0.0000   0.0000   0.2333
  -8.800  -0.5430   0.08463   0.08254  -0.0074  1.0000  0.0175  -2.3612   0.0000   0.0000   0.0000   0.2315
  -8.700  -0.5438   0.08279   0.08070  -0.0085  1.0000  0.0176  -2.3860   0.0000   0.0000   0.0000   0.2296
  -8.600  -0.5449   0.08091   0.07884  -0.0096  1.0000  0.0176  -2.4133   0.0000   0.0000   0.0000   0.2276
  -8.500  -0.5463   0.07900   0.07694  -0.0108  1.0000  0.0177  -2.4431   0.0000   0.0000   0.0000   0.2256
  -8.400  -0.5480   0.07703   0.07498  -0.0121  1.0000  0.0177  -2.4756   0.0000   0.0000   0.0000   0.2233
  -8.300  -0.5501   0.07500   0.07297  -0.0135  1.0000  0.0178  -2.5111   0.0000   0.0000   0.0000   0.2209
  -8.200  -0.5528   0.07294   0.07091  -0.0150  1.0000  0.0179  -2.5498   0.0000   0.0000   0.0000   0.2184
  -8.100  -0.5562   0.07080   0.06880  -0.0167  1.0000  0.0179  -2.5923   0.0000   0.0000   0.0000   0.2155
  -8.000  -0.5602   0.06843   0.06644  -0.0192  1.0000  0.0180  -2.6422   0.0000   0.0000   0.0000   0.2114
  -7.900  -0.5620   0.06509   0.06309  -0.0239  1.0000  0.0180  -2.7117   0.0000   0.0000   0.0000   0.2034
  -7.800  -0.5632   0.06177   0.05974  -0.0275  1.0000  0.0181  -2.7819   0.0000   0.0000   0.0000   0.1971
  -7.700  -0.5641   0.05860   0.05652  -0.0303  1.0000  0.0182  -2.8493   0.0000   0.0000   0.0000   0.1922
  -7.600  -0.5647   0.05557   0.05344  -0.0325  1.0000  0.0183  -2.9132   0.0000   0.0000   0.0000   0.1883
  -7.500  -0.5648   0.05267   0.05047  -0.0343  1.0000  0.0184  -2.9737   0.0000   0.0000   0.0000   0.1852
  -6.900  -0.5593   0.03279   0.02963  -0.0380  1.0000  0.0130  -3.7446   0.0000   0.0000   0.0000   0.1776
  -6.800  -0.5652   0.02733   0.02369  -0.0378  1.0000  0.0119  -4.0453   0.0000   0.0000   0.0000   0.1785
  -6.700  -0.5638   0.02391   0.01992  -0.0372  1.0000  0.0111  -4.2073   0.0000   0.0000   0.0000   0.1794
  -6.600  -0.5599   0.02113   0.01681  -0.0365  1.0000  0.0103  -4.3294   0.0000   0.0000   0.0000   0.1801
  -6.500  -0.5544   0.01880   0.01418  -0.0358  1.0000  0.0097  -4.4228   0.0000   0.0000   0.0000   0.1808
  -6.400  -0.5476   0.01692   0.01203  -0.0351  1.0000  0.0092  -4.4802   0.0000   0.0000   0.0000   0.1813
  -6.300  -0.5400   0.01547   0.01035  -0.0344  1.0000  0.0088  -4.5019   0.0000   0.0000   0.0000   0.1816
  -6.200  -0.5318   0.01433   0.00904  -0.0338  1.0000  0.0085  -4.4948   0.0000   0.0000   0.0000   0.1819
  -6.100  -0.5232   0.01346   0.00802  -0.0332  1.0000  0.0083  -4.4617   0.0000   0.0000   0.0000   0.1819
  -6.000  -0.5142   0.01278   0.00722  -0.0327  1.0000  0.0081  -4.4082   0.0000   0.0000   0.0000   0.1818
  -5.900  -0.5050   0.01225   0.00658  -0.0323  1.0000  0.0080  -4.3382   0.0000   0.0000   0.0000   0.1816
  -5.800  -0.4956   0.01182   0.00607  -0.0319  1.0000  0.0080  -4.2551   0.0000   0.0000   0.0000   0.1813
  -5.700  -0.4861   0.01146   0.00563  -0.0315  1.0000  0.0080  -4.1627   0.0000   0.0000   0.0000   0.1808
  -5.600  -0.4764   0.01115   0.00526  -0.0311  1.0000  0.0080  -4.0637   0.0000   0.0000   0.0000   0.1803
  -5.500  -0.4666   0.01089   0.00494  -0.0308  1.0000  0.0080  -3.9598   0.0000   0.0000   0.0000   0.1797
  -5.400  -0.4568   0.01065   0.00464  -0.0305  1.0000  0.0082  -3.8521   0.0000   0.0000   0.0000   0.1791
  -5.300  -0.4469   0.01044   0.00438  -0.0301  1.0000  0.0083  -3.7408   0.0000   0.0000   0.0000   0.1784
  -5.200  -0.4370   0.01025   0.00414  -0.0298  1.0000  0.0086  -3.6263   0.0000   0.0000   0.0000   0.1776
  -5.100  -0.4271   0.01007   0.00393  -0.0295  1.0000  0.0089  -3.5234   0.0000   0.0000   0.0000   0.1768
  -5.000  -0.4172   0.00992   0.00375  -0.0292  1.0000  0.0094  -3.4202   0.0000   0.0000   0.0000   0.1759
  -4.900  -0.4073   0.00981   0.00361  -0.0289  1.0000  0.0096  -3.3062   0.0000   0.0000   0.0000   0.1750
  -4.800  -0.3974   0.00979   0.00346  -0.0287  1.0000  0.0086  -3.2803   0.0000   0.0000   0.0000   0.1739
  -4.700  -0.3875   0.00967   0.00332  -0.0284  1.0000  0.0090  -3.1675   0.0000   0.0000   0.0000   0.1729
  -4.600  -0.3776   0.00955   0.00319  -0.0281  1.0000  0.0096  -3.0553   0.0000   0.0000   0.0000   0.1718
  -4.500  -0.3678   0.00944   0.00309  -0.0278  1.0000  0.0104  -2.9473   0.0000   0.0000   0.0000   0.1707
  -4.400  -0.3580   0.00933   0.00300  -0.0275  1.0000  0.0111  -2.8463   0.0000   0.0000   0.0000   0.1694
  -4.300  -0.3480   0.00924   0.00292  -0.0273  0.9999  0.0120  -2.7512   0.0000   0.0000   0.0000   0.1679
  -4.200  -0.3327   0.00915   0.00284  -0.0282  0.9987  0.0130  -2.6404   0.0000   0.0000   0.0000   0.1617
  -4.100  -0.3176   0.00907   0.00277  -0.0290  0.9975  0.0144  -2.5375   0.0000   0.0000   0.0000   0.1551
  -4.000  -0.3027   0.00890   0.00267  -0.0299  0.9963  0.0215  -2.4395   0.0000   0.0000   0.0000   0.1477
  -3.900  -0.2878   0.00877   0.00259  -0.0307  0.9946  0.0273  -2.3445   0.0000   0.0000   0.0000   0.1397
  -3.800  -0.2726   0.00862   0.00252  -0.0316  0.9928  0.0358  -2.2513   0.0000   0.0000   0.0000   0.1305
  -3.700  -0.2571   0.00851   0.00246  -0.0325  0.9910  0.0419  -2.1589   0.0000   0.0000   0.0000   0.1197
  -3.600  -0.2412   0.00843   0.00240  -0.0336  0.9894  0.0449  -2.0675   0.0000   0.0000   0.0000   0.1071
  -3.500  -0.2252   0.00836   0.00234  -0.0346  0.9880  0.0468  -1.9776   0.0000   0.0000   0.0000   0.0926
  -3.400  -0.2107   0.00830   0.00228  -0.0352  0.9860  0.0496  -1.8948   0.0000   0.0000   0.0000   0.0789
  -3.300  -0.1970   0.00821   0.00222  -0.0358  0.9833  0.0549  -1.8157   0.0000   0.0000   0.0000   0.0645
  -3.200  -0.1825   0.00811   0.00217  -0.0365  0.9806  0.0602  -1.7353   0.0000   0.0000   0.0000   0.0461
  -3.100  -0.1673   0.00801   0.00211  -0.0373  0.9780  0.0653  -1.6540   0.0000   0.0000   0.0000   0.0228
  -3.000  -0.1517   0.00794   0.00205  -0.0383  0.9755  0.0696  -1.5727   0.0000   0.0000   0.0000  -0.0064
  -2.900  -0.1360   0.00786   0.00200  -0.0392  0.9729  0.0745  -1.4925   0.0000   0.0000   0.0000  -0.0428
  -2.800  -0.1239   0.00776   0.00194  -0.0393  0.9676  0.0834  -1.4244   0.0000   0.0000   0.0000  -0.0723
  -2.700  -0.1110   0.00765   0.00189  -0.0397  0.9621  0.0919  -1.3547   0.0000   0.0000   0.0000  -0.1126
  -2.600  -0.0970   0.00754   0.00183  -0.0403  0.9576  0.1045  -1.2828   0.0000   0.0000   0.0000  -0.1708
  -2.500  -0.0827   0.00733   0.00177  -0.0410  0.9533  0.1350  -1.2113   0.0000   0.0000   0.0000  -0.2524
  -2.400  -0.0707   0.00706   0.00171  -0.0413  0.9467  0.1803  -1.1472   0.0000   0.0000   0.0000  -0.3415
  -2.300  -0.0586   0.00676   0.00166  -0.0417  0.9384  0.2357  -1.0836   0.0000   0.0000   0.0000  -0.4687
  -2.200  -0.0456   0.00651   0.00161  -0.0421  0.9299  0.2856  -1.0177   0.0000   0.0000   0.0000  -0.6828
  -2.100  -0.0336   0.00643   0.00156  -0.0422  0.9202  0.3044  -0.9541   0.0000   0.0000   0.0000  -1.0196
  -2.000  -0.0226   0.00624   0.00148  -0.0422  0.9084  0.3476  -0.8760   0.0000   0.0000   0.0000  -1.6345
  -1.900  -0.0115   0.00612   0.00143  -0.0421  0.8971  0.3803  -0.8251   0.0000   0.0000   0.0000  -3.4434
  -1.800  -0.0009   0.00603   0.00140  -0.0419  0.8867  0.4051  -0.7892   0.0000   0.0000   0.0000  -48.8189
  -1.700   0.0095   0.00591   0.00137  -0.0417  0.8754  0.4369  -0.7541   0.0000   0.0000   0.0000   4.6644
  -1.500   0.0302   0.00576   0.00131  -0.0413  0.8535  0.4919  -0.6847   0.0000   0.0000   0.0000   1.6205
  -1.400   0.0407   0.00571   0.00129  -0.0410  0.8412  0.5156  -0.6504   0.0000   0.0000   0.0000   1.2628
  -1.300   0.0505   0.00564   0.00127  -0.0407  0.8277  0.5468  -0.6195   0.0000   0.0000   0.0000   1.0576
  -1.200   0.0609   0.00560   0.00125  -0.0404  0.8162  0.5705  -0.5940   0.0000   0.0000   0.0000   0.9153
  -1.100   0.0711   0.00553   0.00125  -0.0401  0.8041  0.6002  -0.5688   0.0000   0.0000   0.0000   0.8157
  -1.000   0.0813   0.00551   0.00124  -0.0398  0.7911  0.6238  -0.5438   0.0000   0.0000   0.0000   0.7408
  -0.900   0.0911   0.00546   0.00124  -0.0394  0.7790  0.6547  -0.5193   0.0000   0.0000   0.0000   0.6834
  -0.800   0.1016   0.00541   0.00125  -0.0392  0.7707  0.6790  -0.4943   0.0000   0.0000   0.0000   0.6360
  -0.700   0.1118   0.00537   0.00125  -0.0389  0.7603  0.7049  -0.4698   0.0000   0.0000   0.0000   0.5978
  -0.600   0.1221   0.00538   0.00125  -0.0386  0.7481  0.7220  -0.4453   0.0000   0.0000   0.0000   0.5658
  -0.500   0.1318   0.00538   0.00125  -0.0382  0.7344  0.7417  -0.4442   0.0000   0.0000   0.0000   0.5391
  -0.400   0.1424   0.00536   0.00126  -0.0379  0.7256  0.7595  -0.4559   0.0000   0.0000   0.0000   0.5158
  -0.300   0.1526   0.00535   0.00126  -0.0376  0.7140  0.7761  -0.4674   0.0000   0.0000   0.0000   0.4957
  -0.200   0.1623   0.00535   0.00127  -0.0372  0.7011  0.7943  -0.4805   0.0000   0.0000   0.0000   0.4781
   0.000   0.1826   0.00538   0.00128  -0.0365  0.6803  0.8225  -0.5075   0.0000   0.0000   0.0000   0.4487
   0.100   0.1926   0.00536   0.00129  -0.0361  0.6716  0.8375  -0.5210   0.0000   0.0000   0.0000   0.4363
   0.200   0.2029   0.00539   0.00130  -0.0358  0.6613  0.8499  -0.5348   0.0000   0.0000   0.0000   0.4252
   0.300   0.2126   0.00541   0.00130  -0.0353  0.6500  0.8618  -0.5481   0.0000   0.0000   0.0000   0.4150
   0.400   0.2220   0.00545   0.00131  -0.0348  0.6369  0.8743  -0.5614   0.0000   0.0000   0.0000   0.4056
   0.500   0.2323   0.00545   0.00132  -0.0345  0.6295  0.8863  -0.5753   0.0000   0.0000   0.0000   0.3972
   0.600   0.2419   0.00545   0.00132  -0.0340  0.6192  0.8986  -0.5890   0.0000   0.0000   0.0000   0.3892
   0.700   0.2511   0.00548   0.00133  -0.0335  0.6066  0.9120  -0.6048   0.0000   0.0000   0.0000   0.3817
   0.900   0.2708   0.00555   0.00133  -0.0326  0.5823  0.9370  -0.6375   0.0000   0.0000   0.0000   0.3688
   1.100   0.2952   0.00558   0.00133  -0.0328  0.5639  0.9618  -0.6745   0.0000   0.0000   0.0000   0.3594
   1.200   0.3089   0.00564   0.00133  -0.0333  0.5520  0.9728  -0.6944   0.0000   0.0000   0.0000   0.3561
   1.300   0.3240   0.00571   0.00133  -0.0342  0.5373  0.9819  -0.7156   0.0000   0.0000   0.0000   0.3536
   1.400   0.3396   0.00573   0.00133  -0.0351  0.5290  0.9913  -0.7373   0.0000   0.0000   0.0000   0.3515
   1.500   0.3542   0.00577   0.00134  -0.0359  0.5186  1.0000  -0.7583   0.0000   0.0000   0.0000   0.3493
   1.600   0.3646   0.00584   0.00135  -0.0357  0.5064  1.0000  -0.7758   0.0000   0.0000   0.0000   0.3459
   1.700   0.3749   0.00594   0.00137  -0.0356  0.4916  1.0000  -0.7935   0.0000   0.0000   0.0000   0.3428
   1.800   0.3856   0.00601   0.00138  -0.0355  0.4809  1.0000  -0.8151   0.0000   0.0000   0.0000   0.3399
   1.900   0.3966   0.00604   0.00140  -0.0354  0.4741  1.0000  -0.8371   0.0000   0.0000   0.0000   0.3371
   2.000   0.4074   0.00610   0.00142  -0.0354  0.4656  1.0000  -0.8592   0.0000   0.0000   0.0000   0.3345
   2.100   0.4181   0.00617   0.00144  -0.0353  0.4555  1.0000  -0.8812   0.0000   0.0000   0.0000   0.3320
   2.200   0.4287   0.00626   0.00146  -0.0352  0.4436  1.0000  -0.9032   0.0000   0.0000   0.0000   0.3296
   2.300   0.4394   0.00634   0.00149  -0.0351  0.4316  1.0000  -0.9254   0.0000   0.0000   0.0000   0.3274
   2.400   0.4504   0.00639   0.00152  -0.0351  0.4253  1.0000  -0.9482   0.0000   0.0000   0.0000   0.3253
   2.500   0.4613   0.00645   0.00154  -0.0350  0.4159  1.0000  -0.9709   0.0000   0.0000   0.0000   0.3233
   2.600   0.4719   0.00654   0.00157  -0.0349  0.4040  1.0000  -0.9935   0.0000   0.0000   0.0000   0.3213
   2.700   0.4825   0.00666   0.00161  -0.0348  0.3897  1.0000  -1.0208   0.0000   0.0000   0.0000   0.3194
   2.800   0.4933   0.00673   0.00164  -0.0348  0.3802  1.0000  -1.0490   0.0000   0.0000   0.0000   0.3176
   2.900   0.5044   0.00677   0.00168  -0.0347  0.3743  1.0000  -1.0776   0.0000   0.0000   0.0000   0.3160
   3.000   0.5153   0.00684   0.00171  -0.0347  0.3664  1.0000  -1.1062   0.0000   0.0000   0.0000   0.3143
   3.100   0.5260   0.00693   0.00175  -0.0346  0.3570  1.0000  -1.1348   0.0000   0.0000   0.0000   0.3128
   3.200   0.5367   0.00703   0.00180  -0.0345  0.3459  1.0000  -1.1634   0.0000   0.0000   0.0000   0.3112
   3.300   0.5474   0.00713   0.00185  -0.0344  0.3338  1.0000  -1.1921   0.0000   0.0000   0.0000   0.3098
   3.400   0.5585   0.00718   0.00189  -0.0344  0.3295  1.0000  -1.2217   0.0000   0.0000   0.0000   0.3084
   3.500   0.5694   0.00724   0.00193  -0.0344  0.3231  1.0000  -1.2513   0.0000   0.0000   0.0000   0.3071
   3.600   0.5802   0.00732   0.00198  -0.0343  0.3150  1.0000  -1.2809   0.0000   0.0000   0.0000   0.3058
   3.700   0.5908   0.00744   0.00203  -0.0342  0.3047  1.0000  -1.3103   0.0000   0.0000   0.0000   0.3045
   3.800   0.6014   0.00757   0.00210  -0.0341  0.2908  1.0000  -1.3397   0.0000   0.0000   0.0000   0.3033
   3.900   0.6123   0.00763   0.00215  -0.0341  0.2841  1.0000  -1.3700   0.0000   0.0000   0.0000   0.3021
   4.000   0.6232   0.00771   0.00220  -0.0340  0.2770  1.0000  -1.4010   0.0000   0.0000   0.0000   0.3010
   4.100   0.6339   0.00781   0.00226  -0.0340  0.2684  1.0000  -1.4400   0.0000   0.0000   0.0000   0.2999
   4.200   0.6445   0.00793   0.00232  -0.0339  0.2591  1.0000  -1.4790   0.0000   0.0000   0.0000   0.2988
   4.300   0.6551   0.00806   0.00240  -0.0338  0.2473  1.0000  -1.5181   0.0000   0.0000   0.0000   0.2978
   4.400   0.6660   0.00813   0.00247  -0.0338  0.2414  1.0000  -1.5582   0.0000   0.0000   0.0000   0.2968
   4.500   0.6769   0.00820   0.00253  -0.0337  0.2361  1.0000  -1.5987   0.0000   0.0000   0.0000   0.2958
   4.600   0.6876   0.00831   0.00259  -0.0337  0.2284  1.0000  -1.6518   0.0000   0.0000   0.0000   0.2949
   4.700   0.6981   0.00844   0.00266  -0.0336  0.2189  1.0000  -1.7049   0.0000   0.0000   0.0000   0.2939
   4.800   0.7086   0.00859   0.00276  -0.0335  0.2070  1.0000  -1.7583   0.0000   0.0000   0.0000   0.2930
   4.900   0.7194   0.00869   0.00301  -0.0334  0.2019  1.0000  -1.7893   0.0000   0.0000   0.0000   0.2921
   5.000   0.7303   0.00876   0.00308  -0.0334  0.1968  1.0000  -1.8380   0.0000   0.0000   0.0000   0.2913
   5.100   0.7408   0.00889   0.00316  -0.0333  0.1873  1.0000  -1.9039   0.0000   0.0000   0.0000   0.2904
   5.200   0.7510   0.00907   0.00324  -0.0332  0.1763  1.0000  -1.9863   0.0000   0.0000   0.0000   0.2896
   5.300   0.7615   0.00922   0.00336  -0.0331  0.1651  1.0000  -2.0693   0.0000   0.0000   0.0000   0.2888
   5.400   0.7724   0.00929   0.00344  -0.0331  0.1623  1.0000  -2.1556   0.0000   0.0000   0.0000   0.2880
   5.500   0.7832   0.00937   0.00352  -0.0330  0.1587  1.0000  -2.2423   0.0000   0.0000   0.0000   0.2873
   5.600   0.7938   0.00948   0.00361  -0.0329  0.1537  1.0000  -2.3293   0.0000   0.0000   0.0000   0.2865
   5.700   0.8043   0.00962   0.00370  -0.0329  0.1477  1.0000  -2.4165   0.0000   0.0000   0.0000   0.2858
   5.800   0.8147   0.00977   0.00381  -0.0328  0.1406  1.0000  -2.5041   0.0000   0.0000   0.0000   0.2851
   5.900   0.8251   0.00993   0.00394  -0.0327  0.1321  1.0000  -2.5922   0.0000   0.0000   0.0000   0.2844
   6.000   0.8358   0.01002   0.00404  -0.0326  0.1288  1.0000  -2.6835   0.0000   0.0000   0.0000   0.2837
   6.100   0.8466   0.01010   0.00414  -0.0326  0.1264  1.0000  -2.7762   0.0000   0.0000   0.0000   0.2830
   6.200   0.8572   0.01021   0.00424  -0.0325  0.1227  1.0000  -2.8693   0.0000   0.0000   0.0000   0.2824
   6.300   0.8676   0.01035   0.00435  -0.0324  0.1178  1.0000  -2.9624   0.0000   0.0000   0.0000   0.2817
   6.400   0.8778   0.01053   0.00446  -0.0323  0.1110  1.0000  -3.0553   0.0000   0.0000   0.0000   0.2811
   6.500   0.8880   0.01073   0.00461  -0.0322  0.1018  1.0000  -3.1482   0.0000   0.0000   0.0000   0.2804
   6.600   0.8985   0.01083   0.00472  -0.0321  0.0979  1.0000  -3.2455   0.0000   0.0000   0.0000   0.2798
   6.700   0.9091   0.01094   0.00483  -0.0320  0.0942  1.0000  -3.3443   0.0000   0.0000   0.0000   0.2792
   6.800   0.9193   0.01111   0.00495  -0.0320  0.0882  1.0000  -3.4422   0.0000   0.0000   0.0000   0.2786
   6.900   0.9291   0.01134   0.00509  -0.0318  0.0801  1.0000  -3.5388   0.0000   0.0000   0.0000   0.2780
   7.000   0.9392   0.01153   0.00524  -0.0317  0.0721  1.0000  -3.6371   0.0000   0.0000   0.0000   0.2774
   7.100   0.9497   0.01164   0.00536  -0.0317  0.0693  1.0000  -3.7400   0.0000   0.0000   0.0000   0.2768
   7.200   0.9597   0.01182   0.00550  -0.0316  0.0642  1.0000  -3.8417   0.0000   0.0000   0.0000   0.2763
   7.300   0.9695   0.01206   0.00567  -0.0314  0.0578  1.0000  -3.9420   0.0000   0.0000   0.0000   0.2757
   7.400   0.9793   0.01228   0.00584  -0.0313  0.0509  1.0000  -4.0431   0.0000   0.0000   0.0000   0.2751
   7.500   0.9896   0.01242   0.00598  -0.0312  0.0484  1.0000  -4.1485   0.0000   0.0000   0.0000   0.2746
   7.600   0.9999   0.01257   0.00613  -0.0311  0.0462  1.0000  -4.2546   0.0000   0.0000   0.0000   0.2740
   7.700   1.0101   0.01273   0.00628  -0.0310  0.0438  1.0000  -4.3611   0.0000   0.0000   0.0000   0.2735
   7.800   1.0201   0.01291   0.00645  -0.0309  0.0413  1.0000  -4.4677   0.0000   0.0000   0.0000   0.2730
   7.900   1.0300   0.01311   0.00663  -0.0307  0.0386  1.0000  -4.5742   0.0000   0.0000   0.0000   0.2724
   8.000   1.0411   0.01314   0.00687  -0.0306  0.0427  1.0000  -4.6615   0.0000   0.0000   0.0000   0.2719
   8.100   1.0509   0.01335   0.00706  -0.0305  0.0403  1.0000  -4.7658   0.0000   0.0000   0.0000   0.2714
   8.200   1.0605   0.01359   0.00727  -0.0303  0.0367  1.0000  -4.8709   0.0000   0.0000   0.0000   0.2708
   8.300   1.0702   0.01384   0.00751  -0.0301  0.0327  1.0000  -4.9745   0.0000   0.0000   0.0000   0.2703
   8.400   1.0801   0.01403   0.00771  -0.0300  0.0310  1.0000  -5.0828   0.0000   0.0000   0.0000   0.2697
   8.500   1.0903   0.01416   0.00787  -0.0299  0.0305  1.0000  -5.1970   0.0000   0.0000   0.0000   0.2693
   8.600   1.1004   0.01431   0.00805  -0.0298  0.0297  1.0000  -5.3113   0.0000   0.0000   0.0000   0.2688
   8.700   1.1104   0.01448   0.00823  -0.0296  0.0286  1.0000  -5.4253   0.0000   0.0000   0.0000   0.2683
   8.800   1.1202   0.01466   0.00842  -0.0295  0.0273  1.0000  -5.5390   0.0000   0.0000   0.0000   0.2678
   8.900   1.1299   0.01487   0.00863  -0.0294  0.0259  1.0000  -5.6524   0.0000   0.0000   0.0000   0.2673
   9.000   1.1395   0.01511   0.00886  -0.0292  0.0243  1.0000  -5.7648   0.0000   0.0000   0.0000   0.2668
   9.100   1.1488   0.01537   0.00910  -0.0290  0.0227  1.0000  -5.8759   0.0000   0.0000   0.0000   0.2663
   9.200   1.1581   0.01564   0.00938  -0.0288  0.0208  1.0000  -5.9835   0.0000   0.0000   0.0000   0.2658
   9.300   1.1671   0.01597   0.00974  -0.0285  0.0189  1.0000  -6.0830   0.0000   0.0000   0.0000   0.2652
   9.400   1.1754   0.01641   0.01025  -0.0281  0.0169  1.0000  -6.1653   0.0000   0.0000   0.0000   0.2646
   9.500   1.1855   0.01651   0.01035  -0.0280  0.0168  1.0000  -6.2955   0.0000   0.0000   0.0000   0.2642
   9.600   1.1956   0.01661   0.01047  -0.0280  0.0164  1.0000  -6.4250   0.0000   0.0000   0.0000   0.2638
   9.700   1.2055   0.01675   0.01063  -0.0279  0.0155  1.0000  -6.5494   0.0000   0.0000   0.0000   0.2634
   9.800   1.2089   0.01802   0.01193  -0.0268  0.0090  1.0000  -6.4285   0.0000   0.0000   0.0000   0.2623
   9.900   1.2161   0.01860   0.01260  -0.0263  0.0086  1.0000  -6.4819   0.0000   0.0000   0.0000   0.2616
  10.000   1.2231   0.01918   0.01328  -0.0257  0.0082  1.0000  -6.5419   0.0000   0.0000   0.0000   0.2609
  10.100   1.2298   0.01979   0.01398  -0.0252  0.0080  1.0000  -6.6030   0.0000   0.0000   0.0000   0.2602
  10.200   1.2360   0.02044   0.01474  -0.0246  0.0077  1.0000  -6.6619   0.0000   0.0000   0.0000   0.2595
  10.300   1.2415   0.02117   0.01557  -0.0240  0.0075  1.0000  -6.7169   0.0000   0.0000   0.0000   0.2588
  10.400   1.2464   0.02197   0.01648  -0.0233  0.0073  1.0000  -6.7659   0.0000   0.0000   0.0000   0.2580
  10.500   1.2504   0.02287   0.01751  -0.0225  0.0072  1.0000  -6.8069   0.0000   0.0000   0.0000   0.2572
  10.600   1.2534   0.02390   0.01866  -0.0216  0.0070  1.0000  -6.8377   0.0000   0.0000   0.0000   0.2563
  10.700   1.2564   0.02490   0.01976  -0.0208  0.0069  1.0000  -6.8764   0.0000   0.0000   0.0000   0.2555
  10.800   1.2660   0.02494   0.01981  -0.0207  0.0069  1.0000  -7.0315   0.0000   0.0000   0.0000   0.2551
  10.900   1.2756   0.02499   0.01985  -0.0206  0.0068  1.0000  -7.1900   0.0000   0.0000   0.0000   0.2548
  11.000   1.2852   0.02503   0.01988  -0.0205  0.0068  1.0000  -7.3516   0.0000   0.0000   0.0000   0.2544
  11.100   1.2949   0.02506   0.01991  -0.0204  0.0068  1.0000  -7.5162   0.0000   0.0000   0.0000   0.2541
  11.200   1.3046   0.02509   0.01993  -0.0204  0.0067  1.0000  -7.6834   0.0000   0.0000   0.0000   0.2537
  11.300   1.3142   0.02513   0.01996  -0.0203  0.0067  1.0000  -7.8528   0.0000   0.0000   0.0000   0.2534
  11.400   1.3238   0.02517   0.02000  -0.0202  0.0066  1.0000  -8.0238   0.0000   0.0000   0.0000   0.2531
  11.500   1.3481   0.02342   0.01804  -0.0218  0.0062  1.0000  -8.5362   0.0000   0.0000   0.0000   0.2538
  11.600   1.3584   0.02340   0.01799  -0.0218  0.0061  1.0000  -8.7421   0.0000   0.0000   0.0000   0.2535
  11.700   1.3675   0.02352   0.01811  -0.0217  0.0059  1.0000  -8.9224   0.0000   0.0000   0.0000   0.2531
  11.800   1.3760   0.02371   0.01831  -0.0215  0.0057  1.0000  -9.0904   0.0000   0.0000   0.0000   0.2527
  11.900   1.3841   0.02395   0.01856  -0.0212  0.0055  1.0000  -9.2521   0.0000   0.0000   0.0000   0.2522
  12.000   1.3919   0.02421   0.01884  -0.0209  0.0053  1.0000  -9.4101   0.0000   0.0000   0.0000   0.2518
  12.100   1.3994   0.02450   0.01915  -0.0206  0.0051  1.0000  -9.5658   0.0000   0.0000   0.0000   0.2513
  12.200   1.4067   0.02481   0.01948  -0.0202  0.0049  1.0000  -9.7202   0.0000   0.0000   0.0000   0.2508
  12.300   1.4137   0.02513   0.01982  -0.0199  0.0047  1.0000  -9.8744   0.0000   0.0000   0.0000   0.2503
  12.400   1.4205   0.02546   0.02018  -0.0195  0.0045  1.0000  -10.0292   0.0000   0.0000   0.0000   0.2498
  12.500   1.4271   0.02580   0.02055  -0.0191  0.0043  1.0000  -10.1840   0.0000   0.0000   0.0000   0.2493
  12.600   1.4333   0.02617   0.02094  -0.0186  0.0041  1.0000  -10.3388   0.0000   0.0000   0.0000   0.2488
  12.700   1.4391   0.02656   0.02135  -0.0182  0.0039  1.0000  -10.4922   0.0000   0.0000   0.0000   0.2482
  12.800   1.4444   0.02698   0.02180  -0.0177  0.0037  1.0000  -10.6439   0.0000   0.0000   0.0000   0.2477
  12.900   1.4493   0.02743   0.02227  -0.0171  0.0036  1.0000  -10.7932   0.0000   0.0000   0.0000   0.2471
  13.000   1.4534   0.02792   0.02278  -0.0165  0.0034  1.0000  -10.9381   0.0000   0.0000   0.0000   0.2464
  13.100   1.4562   0.02843   0.02333  -0.0156  0.0033  1.0000  -11.0699   0.0000   0.0000   0.0000   0.2457
  13.200   1.4578   0.02897   0.02391  -0.0147  0.0031  1.0000  -11.1907   0.0000   0.0000   0.0000   0.2448
  13.300   1.4584   0.02957   0.02455  -0.0137  0.0030  1.0000  -11.3013   0.0000   0.0000   0.0000   0.2440
  13.400   1.4583   0.03022   0.02525  -0.0126  0.0029  1.0000  -11.4022   0.0000   0.0000   0.0000   0.2431
  13.500   1.4574   0.03094   0.02602  -0.0116  0.0029  1.0000  -11.4936   0.0000   0.0000   0.0000   0.2423
  13.600   1.4559   0.03174   0.02689  -0.0108  0.0028  1.0000  -11.5758   0.0000   0.0000   0.0000   0.2415
  13.700   1.4537   0.03262   0.02783  -0.0100  0.0027  1.0000  -11.6475   0.0000   0.0000   0.0000   0.2408
  13.800   1.4510   0.03359   0.02887  -0.0093  0.0027  1.0000  -11.7115   0.0000   0.0000   0.0000   0.2402
  13.900   1.4479   0.03468   0.03002  -0.0088  0.0026  1.0000  -11.7689   0.0000   0.0000   0.0000   0.2397
  14.000   1.4445   0.03588   0.03129  -0.0086  0.0026  1.0000  -11.8182   0.0000   0.0000   0.0000   0.2393
  14.100   1.4407   0.03720   0.03269  -0.0085  0.0025  1.0000  -11.8612   0.0000   0.0000   0.0000   0.2391
  14.200   1.4367   0.03864   0.03420  -0.0086  0.0025  1.0000  -11.8982   0.0000   0.0000   0.0000   0.2390
  14.300   1.4319   0.04021   0.03585  -0.0089  0.0025  1.0000  -11.9235   0.0000   0.0000   0.0000   0.2390
  14.400   1.4269   0.04192   0.03763  -0.0094  0.0025  1.0000  -11.9423   0.0000   0.0000   0.0000   0.2392
  14.500   1.4219   0.04376   0.03954  -0.0101  0.0025  1.0000  -11.9577   0.0000   0.0000   0.0000   0.2395
  14.600   1.4162   0.04581   0.04167  -0.0110  0.0024  1.0000  -11.9612   0.0000   0.0000   0.0000   0.2399
  14.700   1.4105   0.04796   0.04389  -0.0121  0.0024  1.0000  -11.9622   0.0000   0.0000   0.0000   0.2405
  14.800   1.4044   0.05029   0.04629  -0.0133  0.0024  1.0000  -11.9531   0.0000   0.0000   0.0000   0.2412
  14.900   1.3978   0.05278   0.04886  -0.0147  0.0024  1.0000  -11.9352   0.0000   0.0000   0.0000   0.2421
  15.000   1.3912   0.05532   0.05147  -0.0162  0.0024  1.0000  -11.9143   0.0000   0.0000   0.0000   0.2430
  15.100   1.3836   0.05813   0.05435  -0.0179  0.0024  1.0000  -11.8767   0.0000   0.0000   0.0000   0.2441
  15.200   1.3764   0.06085   0.05715  -0.0194  0.0024  1.0000  -11.8428   0.0000   0.0000   0.0000   0.2451
  15.300   1.3679   0.06392   0.06029  -0.0213  0.0024  1.0000  -11.7868   0.0000   0.0000   0.0000   0.2463
  15.400   1.3599   0.06683   0.06326  -0.0230  0.0024  1.0000  -11.7382   0.0000   0.0000   0.0000   0.2475
  15.500   1.3507   0.07009   0.06659  -0.0250  0.0024  1.0000  -11.6662   0.0000   0.0000   0.0000   0.2489
  15.600   1.3416   0.07314   0.06970  -0.0267  0.0024  1.0000  -11.5987   0.0000   0.0000   0.0000   0.2501
  15.700   1.3319   0.07634   0.07296  -0.0285  0.0025  1.0000  -11.5185   0.0000   0.0000   0.0000   0.2514
  15.800   1.3218   0.07974   0.07642  -0.0305  0.0025  1.0000  -11.4277   0.0000   0.0000   0.0000   0.2529
  15.900   1.3127   0.08291   0.07964  -0.0322  0.0025  1.0000  -11.3523   0.0000   0.0000   0.0000   0.2542
  16.000   1.3018   0.08664   0.08343  -0.0344  0.0025  1.0000  -11.2411   0.0000   0.0000   0.0000   0.2560
  16.100   1.2922   0.09007   0.08691  -0.0363  0.0025  1.0000  -11.1490   0.0000   0.0000   0.0000   0.2575
  16.200   1.2831   0.09338   0.09028  -0.0382  0.0025  1.0000  -11.0637   0.0000   0.0000   0.0000   0.2590
  16.300   1.2719   0.09734   0.09429  -0.0405  0.0026  1.0000  -10.9337   0.0000   0.0000   0.0000   0.2609
  16.400   1.2624   0.10089   0.09790  -0.0426  0.0026  1.0000  -10.8321   0.0000   0.0000   0.0000   0.2626
  16.500   1.2537   0.10427   0.10133  -0.0445  0.0026  1.0000  -10.7414   0.0000   0.0000   0.0000   0.2643
  16.600   1.2438   0.10804   0.10515  -0.0467  0.0026  1.0000  -10.6210   0.0000   0.0000   0.0000   0.2662
  16.700   1.2333   0.11199   0.10916  -0.0491  0.0027  1.0000  -10.4856   0.0000   0.0000   0.0000   0.2683
  16.800   1.2250   0.11540   0.11261  -0.0511  0.0027  1.0000  -10.3887   0.0000   0.0000   0.0000   0.2701
  16.900   1.2170   0.11877   0.11603  -0.0531  0.0027  1.0000  -10.2933   0.0000   0.0000   0.0000   0.2719
  17.000   1.2070   0.12267   0.11998  -0.0554  0.0027  1.0000  -10.1529   0.0000   0.0000   0.0000   0.2741
  17.100   1.1971   0.12663   0.12399  -0.0578  0.0028  1.0000  -10.0058   0.0000   0.0000   0.0000   0.2764
  17.200   1.1895   0.12997   0.12738  -0.0598  0.0028  1.0000  -9.9044   0.0000   0.0000   0.0000   0.2783
  17.300   1.1825   0.13324   0.13069  -0.0618  0.0028  1.0000  -9.8080   0.0000   0.0000   0.0000   0.2801
  17.400   1.1749   0.13665   0.13415  -0.0639  0.0028  1.0000  -9.6967   0.0000   0.0000   0.0000   0.2821
  17.500   1.1631   0.14110   0.13866  -0.0667  0.0029  1.0000  -9.4849   0.0000   0.0000   0.0000   0.2851
  17.600   1.1553   0.14434   0.14195  -0.0688  0.0029  1.0000  -9.3570   0.0000   0.0000   0.0000   0.2872
  17.700   1.1487   0.14735   0.14500  -0.0709  0.0029  1.0000  -9.2492   0.0000   0.0000   0.0000   0.2892
  17.800   1.1420   0.15051   0.14820  -0.0729  0.0029  1.0000  -9.1330   0.0000   0.0000   0.0000   0.2913
  17.900   1.1343   0.15410   0.15184  -0.0752  0.0030  1.0000  -8.9846   0.0000   0.0000   0.0000   0.2937
  18.000   1.1193   0.15980   0.15762  -0.0787  0.0031  1.0000  -8.6510   0.0000   0.0000   0.0000   0.2978
  18.100   1.1116   0.16370   0.16156  -0.0810  0.0031  1.0000  -8.4870   0.0000   0.0000   0.0000   0.3004
  18.200   1.1040   0.16774   0.16565  -0.0834  0.0031  1.0000  -8.3153   0.0000   0.0000   0.0000   0.3030
  18.300   1.0694   0.18032   0.17839  -0.0902  0.0035  1.0000  -7.3879   0.0000   0.0000   0.0000   0.3124
  18.500   0.9599   0.23198   0.23006  -0.1098  0.0040  1.0000  -3.5103   0.0000   0.0000   0.0000   0.3462
  18.600   0.9565   0.23735   0.23541  -0.1114  0.0039  1.0000  -3.2723   0.0000   0.0000   0.0000   0.3483
  18.700   0.9547   0.24187   0.23994  -0.1127  0.0039  1.0000  -3.0940   0.0000   0.0000   0.0000   0.3500
  18.800   0.9536   0.24591   0.24397  -0.1139  0.0040  1.0000  -2.9522   0.0000   0.0000   0.0000   0.3514
  18.900   0.9531   0.24963   0.24769  -0.1150  0.0040  1.0000  -2.8338   0.0000   0.0000   0.0000   0.3526
  19.000   0.9529   0.25313   0.25118  -0.1160  0.0041  1.0000  -2.7331   0.0000   0.0000   0.0000   0.3537
  19.100   0.9530   0.25646   0.25451  -0.1170  0.0043  1.0000  -2.6461   0.0000   0.0000   0.0000   0.3547
  19.200   0.9532   0.25965   0.25770  -0.1179  0.0044  1.0000  -2.5694   0.0000   0.0000   0.0000   0.3555
  19.300   0.9535   0.26275   0.26080  -0.1188  0.0046  1.0000  -2.5010   0.0000   0.0000   0.0000   0.3564
  19.400   0.9538   0.26576   0.26381  -0.1197  0.0047  1.0000  -2.4405   0.0000   0.0000   0.0000   0.3572
  19.500   0.9542   0.26868   0.26673  -0.1205  0.0049  1.0000  -2.3867   0.0000   0.0000   0.0000   0.3579
  19.600   0.9546   0.27155   0.26960  -0.1213  0.0051  1.0000  -2.3380   0.0000   0.0000   0.0000   0.3586
  19.700   0.9548   0.27444   0.27249  -0.1221  0.0054  1.0000  -2.2892   0.0000   0.0000   0.0000   0.3594
  19.800   0.9546   0.27746   0.27551  -0.1229  0.0057  1.0000  -2.2343   0.0000   0.0000   0.0000   0.3601
  19.900   0.9470   0.28432   0.28237  -0.1237  0.0067  1.0000  -1.9644   0.0000   0.0000   0.0000   0.3621
  20.000   0.9474   0.28700   0.28505  -0.1243  0.0068  1.0000  -1.9397   0.0000   0.0000   0.0000   0.3626
  20.100   0.9479   0.28958   0.28764  -0.1250  0.0068  1.0000  -1.9200   0.0000   0.0000   0.0000   0.3631
  20.200   0.9484   0.29211   0.29017  -0.1256  0.0068  1.0000  -1.9025   0.0000   0.0000   0.0000   0.3636
  20.300   0.9488   0.29461   0.29267  -0.1263  0.0068  1.0000  -1.8862   0.0000   0.0000   0.0000   0.3641
  20.400   0.9492   0.29708   0.29514  -0.1269  0.0068  1.0000  -1.8706   0.0000   0.0000   0.0000   0.3646
  20.500   0.9494   0.29952   0.29759  -0.1275  0.0068  1.0000  -1.8555   0.0000   0.0000   0.0000   0.3651
  20.600   0.9495   0.30193   0.30000  -0.1281  0.0068  1.0000  -1.8406   0.0000   0.0000   0.0000   0.3656
  20.700   0.9495   0.30431   0.30239  -0.1287  0.0068  1.0000  -1.8259   0.0000   0.0000   0.0000   0.3661
  20.800   0.9493   0.30666   0.30474  -0.1292  0.0068  1.0000  -1.8112   0.0000   0.0000   0.0000   0.3666
  20.900   0.9489   0.30896   0.30705  -0.1298  0.0068  1.0000  -1.7964   0.0000   0.0000   0.0000   0.3671
  21.000   0.9483   0.31122   0.30931  -0.1303  0.0068  1.0000  -1.7813   0.0000   0.0000   0.0000   0.3676
  21.100   0.9474   0.31341   0.31151  -0.1307  0.0068  1.0000  -1.7659   0.0000   0.0000   0.0000   0.3681
  21.200   0.9462   0.31553   0.31364  -0.1312  0.0068  1.0000  -1.7499   0.0000   0.0000   0.0000   0.3687
  21.300   0.9446   0.31756   0.31567  -0.1316  0.0068  1.0000  -1.7331   0.0000   0.0000   0.0000   0.3692
  21.400   0.9424   0.31944   0.31757  -0.1319  0.0068  1.0000  -1.7153   0.0000   0.0000   0.0000   0.3698
  21.500   0.9394   0.32114   0.31927  -0.1321  0.0068  1.0000  -1.6957   0.0000   0.0000   0.0000   0.3704
  21.600   0.8885   0.31053   0.30875  -0.1269  0.0068  1.0000  -1.5561   0.0000   0.0000   0.0000   0.3732
  21.700   0.8815   0.31010   0.30834  -0.1265  0.0068  1.0000  -1.5276   0.0000   0.0000   0.0000   0.3739
  21.800   0.8762   0.30999   0.30824  -0.1264  0.0068  1.0000  -1.5033   0.0000   0.0000   0.0000   0.3746
  21.900   0.8717   0.31007   0.30833  -0.1263  0.0068  1.0000  -1.4815   0.0000   0.0000   0.0000   0.3753
  22.000   0.8678   0.31025   0.30852  -0.1263  0.0068  1.0000  -1.4614   0.0000   0.0000   0.0000   0.3759
  22.100   0.8644   0.31051   0.30879  -0.1264  0.0068  1.0000  -1.4427   0.0000   0.0000   0.0000   0.3765
  22.200   0.8613   0.31082   0.30911  -0.1265  0.0068  1.0000  -1.4251   0.0000   0.0000   0.0000   0.3770
  22.300   0.8585   0.31118   0.30948  -0.1266  0.0068  1.0000  -1.4083   0.0000   0.0000   0.0000   0.3776
  22.400   0.8559   0.31157   0.30988  -0.1267  0.0068  1.0000  -1.3924   0.0000   0.0000   0.0000   0.3781
  22.500   0.8536   0.31200   0.31031  -0.1269  0.0068  1.0000  -1.3772   0.0000   0.0000   0.0000   0.3786
  22.600   0.8514   0.31245   0.31077  -0.1271  0.0068  1.0000  -1.3626   0.0000   0.0000   0.0000   0.3791
  22.700   0.8494   0.31293   0.31126  -0.1273  0.0068  1.0000  -1.3485   0.0000   0.0000   0.0000   0.3796
  22.800   0.8476   0.31342   0.31176  -0.1275  0.0068  1.0000  -1.3350   0.0000   0.0000   0.0000   0.3801
  22.900   0.8459   0.31393   0.31228  -0.1277  0.0068  1.0000  -1.3220   0.0000   0.0000   0.0000   0.3806
  23.000   0.8443   0.31446   0.31281  -0.1280  0.0068  1.0000  -1.3094   0.0000   0.0000   0.0000   0.3811
  23.100   0.8428   0.31500   0.31336  -0.1282  0.0068  1.0000  -1.2972   0.0000   0.0000   0.0000   0.3815
  23.200   0.8414   0.31556   0.31392  -0.1285  0.0068  1.0000  -1.2853   0.0000   0.0000   0.0000   0.3820
  23.300   0.8401   0.31612   0.31449  -0.1287  0.0068  1.0000  -1.2738   0.0000   0.0000   0.0000   0.3824
  23.400   0.8388   0.31669   0.31507  -0.1290  0.0068  1.0000  -1.2627   0.0000   0.0000   0.0000   0.3829
  23.500   0.8377   0.31728   0.31566  -0.1293  0.0068  1.0000  -1.2518   0.0000   0.0000   0.0000   0.3833
  23.600   0.8366   0.31786   0.31625  -0.1296  0.0068  1.0000  -1.2414   0.0000   0.0000   0.0000   0.3838
  23.700   0.8357   0.31846   0.31685  -0.1299  0.0068  1.0000  -1.2314   0.0000   0.0000   0.0000   0.3842
  23.800   0.8348   0.31906   0.31746  -0.1302  0.0068  1.0000  -1.2217   0.0000   0.0000   0.0000   0.3847
  23.900   0.8339   0.31966   0.31807  -0.1305  0.0068  1.0000  -1.2122   0.0000   0.0000   0.0000   0.3851
  24.000   0.8331   0.32028   0.31869  -0.1308  0.0068  1.0000  -1.2031   0.0000   0.0000   0.0000   0.3855
  24.100   0.8324   0.32089   0.31931  -0.1312  0.0068  1.0000  -1.1942   0.0000   0.0000   0.0000   0.3859
  24.200   0.8316   0.32151   0.31994  -0.1315  0.0067  1.0000  -1.1852   0.0000   0.0000   0.0000   0.3864
  24.300   0.8310   0.32214   0.32057  -0.1319  0.0067  1.0000  -1.1765   0.0000   0.0000   0.0000   0.3868
  24.400   0.8303   0.32277   0.32121  -0.1322  0.0067  1.0000  -1.1680   0.0000   0.0000   0.0000   0.3872
  24.500   0.8298   0.32341   0.32185  -0.1326  0.0067  1.0000  -1.1598   0.0000   0.0000   0.0000   0.3876
  24.600   0.8292   0.32404   0.32249  -0.1329  0.0067  1.0000  -1.1519   0.0000   0.0000   0.0000   0.3880
  24.700   0.8287   0.32468   0.32317  -0.1333  0.0067  1.0000  -1.1452   0.0000   0.0000   0.0000   0.3884
  24.800   0.8283   0.32532   0.32381  -0.1336  0.0067  1.0000  -1.1381   0.0000   0.0000   0.0000   0.3888
  24.900   0.8279   0.32597   0.32446  -0.1340  0.0067  1.0000  -1.1311   0.0000   0.0000   0.0000   0.3892
  25.000   0.8275   0.32662   0.32512  -0.1344  0.0067  1.0000  -1.1243   0.0000   0.0000   0.0000   0.3896
  25.100   0.8271   0.32727   0.32578  -0.1348  0.0066  1.0000  -1.1177   0.0000   0.0000   0.0000   0.3900
  25.200   0.8268   0.32793   0.32643  -0.1351  0.0066  1.0000  -1.1114   0.0000   0.0000   0.0000   0.3904
  25.300   0.8265   0.32858   0.32710  -0.1355  0.0066  1.0000  -1.1053   0.0000   0.0000   0.0000   0.3907
  25.400   0.8263   0.32924   0.32776  -0.1359  0.0066  1.0000  -1.0994   0.0000   0.0000   0.0000   0.3911
  25.500   0.8260   0.32990   0.32843  -0.1363  0.0066  1.0000  -1.0938   0.0000   0.0000   0.0000   0.3915
  25.600   0.8258   0.33057   0.32910  -0.1367  0.0066  1.0000  -1.0883   0.0000   0.0000   0.0000   0.3918
  25.700   0.8257   0.33125   0.32978  -0.1371  0.0065  1.0000  -1.0818   0.0000   0.0000   0.0000   0.3922
  25.800   0.8255   0.33193   0.33047  -0.1375  0.0065  1.0000  -1.0756   0.0000   0.0000   0.0000   0.3926
  25.900   0.8254   0.33262   0.33116  -0.1379  0.0065  1.0000  -1.0696   0.0000   0.0000   0.0000   0.3930
  26.000   0.8253   0.33331   0.33186  -0.1383  0.0064  1.0000  -1.0638   0.0000   0.0000   0.0000   0.3933
  26.100   0.8253   0.33401   0.33256  -0.1387  0.0064  1.0000  -1.0583   0.0000   0.0000   0.0000   0.3937
  26.200   0.8254   0.33471   0.33327  -0.1392  0.0064  1.0000  -1.0530   0.0000   0.0000   0.0000   0.3941
  26.300   0.8255   0.33543   0.33399  -0.1396  0.0063  1.0000  -1.0480   0.0000   0.0000   0.0000   0.3944
  26.400   0.8257   0.33616   0.33473  -0.1401  0.0062  1.0000  -1.0430   0.0000   0.0000   0.0000   0.3948
  26.500   0.8260   0.33691   0.33548  -0.1405  0.0062  1.0000  -1.0381   0.0000   0.0000   0.0000   0.3951
  26.600   0.8265   0.33769   0.33627  -0.1410  0.0060  1.0000  -1.0327   0.0000   0.0000   0.0000   0.3954
  26.700   0.8271   0.33850   0.33708  -0.1415  0.0059  1.0000  -1.0266   0.0000   0.0000   0.0000   0.3957
  26.800   0.8276   0.33932   0.33791  -0.1419  0.0056  1.0000  -1.0198   0.0000   0.0000   0.0000   0.3960
  26.900   0.8280   0.34011   0.33870  -0.1423  0.0054  1.0000  -1.0131   0.0000   0.0000   0.0000   0.3962
  27.000   0.8282   0.34087   0.33946  -0.1427  0.0051  1.0000  -1.0075   0.0000   0.0000   0.0000   0.3965
  27.100   0.8282   0.34160   0.34020  -0.1431  0.0049  1.0000  -1.0030   0.0000   0.0000   0.0000   0.3968
  27.200   0.8282   0.34231   0.34091  -0.1435  0.0047  1.0000  -0.9995   0.0000   0.0000   0.0000   0.3971


