xflr5 v6.61

 Calculated polar for: SD7003-085-88

 1 1 Reynolds number fixed          Mach number fixed         

 xtrf =   1.000 (top)        1.000 (bottom)
 Mach =   0.000     Re =     0.160 e 6     Ncrit =   9.000

  alpha     CL        CD       CDp       Cm    Top Xtr Bot Xtr   Cpmin    Chinge    XCp    
 ------- -------- --------- --------- -------- ------- ------- -------- --------- ---------
 -10.000  -0.5279   0.11971   0.11549   0.0019  1.0000  0.0472  -1.6241   0.0000   0.0000   0.0000   0.2487
  -9.900  -0.5265   0.11808   0.11387   0.0011  1.0000  0.0472  -1.6348   0.0000   0.0000   0.0000   0.2472
  -9.800  -0.5251   0.11644   0.11224   0.0003  1.0000  0.0473  -1.6457   0.0000   0.0000   0.0000   0.2458
  -9.700  -0.5237   0.11477   0.11058  -0.0005  1.0000  0.0473  -1.6570   0.0000   0.0000   0.0000   0.2443
  -9.600  -0.5225   0.11309   0.10891  -0.0013  1.0000  0.0473  -1.6686   0.0000   0.0000   0.0000   0.2428
  -9.500  -0.5212   0.11140   0.10723  -0.0021  1.0000  0.0473  -1.6807   0.0000   0.0000   0.0000   0.2413
  -9.400  -0.5201   0.10969   0.10554  -0.0029  1.0000  0.0474  -1.6932   0.0000   0.0000   0.0000   0.2397
  -9.300  -0.5191   0.10798   0.10383  -0.0038  1.0000  0.0474  -1.7062   0.0000   0.0000   0.0000   0.2381
  -8.200  -0.5198   0.08486   0.08087  -0.0092  1.0000  0.0419  -1.8656   0.0000   0.0000   0.0000   0.2281
  -7.900  -0.5364   0.07208   0.06812  -0.0194  1.0000  0.0271  -2.4313   0.0000   0.0000   0.0000   0.2095
  -7.800  -0.5404   0.06895   0.06499  -0.0227  1.0000  0.0267  -2.5038   0.0000   0.0000   0.0000   0.2038
  -7.700  -0.5433   0.06575   0.06177  -0.0256  1.0000  0.0263  -2.5773   0.0000   0.0000   0.0000   0.1988
  -7.600  -0.5458   0.06273   0.05872  -0.0279  1.0000  0.0259  -2.6469   0.0000   0.0000   0.0000   0.1947
  -7.500  -0.5480   0.05982   0.05575  -0.0299  1.0000  0.0255  -2.7140   0.0000   0.0000   0.0000   0.1913
  -7.400  -0.5497   0.05697   0.05283  -0.0317  1.0000  0.0251  -2.7797   0.0000   0.0000   0.0000   0.1883
  -7.300  -0.5508   0.05417   0.04995  -0.0332  1.0000  0.0247  -2.8442   0.0000   0.0000   0.0000   0.1857
  -7.200  -0.5514   0.05140   0.04708  -0.0344  1.0000  0.0242  -2.9080   0.0000   0.0000   0.0000   0.1835
  -7.100  -0.5513   0.04865   0.04421  -0.0354  1.0000  0.0238  -2.9720   0.0000   0.0000   0.0000   0.1816
  -7.000  -0.5505   0.04593   0.04134  -0.0363  1.0000  0.0233  -3.0358   0.0000   0.0000   0.0000   0.1800
  -6.900  -0.5490   0.04323   0.03847  -0.0369  1.0000  0.0229  -3.1003   0.0000   0.0000   0.0000   0.1787
  -6.800  -0.5468   0.04058   0.03563  -0.0373  1.0000  0.0224  -3.1634   0.0000   0.0000   0.0000   0.1776
  -6.700  -0.5438   0.03800   0.03283  -0.0376  1.0000  0.0219  -3.2245   0.0000   0.0000   0.0000   0.1767
  -6.600  -0.5400   0.03553   0.03012  -0.0377  1.0000  0.0215  -3.2808   0.0000   0.0000   0.0000   0.1761
  -6.500  -0.5353   0.03322   0.02756  -0.0376  1.0000  0.0212  -3.3281   0.0000   0.0000   0.0000   0.1755
  -6.400  -0.5297   0.03111   0.02519  -0.0374  1.0000  0.0209  -3.3638   0.0000   0.0000   0.0000   0.1751
  -6.300  -0.5233   0.02922   0.02305  -0.0371  1.0000  0.0208  -3.3871   0.0000   0.0000   0.0000   0.1748
  -6.200  -0.5162   0.02754   0.02113  -0.0368  1.0000  0.0207  -3.4014   0.0000   0.0000   0.0000   0.1744
  -6.100  -0.5086   0.02605   0.01942  -0.0364  1.0000  0.0207  -3.4036   0.0000   0.0000   0.0000   0.1741
  -6.000  -0.5004   0.02475   0.01792  -0.0360  1.0000  0.0209  -3.3934   0.0000   0.0000   0.0000   0.1737
  -5.900  -0.4919   0.02359   0.01658  -0.0356  1.0000  0.0212  -3.3751   0.0000   0.0000   0.0000   0.1733
  -5.800  -0.4832   0.02253   0.01537  -0.0352  1.0000  0.0216  -3.3505   0.0000   0.0000   0.0000   0.1729
  -5.700  -0.4742   0.02158   0.01427  -0.0348  1.0000  0.0222  -3.3210   0.0000   0.0000   0.0000   0.1724
  -5.600  -0.4650   0.02071   0.01328  -0.0344  1.0000  0.0230  -3.2870   0.0000   0.0000   0.0000   0.1719
  -5.500  -0.4558   0.01994   0.01239  -0.0339  1.0000  0.0240  -3.2482   0.0000   0.0000   0.0000   0.1714
  -5.400  -0.4463   0.01928   0.01163  -0.0335  1.0000  0.0253  -3.2022   0.0000   0.0000   0.0000   0.1708
  -5.300  -0.4368   0.01877   0.01104  -0.0331  1.0000  0.0266  -3.1422   0.0000   0.0000   0.0000   0.1702
  -5.200  -0.4270   0.01845   0.01066  -0.0327  1.0000  0.0277  -3.0643   0.0000   0.0000   0.0000   0.1693
  -5.100  -0.4173   0.01815   0.01030  -0.0324  1.0000  0.0283  -2.9750   0.0000   0.0000   0.0000   0.1684
  -5.000  -0.4089   0.01698   0.00882  -0.0319  1.0000  0.0274  -2.9481   0.0000   0.0000   0.0000   0.1681
  -4.900  -0.4000   0.01623   0.00803  -0.0314  1.0000  0.0299  -2.9142   0.0000   0.0000   0.0000   0.1674
  -4.800  -0.3911   0.01551   0.00737  -0.0311  1.0000  0.0360  -2.8858   0.0000   0.0000   0.0000   0.1665
  -4.700  -0.3812   0.01525   0.00712  -0.0308  1.0000  0.0436  -2.8447   0.0000   0.0000   0.0000   0.1654
  -4.600  -0.3717   0.01479   0.00665  -0.0305  1.0000  0.0516  -2.8152   0.0000   0.0000   0.0000   0.1643
  -4.500  -0.3622   0.01449   0.00643  -0.0302  1.0000  0.0596  -2.7562   0.0000   0.0000   0.0000   0.1627
  -4.400  -0.3523   0.01435   0.00628  -0.0300  1.0000  0.0655  -2.6888   0.0000   0.0000   0.0000   0.1612
  -4.300  -0.3423   0.01434   0.00624  -0.0298  1.0000  0.0703  -2.6135   0.0000   0.0000   0.0000   0.1594
  -4.200  -0.3329   0.01406   0.00598  -0.0295  1.0000  0.0770  -2.5487   0.0000   0.0000   0.0000   0.1577
  -4.100  -0.3234   0.01388   0.00591  -0.0294  1.0000  0.0856  -2.4738   0.0000   0.0000   0.0000   0.1556
  -4.000  -0.3137   0.01392   0.00599  -0.0292  1.0000  0.0936  -2.3924   0.0000   0.0000   0.0000   0.1533
  -3.900  -0.3037   0.01410   0.00615  -0.0290  1.0000  0.0997  -2.3099   0.0000   0.0000   0.0000   0.1509
  -3.800  -0.2946   0.01365   0.00579  -0.0288  1.0000  0.1101  -2.2506   0.0000   0.0000   0.0000   0.1487
  -3.700  -0.2852   0.01353   0.00576  -0.0287  1.0000  0.1191  -2.1788   0.0000   0.0000   0.0000   0.1461
  -3.600  -0.2756   0.01346   0.00571  -0.0284  1.0000  0.1268  -2.1110   0.0000   0.0000   0.0000   0.1435
  -3.500  -0.2658   0.01339   0.00561  -0.0282  1.0000  0.1323  -2.0475   0.0000   0.0000   0.0000   0.1407
  -3.400  -0.2563   0.01294   0.00519  -0.0279  1.0000  0.1414  -1.9971   0.0000   0.0000   0.0000   0.1380
  -3.300  -0.2469   0.01261   0.00497  -0.0276  1.0000  0.1533  -1.9400   0.0000   0.0000   0.0000   0.1347
  -3.200  -0.2373   0.01244   0.00482  -0.0274  1.0000  0.1648  -1.8799   0.0000   0.0000   0.0000   0.1313
  -3.100  -0.2277   0.01215   0.00460  -0.0272  1.0000  0.1812  -1.8243   0.0000   0.0000   0.0000   0.1275
  -3.000  -0.2182   0.01184   0.00445  -0.0270  1.0000  0.2042  -1.7671   0.0000   0.0000   0.0000   0.1231
  -2.900  -0.2088   0.01150   0.00429  -0.0268  1.0000  0.2365  -1.7111   0.0000   0.0000   0.0000   0.1182
  -2.800  -0.1993   0.01118   0.00417  -0.0267  1.0000  0.2763  -1.6538   0.0000   0.0000   0.0000   0.1130
  -2.700  -0.1900   0.01089   0.00409  -0.0265  1.0000  0.3209  -1.5958   0.0000   0.0000   0.0000   0.1073
  -2.600  -0.1808   0.01064   0.00404  -0.0263  1.0000  0.3665  -1.5376   0.0000   0.0000   0.0000   0.1014
  -2.500  -0.1717   0.01041   0.00400  -0.0260  1.0000  0.4120  -1.4797   0.0000   0.0000   0.0000   0.0952
  -2.400  -0.1628   0.01021   0.00398  -0.0257  1.0000  0.4581  -1.4222   0.0000   0.0000   0.0000   0.0888
  -2.300  -0.1541   0.01001   0.00399  -0.0253  1.0000  0.5049  -1.3658   0.0000   0.0000   0.0000   0.0827
  -2.200  -0.1458   0.00983   0.00402  -0.0248  1.0000  0.5502  -1.3105   0.0000   0.0000   0.0000   0.0768
  -2.100  -0.1376   0.00969   0.00407  -0.0241  1.0000  0.5933  -1.2561   0.0000   0.0000   0.0000   0.0713
  -2.000  -0.1299   0.00958   0.00413  -0.0234  1.0000  0.6359  -1.2031   0.0000   0.0000   0.0000   0.0665
  -1.900  -0.1224   0.00951   0.00419  -0.0226  1.0000  0.6767  -1.1511   0.0000   0.0000   0.0000   0.0622
  -1.800  -0.1154   0.00946   0.00426  -0.0217  1.0000  0.7151  -1.1007   0.0000   0.0000   0.0000   0.0590
  -1.700  -0.1093   0.00941   0.00434  -0.0205  1.0000  0.7483  -1.0525   0.0000   0.0000   0.0000   0.0590
  -1.600  -0.1031   0.00940   0.00441  -0.0194  1.0000  0.7781  -1.0042   0.0000   0.0000   0.0000   0.0582
  -1.400  -0.0748   0.00939   0.00446  -0.0201  0.9914  0.8435  -0.8337   0.0000   0.0000   0.0000  -0.0223
  -1.300  -0.0578   0.00940   0.00451  -0.0209  0.9870  0.8732  -0.7857   0.0000   0.0000   0.0000  -0.1159
  -1.200  -0.0415   0.00937   0.00450  -0.0215  0.9812  0.9029  -0.7411   0.0000   0.0000   0.0000  -0.2740
  -1.100  -0.0203   0.00934   0.00448  -0.0231  0.9773  0.9348  -0.6890   0.0000   0.0000   0.0000  -0.9021
  -1.000   0.0070   0.00931   0.00443  -0.0261  0.9753  0.9656  -0.6312   0.0000   0.0000   0.0000   3.9900
  -0.900   0.0371   0.00925   0.00433  -0.0298  0.9737  0.9933  -0.5812   0.0000   0.0000   0.0000   1.0550
  -0.800   0.0585   0.00923   0.00427  -0.0319  0.9691  1.0000  -0.5429   0.0000   0.0000   0.0000   0.7962
  -0.700   0.0776   0.00920   0.00420  -0.0335  0.9625  1.0000  -0.5078   0.0000   0.0000   0.0000   0.6828
  -0.600   0.0991   0.00916   0.00412  -0.0356  0.9573  1.0000  -0.4699   0.0000   0.0000   0.0000   0.6093
  -0.500   0.1215   0.00911   0.00404  -0.0378  0.9526  1.0000  -0.4344   0.0000   0.0000   0.0000   0.5608
  -0.400   0.1367   0.00907   0.00396  -0.0386  0.9428  1.0000  -0.4487   0.0000   0.0000   0.0000   0.5317
  -0.300   0.1549   0.00901   0.00388  -0.0399  0.9347  1.0000  -0.4651   0.0000   0.0000   0.0000   0.5069
  -0.200   0.1752   0.00896   0.00380  -0.0416  0.9283  1.0000  -0.4856   0.0000   0.0000   0.0000   0.4867
  -0.100   0.1889   0.00893   0.00374  -0.0420  0.9180  1.0000  -0.5015   0.0000   0.0000   0.0000   0.4717
   0.000   0.2038   0.00889   0.00367  -0.0426  0.9075  1.0000  -0.5183   0.0000   0.0000   0.0000   0.4583
   0.100   0.2209   0.00884   0.00358  -0.0436  0.8984  1.0000  -0.5370   0.0000   0.0000   0.0000   0.4463
   0.200   0.2319   0.00883   0.00353  -0.0434  0.8858  1.0000  -0.5512   0.0000   0.0000   0.0000   0.4362
   0.300   0.2440   0.00881   0.00347  -0.0434  0.8731  1.0000  -0.5664   0.0000   0.0000   0.0000   0.4267
   0.400   0.2571   0.00880   0.00339  -0.0435  0.8621  1.0000  -0.5824   0.0000   0.0000   0.0000   0.4179
   0.500   0.2660   0.00882   0.00338  -0.0429  0.8485  1.0000  -0.5954   0.0000   0.0000   0.0000   0.4100
   0.600   0.2762   0.00884   0.00334  -0.0425  0.8356  1.0000  -0.6119   0.0000   0.0000   0.0000   0.4025
   0.700   0.2869   0.00887   0.00330  -0.0421  0.8242  1.0000  -0.6290   0.0000   0.0000   0.0000   0.3954
   0.800   0.2962   0.00890   0.00330  -0.0417  0.8116  1.0000  -0.6447   0.0000   0.0000   0.0000   0.3892
   0.900   0.3057   0.00894   0.00329  -0.0412  0.7981  1.0000  -0.6607   0.0000   0.0000   0.0000   0.3831
   1.000   0.3155   0.00899   0.00325  -0.0406  0.7854  1.0000  -0.6773   0.0000   0.0000   0.0000   0.3772
   1.100   0.3252   0.00905   0.00326  -0.0402  0.7731  1.0000  -0.6936   0.0000   0.0000   0.0000   0.3719
   1.200   0.3347   0.00910   0.00326  -0.0397  0.7594  1.0000  -0.7098   0.0000   0.0000   0.0000   0.3670
   1.300   0.3443   0.00916   0.00325  -0.0392  0.7462  1.0000  -0.7263   0.0000   0.0000   0.0000   0.3621
   1.400   0.3542   0.00925   0.00327  -0.0387  0.7342  1.0000  -0.7432   0.0000   0.0000   0.0000   0.3575
   1.500   0.3641   0.00929   0.00330  -0.0385  0.7224  1.0000  -0.7598   0.0000   0.0000   0.0000   0.3537
   1.600   0.3740   0.00936   0.00332  -0.0381  0.7098  1.0000  -0.7767   0.0000   0.0000   0.0000   0.3499
   1.700   0.3838   0.00944   0.00331  -0.0377  0.6974  1.0000  -0.7936   0.0000   0.0000   0.0000   0.3461
   1.800   0.3937   0.00955   0.00332  -0.0373  0.6853  1.0000  -0.8143   0.0000   0.0000   0.0000   0.3425
   1.900   0.4038   0.00959   0.00336  -0.0370  0.6731  1.0000  -0.8353   0.0000   0.0000   0.0000   0.3395
   2.000   0.4137   0.00967   0.00338  -0.0366  0.6598  1.0000  -0.8563   0.0000   0.0000   0.0000   0.3364
   2.100   0.4235   0.00977   0.00338  -0.0362  0.6465  1.0000  -0.8774   0.0000   0.0000   0.0000   0.3333
   2.200   0.4335   0.00988   0.00340  -0.0359  0.6340  1.0000  -0.8986   0.0000   0.0000   0.0000   0.3304
   2.300   0.4437   0.00993   0.00345  -0.0356  0.6218  1.0000  -0.9202   0.0000   0.0000   0.0000   0.3280
   2.400   0.4538   0.01001   0.00348  -0.0353  0.6088  1.0000  -0.9418   0.0000   0.0000   0.0000   0.3254
   2.500   0.4637   0.01013   0.00350  -0.0350  0.5964  1.0000  -0.9634   0.0000   0.0000   0.0000   0.3229
   2.600   0.4737   0.01027   0.00354  -0.0347  0.5844  1.0000  -0.9856   0.0000   0.0000   0.0000   0.3206
   2.700   0.4842   0.01032   0.00361  -0.0345  0.5734  1.0000  -1.0126   0.0000   0.0000   0.0000   0.3187
   2.800   0.4944   0.01041   0.00365  -0.0343  0.5607  1.0000  -1.0395   0.0000   0.0000   0.0000   0.3166
   2.900   0.5043   0.01053   0.00368  -0.0339  0.5476  1.0000  -1.0662   0.0000   0.0000   0.0000   0.3145
   3.000   0.5141   0.01070   0.00373  -0.0336  0.5341  1.0000  -1.0930   0.0000   0.0000   0.0000   0.3125
   3.100   0.5246   0.01075   0.00380  -0.0334  0.5232  1.0000  -1.1207   0.0000   0.0000   0.0000   0.3109
   3.200   0.5348   0.01084   0.00386  -0.0332  0.5104  1.0000  -1.1483   0.0000   0.0000   0.0000   0.3091
   3.300   0.5447   0.01097   0.00390  -0.0329  0.4976  1.0000  -1.1757   0.0000   0.0000   0.0000   0.3074
   3.400   0.5545   0.01118   0.00398  -0.0326  0.4841  1.0000  -1.2028   0.0000   0.0000   0.0000   0.3057
   3.500   0.5652   0.01123   0.00407  -0.0325  0.4748  1.0000  -1.2312   0.0000   0.0000   0.0000   0.3043
   3.600   0.5756   0.01132   0.00415  -0.0323  0.4636  1.0000  -1.2595   0.0000   0.0000   0.0000   0.3029
   3.700   0.5857   0.01145   0.00422  -0.0321  0.4516  1.0000  -1.2877   0.0000   0.0000   0.0000   0.3015
   3.800   0.5954   0.01165   0.00430  -0.0318  0.4387  1.0000  -1.3154   0.0000   0.0000   0.0000   0.3000
   3.900   0.6057   0.01179   0.00441  -0.0316  0.4275  1.0000  -1.3439   0.0000   0.0000   0.0000   0.2987
   4.000   0.6162   0.01186   0.00450  -0.0314  0.4166  1.0000  -1.3729   0.0000   0.0000   0.0000   0.2975
   4.100   0.6262   0.01199   0.00458  -0.0312  0.4043  1.0000  -1.4017   0.0000   0.0000   0.0000   0.2963
   4.200   0.6359   0.01218   0.00466  -0.0309  0.3915  1.0000  -1.4369   0.0000   0.0000   0.0000   0.2950
   4.300   0.6459   0.01238   0.00479  -0.0307  0.3796  1.0000  -1.4742   0.0000   0.0000   0.0000   0.2938
   4.400   0.6565   0.01245   0.00490  -0.0306  0.3702  1.0000  -1.5130   0.0000   0.0000   0.0000   0.2928
   4.500   0.6668   0.01258   0.00501  -0.0305  0.3596  1.0000  -1.5544   0.0000   0.0000   0.0000   0.2918
   4.600   0.6766   0.01277   0.00512  -0.0302  0.3486  1.0000  -1.6042   0.0000   0.0000   0.0000   0.2907
   4.700   0.6861   0.01307   0.00530  -0.0300  0.3355  1.0000  -1.6529   0.0000   0.0000   0.0000   0.2896
   4.800   0.6967   0.01317   0.00544  -0.0298  0.3278  1.0000  -1.7049   0.0000   0.0000   0.0000   0.2887
   4.900   0.7072   0.01327   0.00557  -0.0297  0.3184  1.0000  -1.7573   0.0000   0.0000   0.0000   0.2878
   5.000   0.7170   0.01347   0.00599  -0.0294  0.3060  1.0000  -1.7719   0.0000   0.0000   0.0000   0.2867
   5.100   0.7264   0.01377   0.00617  -0.0292  0.2934  1.0000  -1.8100   0.0000   0.0000   0.0000   0.2858
   5.200   0.7365   0.01398   0.00637  -0.0290  0.2837  1.0000  -1.8847   0.0000   0.0000   0.0000   0.2849
   5.300   0.7470   0.01407   0.00651  -0.0289  0.2755  1.0000  -1.9682   0.0000   0.0000   0.0000   0.2841
   5.400   0.7571   0.01421   0.00665  -0.0287  0.2662  1.0000  -2.0503   0.0000   0.0000   0.0000   0.2832
   5.500   0.7667   0.01444   0.00680  -0.0285  0.2568  1.0000  -2.1308   0.0000   0.0000   0.0000   0.2824
   5.600   0.7759   0.01489   0.00713  -0.0282  0.2447  1.0000  -2.2069   0.0000   0.0000   0.0000   0.2815
   5.700   0.7864   0.01501   0.00731  -0.0281  0.2391  1.0000  -2.2909   0.0000   0.0000   0.0000   0.2808
   5.800   0.7967   0.01515   0.00749  -0.0280  0.2323  1.0000  -2.3753   0.0000   0.0000   0.0000   0.2800
   5.900   0.8068   0.01531   0.00767  -0.0278  0.2245  1.0000  -2.4598   0.0000   0.0000   0.0000   0.2793
   6.000   0.8164   0.01554   0.00783  -0.0276  0.2161  1.0000  -2.5434   0.0000   0.0000   0.0000   0.2785
   6.100   0.8252   0.01603   0.00820  -0.0273  0.2049  1.0000  -2.6213   0.0000   0.0000   0.0000   0.2777
   6.200   0.8354   0.01622   0.00842  -0.0271  0.1988  1.0000  -2.7075   0.0000   0.0000   0.0000   0.2771
   6.300   0.8457   0.01631   0.00858  -0.0270  0.1925  1.0000  -2.7966   0.0000   0.0000   0.0000   0.2764
   6.400   0.8557   0.01646   0.00874  -0.0269  0.1853  1.0000  -2.8855   0.0000   0.0000   0.0000   0.2757
   6.500   0.8652   0.01670   0.00894  -0.0266  0.1782  1.0000  -2.9725   0.0000   0.0000   0.0000   0.2751
   6.600   0.8740   0.01716   0.00930  -0.0264  0.1698  1.0000  -3.0538   0.0000   0.0000   0.0000   0.2743
   6.700   0.8834   0.01766   0.00980  -0.0261  0.1628  1.0000  -3.1348   0.0000   0.0000   0.0000   0.2736
   6.800   0.8936   0.01777   0.00998  -0.0260  0.1583  1.0000  -3.2264   0.0000   0.0000   0.0000   0.2730
   6.900   0.9036   0.01793   0.01019  -0.0258  0.1525  1.0000  -3.3176   0.0000   0.0000   0.0000   0.2724
   7.000   0.9133   0.01811   0.01038  -0.0256  0.1463  1.0000  -3.4096   0.0000   0.0000   0.0000   0.2718
   7.100   0.9223   0.01840   0.01060  -0.0254  0.1397  1.0000  -3.4992   0.0000   0.0000   0.0000   0.2711
   7.200   0.9298   0.01936   0.01145  -0.0250  0.1298  1.0000  -3.5689   0.0000   0.0000   0.0000   0.2704
   7.300   0.9401   0.01936   0.01153  -0.0248  0.1267  1.0000  -3.6669   0.0000   0.0000   0.0000   0.2698
   7.400   0.9501   0.01949   0.01172  -0.0247  0.1220  1.0000  -3.7617   0.0000   0.0000   0.0000   0.2693
   7.500   0.9597   0.01970   0.01196  -0.0245  0.1168  1.0000  -3.8547   0.0000   0.0000   0.0000   0.2687
   7.600   0.9690   0.01996   0.01224  -0.0242  0.1120  1.0000  -3.9464   0.0000   0.0000   0.0000   0.2681
   7.700   0.9775   0.02039   0.01261  -0.0239  0.1069  1.0000  -4.0330   0.0000   0.0000   0.0000   0.2674
   7.800   0.9842   0.02170   0.01388  -0.0234  0.0995  1.0000  -4.0891   0.0000   0.0000   0.0000   0.2667
   7.900   0.9940   0.02192   0.01417  -0.0232  0.0973  1.0000  -4.1804   0.0000   0.0000   0.0000   0.2661
   8.000   1.0036   0.02217   0.01450  -0.0229  0.0944  1.0000  -4.2702   0.0000   0.0000   0.0000   0.2655
   8.100   1.0128   0.02251   0.01491  -0.0227  0.0910  1.0000  -4.3570   0.0000   0.0000   0.0000   0.2649
   8.200   1.0219   0.02288   0.01532  -0.0224  0.0876  1.0000  -4.4434   0.0000   0.0000   0.0000   0.2643
   8.300   1.0307   0.02323   0.01587  -0.0221  0.0836  1.0000  -4.4992   0.0000   0.0000   0.0000   0.2637
   8.400   1.0391   0.02366   0.01630  -0.0218  0.0803  1.0000  -4.5790   0.0000   0.0000   0.0000   0.2631
   8.500   1.0465   0.02452   0.01714  -0.0214  0.0766  1.0000  -4.6446   0.0000   0.0000   0.0000   0.2624
   8.600   1.0516   0.02669   0.01943  -0.0208  0.0722  1.0000  -4.6580   0.0000   0.0000   0.0000   0.2617
   8.700   1.0609   0.02692   0.01975  -0.0204  0.0708  1.0000  -4.7395   0.0000   0.0000   0.0000   0.2611
   8.800   1.0699   0.02716   0.02008  -0.0201  0.0686  1.0000  -4.8208   0.0000   0.0000   0.0000   0.2605
   8.900   1.0786   0.02735   0.02034  -0.0198  0.0656  1.0000  -4.9066   0.0000   0.0000   0.0000   0.2599
   9.000   1.0872   0.02743   0.02044  -0.0196  0.0621  1.0000  -5.0018   0.0000   0.0000   0.0000   0.2594
   9.100   1.0955   0.02750   0.02051  -0.0193  0.0590  1.0000  -5.1007   0.0000   0.0000   0.0000   0.2590
   9.200   1.1032   0.02788   0.02088  -0.0190  0.0564  1.0000  -5.1832   0.0000   0.0000   0.0000   0.2584
   9.300   1.1096   0.02869   0.02169  -0.0186  0.0537  1.0000  -5.2441   0.0000   0.0000   0.0000   0.2578
   9.400   1.1094   0.03190   0.02511  -0.0178  0.0497  1.0000  -5.1831   0.0000   0.0000   0.0000   0.2570
   9.500   1.1191   0.03144   0.02472  -0.0175  0.0480  1.0000  -5.2709   0.0000   0.0000   0.0000   0.2564
   9.600   1.1272   0.03138   0.02473  -0.0170  0.0436  1.0000  -5.3056   0.0000   0.0000   0.0000   0.2558
   9.700   1.1335   0.03167   0.02503  -0.0165  0.0389  1.0000  -5.3179   0.0000   0.0000   0.0000   0.2551
   9.800   1.1390   0.03233   0.02568  -0.0159  0.0364  1.0000  -5.3457   0.0000   0.0000   0.0000   0.2544
   9.900   1.1425   0.03360   0.02702  -0.0153  0.0347  1.0000  -5.3474   0.0000   0.0000   0.0000   0.2537
  10.000   1.1439   0.03559   0.02915  -0.0145  0.0334  1.0000  -5.3123   0.0000   0.0000   0.0000   0.2529
  10.100   1.1433   0.03792   0.03169  -0.0137  0.0326  1.0000  -5.2617   0.0000   0.0000   0.0000   0.2521
  10.200   1.1414   0.04029   0.03429  -0.0129  0.0321  1.0000  -5.2109   0.0000   0.0000   0.0000   0.2513
  10.300   1.1382   0.04264   0.03686  -0.0121  0.0318  1.0000  -5.1623   0.0000   0.0000   0.0000   0.2505
  10.400   1.1341   0.04492   0.03934  -0.0113  0.0316  1.0000  -5.1165   0.0000   0.0000   0.0000   0.2498
  10.500   1.1291   0.04710   0.04171  -0.0105  0.0314  1.0000  -5.0741   0.0000   0.0000   0.0000   0.2491
  10.600   1.1234   0.04917   0.04395  -0.0098  0.0313  1.0000  -5.0350   0.0000   0.0000   0.0000   0.2484
  10.700   1.1196   0.05067   0.04553  -0.0091  0.0312  1.0000  -5.0236   0.0000   0.0000   0.0000   0.2478
  10.800   1.1187   0.05139   0.04633  -0.0084  0.0310  1.0000  -5.0486   0.0000   0.0000   0.0000   0.2470
  10.900   1.1171   0.05214   0.04717  -0.0077  0.0308  1.0000  -5.0712   0.0000   0.0000   0.0000   0.2462
  11.000   1.1149   0.05298   0.04809  -0.0070  0.0306  1.0000  -5.0900   0.0000   0.0000   0.0000   0.2455
  11.100   1.1118   0.05395   0.04913  -0.0066  0.0304  1.0000  -5.1025   0.0000   0.0000   0.0000   0.2450
  11.200   1.1076   0.05510   0.05037  -0.0063  0.0303  1.0000  -5.1061   0.0000   0.0000   0.0000   0.2446
  11.300   1.1022   0.05650   0.05185  -0.0063  0.0301  1.0000  -5.0984   0.0000   0.0000   0.0000   0.2445
  11.400   1.0949   0.05825   0.05369  -0.0066  0.0301  1.0000  -5.0735   0.0000   0.0000   0.0000   0.2446
  11.500   1.0840   0.06062   0.05616  -0.0073  0.0303  1.0000  -5.0158   0.0000   0.0000   0.0000   0.2452
  11.800   1.0390   0.07113   0.06700  -0.0126  0.0313  1.0000  -4.7101   0.0000   0.0000   0.0000   0.2503
  11.900   1.0327   0.07345   0.06938  -0.0143  0.0314  1.0000  -4.6816   0.0000   0.0000   0.0000   0.2518
  12.000   1.0265   0.07587   0.07186  -0.0161  0.0315  1.0000  -4.6518   0.0000   0.0000   0.0000   0.2535
  12.100   1.0204   0.07836   0.07441  -0.0180  0.0316  1.0000  -4.6205   0.0000   0.0000   0.0000   0.2553
  12.200   1.0143   0.08091   0.07701  -0.0199  0.0317  1.0000  -4.5878   0.0000   0.0000   0.0000   0.2573
  12.300   1.0082   0.08358   0.07973  -0.0220  0.0318  1.0000  -4.5525   0.0000   0.0000   0.0000   0.2593
  12.400   1.0022   0.08638   0.08258  -0.0241  0.0319  1.0000  -4.5140   0.0000   0.0000   0.0000   0.2614
  12.500   0.9962   0.08934   0.08558  -0.0264  0.0321  1.0000  -4.4712   0.0000   0.0000   0.0000   0.2638
  12.600   0.9900   0.09246   0.08875  -0.0288  0.0322  1.0000  -4.4225   0.0000   0.0000   0.0000   0.2662
  12.700   0.9833   0.09588   0.09221  -0.0314  0.0325  1.0000  -4.3638   0.0000   0.0000   0.0000   0.2690
  12.800   0.9754   0.09975   0.09613  -0.0343  0.0328  1.0000  -4.2860   0.0000   0.0000   0.0000   0.2722
  12.900   0.9629   0.10515   0.10157  -0.0383  0.0334  1.0000  -4.1466   0.0000   0.0000   0.0000   0.2768
  13.000   0.8767   0.13472   0.13106  -0.0557  0.0391  1.0000  -2.9085   0.0000   0.0000   0.0000   0.3022
  13.100   0.8694   0.13908   0.13526  -0.0580  0.0405  1.0000  -2.8009   0.0000   0.0000   0.0000   0.3053
  13.200   0.8648   0.14262   0.13878  -0.0597  0.0411  1.0000  -2.7018   0.0000   0.0000   0.0000   0.3077
  13.300   0.8613   0.14588   0.14202  -0.0613  0.0418  1.0000  -2.6155   0.0000   0.0000   0.0000   0.3098
  13.400   0.8586   0.14891   0.14504  -0.0627  0.0425  1.0000  -2.5398   0.0000   0.0000   0.0000   0.3117
  13.500   0.8567   0.15174   0.14787  -0.0640  0.0433  1.0000  -2.4740   0.0000   0.0000   0.0000   0.3133
  13.600   0.8554   0.15440   0.15052  -0.0651  0.0441  1.0000  -2.4173   0.0000   0.0000   0.0000   0.3147
  13.700   0.8546   0.15684   0.15295  -0.0661  0.0451  1.0000  -2.3697   0.0000   0.0000   0.0000   0.3158
  13.800   0.8541   0.15915   0.15526  -0.0669  0.0462  1.0000  -2.3305   0.0000   0.0000   0.0000   0.3167
  14.000   0.8460   0.17465   0.17077  -0.0695  0.0713  1.0000  -1.9440   0.0000   0.0000   0.0000   0.3210
  14.100   0.8471   0.17555   0.17167  -0.0709  0.0708  1.0000  -1.9220   0.0000   0.0000   0.0000   0.3225
  14.200   0.8414   0.17477   0.17086  -0.0749  0.0665  1.0000  -1.8439   0.0000   0.0000   0.0000   0.3277
  14.300   0.8418   0.17646   0.17255  -0.0760  0.0657  1.0000  -1.8201   0.0000   0.0000   0.0000   0.3290
  14.400   0.8426   0.17818   0.17425  -0.0771  0.0648  1.0000  -1.7999   0.0000   0.0000   0.0000   0.3301
  14.500   0.8436   0.17989   0.17597  -0.0781  0.0639  1.0000  -1.7828   0.0000   0.0000   0.0000   0.3311
  14.600   0.8449   0.18161   0.17768  -0.0791  0.0631  1.0000  -1.7686   0.0000   0.0000   0.0000   0.3320
  14.700   0.8464   0.18331   0.17938  -0.0800  0.0622  1.0000  -1.7570   0.0000   0.0000   0.0000   0.3328
  14.800   0.8480   0.18501   0.18108  -0.0808  0.0614  1.0000  -1.7476   0.0000   0.0000   0.0000   0.3335
  14.900   0.8498   0.18669   0.18276  -0.0816  0.0606  1.0000  -1.7402   0.0000   0.0000   0.0000   0.3341
  15.000   0.8518   0.18837   0.18444  -0.0824  0.0598  1.0000  -1.7348   0.0000   0.0000   0.0000   0.3347
  15.100   0.8539   0.19001   0.18607  -0.0831  0.0590  1.0000  -1.7327   0.0000   0.0000   0.0000   0.3351
  15.200   0.8564   0.19153   0.18760  -0.0837  0.0579  1.0000  -1.7376   0.0000   0.0000   0.0000   0.3354
  15.300   0.8598   0.19286   0.18892  -0.0840  0.0567  1.0000  -1.7559   0.0000   0.0000   0.0000   0.3353
  16.200   0.8840   0.21434   0.21054  -0.0861  0.0495  1.0000  -1.8371   0.0000   0.0000   0.0000   0.3338
  16.300   0.8854   0.21593   0.21214  -0.0872  0.0494  1.0000  -1.8230   0.0000   0.0000   0.0000   0.3348
  16.400   0.8868   0.21742   0.21362  -0.0883  0.0492  1.0000  -1.8092   0.0000   0.0000   0.0000   0.3358
  16.500   0.8883   0.21876   0.21495  -0.0894  0.0490  1.0000  -1.7956   0.0000   0.0000   0.0000   0.3368
  16.600   0.8898   0.21989   0.21608  -0.0906  0.0487  1.0000  -1.7813   0.0000   0.0000   0.0000   0.3379
  16.700   0.8900   0.22071   0.21690  -0.0923  0.0481  1.0000  -1.7526   0.0000   0.0000   0.0000   0.3396
  16.800   0.8876   0.22115   0.21732  -0.0950  0.0464  1.0000  -1.6906   0.0000   0.0000   0.0000   0.3429
  16.900   0.8882   0.22271   0.21887  -0.0967  0.0442  1.0000  -1.6596   0.0000   0.0000   0.0000   0.3447
  17.000   0.8898   0.22450   0.22066  -0.0978  0.0424  1.0000  -1.6597   0.0000   0.0000   0.0000   0.3455
  17.100   0.8919   0.22624   0.22240  -0.0986  0.0408  1.0000  -1.6703   0.0000   0.0000   0.0000   0.3461
  17.200   0.8942   0.22787   0.22403  -0.0993  0.0392  1.0000  -1.6896   0.0000   0.0000   0.0000   0.3464
  17.300   0.8970   0.22934   0.22551  -0.0998  0.0377  1.0000  -1.7195   0.0000   0.0000   0.0000   0.3465
  17.400   0.9004   0.23054   0.22671  -0.1000  0.0361  1.0000  -1.7678   0.0000   0.0000   0.0000   0.3461
  17.500   0.9060   0.23111   0.22729  -0.0995  0.0344  1.0000  -1.8665   0.0000   0.0000   0.0000   0.3445
  17.600   0.9141   0.23323   0.22945  -0.0967  0.0319  1.0000  -2.0489   0.0000   0.0000   0.0000   0.3402
  17.900   0.9118   0.24475   0.24091  -0.0998  0.0312  1.0000  -1.8906   0.0000   0.0000   0.0000   0.3437
  18.000   0.9131   0.24712   0.24328  -0.1006  0.0311  1.0000  -1.8703   0.0000   0.0000   0.0000   0.3443
  18.100   0.9145   0.24948   0.24564  -0.1014  0.0311  1.0000  -1.8503   0.0000   0.0000   0.0000   0.3450
  18.200   0.9159   0.25184   0.24800  -0.1023  0.0311  1.0000  -1.8310   0.0000   0.0000   0.0000   0.3456
  18.300   0.9172   0.25418   0.25034  -0.1031  0.0310  1.0000  -1.8126   0.0000   0.0000   0.0000   0.3462
  18.400   0.9186   0.25651   0.25267  -0.1039  0.0310  1.0000  -1.7950   0.0000   0.0000   0.0000   0.3468
  18.500   0.9199   0.25883   0.25499  -0.1047  0.0310  1.0000  -1.7787   0.0000   0.0000   0.0000   0.3474
  18.600   0.9212   0.26113   0.25729  -0.1055  0.0310  1.0000  -1.7670   0.0000   0.0000   0.0000   0.3480
  18.700   0.9225   0.26340   0.25956  -0.1063  0.0309  1.0000  -1.7555   0.0000   0.0000   0.0000   0.3486
  18.800   0.9237   0.26564   0.26181  -0.1071  0.0309  1.0000  -1.7443   0.0000   0.0000   0.0000   0.3492
  18.900   0.9249   0.26786   0.26403  -0.1079  0.0308  1.0000  -1.7333   0.0000   0.0000   0.0000   0.3498
  19.000   0.9261   0.27005   0.26622  -0.1087  0.0308  1.0000  -1.7225   0.0000   0.0000   0.0000   0.3504
  19.100   0.9271   0.27219   0.26837  -0.1095  0.0307  1.0000  -1.7116   0.0000   0.0000   0.0000   0.3510
  19.200   0.9282   0.27429   0.27047  -0.1103  0.0307  1.0000  -1.7006   0.0000   0.0000   0.0000   0.3517
  19.300   0.9292   0.27634   0.27252  -0.1111  0.0306  1.0000  -1.6895   0.0000   0.0000   0.0000   0.3523
  19.400   0.9300   0.27831   0.27449  -0.1119  0.0305  1.0000  -1.6775   0.0000   0.0000   0.0000   0.3530
  19.500   0.9301   0.28018   0.27636  -0.1129  0.0303  1.0000  -1.6582   0.0000   0.0000   0.0000   0.3540
  19.600   0.9301   0.28196   0.27814  -0.1140  0.0302  1.0000  -1.6359   0.0000   0.0000   0.0000   0.3550
  19.700   0.9300   0.28364   0.27982  -0.1152  0.0299  1.0000  -1.6102   0.0000   0.0000   0.0000   0.3562
  19.800   0.9301   0.28527   0.28145  -0.1166  0.0293  1.0000  -1.5790   0.0000   0.0000   0.0000   0.3576
  19.900   0.9305   0.28710   0.28329  -0.1179  0.0285  1.0000  -1.5479   0.0000   0.0000   0.0000   0.3588
  20.000   0.9312   0.28920   0.28539  -0.1189  0.0277  1.0000  -1.5272   0.0000   0.0000   0.0000   0.3597
  20.100   0.9318   0.29137   0.28756  -0.1196  0.0270  1.0000  -1.5137   0.0000   0.0000   0.0000   0.3603
  20.200   0.9324   0.29353   0.28973  -0.1203  0.0264  1.0000  -1.5038   0.0000   0.0000   0.0000   0.3609
  20.300   0.9328   0.29568   0.29188  -0.1210  0.0258  1.0000  -1.4958   0.0000   0.0000   0.0000   0.3614
  20.400   0.9331   0.29780   0.29401  -0.1216  0.0253  1.0000  -1.4890   0.0000   0.0000   0.0000   0.3619
  20.500   0.9333   0.29990   0.29612  -0.1221  0.0248  1.0000  -1.4829   0.0000   0.0000   0.0000   0.3623
  20.600   0.9334   0.30197   0.29819  -0.1227  0.0244  1.0000  -1.4773   0.0000   0.0000   0.0000   0.3628
  20.700   0.9332   0.30400   0.30023  -0.1232  0.0240  1.0000  -1.4721   0.0000   0.0000   0.0000   0.3632
  20.800   0.9330   0.30599   0.30223  -0.1236  0.0236  1.0000  -1.4670   0.0000   0.0000   0.0000   0.3636
  20.900   0.9325   0.30793   0.30418  -0.1241  0.0232  1.0000  -1.4619   0.0000   0.0000   0.0000   0.3641
  21.000   0.9317   0.30981   0.30607  -0.1245  0.0229  1.0000  -1.4568   0.0000   0.0000   0.0000   0.3645
  21.100   0.9307   0.31162   0.30789  -0.1248  0.0226  1.0000  -1.4514   0.0000   0.0000   0.0000   0.3649
  21.200   0.9293   0.31334   0.30963  -0.1251  0.0223  1.0000  -1.4457   0.0000   0.0000   0.0000   0.3653
  21.300   0.9275   0.31495   0.31125  -0.1254  0.0220  1.0000  -1.4392   0.0000   0.0000   0.0000   0.3657
  21.400   0.9251   0.31641   0.31273  -0.1255  0.0217  1.0000  -1.4316   0.0000   0.0000   0.0000   0.3662
  21.500   0.9199   0.31725   0.31359  -0.1253  0.0215  1.0000  -1.4171   0.0000   0.0000   0.0000   0.3667
  21.600   0.8864   0.31093   0.30737  -0.1217  0.0217  1.0000  -1.3300   0.0000   0.0000   0.0000   0.3681
  21.700   0.8781   0.31011   0.30658  -0.1211  0.0215  1.0000  -1.3079   0.0000   0.0000   0.0000   0.3687
  21.800   0.8721   0.30977   0.30626  -0.1207  0.0213  1.0000  -1.2918   0.0000   0.0000   0.0000   0.3693
  21.900   0.8673   0.30964   0.30616  -0.1205  0.0211  1.0000  -1.2791   0.0000   0.0000   0.0000   0.3698
  22.000   0.8632   0.30965   0.30619  -0.1204  0.0209  1.0000  -1.2685   0.0000   0.0000   0.0000   0.3702
  22.100   0.8597   0.30975   0.30630  -0.1204  0.0207  1.0000  -1.2597   0.0000   0.0000   0.0000   0.3707
  22.200   0.8565   0.30990   0.30648  -0.1203  0.0205  1.0000  -1.2523   0.0000   0.0000   0.0000   0.3711
  22.300   0.8537   0.31010   0.30669  -0.1204  0.0203  1.0000  -1.2462   0.0000   0.0000   0.0000   0.3715
  22.400   0.8511   0.31033   0.30694  -0.1204  0.0201  1.0000  -1.2412   0.0000   0.0000   0.0000   0.3719
  22.500   0.8487   0.31059   0.30722  -0.1204  0.0199  1.0000  -1.2372   0.0000   0.0000   0.0000   0.3723
  22.600   0.8466   0.31088   0.30752  -0.1205  0.0197  1.0000  -1.2344   0.0000   0.0000   0.0000   0.3726
  22.700   0.8446   0.31118   0.30783  -0.1206  0.0195  1.0000  -1.2325   0.0000   0.0000   0.0000   0.3729
  22.800   0.8428   0.31150   0.30817  -0.1207  0.0193  1.0000  -1.2317   0.0000   0.0000   0.0000   0.3732
  22.900   0.8412   0.31184   0.30852  -0.1208  0.0192  1.0000  -1.2320   0.0000   0.0000   0.0000   0.3735
  23.000   0.8397   0.31219   0.30888  -0.1209  0.0190  1.0000  -1.2333   0.0000   0.0000   0.0000   0.3738
  23.100   0.8382   0.31255   0.30926  -0.1210  0.0188  1.0000  -1.2357   0.0000   0.0000   0.0000   0.3740
  23.200   0.8370   0.31293   0.30966  -0.1211  0.0187  1.0000  -1.2393   0.0000   0.0000   0.0000   0.3742
  23.300   0.8358   0.31333   0.31007  -0.1211  0.0185  1.0000  -1.2441   0.0000   0.0000   0.0000   0.3744
  23.400   0.8347   0.31376   0.31051  -0.1212  0.0183  1.0000  -1.2503   0.0000   0.0000   0.0000   0.3745
  23.500   0.8338   0.31424   0.31100  -0.1212  0.0182  1.0000  -1.2579   0.0000   0.0000   0.0000   0.3746
  23.600   0.8330   0.31478   0.31156  -0.1212  0.0180  1.0000  -1.2671   0.0000   0.0000   0.0000   0.3746
  23.700   0.8323   0.31546   0.31225  -0.1211  0.0178  1.0000  -1.2777   0.0000   0.0000   0.0000   0.3745
  23.800   0.8320   0.31639   0.31320  -0.1210  0.0176  1.0000  -1.2899   0.0000   0.0000   0.0000   0.3743
  23.900   0.8322   0.31809   0.31491  -0.1206  0.0174  1.0000  -1.3031   0.0000   0.0000   0.0000   0.3737
  24.000   0.8281   0.32210   0.31889  -0.1204  0.0169  1.0000  -1.2306   0.0000   0.0000   0.0000   0.3742
  24.100   0.8271   0.32267   0.31947  -0.1207  0.0169  1.0000  -1.2209   0.0000   0.0000   0.0000   0.3747
  24.200   0.8262   0.32325   0.32006  -0.1210  0.0169  1.0000  -1.2114   0.0000   0.0000   0.0000   0.3751
  24.300   0.8253   0.32382   0.32064  -0.1214  0.0169  1.0000  -1.2020   0.0000   0.0000   0.0000   0.3756
  24.400   0.8244   0.32438   0.32121  -0.1217  0.0169  1.0000  -1.1926   0.0000   0.0000   0.0000   0.3760
  24.500   0.8236   0.32494   0.32178  -0.1221  0.0169  1.0000  -1.1833   0.0000   0.0000   0.0000   0.3765
  24.600   0.8228   0.32550   0.32243  -0.1224  0.0169  1.0000  -1.1744   0.0000   0.0000   0.0000   0.3770
  24.700   0.8220   0.32606   0.32300  -0.1228  0.0169  1.0000  -1.1656   0.0000   0.0000   0.0000   0.3774
  24.800   0.8213   0.32663   0.32357  -0.1231  0.0169  1.0000  -1.1569   0.0000   0.0000   0.0000   0.3779
  24.900   0.8206   0.32719   0.32414  -0.1235  0.0169  1.0000  -1.1483   0.0000   0.0000   0.0000   0.3783
  25.000   0.8200   0.32775   0.32472  -0.1239  0.0169  1.0000  -1.1399   0.0000   0.0000   0.0000   0.3788
  25.100   0.8193   0.32832   0.32529  -0.1243  0.0169  1.0000  -1.1316   0.0000   0.0000   0.0000   0.3792
  25.200   0.8187   0.32888   0.32586  -0.1246  0.0168  1.0000  -1.1234   0.0000   0.0000   0.0000   0.3797
  25.300   0.8182   0.32944   0.32643  -0.1250  0.0168  1.0000  -1.1153   0.0000   0.0000   0.0000   0.3801
  25.400   0.8176   0.33000   0.32700  -0.1254  0.0168  1.0000  -1.1074   0.0000   0.0000   0.0000   0.3805
  25.500   0.8171   0.33054   0.32755  -0.1258  0.0168  1.0000  -1.0992   0.0000   0.0000   0.0000   0.3810
  25.600   0.8165   0.33107   0.32809  -0.1262  0.0168  1.0000  -1.0910   0.0000   0.0000   0.0000   0.3815
  25.700   0.8160   0.33160   0.32863  -0.1266  0.0168  1.0000  -1.0829   0.0000   0.0000   0.0000   0.3819
  25.800   0.8155   0.33213   0.32917  -0.1270  0.0168  1.0000  -1.0749   0.0000   0.0000   0.0000   0.3824
  25.900   0.8150   0.33266   0.32971  -0.1274  0.0168  1.0000  -1.0670   0.0000   0.0000   0.0000   0.3828
  26.000   0.8145   0.33319   0.33025  -0.1278  0.0167  1.0000  -1.0592   0.0000   0.0000   0.0000   0.3833
  26.100   0.8141   0.33372   0.33079  -0.1283  0.0167  1.0000  -1.0515   0.0000   0.0000   0.0000   0.3837
  26.200   0.8136   0.33421   0.33129  -0.1287  0.0167  1.0000  -1.0429   0.0000   0.0000   0.0000   0.3842
  26.300   0.8130   0.33468   0.33177  -0.1291  0.0167  1.0000  -1.0338   0.0000   0.0000   0.0000   0.3847
  26.400   0.8125   0.33515   0.33225  -0.1296  0.0167  1.0000  -1.0247   0.0000   0.0000   0.0000   0.3853
  26.500   0.8120   0.33563   0.33274  -0.1301  0.0166  1.0000  -1.0158   0.0000   0.0000   0.0000   0.3858
  26.600   0.8116   0.33611   0.33322  -0.1305  0.0166  1.0000  -1.0069   0.0000   0.0000   0.0000   0.3863
  26.700   0.8112   0.33659   0.33372  -0.1310  0.0166  1.0000  -0.9982   0.0000   0.0000   0.0000   0.3868
  26.800   0.8108   0.33708   0.33421  -0.1315  0.0166  1.0000  -0.9895   0.0000   0.0000   0.0000   0.3873
  26.900   0.8104   0.33758   0.33472  -0.1319  0.0165  1.0000  -0.9808   0.0000   0.0000   0.0000   0.3878
  27.000   0.8101   0.33807   0.33522  -0.1324  0.0165  1.0000  -0.9722   0.0000   0.0000   0.0000   0.3883
  27.100   0.8098   0.33858   0.33574  -0.1329  0.0165  1.0000  -0.9637   0.0000   0.0000   0.0000   0.3888
  27.200   0.8096   0.33909   0.33626  -0.1334  0.0164  1.0000  -0.9551   0.0000   0.0000   0.0000   0.3893
  27.300   0.8094   0.33962   0.33679  -0.1339  0.0164  1.0000  -0.9466   0.0000   0.0000   0.0000   0.3898
  27.400   0.8092   0.34015   0.33734  -0.1345  0.0163  1.0000  -0.9380   0.0000   0.0000   0.0000   0.3903
  27.500   0.8091   0.34071   0.33790  -0.1350  0.0163  1.0000  -0.9293   0.0000   0.0000   0.0000   0.3908
  27.600   0.8091   0.34128   0.33848  -0.1355  0.0162  1.0000  -0.9206   0.0000   0.0000   0.0000   0.3913
  27.700   0.8091   0.34188   0.33909  -0.1361  0.0161  1.0000  -0.9118   0.0000   0.0000   0.0000   0.3918
  27.800   0.8092   0.34251   0.33973  -0.1366  0.0160  1.0000  -0.9029   0.0000   0.0000   0.0000   0.3923
  27.900   0.8094   0.34318   0.34040  -0.1372  0.0159  1.0000  -0.8939   0.0000   0.0000   0.0000   0.3928
  28.000   0.8096   0.34388   0.34111  -0.1378  0.0158  1.0000  -0.8849   0.0000   0.0000   0.0000   0.3933
  28.100   0.8099   0.34461   0.34186  -0.1383  0.0156  1.0000  -0.8761   0.0000   0.0000   0.0000   0.3937
  28.200   0.8102   0.34537   0.34263  -0.1389  0.0155  1.0000  -0.8676   0.0000   0.0000   0.0000   0.3942
  28.300   0.8106   0.34614   0.34341  -0.1394  0.0153  1.0000  -0.8598   0.0000   0.0000   0.0000   0.3946
  28.400   0.8108   0.34691   0.34419  -0.1399  0.0151  1.0000  -0.8528   0.0000   0.0000   0.0000   0.3949
  28.500   0.8111   0.34768   0.34496  -0.1404  0.0149  1.0000  -0.8465   0.0000   0.0000   0.0000   0.3953
  28.600   0.8113   0.34843   0.34573  -0.1408  0.0146  1.0000  -0.8408   0.0000   0.0000   0.0000   0.3956
  28.700   0.8115   0.34918   0.34648  -0.1413  0.0144  1.0000  -0.8357   0.0000   0.0000   0.0000   0.3959
  28.800   0.8116   0.34991   0.34722  -0.1417  0.0142  1.0000  -0.8311   0.0000   0.0000   0.0000   0.3963
  28.900   0.8117   0.35064   0.34796  -0.1421  0.0140  1.0000  -0.8269   0.0000   0.0000   0.0000   0.3966
  29.000   0.8118   0.35136   0.34869  -0.1426  0.0138  1.0000  -0.8230   0.0000   0.0000   0.0000   0.3969
  29.100   0.8119   0.35207   0.34941  -0.1430  0.0136  1.0000  -0.8195   0.0000   0.0000   0.0000   0.3972
  29.200   0.8119   0.35278   0.35013  -0.1434  0.0134  1.0000  -0.8161   0.0000   0.0000   0.0000   0.3975
  29.300   0.8120   0.35348   0.35084  -0.1438  0.0132  1.0000  -0.8130   0.0000   0.0000   0.0000   0.3978
  29.400   0.8120   0.35418   0.35155  -0.1443  0.0131  1.0000  -0.8101   0.0000   0.0000   0.0000   0.3981
  29.500   0.8121   0.35488   0.35226  -0.1447  0.0129  1.0000  -0.8074   0.0000   0.0000   0.0000   0.3985
  29.600   0.8121   0.35557   0.35296  -0.1451  0.0127  1.0000  -0.8048   0.0000   0.0000   0.0000   0.3988
  29.700   0.8122   0.35626   0.35366  -0.1455  0.0125  1.0000  -0.8024   0.0000   0.0000   0.0000   0.3991
  29.800   0.8122   0.35695   0.35436  -0.1459  0.0124  1.0000  -0.8001   0.0000   0.0000   0.0000   0.3994
  29.900   0.8122   0.35764   0.35506  -0.1464  0.0122  1.0000  -0.7979   0.0000   0.0000   0.0000   0.3997
  30.000   0.8123   0.35833   0.35575  -0.1468  0.0121  1.0000  -0.7959   0.0000   0.0000   0.0000   0.4000


