xflr5 v6.61

 Calculated polar for: SD7037-092-88

 1 1 Reynolds number fixed          Mach number fixed         

 xtrf =   1.000 (top)        1.000 (bottom)
 Mach =   0.000     Re =     0.100 e 6     Ncrit =   9.000

  alpha     CL        CD       CDp       Cm    Top Xtr Bot Xtr   Cpmin    Chinge    XCp    
 ------- -------- --------- --------- -------- ------- ------- -------- --------- ---------
 -10.000  -0.3735   0.11813   0.11279  -0.0223  1.0000  0.0697  -1.2098   0.0000   0.0000   0.0000   0.1838
  -9.900  -0.3709   0.11692   0.11159  -0.0225  1.0000  0.0706  -1.2034   0.0000   0.0000   0.0000   0.1827
  -9.800  -0.3685   0.11573   0.11040  -0.0228  1.0000  0.0715  -1.1986   0.0000   0.0000   0.0000   0.1816
  -9.700  -0.3662   0.11455   0.10924  -0.0232  1.0000  0.0725  -1.1952   0.0000   0.0000   0.0000   0.1803
  -9.600  -0.3641   0.11338   0.10808  -0.0235  1.0000  0.0734  -1.1930   0.0000   0.0000   0.0000   0.1790
  -9.500  -0.3622   0.11223   0.10694  -0.0239  1.0000  0.0744  -1.1920   0.0000   0.0000   0.0000   0.1777
  -9.400  -0.3604   0.11108   0.10581  -0.0243  1.0000  0.0754  -1.1923   0.0000   0.0000   0.0000   0.1763
  -9.300  -0.3588   0.10995   0.10470  -0.0248  1.0000  0.0765  -1.1938   0.0000   0.0000   0.0000   0.1748
  -9.200  -0.3574   0.10885   0.10361  -0.0253  1.0000  0.0776  -1.1967   0.0000   0.0000   0.0000   0.1733
  -9.100  -0.3562   0.10778   0.10255  -0.0258  1.0000  0.0787  -1.2013   0.0000   0.0000   0.0000   0.1716
  -9.000  -0.3553   0.10675   0.10154  -0.0264  1.0000  0.0798  -1.2076   0.0000   0.0000   0.0000   0.1699
  -8.900  -0.3548   0.10579   0.10061  -0.0270  1.0000  0.0810  -1.2166   0.0000   0.0000   0.0000   0.1681
  -8.800  -0.3548   0.10495   0.09979  -0.0278  1.0000  0.0822  -1.2288   0.0000   0.0000   0.0000   0.1660
  -8.700  -0.3557   0.10429   0.09915  -0.0287  1.0000  0.0834  -1.2456   0.0000   0.0000   0.0000   0.1637
  -8.600  -0.3572   0.10387   0.09876  -0.0299  1.0000  0.0846  -1.2673   0.0000   0.0000   0.0000   0.1611
  -8.500  -0.3596   0.10371   0.09865  -0.0311  1.0000  0.0856  -1.2926   0.0000   0.0000   0.0000   0.1583
  -8.400  -0.3625   0.10367   0.09865  -0.0323  1.0000  0.0863  -1.3176   0.0000   0.0000   0.0000   0.1560
  -8.300  -0.3660   0.10352   0.09854  -0.0332  1.0000  0.0868  -1.3408   0.0000   0.0000   0.0000   0.1545
  -8.200  -0.3686   0.10324   0.09830  -0.0338  1.0000  0.0872  -1.3574   0.0000   0.0000   0.0000   0.1538
  -8.100  -0.3714   0.10283   0.09794  -0.0341  1.0000  0.0874  -1.3715   0.0000   0.0000   0.0000   0.1537
  -8.000  -0.3747   0.10234   0.09749  -0.0343  1.0000  0.0876  -1.3855   0.0000   0.0000   0.0000   0.1542
  -7.900  -0.3781   0.10176   0.09695  -0.0345  1.0000  0.0878  -1.3998   0.0000   0.0000   0.0000   0.1547
  -7.800  -0.3803   0.10099   0.09620  -0.0351  1.0000  0.0879  -1.4143   0.0000   0.0000   0.0000   0.1537
  -7.700  -0.3820   0.10012   0.09536  -0.0359  1.0000  0.0880  -1.4292   0.0000   0.0000   0.0000   0.1522
  -7.600  -0.3838   0.09920   0.09447  -0.0366  1.0000  0.0881  -1.4441   0.0000   0.0000   0.0000   0.1509
  -7.500  -0.3855   0.09826   0.09354  -0.0372  1.0000  0.0882  -1.4589   0.0000   0.0000   0.0000   0.1500
  -7.400  -0.3872   0.09729   0.09258  -0.0376  1.0000  0.0883  -1.4731   0.0000   0.0000   0.0000   0.1494
  -7.300  -0.3888   0.09631   0.09161  -0.0379  1.0000  0.0883  -1.4868   0.0000   0.0000   0.0000   0.1491
  -7.200  -0.4005   0.09048   0.08589  -0.0381  1.0000  0.0898  -1.5494   0.0000   0.0000   0.0000   0.1516
  -7.100  -0.3989   0.08732   0.08277  -0.0355  1.0000  0.0913  -1.5163   0.0000   0.0000   0.0000   0.1578
  -7.000  -0.3943   0.08567   0.08115  -0.0329  1.0000  0.0925  -1.4696   0.0000   0.0000   0.0000   0.1633
  -6.900  -0.3917   0.08445   0.07994  -0.0312  1.0000  0.0935  -1.4389   0.0000   0.0000   0.0000   0.1670
  -6.800  -0.3891   0.08337   0.07888  -0.0297  1.0000  0.0946  -1.4113   0.0000   0.0000   0.0000   0.1704
  -6.700  -0.3880   0.08238   0.07791  -0.0286  1.0000  0.0956  -1.3928   0.0000   0.0000   0.0000   0.1730
  -6.600  -0.3878   0.08143   0.07698  -0.0278  1.0000  0.0965  -1.3800   0.0000   0.0000   0.0000   0.1753
  -6.500  -0.3882   0.08050   0.07608  -0.0271  1.0000  0.0975  -1.3711   0.0000   0.0000   0.0000   0.1772
  -6.400  -0.3890   0.07958   0.07518  -0.0265  1.0000  0.0985  -1.3651   0.0000   0.0000   0.0000   0.1788
  -6.300  -0.3900   0.07865   0.07427  -0.0261  1.0000  0.0995  -1.3611   0.0000   0.0000   0.0000   0.1802
  -6.200  -0.3910   0.07770   0.07334  -0.0257  1.0000  0.1006  -1.3587   0.0000   0.0000   0.0000   0.1813
  -6.100  -0.3921   0.07674   0.07240  -0.0255  1.0000  0.1017  -1.3579   0.0000   0.0000   0.0000   0.1822
  -6.000  -0.3932   0.07575   0.07142  -0.0254  1.0000  0.1029  -1.3585   0.0000   0.0000   0.0000   0.1827
  -5.900  -0.3941   0.07473   0.07042  -0.0255  1.0000  0.1042  -1.3605   0.0000   0.0000   0.0000   0.1828
  -5.800  -0.3949   0.07367   0.06938  -0.0256  1.0000  0.1056  -1.3638   0.0000   0.0000   0.0000   0.1826
  -5.700  -0.3954   0.07259   0.06831  -0.0260  1.0000  0.1071  -1.3686   0.0000   0.0000   0.0000   0.1819
  -5.600  -0.3954   0.07148   0.06720  -0.0266  1.0000  0.1089  -1.3751   0.0000   0.0000   0.0000   0.1805
  -5.500  -0.3947   0.07036   0.06607  -0.0274  1.0000  0.1109  -1.3842   0.0000   0.0000   0.0000   0.1783
  -5.400  -0.3928   0.06934   0.06501  -0.0291  1.0000  0.1138  -1.4004   0.0000   0.0000   0.0000   0.1738
  -5.300  -0.3825   0.07188   0.06728  -0.0340  1.0000  0.1199  -1.4416   0.0000   0.0000   0.0000   0.1591
  -5.200  -0.3786   0.07163   0.06695  -0.0345  1.0000  0.1205  -1.4439   0.0000   0.0000   0.0000   0.1569
  -5.100  -0.3751   0.07091   0.06617  -0.0347  1.0000  0.1207  -1.4447   0.0000   0.0000   0.0000   0.1553
  -5.000  -0.3873   0.06295   0.05831  -0.0367  1.0000  0.1241  -1.5105   0.0000   0.0000   0.0000   0.1533
  -4.900  -0.3852   0.06115   0.05659  -0.0356  1.0000  0.1255  -1.4848   0.0000   0.0000   0.0000   0.1557
  -4.800  -0.3827   0.05984   0.05534  -0.0345  1.0000  0.1268  -1.4583   0.0000   0.0000   0.0000   0.1580
  -4.700  -0.3798   0.05874   0.05427  -0.0335  1.0000  0.1283  -1.4329   0.0000   0.0000   0.0000   0.1599
  -4.600  -0.3767   0.05773   0.05329  -0.0327  1.0000  0.1299  -1.4095   0.0000   0.0000   0.0000   0.1614
  -4.500  -0.3732   0.05677   0.05234  -0.0321  1.0000  0.1317  -1.3881   0.0000   0.0000   0.0000   0.1622
  -4.400  -0.3693   0.05583   0.05140  -0.0316  1.0000  0.1338  -1.3679   0.0000   0.0000   0.0000   0.1625
  -4.300  -0.3648   0.05486   0.05043  -0.0315  1.0000  0.1362  -1.3504   0.0000   0.0000   0.0000   0.1620
  -4.200  -0.3596   0.05385   0.04940  -0.0316  1.0000  0.1391  -1.3357   0.0000   0.0000   0.0000   0.1605
  -4.100  -0.3535   0.05282   0.04832  -0.0320  1.0000  0.1425  -1.3239   0.0000   0.0000   0.0000   0.1577
  -4.000  -0.3458   0.05190   0.04731  -0.0329  1.0000  0.1470  -1.3155   0.0000   0.0000   0.0000   0.1531
  -3.900  -0.3352   0.05051   0.04559  -0.0370  1.0000  0.1620  -1.3404   0.0000   0.0000   0.0000   0.1381
  -3.800  -0.3308   0.04876   0.04389  -0.0365  1.0000  0.1639  -1.3170   0.0000   0.0000   0.0000   0.1379
  -3.700  -0.3256   0.04747   0.04263  -0.0361  1.0000  0.1656  -1.2899   0.0000   0.0000   0.0000   0.1376
  -3.500  -0.2667   0.03505   0.02846  -0.0442  1.0000  0.0635  -1.7955   0.0000   0.0000   0.0000   0.0812
  -3.400  -0.2580   0.03504   0.02848  -0.0433  1.0000  0.0584  -1.7615   0.0000   0.0000   0.0000   0.0791
  -3.300  -0.2466   0.03265   0.02588  -0.0443  1.0000  0.0554  -1.7759   0.0000   0.0000   0.0000   0.0674
  -3.200  -0.2352   0.03101   0.02403  -0.0448  1.0000  0.0529  -1.7781   0.0000   0.0000   0.0000   0.0563
  -3.100  -0.2225   0.02934   0.02181  -0.0452  1.0000  0.0492  -1.7848   0.0000   0.0000   0.0000   0.0434
  -3.000  -0.2096   0.02785   0.01999  -0.0455  1.0000  0.0464  -1.8132   0.0000   0.0000   0.0000   0.0294
  -2.900  -0.1971   0.02658   0.01842  -0.0455  1.0000  0.0440  -1.8386   0.0000   0.0000   0.0000   0.0151
  -2.800  -0.1857   0.02572   0.01730  -0.0454  1.0000  0.0423  -1.8457   0.0000   0.0000   0.0000   0.0014
  -2.700  -0.1692   0.02507   0.01645  -0.0462  0.9984  0.0409  -1.8261   0.0000   0.0000   0.0000  -0.0274
  -2.600  -0.1505   0.02459   0.01581  -0.0474  0.9960  0.0399  -1.7847   0.0000   0.0000   0.0000  -0.0699
  -2.500  -0.1329   0.02412   0.01524  -0.0486  0.9932  0.0393  -1.7388   0.0000   0.0000   0.0000  -0.1203
  -2.400  -0.1155   0.02362   0.01465  -0.0497  0.9908  0.0388  -1.6927   0.0000   0.0000   0.0000  -0.1859
  -2.300  -0.0976   0.02307   0.01401  -0.0509  0.9886  0.0386  -1.6482   0.0000   0.0000   0.0000  -0.2777
  -2.200  -0.0796   0.02244   0.01330  -0.0521  0.9866  0.0385  -1.6065   0.0000   0.0000   0.0000  -0.4114
  -2.100  -0.0639   0.02179   0.01258  -0.0529  0.9835  0.0387  -1.5703   0.0000   0.0000   0.0000  -0.5865
  -2.000  -0.0472   0.02113   0.01186  -0.0539  0.9805  0.0391  -1.5335   0.0000   0.0000   0.0000  -0.9020
  -1.900  -0.0295   0.02053   0.01120  -0.0551  0.9775  0.0401  -1.4941   0.0000   0.0000   0.0000  -1.6332
  -1.800  -0.0105   0.02005   0.01064  -0.0565  0.9748  0.0420  -1.4488   0.0000   0.0000   0.0000  -5.1954
  -1.700   0.0100   0.01973   0.01025  -0.0583  0.9723  0.0455  -1.3945   0.0000   0.0000   0.0000   6.1156
  -1.600   0.0257   0.01948   0.00996  -0.0591  0.9682  0.0502  -1.3473   0.0000   0.0000   0.0000   2.5689
  -1.500   0.0412   0.01923   0.00964  -0.0598  0.9636  0.0590  -1.3115   0.0000   0.0000   0.0000   1.7124
  -1.400   0.0578   0.01816   0.00936  -0.0611  0.9609  0.2134  -1.3054   0.0000   0.0000   0.0000   1.3142
  -1.300   0.0724   0.01722   0.00950  -0.0623  0.9584  0.4608  -1.2497   0.0000   0.0000   0.0000   1.1148
  -1.200   0.0816   0.01652   0.00980  -0.0612  0.9558  0.7028  -1.1965   0.0000   0.0000   0.0000   1.0044
  -1.100   0.0931   0.01628   0.00993  -0.0602  0.9530  0.8431  -1.1370   0.0000   0.0000   0.0000   0.8999
  -1.000   0.1236   0.01618   0.00985  -0.0637  0.9507  1.0000  -1.0318   0.0000   0.0000   0.0000   0.7672
  -0.900   0.1324   0.01620   0.00980  -0.0634  0.9439  1.0000  -0.9844   0.0000   0.0000   0.0000   0.7303
  -0.800   0.1475   0.01627   0.00978  -0.0642  0.9383  1.0000  -0.9223   0.0000   0.0000   0.0000   0.6867
  -0.700   0.1659   0.01634   0.00977  -0.0657  0.9338  1.0000  -0.8532   0.0000   0.0000   0.0000   0.6464
  -0.600   0.1866   0.01642   0.00977  -0.0675  0.9301  1.0000  -0.7807   0.0000   0.0000   0.0000   0.6120
  -0.500   0.2085   0.01650   0.00978  -0.0695  0.9271  1.0000  -0.7072   0.0000   0.0000   0.0000   0.5836
  -0.400   0.2313   0.01659   0.00981  -0.0717  0.9246  1.0000  -0.6332   0.0000   0.0000   0.0000   0.5600
  -0.300   0.2339   0.01663   0.00981  -0.0703  0.9162  1.0000  -0.6050   0.0000   0.0000   0.0000   0.5501
  -0.200   0.2475   0.01667   0.00981  -0.0708  0.9106  1.0000  -0.5529   0.0000   0.0000   0.0000   0.5355
  -0.100   0.2649   0.01670   0.00979  -0.0719  0.9061  1.0000  -0.5167   0.0000   0.0000   0.0000   0.5210
   0.000   0.2845   0.01670   0.00975  -0.0735  0.9023  1.0000  -0.5317   0.0000   0.0000   0.0000   0.5075
   0.100   0.3061   0.01667   0.00973  -0.0753  0.8991  1.0000  -0.5500   0.0000   0.0000   0.0000   0.4951
   0.200   0.3294   0.01663   0.00964  -0.0774  0.8966  1.0000  -0.5697   0.0000   0.0000   0.0000   0.4840
   0.300   0.3523   0.01658   0.00955  -0.0794  0.8943  1.0000  -0.5893   0.0000   0.0000   0.0000   0.4743
   0.400   0.3504   0.01669   0.00963  -0.0771  0.8837  1.0000  -0.5919   0.0000   0.0000   0.0000   0.4689
   0.500   0.3639   0.01667   0.00958  -0.0774  0.8777  1.0000  -0.6051   0.0000   0.0000   0.0000   0.4615
   0.600   0.3803   0.01662   0.00950  -0.0782  0.8731  1.0000  -0.6205   0.0000   0.0000   0.0000   0.4544
   0.700   0.3982   0.01654   0.00938  -0.0793  0.8693  1.0000  -0.6370   0.0000   0.0000   0.0000   0.4476
   0.800   0.4170   0.01642   0.00924  -0.0804  0.8660  1.0000  -0.6553   0.0000   0.0000   0.0000   0.4413
   0.900   0.4364   0.01628   0.00907  -0.0816  0.8630  1.0000  -0.6757   0.0000   0.0000   0.0000   0.4353
   1.000   0.4559   0.01614   0.00891  -0.0827  0.8603  1.0000  -0.6963   0.0000   0.0000   0.0000   0.4297
   1.100   0.4554   0.01632   0.00907  -0.0807  0.8493  1.0000  -0.7010   0.0000   0.0000   0.0000   0.4254
   1.200   0.4668   0.01626   0.00900  -0.0805  0.8424  1.0000  -0.7153   0.0000   0.0000   0.0000   0.4206
   1.300   0.4814   0.01614   0.00886  -0.0808  0.8370  1.0000  -0.7322   0.0000   0.0000   0.0000   0.4160
   1.400   0.4970   0.01599   0.00869  -0.0812  0.8326  1.0000  -0.7501   0.0000   0.0000   0.0000   0.4114
   1.500   0.5134   0.01583   0.00851  -0.0818  0.8287  1.0000  -0.7688   0.0000   0.0000   0.0000   0.4072
   1.600   0.5300   0.01566   0.00832  -0.0823  0.8252  1.0000  -0.7878   0.0000   0.0000   0.0000   0.4031
   1.700   0.5416   0.01564   0.00829  -0.0821  0.8194  1.0000  -0.8043   0.0000   0.0000   0.0000   0.3994
   1.800   0.5472   0.01573   0.00838  -0.0811  0.8099  1.0000  -0.8160   0.0000   0.0000   0.0000   0.3959
   1.900   0.5583   0.01566   0.00830  -0.0808  0.8026  1.0000  -0.8331   0.0000   0.0000   0.0000   0.3923
   2.000   0.5717   0.01551   0.00813  -0.0807  0.7964  1.0000  -0.8525   0.0000   0.0000   0.0000   0.3888
   2.100   0.5860   0.01532   0.00793  -0.0808  0.7911  1.0000  -0.8729   0.0000   0.0000   0.0000   0.3854
   2.200   0.6005   0.01515   0.00773  -0.0809  0.7862  1.0000  -0.8937   0.0000   0.0000   0.0000   0.3821
   2.300   0.6142   0.01506   0.00761  -0.0809  0.7808  1.0000  -0.9136   0.0000   0.0000   0.0000   0.3790
   2.400   0.6206   0.01518   0.00775  -0.0801  0.7712  1.0000  -0.9263   0.0000   0.0000   0.0000   0.3763
   2.500   0.6307   0.01517   0.00774  -0.0797  0.7629  1.0000  -0.9427   0.0000   0.0000   0.0000   0.3735
   2.600   0.6425   0.01508   0.00763  -0.0794  0.7554  1.0000  -0.9610   0.0000   0.0000   0.0000   0.3706
   2.700   0.6550   0.01495   0.00747  -0.0792  0.7486  1.0000  -0.9831   0.0000   0.0000   0.0000   0.3678
   2.800   0.6686   0.01483   0.00730  -0.0790  0.7422  1.0000  -1.0071   0.0000   0.0000   0.0000   0.3652
   2.900   0.6793   0.01486   0.00731  -0.0787  0.7343  1.0000  -1.0275   0.0000   0.0000   0.0000   0.3627
   3.000   0.6877   0.01494   0.00740  -0.0781  0.7246  1.0000  -1.0453   0.0000   0.0000   0.0000   0.3604
   3.100   0.6979   0.01494   0.00739  -0.0777  0.7155  1.0000  -1.0655   0.0000   0.0000   0.0000   0.3581
   3.200   0.7090   0.01490   0.00732  -0.0774  0.7074  1.0000  -1.0870   0.0000   0.0000   0.0000   0.3557
   3.300   0.7212   0.01486   0.00734  -0.0772  0.7006  1.0000  -1.1098   0.0000   0.0000   0.0000   0.3535
   3.400   0.7341   0.01489   0.00727  -0.0771  0.6930  1.0000  -1.1335   0.0000   0.0000   0.0000   0.3514
   3.500   0.7421   0.01499   0.00742  -0.0765  0.6837  1.0000  -1.1511   0.0000   0.0000   0.0000   0.3495
   3.600   0.7514   0.01505   0.00748  -0.0761  0.6737  1.0000  -1.1705   0.0000   0.0000   0.0000   0.3475
   3.700   0.7616   0.01507   0.00747  -0.0756  0.6642  1.0000  -1.1913   0.0000   0.0000   0.0000   0.3455
   3.800   0.7728   0.01507   0.00740  -0.0753  0.6552  1.0000  -1.2150   0.0000   0.0000   0.0000   0.3435
   3.900   0.7850   0.01516   0.00737  -0.0751  0.6461  1.0000  -1.2434   0.0000   0.0000   0.0000   0.3416
   4.000   0.7936   0.01527   0.00752  -0.0746  0.6368  1.0000  -1.2663   0.0000   0.0000   0.0000   0.3399
   4.100   0.8027   0.01536   0.00763  -0.0742  0.6268  1.0000  -1.2904   0.0000   0.0000   0.0000   0.3382
   4.200   0.8126   0.01543   0.00768  -0.0738  0.6172  1.0000  -1.3157   0.0000   0.0000   0.0000   0.3365
   4.300   0.8232   0.01550   0.00767  -0.0734  0.6079  1.0000  -1.3451   0.0000   0.0000   0.0000   0.3348
   4.400   0.8347   0.01565   0.00770  -0.0732  0.5981  1.0000  -1.3791   0.0000   0.0000   0.0000   0.3332
   4.500   0.8436   0.01577   0.00786  -0.0728  0.5886  1.0000  -1.4083   0.0000   0.0000   0.0000   0.3317
   4.600   0.8526   0.01587   0.00798  -0.0723  0.5781  1.0000  -1.4381   0.0000   0.0000   0.0000   0.3301
   4.700   0.8621   0.01594   0.00803  -0.0719  0.5676  1.0000  -1.4692   0.0000   0.0000   0.0000   0.3286
   4.800   0.8723   0.01604   0.00804  -0.0715  0.5573  1.0000  -1.5020   0.0000   0.0000   0.0000   0.3270
   4.900   0.8832   0.01629   0.00813  -0.0712  0.5464  1.0000  -1.5358   0.0000   0.0000   0.0000   0.3256
   5.000   0.8918   0.01638   0.00831  -0.0708  0.5372  1.0000  -1.5651   0.0000   0.0000   0.0000   0.3243
   5.100   0.9009   0.01650   0.00846  -0.0703  0.5269  1.0000  -1.5957   0.0000   0.0000   0.0000   0.3229
   5.200   0.9104   0.01662   0.00855  -0.0699  0.5168  1.0000  -1.6274   0.0000   0.0000   0.0000   0.3215
   5.300   0.9203   0.01678   0.00861  -0.0695  0.5068  1.0000  -1.6602   0.0000   0.0000   0.0000   0.3202
   5.400   0.9307   0.01708   0.00879  -0.0693  0.4957  1.0000  -1.6935   0.0000   0.0000   0.0000   0.3189
   5.500   0.9393   0.01718   0.00897  -0.0688  0.4863  1.0000  -1.7235   0.0000   0.0000   0.0000   0.3177
   5.600   0.9482   0.01730   0.00912  -0.0684  0.4755  1.0000  -1.7732   0.0000   0.0000   0.0000   0.3164
   5.700   0.9573   0.01743   0.00921  -0.0679  0.4647  1.0000  -1.8302   0.0000   0.0000   0.0000   0.3151
   5.800   0.9668   0.01766   0.00930  -0.0675  0.4538  1.0000  -1.8892   0.0000   0.0000   0.0000   0.3139
   5.900   0.9762   0.01794   0.00954  -0.0672  0.4431  1.0000  -1.9471   0.0000   0.0000   0.0000   0.3128
   6.000   0.9848   0.01807   0.00974  -0.0667  0.4332  1.0000  -2.0033   0.0000   0.0000   0.0000   0.3116
   6.100   0.9937   0.01822   0.00991  -0.0663  0.4229  1.0000  -2.0612   0.0000   0.0000   0.0000   0.3104
   6.200   1.0027   0.01842   0.01004  -0.0659  0.4129  1.0000  -2.1208   0.0000   0.0000   0.0000   0.3093
   6.300   1.0122   0.01880   0.01026  -0.0655  0.4018  1.0000  -2.1820   0.0000   0.0000   0.0000   0.3082
   6.400   1.0211   0.01904   0.01054  -0.0651  0.3925  1.0000  -2.2408   0.0000   0.0000   0.0000   0.3072
   6.500   1.0296   0.01919   0.01076  -0.0647  0.3827  1.0000  -2.2996   0.0000   0.0000   0.0000   0.3061
   6.600   1.0381   0.01936   0.01093  -0.0642  0.3724  1.0000  -2.3639   0.0000   0.0000   0.0000   0.3050
   6.700   1.0466   0.01961   0.01107  -0.0637  0.3621  1.0000  -2.4536   0.0000   0.0000   0.0000   0.3039
   6.800   1.0559   0.02012   0.01142  -0.0634  0.3500  1.0000  -2.5458   0.0000   0.0000   0.0000   0.3030
   6.900   1.0641   0.02025   0.01166  -0.0629  0.3421  1.0000  -2.6333   0.0000   0.0000   0.0000   0.3019
   7.000   1.0718   0.02049   0.01247  -0.0623  0.3293  1.0000  -2.7836   0.0000   0.0000   0.0000   0.3008
   7.100   1.0798   0.02079   0.01276  -0.0618  0.3187  1.0000  -2.8996   0.0000   0.0000   0.0000   0.2997
   7.200   1.0886   0.02142   0.01323  -0.0614  0.3064  1.0000  -3.0045   0.0000   0.0000   0.0000   0.2988
   7.300   1.0967   0.02165   0.01357  -0.0609  0.2985  1.0000  -3.1017   0.0000   0.0000   0.0000   0.2979
   7.400   1.1046   0.02185   0.01385  -0.0604  0.2893  1.0000  -3.1986   0.0000   0.0000   0.0000   0.2969
   7.500   1.1123   0.02206   0.01408  -0.0599  0.2799  1.0000  -3.2961   0.0000   0.0000   0.0000   0.2959
   7.600   1.1198   0.02241   0.01432  -0.0593  0.2703  1.0000  -3.3936   0.0000   0.0000   0.0000   0.2949
   7.700   1.1284   0.02310   0.01490  -0.0590  0.2595  1.0000  -3.4916   0.0000   0.0000   0.0000   0.2941
   7.800   1.1361   0.02327   0.01521  -0.0585  0.2525  1.0000  -3.5867   0.0000   0.0000   0.0000   0.2931
   7.900   1.1440   0.02354   0.01555  -0.0580  0.2445  1.0000  -3.6833   0.0000   0.0000   0.0000   0.2922
   8.000   1.1515   0.02383   0.01585  -0.0574  0.2367  1.0000  -3.7802   0.0000   0.0000   0.0000   0.2913
   8.100   1.1588   0.02426   0.01619  -0.0569  0.2284  1.0000  -3.8769   0.0000   0.0000   0.0000   0.2904
   8.200   1.1674   0.02514   0.01697  -0.0567  0.2184  1.0000  -3.9733   0.0000   0.0000   0.0000   0.2897
   8.300   1.1745   0.02532   0.01729  -0.0560  0.2124  1.0000  -4.0671   0.0000   0.0000   0.0000   0.2887
   8.400   1.1816   0.02556   0.01760  -0.0554  0.2048  1.0000  -4.1626   0.0000   0.0000   0.0000   0.2878
   8.500   1.1882   0.02580   0.01785  -0.0548  0.1973  1.0000  -4.2590   0.0000   0.0000   0.0000   0.2869
   8.600   1.1946   0.02621   0.01817  -0.0542  0.1897  1.0000  -4.3541   0.0000   0.0000   0.0000   0.2860
   8.700   1.2026   0.02725   0.01910  -0.0539  0.1801  1.0000  -4.4468   0.0000   0.0000   0.0000   0.2853
   8.800   1.2093   0.02747   0.01948  -0.0533  0.1752  1.0000  -4.5380   0.0000   0.0000   0.0000   0.2844
   8.900   1.2162   0.02783   0.01993  -0.0527  0.1692  1.0000  -4.6292   0.0000   0.0000   0.0000   0.2835
   9.000   1.2230   0.02820   0.02034  -0.0520  0.1629  1.0000  -4.7211   0.0000   0.0000   0.0000   0.2826
   9.100   1.2291   0.02859   0.02073  -0.0514  0.1570  1.0000  -4.8124   0.0000   0.0000   0.0000   0.2817
   9.200   1.2354   0.02950   0.02148  -0.0509  0.1487  1.0000  -4.9010   0.0000   0.0000   0.0000   0.2810
   9.300   1.2410   0.02999   0.02205  -0.0503  0.1424  1.0000  -4.9852   0.0000   0.0000   0.0000   0.2801
   9.400   1.2451   0.02994   0.02210  -0.0494  0.1361  1.0000  -5.0741   0.0000   0.0000   0.0000   0.2791
   9.500   1.2485   0.02987   0.02204  -0.0485  0.1287  1.0000  -5.1666   0.0000   0.0000   0.0000   0.2782
   9.600   1.2505   0.02996   0.02204  -0.0475  0.1216  1.0000  -5.2548   0.0000   0.0000   0.0000   0.2772
   9.700   1.2532   0.03068   0.02263  -0.0468  0.1127  1.0000  -5.3301   0.0000   0.0000   0.0000   0.2763
   9.800   1.2567   0.03056   0.02265  -0.0459  0.1065  1.0000  -5.4186   0.0000   0.0000   0.0000   0.2754
   9.900   1.2603   0.03075   0.02289  -0.0451  0.0996  1.0000  -5.4984   0.0000   0.0000   0.0000   0.2745
  10.000   1.2620   0.03119   0.02329  -0.0441  0.0932  1.0000  -5.5610   0.0000   0.0000   0.0000   0.2735
  10.100   1.2608   0.03229   0.02424  -0.0427  0.0852  1.0000  -5.5850   0.0000   0.0000   0.0000   0.2723
  10.200   1.2626   0.03252   0.02464  -0.0415  0.0764  1.0000  -5.6174   0.0000   0.0000   0.0000   0.2712
  10.300   1.2582   0.03330   0.02530  -0.0399  0.0664  1.0000  -5.6089   0.0000   0.0000   0.0000   0.2699
  10.400   1.2507   0.03482   0.02678  -0.0378  0.0530  1.0000  -5.4893   0.0000   0.0000   0.0000   0.2682
  10.500   1.2466   0.03588   0.02778  -0.0364  0.0464  1.0000  -5.4508   0.0000   0.0000   0.0000   0.2671
  10.600   1.2393   0.03759   0.02943  -0.0347  0.0423  1.0000  -5.3868   0.0000   0.0000   0.0000   0.2657
  10.700   1.2381   0.03907   0.03097  -0.0334  0.0396  1.0000  -5.3380   0.0000   0.0000   0.0000   0.2646
  10.800   1.2397   0.04007   0.03209  -0.0325  0.0378  1.0000  -5.3307   0.0000   0.0000   0.0000   0.2636
  10.900   1.2413   0.04115   0.03327  -0.0315  0.0363  1.0000  -5.3278   0.0000   0.0000   0.0000   0.2627
  11.000   1.2427   0.04227   0.03448  -0.0307  0.0351  1.0000  -5.3298   0.0000   0.0000   0.0000   0.2618
  11.100   1.2444   0.04341   0.03570  -0.0299  0.0341  1.0000  -5.3362   0.0000   0.0000   0.0000   0.2610
  11.200   1.2458   0.04456   0.03695  -0.0291  0.0332  1.0000  -5.3453   0.0000   0.0000   0.0000   0.2602
  11.300   1.2471   0.04574   0.03822  -0.0284  0.0326  1.0000  -5.3556   0.0000   0.0000   0.0000   0.2594
  11.400   1.2463   0.04689   0.03958  -0.0276  0.0313  1.0000  -5.3322   0.0000   0.0000   0.0000   0.2587
  11.500   1.2466   0.04810   0.04086  -0.0269  0.0307  1.0000  -5.3369   0.0000   0.0000   0.0000   0.2580
  11.600   1.2468   0.04936   0.04222  -0.0263  0.0303  1.0000  -5.3457   0.0000   0.0000   0.0000   0.2573
  11.700   1.2467   0.05067   0.04363  -0.0257  0.0300  1.0000  -5.3541   0.0000   0.0000   0.0000   0.2567
  11.800   1.2462   0.05204   0.04509  -0.0251  0.0297  1.0000  -5.3610   0.0000   0.0000   0.0000   0.2561
  11.900   1.2452   0.05345   0.04661  -0.0246  0.0295  1.0000  -5.3659   0.0000   0.0000   0.0000   0.2555
  12.000   1.2438   0.05492   0.04818  -0.0241  0.0294  1.0000  -5.3686   0.0000   0.0000   0.0000   0.2550
  12.100   1.2420   0.05644   0.04982  -0.0237  0.0293  1.0000  -5.3686   0.0000   0.0000   0.0000   0.2546
  12.200   1.2392   0.05802   0.05151  -0.0234  0.0292  1.0000  -5.3650   0.0000   0.0000   0.0000   0.2542
  12.300   1.2359   0.05966   0.05327  -0.0231  0.0292  1.0000  -5.3581   0.0000   0.0000   0.0000   0.2539
  12.400   1.2320   0.06136   0.05508  -0.0229  0.0292  1.0000  -5.3484   0.0000   0.0000   0.0000   0.2536
  12.500   1.2274   0.06313   0.05697  -0.0228  0.0292  1.0000  -5.3353   0.0000   0.0000   0.0000   0.2535
  12.600   1.2221   0.06495   0.05891  -0.0229  0.0292  1.0000  -5.3186   0.0000   0.0000   0.0000   0.2534
  12.700   1.2164   0.06684   0.06091  -0.0230  0.0292  1.0000  -5.2991   0.0000   0.0000   0.0000   0.2534
  12.800   1.2101   0.06883   0.06302  -0.0233  0.0293  1.0000  -5.2760   0.0000   0.0000   0.0000   0.2536
  12.900   1.2034   0.07093   0.06523  -0.0237  0.0294  1.0000  -5.2499   0.0000   0.0000   0.0000   0.2539
  13.000   1.1963   0.07314   0.06755  -0.0243  0.0294  1.0000  -5.2206   0.0000   0.0000   0.0000   0.2544
  13.100   1.1887   0.07547   0.07000  -0.0251  0.0295  1.0000  -5.1876   0.0000   0.0000   0.0000   0.2550
  13.200   1.1809   0.07792   0.07255  -0.0260  0.0296  1.0000  -5.1515   0.0000   0.0000   0.0000   0.2558
  13.300   1.1724   0.08051   0.07525  -0.0272  0.0297  1.0000  -5.1111   0.0000   0.0000   0.0000   0.2568
  13.400   1.1638   0.08322   0.07806  -0.0285  0.0298  1.0000  -5.0673   0.0000   0.0000   0.0000   0.2579
  13.500   1.1545   0.08610   0.08104  -0.0301  0.0300  1.0000  -5.0184   0.0000   0.0000   0.0000   0.2593
  13.600   1.1450   0.08912   0.08415  -0.0318  0.0301  1.0000  -4.9654   0.0000   0.0000   0.0000   0.2609
  13.700   1.1349   0.09234   0.08747  -0.0338  0.0303  1.0000  -4.9064   0.0000   0.0000   0.0000   0.2628
  13.800   1.1245   0.09572   0.09094  -0.0360  0.0305  1.0000  -4.8420   0.0000   0.0000   0.0000   0.2649
  13.900   1.1133   0.09939   0.09470  -0.0385  0.0307  1.0000  -4.7694   0.0000   0.0000   0.0000   0.2673
  14.000   1.1017   0.10330   0.09870  -0.0412  0.0310  1.0000  -4.6890   0.0000   0.0000   0.0000   0.2700
  14.100   1.0867   0.10823   0.10359  -0.0447  0.0320  1.0000  -4.5998   0.0000   0.0000   0.0000   0.2737
  14.200   1.0731   0.11302   0.10845  -0.0481  0.0324  1.0000  -4.4877   0.0000   0.0000   0.0000   0.2774
  14.300   1.0587   0.11823   0.11372  -0.0519  0.0329  1.0000  -4.3586   0.0000   0.0000   0.0000   0.2815
  14.400   1.0433   0.12399   0.11953  -0.0559  0.0335  1.0000  -4.2068   0.0000   0.0000   0.0000   0.2862
  14.500   1.0274   0.13007   0.12562  -0.0601  0.0342  1.0000  -4.0337   0.0000   0.0000   0.0000   0.2911
  14.600   1.0126   0.13618   0.13175  -0.0640  0.0349  1.0000  -3.8522   0.0000   0.0000   0.0000   0.2960
  14.700   1.0003   0.14191   0.13746  -0.0674  0.0356  1.0000  -3.6817   0.0000   0.0000   0.0000   0.3003
  14.800   0.9907   0.14704   0.14257  -0.0702  0.0362  1.0000  -3.5318   0.0000   0.0000   0.0000   0.3038
  14.900   0.9835   0.15163   0.14714  -0.0725  0.0367  1.0000  -3.4024   0.0000   0.0000   0.0000   0.3068
  15.000   0.9779   0.15574   0.15123  -0.0745  0.0371  1.0000  -3.2928   0.0000   0.0000   0.0000   0.3093
  15.100   0.9734   0.15954   0.15501  -0.0764  0.0374  1.0000  -3.1973   0.0000   0.0000   0.0000   0.3115
  15.200   0.9698   0.16311   0.15856  -0.0780  0.0377  1.0000  -3.1122   0.0000   0.0000   0.0000   0.3135
  15.300   0.9668   0.16650   0.16193  -0.0796  0.0380  1.0000  -3.0355   0.0000   0.0000   0.0000   0.3153
  15.400   0.9645   0.16975   0.16517  -0.0810  0.0382  1.0000  -2.9658   0.0000   0.0000   0.0000   0.3170
  15.500   0.9625   0.17290   0.16830  -0.0824  0.0385  1.0000  -2.9022   0.0000   0.0000   0.0000   0.3185
  15.600   0.9610   0.17595   0.17134  -0.0836  0.0388  1.0000  -2.8439   0.0000   0.0000   0.0000   0.3199
  15.700   0.9597   0.17894   0.17432  -0.0848  0.0392  1.0000  -2.7902   0.0000   0.0000   0.0000   0.3212
  15.800   0.9587   0.18189   0.17726  -0.0859  0.0395  1.0000  -2.7405   0.0000   0.0000   0.0000   0.3223
  15.900   0.9578   0.18486   0.18023  -0.0868  0.0400  1.0000  -2.6937   0.0000   0.0000   0.0000   0.3233
  16.200   0.9457   0.20082   0.19614  -0.0949  0.0501  1.0000  -2.1861   0.0000   0.0000   0.0000   0.3334
  16.300   0.9448   0.20433   0.19964  -0.0961  0.0533  1.0000  -2.1172   0.0000   0.0000   0.0000   0.3347
  16.400   0.9474   0.20718   0.20249  -0.0963  0.0566  1.0000  -2.0991   0.0000   0.0000   0.0000   0.3345
  16.500   0.9378   0.21458   0.20989  -0.1006  0.0749  1.0000  -1.8392   0.0000   0.0000   0.0000   0.3405
  16.600   0.9387   0.21703   0.21234  -0.1015  0.0758  1.0000  -1.8171   0.0000   0.0000   0.0000   0.3412
  16.700   0.9397   0.21935   0.21466  -0.1024  0.0761  1.0000  -1.7988   0.0000   0.0000   0.0000   0.3419
  16.800   0.9407   0.22159   0.21690  -0.1032  0.0760  1.0000  -1.7824   0.0000   0.0000   0.0000   0.3426
  16.900   0.9418   0.22379   0.21910  -0.1041  0.0757  1.0000  -1.7674   0.0000   0.0000   0.0000   0.3433
  17.000   0.9428   0.22596   0.22126  -0.1050  0.0753  1.0000  -1.7537   0.0000   0.0000   0.0000   0.3439
  17.100   0.9440   0.22810   0.22341  -0.1058  0.0748  1.0000  -1.7413   0.0000   0.0000   0.0000   0.3446
  17.200   0.9452   0.23024   0.22555  -0.1066  0.0742  1.0000  -1.7301   0.0000   0.0000   0.0000   0.3451
  17.300   0.9464   0.23236   0.22768  -0.1074  0.0736  1.0000  -1.7200   0.0000   0.0000   0.0000   0.3457
  17.400   0.9477   0.23448   0.22980  -0.1081  0.0730  1.0000  -1.7110   0.0000   0.0000   0.0000   0.3462
  17.500   0.9491   0.23659   0.23191  -0.1089  0.0724  1.0000  -1.7030   0.0000   0.0000   0.0000   0.3467
  17.600   0.9505   0.23869   0.23401  -0.1096  0.0718  1.0000  -1.6961   0.0000   0.0000   0.0000   0.3471
  17.700   0.9520   0.24078   0.23611  -0.1103  0.0712  1.0000  -1.6902   0.0000   0.0000   0.0000   0.3475
  17.800   0.9534   0.24286   0.23820  -0.1109  0.0706  1.0000  -1.6855   0.0000   0.0000   0.0000   0.3479
  17.900   0.9550   0.24494   0.24028  -0.1115  0.0700  1.0000  -1.6819   0.0000   0.0000   0.0000   0.3482
  18.000   0.9566   0.24700   0.24235  -0.1121  0.0694  1.0000  -1.6797   0.0000   0.0000   0.0000   0.3485
  18.100   0.9583   0.24906   0.24441  -0.1127  0.0688  1.0000  -1.6788   0.0000   0.0000   0.0000   0.3487
  18.200   0.9601   0.25111   0.24646  -0.1132  0.0682  1.0000  -1.6796   0.0000   0.0000   0.0000   0.3489
  18.300   0.9619   0.25315   0.24851  -0.1137  0.0676  1.0000  -1.6820   0.0000   0.0000   0.0000   0.3490
  18.400   0.9639   0.25519   0.25056  -0.1141  0.0670  1.0000  -1.6865   0.0000   0.0000   0.0000   0.3491
  18.500   0.9661   0.25723   0.25262  -0.1145  0.0665  1.0000  -1.6932   0.0000   0.0000   0.0000   0.3490
  18.600   0.9684   0.25930   0.25470  -0.1147  0.0659  1.0000  -1.7026   0.0000   0.0000   0.0000   0.3489
  18.700   0.9710   0.26141   0.25682  -0.1149  0.0653  1.0000  -1.7149   0.0000   0.0000   0.0000   0.3486
  18.800   0.9740   0.26360   0.25902  -0.1150  0.0648  1.0000  -1.7311   0.0000   0.0000   0.0000   0.3481
  18.900   0.9776   0.26595   0.26139  -0.1149  0.0642  1.0000  -1.7520   0.0000   0.0000   0.0000   0.3475
  19.000   0.9822   0.26862   0.26408  -0.1147  0.0636  1.0000  -1.7801   0.0000   0.0000   0.0000   0.3465
  19.100   0.9887   0.27208   0.26756  -0.1140  0.0630  1.0000  -1.8201   0.0000   0.0000   0.0000   0.3449
  19.300   0.9905   0.28540   0.28086  -0.1141  0.0613  1.0000  -1.7936   0.0000   0.0000   0.0000   0.3446
  19.400   0.9908   0.28759   0.28305  -0.1149  0.0613  1.0000  -1.7813   0.0000   0.0000   0.0000   0.3452
  19.500   0.9911   0.28974   0.28521  -0.1156  0.0612  1.0000  -1.7689   0.0000   0.0000   0.0000   0.3458
  19.600   0.9913   0.29186   0.28734  -0.1164  0.0612  1.0000  -1.7564   0.0000   0.0000   0.0000   0.3464
  19.700   0.9914   0.29394   0.28942  -0.1172  0.0611  1.0000  -1.7439   0.0000   0.0000   0.0000   0.3471
  19.800   0.9914   0.29597   0.29145  -0.1179  0.0611  1.0000  -1.7311   0.0000   0.0000   0.0000   0.3477
  19.900   0.9913   0.29795   0.29344  -0.1187  0.0610  1.0000  -1.7182   0.0000   0.0000   0.0000   0.3483
  20.000   0.9910   0.29986   0.29536  -0.1194  0.0610  1.0000  -1.7049   0.0000   0.0000   0.0000   0.3490
  20.100   0.9905   0.30171   0.29721  -0.1201  0.0609  1.0000  -1.6914   0.0000   0.0000   0.0000   0.3496
  20.200   0.9893   0.30340   0.29891  -0.1209  0.0608  1.0000  -1.6743   0.0000   0.0000   0.0000   0.3504
  20.300   0.9874   0.30495   0.30047  -0.1217  0.0607  1.0000  -1.6542   0.0000   0.0000   0.0000   0.3514
  20.400   0.9851   0.30636   0.30189  -0.1225  0.0606  1.0000  -1.6327   0.0000   0.0000   0.0000   0.3524
  20.500   0.9816   0.30753   0.30306  -0.1234  0.0604  1.0000  -1.6068   0.0000   0.0000   0.0000   0.3535
  20.600   0.9776   0.30855   0.30409  -0.1242  0.0602  1.0000  -1.5787   0.0000   0.0000   0.0000   0.3548
  20.700   0.9730   0.30942   0.30497  -0.1250  0.0600  1.0000  -1.5487   0.0000   0.0000   0.0000   0.3561
  20.800   0.9681   0.31014   0.30570  -0.1258  0.0597  1.0000  -1.5163   0.0000   0.0000   0.0000   0.3575
  20.900   0.9626   0.31074   0.30632  -0.1266  0.0593  1.0000  -1.4820   0.0000   0.0000   0.0000   0.3590
  21.000   0.9570   0.31131   0.30690  -0.1273  0.0587  1.0000  -1.4472   0.0000   0.0000   0.0000   0.3604
  21.100   0.9327   0.30801   0.30367  -0.1251  0.0585  1.0000  -1.3823   0.0000   0.0000   0.0000   0.3617
  21.200   0.9158   0.30541   0.30114  -0.1239  0.0581  1.0000  -1.3315   0.0000   0.0000   0.0000   0.3630
  21.300   0.9070   0.30455   0.30031  -0.1237  0.0575  1.0000  -1.2973   0.0000   0.0000   0.0000   0.3641
  21.400   0.9006   0.30423   0.30001  -0.1237  0.0567  1.0000  -1.2703   0.0000   0.0000   0.0000   0.3650
  21.500   0.8953   0.30417   0.29998  -0.1237  0.0560  1.0000  -1.2481   0.0000   0.0000   0.0000   0.3658
  21.600   0.8909   0.30427   0.30010  -0.1238  0.0553  1.0000  -1.2291   0.0000   0.0000   0.0000   0.3665
  21.700   0.8870   0.30446   0.30031  -0.1238  0.0546  1.0000  -1.2125   0.0000   0.0000   0.0000   0.3672
  21.800   0.8835   0.30471   0.30058  -0.1239  0.0540  1.0000  -1.1977   0.0000   0.0000   0.0000   0.3677
  21.900   0.8804   0.30499   0.30100  -0.1240  0.0532  1.0000  -1.1774   0.0000   0.0000   0.0000   0.3683
  22.000   0.8775   0.30531   0.30134  -0.1241  0.0525  1.0000  -1.1651   0.0000   0.0000   0.0000   0.3688
  22.100   0.8749   0.30566   0.30171  -0.1242  0.0519  1.0000  -1.1542   0.0000   0.0000   0.0000   0.3692
  22.200   0.8725   0.30604   0.30210  -0.1244  0.0513  1.0000  -1.1444   0.0000   0.0000   0.0000   0.3697
  22.300   0.8703   0.30643   0.30251  -0.1245  0.0507  1.0000  -1.1357   0.0000   0.0000   0.0000   0.3701
  22.400   0.8683   0.30683   0.30293  -0.1247  0.0501  1.0000  -1.1279   0.0000   0.0000   0.0000   0.3705
  22.500   0.8664   0.30725   0.30337  -0.1248  0.0495  1.0000  -1.1209   0.0000   0.0000   0.0000   0.3709
  22.600   0.8647   0.30768   0.30381  -0.1250  0.0490  1.0000  -1.1148   0.0000   0.0000   0.0000   0.3712
  22.700   0.8631   0.30811   0.30426  -0.1251  0.0485  1.0000  -1.1096   0.0000   0.0000   0.0000   0.3716
  22.800   0.8616   0.30855   0.30472  -0.1253  0.0479  1.0000  -1.1052   0.0000   0.0000   0.0000   0.3719
  22.900   0.8603   0.30900   0.30519  -0.1255  0.0474  1.0000  -1.1016   0.0000   0.0000   0.0000   0.3722
  23.000   0.8590   0.30945   0.30566  -0.1256  0.0469  1.0000  -1.0988   0.0000   0.0000   0.0000   0.3725
  23.100   0.8579   0.30990   0.30613  -0.1258  0.0465  1.0000  -1.0970   0.0000   0.0000   0.0000   0.3727
  23.200   0.8569   0.31037   0.30661  -0.1259  0.0460  1.0000  -1.0961   0.0000   0.0000   0.0000   0.3729
  23.300   0.8559   0.31083   0.30709  -0.1261  0.0455  1.0000  -1.0963   0.0000   0.0000   0.0000   0.3731
  23.400   0.8551   0.31131   0.30759  -0.1262  0.0451  1.0000  -1.0975   0.0000   0.0000   0.0000   0.3732
  23.500   0.8544   0.31180   0.30810  -0.1263  0.0447  1.0000  -1.1000   0.0000   0.0000   0.0000   0.3733
  23.600   0.8539   0.31231   0.30863  -0.1264  0.0443  1.0000  -1.1040   0.0000   0.0000   0.0000   0.3734
  23.700   0.8535   0.31286   0.30920  -0.1264  0.0439  1.0000  -1.1095   0.0000   0.0000   0.0000   0.3734
  23.800   0.8532   0.31348   0.30983  -0.1264  0.0435  1.0000  -1.1169   0.0000   0.0000   0.0000   0.3732
  23.900   0.8533   0.31420   0.31058  -0.1264  0.0431  1.0000  -1.1267   0.0000   0.0000   0.0000   0.3730
  24.000   0.8537   0.31514   0.31153  -0.1263  0.0427  1.0000  -1.1396   0.0000   0.0000   0.0000   0.3727
  24.100   0.8549   0.31650   0.31292  -0.1261  0.0423  1.0000  -1.1574   0.0000   0.0000   0.0000   0.3721
  24.200   0.8578   0.31899   0.31543  -0.1257  0.0419  1.0000  -1.1839   0.0000   0.0000   0.0000   0.3710
  24.300   0.8700   0.33162   0.32803  -0.1252  0.0409  1.0000  -1.2196   0.0000   0.0000   0.0000   0.3683
  24.400   0.8684   0.33191   0.32833  -0.1256  0.0409  1.0000  -1.2082   0.0000   0.0000   0.0000   0.3688
  24.500   0.8667   0.33215   0.32859  -0.1260  0.0408  1.0000  -1.1967   0.0000   0.0000   0.0000   0.3694
  24.600   0.8651   0.33239   0.32884  -0.1263  0.0408  1.0000  -1.1854   0.0000   0.0000   0.0000   0.3699
  24.700   0.8635   0.33262   0.32908  -0.1267  0.0408  1.0000  -1.1742   0.0000   0.0000   0.0000   0.3705
  24.800   0.8620   0.33282   0.32930  -0.1270  0.0408  1.0000  -1.1630   0.0000   0.0000   0.0000   0.3710
  24.900   0.8601   0.33287   0.32936  -0.1274  0.0407  1.0000  -1.1505   0.0000   0.0000   0.0000   0.3717
  25.000   0.8580   0.33277   0.32927  -0.1278  0.0407  1.0000  -1.1361   0.0000   0.0000   0.0000   0.3724
  25.100   0.8556   0.33256   0.32907  -0.1282  0.0407  1.0000  -1.1208   0.0000   0.0000   0.0000   0.3731
  25.200   0.8533   0.33235   0.32888  -0.1287  0.0406  1.0000  -1.1056   0.0000   0.0000   0.0000   0.3739
  25.300   0.8511   0.33214   0.32868  -0.1291  0.0406  1.0000  -1.0905   0.0000   0.0000   0.0000   0.3747
  25.400   0.8489   0.33192   0.32847  -0.1296  0.0405  1.0000  -1.0754   0.0000   0.0000   0.0000   0.3755
  25.500   0.8468   0.33170   0.32826  -0.1300  0.0405  1.0000  -1.0604   0.0000   0.0000   0.0000   0.3762
  25.600   0.8448   0.33148   0.32805  -0.1305  0.0404  1.0000  -1.0453   0.0000   0.0000   0.0000   0.3770
  25.700   0.8428   0.33123   0.32781  -0.1310  0.0404  1.0000  -1.0298   0.0000   0.0000   0.0000   0.3779
  25.800   0.8405   0.33076   0.32735  -0.1316  0.0402  1.0000  -1.0164   0.0000   0.0000   0.0000   0.3788
  25.900   0.8380   0.33004   0.32664  -0.1323  0.0401  1.0000  -1.0009   0.0000   0.0000   0.0000   0.3800
  26.000   0.8355   0.32921   0.32581  -0.1333  0.0397  1.0000  -0.9796   0.0000   0.0000   0.0000   0.3815
  26.100   0.8341   0.32881   0.32541  -0.1346  0.0388  1.0000  -0.9517   0.0000   0.0000   0.0000   0.3831
  26.200   0.8342   0.32946   0.32607  -0.1357  0.0368  1.0000  -0.9315   0.0000   0.0000   0.0000   0.3844
  26.300   0.8343   0.33024   0.32687  -0.1364  0.0344  1.0000  -0.9288   0.0000   0.0000   0.0000   0.3849
  26.400   0.8343   0.33086   0.32750  -0.1368  0.0322  1.0000  -0.9350   0.0000   0.0000   0.0000   0.3852
  26.500   0.8343   0.33139   0.32804  -0.1371  0.0305  1.0000  -0.9452   0.0000   0.0000   0.0000   0.3854
  26.600   0.8342   0.33194   0.32860  -0.1374  0.0295  1.0000  -0.9528   0.0000   0.0000   0.0000   0.3855
  26.700   0.8341   0.33250   0.32917  -0.1377  0.0288  1.0000  -0.9587   0.0000   0.0000   0.0000   0.3857
  26.800   0.8340   0.33304   0.32972  -0.1379  0.0282  1.0000  -0.9662   0.0000   0.0000   0.0000   0.3858
  26.900   0.8340   0.33355   0.33025  -0.1381  0.0276  1.0000  -0.9756   0.0000   0.0000   0.0000   0.3858
  27.000   0.8340   0.33405   0.33076  -0.1382  0.0270  1.0000  -0.9876   0.0000   0.0000   0.0000   0.3858
  27.100   0.8342   0.33456   0.33129  -0.1383  0.0265  1.0000  -1.0031   0.0000   0.0000   0.0000   0.3856
  27.200   0.8345   0.33519   0.33193  -0.1382  0.0260  1.0000  -1.0235   0.0000   0.0000   0.0000   0.3852
  27.300   0.8354   0.33629   0.33305  -0.1379  0.0255  1.0000  -1.0518   0.0000   0.0000   0.0000   0.3844
  27.600   0.8403   0.34624   0.34299  -0.1373  0.0244  1.0000  -1.0658   0.0000   0.0000   0.0000   0.3824
  27.700   0.8393   0.34656   0.34331  -0.1378  0.0244  1.0000  -1.0519   0.0000   0.0000   0.0000   0.3829
  27.800   0.8383   0.34683   0.34359  -0.1382  0.0244  1.0000  -1.0378   0.0000   0.0000   0.0000   0.3835
  27.900   0.8369   0.34697   0.34373  -0.1387  0.0244  1.0000  -1.0216   0.0000   0.0000   0.0000   0.3842
  28.000   0.8356   0.34712   0.34389  -0.1392  0.0243  1.0000  -1.0073   0.0000   0.0000   0.0000   0.3849
  28.100   0.8344   0.34729   0.34407  -0.1397  0.0243  1.0000  -0.9942   0.0000   0.0000   0.0000   0.3855
  28.200   0.8333   0.34748   0.34427  -0.1402  0.0242  1.0000  -0.9814   0.0000   0.0000   0.0000   0.3862
  28.300   0.8322   0.34769   0.34449  -0.1407  0.0242  1.0000  -0.9687   0.0000   0.0000   0.0000   0.3868
  28.400   0.8312   0.34793   0.34473  -0.1413  0.0241  1.0000  -0.9562   0.0000   0.0000   0.0000   0.3875
  28.500   0.8303   0.34819   0.34500  -0.1418  0.0241  1.0000  -0.9439   0.0000   0.0000   0.0000   0.3881
  28.600   0.8294   0.34848   0.34530  -0.1423  0.0240  1.0000  -0.9315   0.0000   0.0000   0.0000   0.3888
  28.700   0.8287   0.34880   0.34563  -0.1429  0.0239  1.0000  -0.9192   0.0000   0.0000   0.0000   0.3894
  28.800   0.8279   0.34908   0.34599  -0.1436  0.0238  1.0000  -0.9052   0.0000   0.0000   0.0000   0.3902
  28.900   0.8273   0.34949   0.34641  -0.1442  0.0237  1.0000  -0.8923   0.0000   0.0000   0.0000   0.3909
  29.000   0.8270   0.35000   0.34692  -0.1448  0.0236  1.0000  -0.8794   0.0000   0.0000   0.0000   0.3915
  29.100   0.8268   0.35059   0.34753  -0.1455  0.0234  1.0000  -0.8666   0.0000   0.0000   0.0000   0.3921
  29.200   0.8267   0.35129   0.34823  -0.1461  0.0232  1.0000  -0.8540   0.0000   0.0000   0.0000   0.3927
  29.300   0.8268   0.35208   0.34903  -0.1468  0.0229  1.0000  -0.8421   0.0000   0.0000   0.0000   0.3933
  29.400   0.8270   0.35294   0.34989  -0.1474  0.0225  1.0000  -0.8315   0.0000   0.0000   0.0000   0.3938
  29.500   0.8272   0.35382   0.35078  -0.1479  0.0222  1.0000  -0.8225   0.0000   0.0000   0.0000   0.3942
  29.600   0.8273   0.35469   0.35166  -0.1484  0.0218  1.0000  -0.8151   0.0000   0.0000   0.0000   0.3946
  29.700   0.8274   0.35554   0.35252  -0.1489  0.0214  1.0000  -0.8090   0.0000   0.0000   0.0000   0.3949
  29.800   0.8274   0.35637   0.35336  -0.1493  0.0210  1.0000  -0.8040   0.0000   0.0000   0.0000   0.3952
  29.900   0.8274   0.35718   0.35419  -0.1498  0.0206  1.0000  -0.7997   0.0000   0.0000   0.0000   0.3955
  30.000   0.8274   0.35799   0.35500  -0.1502  0.0203  1.0000  -0.7959   0.0000   0.0000   0.0000   0.3958


