xflr5 v6.61

 Calculated polar for: SD7037-092-88

 1 1 Reynolds number fixed          Mach number fixed         

 xtrf =   1.000 (top)        1.000 (bottom)
 Mach =   0.000     Re =     0.563 e 6     Ncrit =   9.000

  alpha     CL        CD       CDp       Cm    Top Xtr Bot Xtr   Cpmin    Chinge    XCp    
 ------- -------- --------- --------- -------- ------- ------- -------- --------- ---------
 -10.000  -0.3752   0.10868   0.10633  -0.0238  1.0000  0.0122  -1.6681   0.0000   0.0000   0.0000   0.1795
  -9.900  -0.3732   0.10741   0.10507  -0.0243  1.0000  0.0124  -1.6674   0.0000   0.0000   0.0000   0.1778
  -9.800  -0.3713   0.10614   0.10381  -0.0248  1.0000  0.0125  -1.6672   0.0000   0.0000   0.0000   0.1762
  -9.700  -0.3694   0.10487   0.10254  -0.0253  1.0000  0.0127  -1.6677   0.0000   0.0000   0.0000   0.1745
  -9.600  -0.3675   0.10360   0.10128  -0.0259  1.0000  0.0128  -1.6688   0.0000   0.0000   0.0000   0.1728
  -9.500  -0.3658   0.10233   0.10001  -0.0264  1.0000  0.0130  -1.6705   0.0000   0.0000   0.0000   0.1712
  -9.400  -0.3641   0.10106   0.09875  -0.0269  1.0000  0.0132  -1.6727   0.0000   0.0000   0.0000   0.1695
  -9.300  -0.3625   0.09979   0.09749  -0.0274  1.0000  0.0134  -1.6756   0.0000   0.0000   0.0000   0.1679
  -9.200  -0.3609   0.09852   0.09623  -0.0279  1.0000  0.0135  -1.6792   0.0000   0.0000   0.0000   0.1662
  -9.100  -0.3595   0.09726   0.09497  -0.0284  1.0000  0.0137  -1.6834   0.0000   0.0000   0.0000   0.1646
  -9.000  -0.3582   0.09600   0.09372  -0.0289  1.0000  0.0139  -1.6882   0.0000   0.0000   0.0000   0.1631
  -8.900  -0.3570   0.09475   0.09247  -0.0293  1.0000  0.0141  -1.6939   0.0000   0.0000   0.0000   0.1615
  -8.800  -0.3559   0.09350   0.09124  -0.0298  1.0000  0.0143  -1.7002   0.0000   0.0000   0.0000   0.1601
  -8.700  -0.3549   0.09225   0.08999  -0.0303  1.0000  0.0145  -1.7071   0.0000   0.0000   0.0000   0.1586
  -8.600  -0.3540   0.09098   0.08874  -0.0307  1.0000  0.0147  -1.7148   0.0000   0.0000   0.0000   0.1572
  -8.500  -0.3532   0.08973   0.08750  -0.0312  1.0000  0.0149  -1.7232   0.0000   0.0000   0.0000   0.1558
  -8.400  -0.3527   0.08848   0.08626  -0.0316  1.0000  0.0151  -1.7324   0.0000   0.0000   0.0000   0.1546
  -8.300  -0.3524   0.08726   0.08505  -0.0319  1.0000  0.0153  -1.7426   0.0000   0.0000   0.0000   0.1536
  -8.200  -0.3525   0.08606   0.08387  -0.0322  1.0000  0.0155  -1.7537   0.0000   0.0000   0.0000   0.1529
  -8.100  -0.3531   0.08490   0.08273  -0.0324  1.0000  0.0157  -1.7657   0.0000   0.0000   0.0000   0.1526
  -8.000  -0.3542   0.08380   0.08164  -0.0325  1.0000  0.0158  -1.7787   0.0000   0.0000   0.0000   0.1529
  -7.900  -0.3562   0.08277   0.08063  -0.0324  1.0000  0.0160  -1.7928   0.0000   0.0000   0.0000   0.1538
  -7.800  -0.3596   0.08187   0.07975  -0.0319  1.0000  0.0161  -1.8079   0.0000   0.0000   0.0000   0.1561
  -7.700  -0.3646   0.08114   0.07904  -0.0310  1.0000  0.0162  -1.8237   0.0000   0.0000   0.0000   0.1600
  -7.600  -0.3712   0.08056   0.07848  -0.0297  1.0000  0.0162  -1.8405   0.0000   0.0000   0.0000   0.1652
  -7.500  -0.3791   0.08010   0.07804  -0.0281  1.0000  0.0162  -1.8581   0.0000   0.0000   0.0000   0.1711
  -7.400  -0.3878   0.07970   0.07767  -0.0264  1.0000  0.0162  -1.8763   0.0000   0.0000   0.0000   0.1774
  -7.300  -0.3829   0.07785   0.07583  -0.0289  0.9986  0.0165  -1.8930   0.0000   0.0000   0.0000   0.1700
  -7.200  -0.3750   0.07568   0.07365  -0.0325  0.9967  0.0169  -1.9113   0.0000   0.0000   0.0000   0.1589
  -7.100  -0.3655   0.07332   0.07129  -0.0365  0.9945  0.0174  -1.9298   0.0000   0.0000   0.0000   0.1458
  -7.000  -0.3544   0.07087   0.06883  -0.0410  0.9925  0.0179  -1.9494   0.0000   0.0000   0.0000   0.1298
  -6.900  -0.3418   0.06885   0.06681  -0.0451  0.9910  0.0186  -1.9483   0.0000   0.0000   0.0000   0.1135
  -6.800  -0.3263   0.06745   0.06539  -0.0488  0.9898  0.0194  -1.9165   0.0000   0.0000   0.0000   0.0959
  -6.700  -0.3114   0.06554   0.06346  -0.0532  0.9887  0.0198  -1.9022   0.0000   0.0000   0.0000   0.0746
  -6.600  -0.2974   0.06301   0.06090  -0.0580  0.9876  0.0199  -1.9131   0.0000   0.0000   0.0000   0.0504
  -6.500  -0.2857   0.06046   0.05832  -0.0620  0.9860  0.0200  -1.9337   0.0000   0.0000   0.0000   0.0282
  -6.400  -0.2759   0.05806   0.05587  -0.0652  0.9835  0.0201  -1.9575   0.0000   0.0000   0.0000   0.0088
  -6.300  -0.2651   0.05557   0.05332  -0.0684  0.9814  0.0201  -1.9828   0.0000   0.0000   0.0000  -0.0134
  -6.200  -0.2537   0.05310   0.05078  -0.0716  0.9796  0.0201  -2.0075   0.0000   0.0000   0.0000  -0.0375
  -6.100  -0.2421   0.05070   0.04831  -0.0746  0.9781  0.0202  -2.0297   0.0000   0.0000   0.0000  -0.0635
  -6.000  -0.2302   0.04840   0.04592  -0.0773  0.9769  0.0202  -2.0479   0.0000   0.0000   0.0000  -0.0917
  -5.900  -0.2182   0.04623   0.04365  -0.0799  0.9757  0.0202  -2.0612   0.0000   0.0000   0.0000  -0.1222
  -5.800  -0.2167   0.03705   0.03408  -0.0865  0.9730  0.0212  -2.4288   0.0000   0.0000   0.0000  -0.1556
  -5.600  -0.2046   0.03253   0.02939  -0.0886  0.9681  0.0231  -2.4205   0.0000   0.0000   0.0000  -0.1898
  -5.500  -0.1964   0.03177   0.02859  -0.0888  0.9654  0.0238  -2.3504   0.0000   0.0000   0.0000  -0.2091
  -5.400  -0.1866   0.03126   0.02808  -0.0892  0.9632  0.0246  -2.2593   0.0000   0.0000   0.0000  -0.2348
  -5.300  -0.1762   0.03069   0.02749  -0.0896  0.9610  0.0254  -2.1756   0.0000   0.0000   0.0000  -0.2656
  -5.200  -0.1656   0.03004   0.02681  -0.0901  0.9590  0.0264  -2.1016   0.0000   0.0000   0.0000  -0.3014
  -5.100  -0.1548   0.02932   0.02603  -0.0906  0.9570  0.0276  -2.0378   0.0000   0.0000   0.0000  -0.3425
  -5.000  -0.1440   0.02856   0.02520  -0.0909  0.9551  0.0290  -1.9832   0.0000   0.0000   0.0000  -0.3893
  -4.900  -0.1332   0.02783   0.02439  -0.0912  0.9532  0.0307  -1.9354   0.0000   0.0000   0.0000  -0.4429
  -4.800  -0.1217   0.02726   0.02375  -0.0913  0.9515  0.0328  -1.8874   0.0000   0.0000   0.0000  -0.5096
  -4.700  -0.1100   0.02727   0.02372  -0.0911  0.9497  0.0350  -1.8258   0.0000   0.0000   0.0000  -0.5880
  -4.600  -0.0973   0.02863   0.02506  -0.0903  0.9476  0.0370  -1.7230   0.0000   0.0000   0.0000  -0.6887
  -4.500  -0.0863   0.02929   0.02556  -0.0897  0.9449  0.0376  -1.6524   0.0000   0.0000   0.0000  -0.8011
  -4.400  -0.0770   0.02886   0.02504  -0.0893  0.9417  0.0378  -1.6177   0.0000   0.0000   0.0000  -0.9225
  -4.300  -0.0785   0.02228   0.01801  -0.0901  0.9371  0.0412  -1.7964   0.0000   0.0000   0.0000  -0.9099
  -4.200  -0.0698   0.02146   0.01718  -0.0900  0.9344  0.0432  -1.7332   0.0000   0.0000   0.0000  -1.0533
  -4.100  -0.0603   0.02090   0.01661  -0.0899  0.9318  0.0445  -1.6733   0.0000   0.0000   0.0000  -1.2555
  -4.000  -0.0506   0.02037   0.01607  -0.0896  0.9293  0.0459  -1.6172   0.0000   0.0000   0.0000  -1.5411
  -3.900  -0.0404   0.01986   0.01552  -0.0895  0.9268  0.0474  -1.5652   0.0000   0.0000   0.0000  -1.9835
  -3.800  -0.0302   0.01935   0.01496  -0.0893  0.9242  0.0490  -1.5180   0.0000   0.0000   0.0000  -2.7372
  -3.700  -0.0204   0.01883   0.01439  -0.0890  0.9219  0.0507  -1.4760   0.0000   0.0000   0.0000  -4.1557
  -3.600  -0.0104   0.01832   0.01382  -0.0886  0.9193  0.0523  -1.4366   0.0000   0.0000   0.0000  -8.3787
  -3.500  -0.0001   0.01784   0.01328  -0.0883  0.9163  0.0539  -1.3984   0.0000   0.0000   0.0000  -619.5903
  -3.100   0.0452   0.01225   0.00669  -0.0849  0.9044  0.0217  -1.6719   0.0000   0.0000   0.0000   2.1447
  -3.000   0.0557   0.01164   0.00602  -0.0844  0.9014  0.0190  -1.6697   0.0000   0.0000   0.0000   1.7769
  -2.900   0.0658   0.01081   0.00508  -0.0838  0.8984  0.0178  -1.6778   0.0000   0.0000   0.0000   1.5355
  -2.800   0.0762   0.01029   0.00446  -0.0834  0.8950  0.0169  -1.6613   0.0000   0.0000   0.0000   1.3535
  -2.700   0.0867   0.00988   0.00398  -0.0831  0.8925  0.0162  -1.6344   0.0000   0.0000   0.0000   1.2162
  -2.600   0.0972   0.00955   0.00359  -0.0828  0.8898  0.0156  -1.5994   0.0000   0.0000   0.0000   1.1082
  -2.500   0.1078   0.00928   0.00326  -0.0825  0.8866  0.0151  -1.5584   0.0000   0.0000   0.0000   1.0207
  -2.400   0.1185   0.00906   0.00298  -0.0822  0.8831  0.0147  -1.5121   0.0000   0.0000   0.0000   0.9485
  -2.300   0.1293   0.00887   0.00274  -0.0820  0.8793  0.0144  -1.4611   0.0000   0.0000   0.0000   0.8881
  -2.200   0.1401   0.00873   0.00254  -0.0817  0.8753  0.0142  -1.4058   0.0000   0.0000   0.0000   0.8367
  -2.100   0.1510   0.00861   0.00237  -0.0815  0.8712  0.0140  -1.3458   0.0000   0.0000   0.0000   0.7925
  -2.000   0.1619   0.00852   0.00221  -0.0812  0.8671  0.0140  -1.2821   0.0000   0.0000   0.0000   0.7543
  -1.900   0.1728   0.00845   0.00208  -0.0810  0.8627  0.0140  -1.2159   0.0000   0.0000   0.0000   0.7209
  -1.800   0.1839   0.00839   0.00197  -0.0809  0.8588  0.0141  -1.1481   0.0000   0.0000   0.0000   0.6916
  -1.700   0.1949   0.00833   0.00188  -0.0808  0.8555  0.0143  -1.0796   0.0000   0.0000   0.0000   0.6658
  -1.600   0.2060   0.00827   0.00180  -0.0806  0.8516  0.0146  -1.0104   0.0000   0.0000   0.0000   0.6427
  -1.500   0.2170   0.00822   0.00173  -0.0805  0.8470  0.0151  -0.9407   0.0000   0.0000   0.0000   0.6220
  -1.400   0.2279   0.00817   0.00166  -0.0803  0.8418  0.0160  -0.8707   0.0000   0.0000   0.0000   0.6033
  -1.300   0.2388   0.00812   0.00159  -0.0802  0.8364  0.0171  -0.8019   0.0000   0.0000   0.0000   0.5862
  -1.200   0.2497   0.00807   0.00154  -0.0800  0.8306  0.0186  -0.7370   0.0000   0.0000   0.0000   0.5707
  -1.100   0.2605   0.00804   0.00150  -0.0798  0.8244  0.0201  -0.6779   0.0000   0.0000   0.0000   0.5565
  -1.000   0.2710   0.00775   0.00144  -0.0798  0.8196  0.0794  -0.6264   0.0000   0.0000   0.0000   0.5444
  -0.900   0.2817   0.00758   0.00141  -0.0797  0.8145  0.1195  -0.5767   0.0000   0.0000   0.0000   0.5330
  -0.800   0.2922   0.00735   0.00140  -0.0797  0.8088  0.1772  -0.5296   0.0000   0.0000   0.0000   0.5227
  -0.700   0.3027   0.00715   0.00138  -0.0797  0.8028  0.2341  -0.5339   0.0000   0.0000   0.0000   0.5129
  -0.600   0.3131   0.00697   0.00137  -0.0796  0.7963  0.2904  -0.5437   0.0000   0.0000   0.0000   0.5038
  -0.500   0.3233   0.00676   0.00136  -0.0795  0.7892  0.3586  -0.5535   0.0000   0.0000   0.0000   0.4954
  -0.400   0.3331   0.00650   0.00136  -0.0794  0.7816  0.4538  -0.5631   0.0000   0.0000   0.0000   0.4876
  -0.300   0.3302   0.00536   0.00167  -0.0761  0.7769  0.8646  -0.5661   0.0000   0.0000   0.0000   0.4797
  -0.200   0.3397   0.00533   0.00166  -0.0756  0.7702  0.8868  -0.5762   0.0000   0.0000   0.0000   0.4716
  -0.100   0.3488   0.00530   0.00165  -0.0749  0.7625  0.9092  -0.5869   0.0000   0.0000   0.0000   0.4638
   0.000   0.3591   0.00529   0.00162  -0.0745  0.7541  0.9320  -0.5985   0.0000   0.0000   0.0000   0.4564
   0.100   0.3723   0.00529   0.00158  -0.0747  0.7453  0.9542  -0.6118   0.0000   0.0000   0.0000   0.4496
   0.200   0.3883   0.00531   0.00155  -0.0757  0.7375  0.9727  -0.6269   0.0000   0.0000   0.0000   0.4438
   0.300   0.4063   0.00529   0.00152  -0.0772  0.7321  0.9891  -0.6433   0.0000   0.0000   0.0000   0.4386
   0.400   0.4216   0.00531   0.00150  -0.0780  0.7247  1.0000  -0.6580   0.0000   0.0000   0.0000   0.4338
   0.500   0.4320   0.00535   0.00149  -0.0779  0.7162  1.0000  -0.6697   0.0000   0.0000   0.0000   0.4288
   0.600   0.4422   0.00541   0.00148  -0.0776  0.7066  1.0000  -0.6825   0.0000   0.0000   0.0000   0.4240
   0.700   0.4522   0.00548   0.00147  -0.0774  0.6958  1.0000  -0.6958   0.0000   0.0000   0.0000   0.4195
   0.800   0.4629   0.00552   0.00148  -0.0773  0.6889  1.0000  -0.7096   0.0000   0.0000   0.0000   0.4152
   0.900   0.4737   0.00555   0.00148  -0.0772  0.6822  1.0000  -0.7236   0.0000   0.0000   0.0000   0.4112
   1.000   0.4844   0.00559   0.00148  -0.0771  0.6749  1.0000  -0.7375   0.0000   0.0000   0.0000   0.4072
   1.100   0.4950   0.00564   0.00149  -0.0769  0.6669  1.0000  -0.7514   0.0000   0.0000   0.0000   0.4035
   1.200   0.5053   0.00571   0.00150  -0.0767  0.6581  1.0000  -0.7652   0.0000   0.0000   0.0000   0.3999
   1.300   0.5155   0.00579   0.00151  -0.0765  0.6475  1.0000  -0.7789   0.0000   0.0000   0.0000   0.3964
   1.400   0.5264   0.00583   0.00152  -0.0765  0.6413  1.0000  -0.7931   0.0000   0.0000   0.0000   0.3931
   1.500   0.5372   0.00587   0.00154  -0.0764  0.6342  1.0000  -0.8074   0.0000   0.0000   0.0000   0.3900
   1.600   0.5478   0.00592   0.00155  -0.0763  0.6255  1.0000  -0.8237   0.0000   0.0000   0.0000   0.3869
   1.700   0.5582   0.00599   0.00157  -0.0761  0.6158  1.0000  -0.8402   0.0000   0.0000   0.0000   0.3839
   1.800   0.5684   0.00608   0.00159  -0.0759  0.6054  1.0000  -0.8565   0.0000   0.0000   0.0000   0.3811
   1.900   0.5788   0.00616   0.00161  -0.0758  0.5959  1.0000  -0.8731   0.0000   0.0000   0.0000   0.3783
   2.000   0.5899   0.00619   0.00163  -0.0757  0.5913  1.0000  -0.8903   0.0000   0.0000   0.0000   0.3758
   2.100   0.6008   0.00623   0.00166  -0.0757  0.5852  1.0000  -0.9074   0.0000   0.0000   0.0000   0.3733
   2.200   0.6115   0.00628   0.00168  -0.0756  0.5777  1.0000  -0.9245   0.0000   0.0000   0.0000   0.3708
   2.300   0.6220   0.00636   0.00171  -0.0755  0.5688  1.0000  -0.9415   0.0000   0.0000   0.0000   0.3684
   2.400   0.6321   0.00646   0.00174  -0.0753  0.5582  1.0000  -0.9582   0.0000   0.0000   0.0000   0.3661
   2.500   0.6423   0.00656   0.00178  -0.0751  0.5464  1.0000  -0.9753   0.0000   0.0000   0.0000   0.3639
   2.600   0.6533   0.00660   0.00181  -0.0751  0.5409  1.0000  -0.9961   0.0000   0.0000   0.0000   0.3618
   2.700   0.6641   0.00665   0.00184  -0.0750  0.5332  1.0000  -1.0167   0.0000   0.0000   0.0000   0.3597
   2.800   0.6746   0.00672   0.00187  -0.0749  0.5246  1.0000  -1.0373   0.0000   0.0000   0.0000   0.3577
   2.900   0.6850   0.00681   0.00191  -0.0747  0.5157  1.0000  -1.0577   0.0000   0.0000   0.0000   0.3557
   3.000   0.6951   0.00691   0.00195  -0.0746  0.5056  1.0000  -1.0779   0.0000   0.0000   0.0000   0.3538
   3.100   0.7056   0.00700   0.00204  -0.0744  0.4965  1.0000  -1.0987   0.0000   0.0000   0.0000   0.3520
   3.200   0.7166   0.00703   0.00207  -0.0744  0.4925  1.0000  -1.1201   0.0000   0.0000   0.0000   0.3502
   3.300   0.7275   0.00708   0.00211  -0.0744  0.4867  1.0000  -1.1414   0.0000   0.0000   0.0000   0.3485
   3.400   0.7380   0.00716   0.00214  -0.0743  0.4774  1.0000  -1.1625   0.0000   0.0000   0.0000   0.3468
   3.500   0.7476   0.00731   0.00219  -0.0740  0.4619  1.0000  -1.1827   0.0000   0.0000   0.0000   0.3451
   3.600   0.7574   0.00745   0.00225  -0.0738  0.4448  1.0000  -1.2031   0.0000   0.0000   0.0000   0.3435
   3.700   0.7677   0.00755   0.00229  -0.0737  0.4310  1.0000  -1.2243   0.0000   0.0000   0.0000   0.3419
   3.800   0.7770   0.00774   0.00235  -0.0734  0.4110  1.0000  -1.2486   0.0000   0.0000   0.0000   0.3403
   3.900   0.7868   0.00788   0.00241  -0.0732  0.3938  1.0000  -1.2737   0.0000   0.0000   0.0000   0.3388
   4.000   0.7968   0.00801   0.00246  -0.0731  0.3787  1.0000  -1.2993   0.0000   0.0000   0.0000   0.3373
   4.100   0.8060   0.00822   0.00255  -0.0728  0.3589  1.0000  -1.3240   0.0000   0.0000   0.0000   0.3359
   4.200   0.8161   0.00835   0.00261  -0.0727  0.3448  1.0000  -1.3498   0.0000   0.0000   0.0000   0.3345
   4.300   0.8261   0.00849   0.00268  -0.0725  0.3303  1.0000  -1.3796   0.0000   0.0000   0.0000   0.3331
   4.400   0.8353   0.00871   0.00277  -0.0723  0.3116  1.0000  -1.4104   0.0000   0.0000   0.0000   0.3318
   4.500   0.8455   0.00883   0.00284  -0.0721  0.2995  1.0000  -1.4427   0.0000   0.0000   0.0000   0.3305
   4.600   0.8555   0.00896   0.00292  -0.0720  0.2880  1.0000  -1.4751   0.0000   0.0000   0.0000   0.3292
   4.700   0.8653   0.00913   0.00300  -0.0718  0.2757  1.0000  -1.5072   0.0000   0.0000   0.0000   0.3280
   4.800   0.8751   0.00929   0.00310  -0.0717  0.2627  1.0000  -1.5394   0.0000   0.0000   0.0000   0.3268
   4.900   0.8856   0.00938   0.00317  -0.0716  0.2566  1.0000  -1.5730   0.0000   0.0000   0.0000   0.3256
   5.000   0.8959   0.00949   0.00325  -0.0715  0.2499  1.0000  -1.6065   0.0000   0.0000   0.0000   0.3245
   5.100   0.9060   0.00961   0.00333  -0.0714  0.2421  1.0000  -1.6399   0.0000   0.0000   0.0000   0.3234
   5.200   0.9158   0.00977   0.00342  -0.0712  0.2324  1.0000  -1.6730   0.0000   0.0000   0.0000   0.3222
   5.300   0.9257   0.00993   0.00352  -0.0711  0.2210  1.0000  -1.7062   0.0000   0.0000   0.0000   0.3211
   5.400   0.9360   0.01003   0.00361  -0.0710  0.2154  1.0000  -1.7405   0.0000   0.0000   0.0000   0.3201
   5.500   0.9462   0.01015   0.00370  -0.0708  0.2082  1.0000  -1.7747   0.0000   0.0000   0.0000   0.3190
   5.600   0.9559   0.01032   0.00380  -0.0707  0.1988  1.0000  -1.8166   0.0000   0.0000   0.0000   0.3180
   5.700   0.9654   0.01052   0.00392  -0.0705  0.1874  1.0000  -1.8594   0.0000   0.0000   0.0000   0.3170
   5.800   0.9754   0.01065   0.00402  -0.0703  0.1791  1.0000  -1.9158   0.0000   0.0000   0.0000   0.3160
   5.900   0.9854   0.01078   0.00413  -0.0702  0.1724  1.0000  -1.9772   0.0000   0.0000   0.0000   0.3150
   6.000   0.9949   0.01097   0.00425  -0.0700  0.1622  1.0000  -2.0669   0.0000   0.0000   0.0000   0.3140
   6.100   1.0040   0.01121   0.00438  -0.0698  0.1493  1.0000  -2.1574   0.0000   0.0000   0.0000   0.3130
   6.200   1.0139   0.01134   0.00449  -0.0697  0.1422  1.0000  -2.2532   0.0000   0.0000   0.0000   0.3121
   6.300   1.0237   0.01149   0.00461  -0.0695  0.1356  1.0000  -2.3497   0.0000   0.0000   0.0000   0.3112
   6.400   1.0331   0.01169   0.00476  -0.0693  0.1273  1.0000  -2.4453   0.0000   0.0000   0.0000   0.3103
   6.500   1.0423   0.01191   0.00490  -0.0691  0.1176  1.0000  -2.5408   0.0000   0.0000   0.0000   0.3093
   6.600   1.0522   0.01205   0.00501  -0.0689  0.1116  1.0000  -2.6411   0.0000   0.0000   0.0000   0.3085
   6.700   1.0620   0.01220   0.00513  -0.0688  0.1061  1.0000  -2.7421   0.0000   0.0000   0.0000   0.3076
   6.800   1.0764   0.01183   0.00536  -0.0691  0.1402  1.0000  -2.9100   0.0000   0.0000   0.0000   0.3069
   6.900   1.0871   0.01188   0.00550  -0.0690  0.1440  1.0000  -3.0311   0.0000   0.0000   0.0000   0.3060
   7.000   1.0974   0.01197   0.00563  -0.0689  0.1433  1.0000  -3.1456   0.0000   0.0000   0.0000   0.3052
   7.100   1.1075   0.01208   0.00577  -0.0687  0.1412  1.0000  -3.2591   0.0000   0.0000   0.0000   0.3044
   7.200   1.1173   0.01221   0.00591  -0.0686  0.1377  1.0000  -3.3719   0.0000   0.0000   0.0000   0.3036
   7.300   1.1269   0.01237   0.00605  -0.0684  0.1328  1.0000  -3.4838   0.0000   0.0000   0.0000   0.3028
   7.400   1.1361   0.01258   0.00621  -0.0682  0.1267  1.0000  -3.5944   0.0000   0.0000   0.0000   0.3019
   7.500   1.1452   0.01279   0.00638  -0.0679  0.1192  1.0000  -3.7054   0.0000   0.0000   0.0000   0.3011
   7.600   1.1547   0.01295   0.00654  -0.0677  0.1133  1.0000  -3.8196   0.0000   0.0000   0.0000   0.3003
   7.700   1.1644   0.01309   0.00669  -0.0675  0.1100  1.0000  -3.9364   0.0000   0.0000   0.0000   0.2996
   7.800   1.1738   0.01326   0.00685  -0.0673  0.1050  1.0000  -4.0520   0.0000   0.0000   0.0000   0.2988
   7.900   1.1826   0.01349   0.00703  -0.0671  0.0985  1.0000  -4.1654   0.0000   0.0000   0.0000   0.2980
   8.000   1.1911   0.01375   0.00723  -0.0668  0.0906  1.0000  -4.2776   0.0000   0.0000   0.0000   0.2972
   8.100   1.2004   0.01393   0.00740  -0.0665  0.0847  1.0000  -4.3948   0.0000   0.0000   0.0000   0.2965
   8.200   1.2096   0.01410   0.00756  -0.0663  0.0806  1.0000  -4.5130   0.0000   0.0000   0.0000   0.2957
   8.300   1.2182   0.01435   0.00776  -0.0660  0.0742  1.0000  -4.6271   0.0000   0.0000   0.0000   0.2950
   8.400   1.2258   0.01470   0.00801  -0.0656  0.0643  1.0000  -4.7341   0.0000   0.0000   0.0000   0.2942
   8.500   1.2342   0.01495   0.00822  -0.0653  0.0563  1.0000  -4.8427   0.0000   0.0000   0.0000   0.2934
   8.700   1.2372   0.01705   0.00992  -0.0625  0.0094  1.0000  -4.7573   0.0000   0.0000   0.0000   0.2908
   8.800   1.2453   0.01735   0.01028  -0.0620  0.0091  1.0000  -4.8315   0.0000   0.0000   0.0000   0.2899
   8.900   1.2532   0.01766   0.01066  -0.0615  0.0089  1.0000  -4.9079   0.0000   0.0000   0.0000   0.2890
   9.000   1.2608   0.01800   0.01107  -0.0609  0.0088  1.0000  -4.9842   0.0000   0.0000   0.0000   0.2882
   9.100   1.2681   0.01835   0.01149  -0.0603  0.0087  1.0000  -5.0591   0.0000   0.0000   0.0000   0.2873
   9.200   1.2751   0.01872   0.01193  -0.0597  0.0087  1.0000  -5.1315   0.0000   0.0000   0.0000   0.2864
   9.300   1.2817   0.01913   0.01240  -0.0590  0.0087  1.0000  -5.2011   0.0000   0.0000   0.0000   0.2854
   9.400   1.2879   0.01956   0.01291  -0.0582  0.0087  1.0000  -5.2677   0.0000   0.0000   0.0000   0.2845
   9.500   1.2936   0.02001   0.01344  -0.0574  0.0087  1.0000  -5.3313   0.0000   0.0000   0.0000   0.2835
   9.600   1.2988   0.02050   0.01400  -0.0565  0.0087  1.0000  -5.3916   0.0000   0.0000   0.0000   0.2825
   9.700   1.3035   0.02101   0.01459  -0.0556  0.0088  1.0000  -5.4484   0.0000   0.0000   0.0000   0.2815
   9.800   1.3077   0.02156   0.01521  -0.0545  0.0089  1.0000  -5.5017   0.0000   0.0000   0.0000   0.2804
   9.900   1.3113   0.02213   0.01587  -0.0534  0.0089  1.0000  -5.5512   0.0000   0.0000   0.0000   0.2793
  10.000   1.3140   0.02272   0.01653  -0.0522  0.0090  1.0000  -5.5961   0.0000   0.0000   0.0000   0.2781
  10.100   1.3158   0.02332   0.01721  -0.0508  0.0091  1.0000  -5.6360   0.0000   0.0000   0.0000   0.2769
  10.200   1.3172   0.02396   0.01792  -0.0494  0.0092  1.0000  -5.6728   0.0000   0.0000   0.0000   0.2756
  10.300   1.3182   0.02463   0.01867  -0.0480  0.0093  1.0000  -5.7067   0.0000   0.0000   0.0000   0.2744
  10.400   1.3176   0.02547   0.01966  -0.0463  0.0093  1.0000  -5.7025   0.0000   0.0000   0.0000   0.2730
  10.500   1.3179   0.02625   0.02052  -0.0449  0.0095  1.0000  -5.7264   0.0000   0.0000   0.0000   0.2718
  10.600   1.3183   0.02707   0.02143  -0.0435  0.0096  1.0000  -5.7492   0.0000   0.0000   0.0000   0.2706
  10.700   1.3186   0.02795   0.02239  -0.0422  0.0097  1.0000  -5.7706   0.0000   0.0000   0.0000   0.2695
  10.800   1.3188   0.02888   0.02341  -0.0409  0.0098  1.0000  -5.7894   0.0000   0.0000   0.0000   0.2683
  10.900   1.3187   0.02986   0.02448  -0.0397  0.0100  1.0000  -5.8055   0.0000   0.0000   0.0000   0.2672
  11.000   1.3186   0.03090   0.02562  -0.0384  0.0101  1.0000  -5.8188   0.0000   0.0000   0.0000   0.2662
  11.100   1.3183   0.03202   0.02683  -0.0373  0.0103  1.0000  -5.8287   0.0000   0.0000   0.0000   0.2651
  11.200   1.3175   0.03322   0.02813  -0.0361  0.0105  1.0000  -5.8341   0.0000   0.0000   0.0000   0.2641
  11.300   1.3164   0.03450   0.02952  -0.0350  0.0106  1.0000  -5.8346   0.0000   0.0000   0.0000   0.2631
  11.400   1.3147   0.03588   0.03101  -0.0338  0.0108  1.0000  -5.8295   0.0000   0.0000   0.0000   0.2622
  11.500   1.3124   0.03738   0.03262  -0.0328  0.0110  1.0000  -5.8176   0.0000   0.0000   0.0000   0.2612
  11.600   1.3088   0.03897   0.03432  -0.0316  0.0112  1.0000  -5.7975   0.0000   0.0000   0.0000   0.2603
  11.700   1.3038   0.04069   0.03616  -0.0305  0.0113  1.0000  -5.7674   0.0000   0.0000   0.0000   0.2594
  11.800   1.2974   0.04266   0.03827  -0.0295  0.0115  1.0000  -5.7216   0.0000   0.0000   0.0000   0.2586
  11.900   1.2879   0.04506   0.04082  -0.0284  0.0117  1.0000  -5.6464   0.0000   0.0000   0.0000   0.2578
  12.000   1.2853   0.05035   0.04671  -0.0260  0.0198  1.0000  -5.2041   0.0000   0.0000   0.0000   0.2559
  12.100   1.2727   0.05293   0.04944  -0.0252  0.0206  1.0000  -5.1199   0.0000   0.0000   0.0000   0.2553
  12.200   1.2614   0.05532   0.05195  -0.0247  0.0211  1.0000  -5.0571   0.0000   0.0000   0.0000   0.2550
  12.300   1.2506   0.05760   0.05434  -0.0245  0.0215  1.0000  -5.0065   0.0000   0.0000   0.0000   0.2548
  12.400   1.2401   0.05989   0.05673  -0.0245  0.0218  1.0000  -4.9602   0.0000   0.0000   0.0000   0.2548
  12.500   1.2299   0.06210   0.05902  -0.0246  0.0220  1.0000  -4.9200   0.0000   0.0000   0.0000   0.2549
  12.600   1.2198   0.06431   0.06132  -0.0249  0.0221  1.0000  -4.8825   0.0000   0.0000   0.0000   0.2551
  12.700   1.2100   0.06662   0.06370  -0.0255  0.0223  1.0000  -4.8462   0.0000   0.0000   0.0000   0.2556
  12.800   1.2004   0.06904   0.06620  -0.0262  0.0224  1.0000  -4.8100   0.0000   0.0000   0.0000   0.2562
  12.900   1.1911   0.07152   0.06876  -0.0272  0.0224  1.0000  -4.7753   0.0000   0.0000   0.0000   0.2570
  13.000   1.1820   0.07410   0.07140  -0.0283  0.0225  1.0000  -4.7408   0.0000   0.0000   0.0000   0.2580
  13.100   1.1732   0.07671   0.07408  -0.0296  0.0225  1.0000  -4.7086   0.0000   0.0000   0.0000   0.2591
  13.200   1.1647   0.07940   0.07684  -0.0310  0.0225  1.0000  -4.6756   0.0000   0.0000   0.0000   0.2603
  13.300   1.1566   0.08211   0.07960  -0.0326  0.0225  1.0000  -4.6460   0.0000   0.0000   0.0000   0.2617
  13.400   1.1486   0.08491   0.08246  -0.0342  0.0225  1.0000  -4.6138   0.0000   0.0000   0.0000   0.2632
  13.500   1.1411   0.08770   0.08531  -0.0361  0.0224  1.0000  -4.5862   0.0000   0.0000   0.0000   0.2648
  13.600   1.1335   0.09060   0.08827  -0.0379  0.0224  1.0000  -4.5541   0.0000   0.0000   0.0000   0.2665
  13.700   1.1265   0.09352   0.09123  -0.0399  0.0223  1.0000  -4.5267   0.0000   0.0000   0.0000   0.2684
  13.800   1.1195   0.09653   0.09429  -0.0420  0.0222  1.0000  -4.4947   0.0000   0.0000   0.0000   0.2703
  13.900   1.1128   0.09958   0.09739  -0.0442  0.0220  1.0000  -4.4650   0.0000   0.0000   0.0000   0.2723
  14.000   1.1062   0.10271   0.10056  -0.0464  0.0218  1.0000  -4.4331   0.0000   0.0000   0.0000   0.2744
  14.100   1.0997   0.10588   0.10378  -0.0486  0.0217  1.0000  -4.4004   0.0000   0.0000   0.0000   0.2766
  14.200   1.0936   0.10910   0.10704  -0.0510  0.0214  1.0000  -4.3691   0.0000   0.0000   0.0000   0.2789
  14.300   1.0876   0.11233   0.11031  -0.0533  0.0212  1.0000  -4.3359   0.0000   0.0000   0.0000   0.2811
  14.400   1.0825   0.11549   0.11351  -0.0556  0.0208  1.0000  -4.3129   0.0000   0.0000   0.0000   0.2834
  15.500   0.9816   0.17020   0.16829  -0.0875  0.0211  1.0000  -2.8654   0.0000   0.0000   0.0000   0.3218
  16.400   0.9571   0.20294   0.20097  -0.1008  0.0243  1.0000  -2.1806   0.0000   0.0000   0.0000   0.3377
  16.500   0.9580   0.20543   0.20346  -0.1019  0.0243  1.0000  -2.1607   0.0000   0.0000   0.0000   0.3385
  16.600   0.9591   0.20788   0.20591  -0.1029  0.0242  1.0000  -2.1422   0.0000   0.0000   0.0000   0.3394
  16.700   0.9602   0.21030   0.20833  -0.1039  0.0242  1.0000  -2.1253   0.0000   0.0000   0.0000   0.3402
  16.800   0.9615   0.21268   0.21070  -0.1049  0.0242  1.0000  -2.1100   0.0000   0.0000   0.0000   0.3409
  16.900   0.9629   0.21500   0.21303  -0.1058  0.0241  1.0000  -2.0968   0.0000   0.0000   0.0000   0.3417
  17.000   0.9644   0.21725   0.21527  -0.1068  0.0240  1.0000  -2.0864   0.0000   0.0000   0.0000   0.3424
  17.100   0.9663   0.21936   0.21739  -0.1077  0.0239  1.0000  -2.0805   0.0000   0.0000   0.0000   0.3430
  17.200   0.9688   0.22117   0.21920  -0.1086  0.0237  1.0000  -2.0845   0.0000   0.0000   0.0000   0.3435
  17.300   0.9729   0.22241   0.22044  -0.1094  0.0231  1.0000  -2.1080   0.0000   0.0000   0.0000   0.3437
  17.400   0.9763   0.22405   0.22209  -0.1103  0.0224  1.0000  -2.1168   0.0000   0.0000   0.0000   0.3441
  17.500   0.9782   0.22631   0.22435  -0.1114  0.0217  1.0000  -2.1028   0.0000   0.0000   0.0000   0.3448
  17.600   0.9794   0.22878   0.22681  -0.1125  0.0212  1.0000  -2.0822   0.0000   0.0000   0.0000   0.3457
  17.700   0.9804   0.23128   0.22932  -0.1136  0.0206  1.0000  -2.0614   0.0000   0.0000   0.0000   0.3466
  17.800   0.9814   0.23375   0.23179  -0.1146  0.0202  1.0000  -2.0438   0.0000   0.0000   0.0000   0.3474
  17.900   0.9824   0.23618   0.23422  -0.1156  0.0197  1.0000  -2.0290   0.0000   0.0000   0.0000   0.3482
  18.000   0.9835   0.23858   0.23662  -0.1165  0.0193  1.0000  -2.0165   0.0000   0.0000   0.0000   0.3489
  18.100   0.9846   0.24095   0.23899  -0.1175  0.0189  1.0000  -2.0062   0.0000   0.0000   0.0000   0.3496
  18.200   0.9858   0.24329   0.24133  -0.1183  0.0185  1.0000  -1.9976   0.0000   0.0000   0.0000   0.3502
  18.300   0.9870   0.24561   0.24365  -0.1192  0.0182  1.0000  -1.9908   0.0000   0.0000   0.0000   0.3508
  18.400   0.9882   0.24790   0.24594  -0.1201  0.0178  1.0000  -1.9856   0.0000   0.0000   0.0000   0.3514
  18.500   0.9894   0.25016   0.24821  -0.1209  0.0175  1.0000  -1.9818   0.0000   0.0000   0.0000   0.3519
  18.600   0.9906   0.25241   0.25046  -0.1217  0.0172  1.0000  -1.9793   0.0000   0.0000   0.0000   0.3525
  18.700   0.9918   0.25464   0.25269  -0.1225  0.0170  1.0000  -1.9780   0.0000   0.0000   0.0000   0.3530
  18.800   0.9931   0.25685   0.25491  -0.1233  0.0167  1.0000  -1.9779   0.0000   0.0000   0.0000   0.3535
  18.900   0.9943   0.25905   0.25710  -0.1241  0.0164  1.0000  -1.9790   0.0000   0.0000   0.0000   0.3539
  19.000   0.9955   0.26122   0.25928  -0.1248  0.0162  1.0000  -1.9811   0.0000   0.0000   0.0000   0.3544
  19.100   0.9967   0.26338   0.26144  -0.1256  0.0160  1.0000  -1.9844   0.0000   0.0000   0.0000   0.3548
  19.200   0.9979   0.26552   0.26358  -0.1263  0.0158  1.0000  -1.9888   0.0000   0.0000   0.0000   0.3552
  19.300   0.9992   0.26764   0.26571  -0.1270  0.0156  1.0000  -1.9942   0.0000   0.0000   0.0000   0.3556
  19.400   1.0003   0.26974   0.26781  -0.1277  0.0154  1.0000  -2.0006   0.0000   0.0000   0.0000   0.3560
  19.500   1.0015   0.27182   0.26990  -0.1284  0.0152  1.0000  -2.0082   0.0000   0.0000   0.0000   0.3564
  19.600   1.0027   0.27389   0.27197  -0.1290  0.0150  1.0000  -2.0167   0.0000   0.0000   0.0000   0.3567
  19.700   1.0038   0.27593   0.27402  -0.1297  0.0148  1.0000  -2.0263   0.0000   0.0000   0.0000   0.3570
  19.800   1.0049   0.27796   0.27605  -0.1303  0.0147  1.0000  -2.0369   0.0000   0.0000   0.0000   0.3573
  19.900   1.0060   0.27996   0.27810  -0.1309  0.0145  1.0000  -2.0443   0.0000   0.0000   0.0000   0.3576
  20.000   1.0070   0.28194   0.28009  -0.1315  0.0144  1.0000  -2.0557   0.0000   0.0000   0.0000   0.3579
  20.100   1.0080   0.28391   0.28206  -0.1320  0.0142  1.0000  -2.0688   0.0000   0.0000   0.0000   0.3581
  20.200   1.0090   0.28586   0.28402  -0.1325  0.0141  1.0000  -2.0830   0.0000   0.0000   0.0000   0.3583
  20.300   1.0099   0.28779   0.28596  -0.1331  0.0140  1.0000  -2.0982   0.0000   0.0000   0.0000   0.3585
  20.400   1.0107   0.28972   0.28789  -0.1335  0.0138  1.0000  -2.1137   0.0000   0.0000   0.0000   0.3587
  20.500   1.0114   0.29166   0.28984  -0.1340  0.0137  1.0000  -2.1284   0.0000   0.0000   0.0000   0.3589
  20.600   1.0119   0.29359   0.29178  -0.1345  0.0136  1.0000  -2.1430   0.0000   0.0000   0.0000   0.3591
  20.700   1.0118   0.29572   0.29392  -0.1350  0.0135  1.0000  -2.1474   0.0000   0.0000   0.0000   0.3595
  20.800   1.0114   0.29790   0.29610  -0.1355  0.0133  1.0000  -2.1487   0.0000   0.0000   0.0000   0.3599
  20.900   1.0105   0.30015   0.29836  -0.1360  0.0132  1.0000  -2.1454   0.0000   0.0000   0.0000   0.3603
  21.000   1.0086   0.30263   0.30084  -0.1365  0.0130  1.0000  -2.1312   0.0000   0.0000   0.0000   0.3609
  22.200   0.8901   0.30602   0.30441  -0.1325  0.0121  1.0000  -1.4141   0.0000   0.0000   0.0000   0.3750
  22.300   0.8877   0.30652   0.30493  -0.1328  0.0121  1.0000  -1.3987   0.0000   0.0000   0.0000   0.3756
  22.400   0.8856   0.30705   0.30546  -0.1330  0.0121  1.0000  -1.3840   0.0000   0.0000   0.0000   0.3761
  22.500   0.8836   0.30758   0.30600  -0.1333  0.0121  1.0000  -1.3701   0.0000   0.0000   0.0000   0.3767
  22.600   0.8817   0.30813   0.30656  -0.1336  0.0121  1.0000  -1.3570   0.0000   0.0000   0.0000   0.3772
  22.700   0.8800   0.30869   0.30713  -0.1339  0.0121  1.0000  -1.3445   0.0000   0.0000   0.0000   0.3778
  22.800   0.8784   0.30927   0.30771  -0.1342  0.0120  1.0000  -1.3327   0.0000   0.0000   0.0000   0.3783
  22.900   0.8769   0.30985   0.30830  -0.1346  0.0120  1.0000  -1.3213   0.0000   0.0000   0.0000   0.3788
  23.000   0.8755   0.31043   0.30889  -0.1349  0.0120  1.0000  -1.3101   0.0000   0.0000   0.0000   0.3793
  23.100   0.8741   0.31103   0.30949  -0.1352  0.0120  1.0000  -1.2992   0.0000   0.0000   0.0000   0.3798
  23.200   0.8728   0.31164   0.31011  -0.1355  0.0120  1.0000  -1.2884   0.0000   0.0000   0.0000   0.3802
  23.300   0.8716   0.31225   0.31073  -0.1358  0.0120  1.0000  -1.2780   0.0000   0.0000   0.0000   0.3807
  23.400   0.8704   0.31286   0.31135  -0.1362  0.0119  1.0000  -1.2679   0.0000   0.0000   0.0000   0.3812
  23.500   0.8693   0.31349   0.31198  -0.1365  0.0119  1.0000  -1.2582   0.0000   0.0000   0.0000   0.3816
  23.600   0.8683   0.31412   0.31262  -0.1368  0.0119  1.0000  -1.2489   0.0000   0.0000   0.0000   0.3820
  23.700   0.8674   0.31475   0.31326  -0.1372  0.0119  1.0000  -1.2400   0.0000   0.0000   0.0000   0.3825
  23.800   0.8665   0.31539   0.31390  -0.1375  0.0119  1.0000  -1.2314   0.0000   0.0000   0.0000   0.3829
  23.900   0.8657   0.31603   0.31455  -0.1379  0.0118  1.0000  -1.2231   0.0000   0.0000   0.0000   0.3833
  24.000   0.8649   0.31668   0.31520  -0.1383  0.0118  1.0000  -1.2148   0.0000   0.0000   0.0000   0.3838
  24.100   0.8642   0.31733   0.31586  -0.1386  0.0118  1.0000  -1.2070   0.0000   0.0000   0.0000   0.3842
  24.200   0.8636   0.31799   0.31653  -0.1390  0.0117  1.0000  -1.1998   0.0000   0.0000   0.0000   0.3846
  24.300   0.8630   0.31865   0.31720  -0.1394  0.0117  1.0000  -1.1932   0.0000   0.0000   0.0000   0.3850
  24.400   0.8626   0.31934   0.31789  -0.1399  0.0116  1.0000  -1.1864   0.0000   0.0000   0.0000   0.3854
  24.500   0.8623   0.32006   0.31862  -0.1404  0.0115  1.0000  -1.1782   0.0000   0.0000   0.0000   0.3859
  24.600   0.8624   0.32086   0.31942  -0.1409  0.0113  1.0000  -1.1705   0.0000   0.0000   0.0000   0.3864
  24.700   0.8639   0.32198   0.32054  -0.1418  0.0107  1.0000  -1.1599   0.0000   0.0000   0.0000   0.3870
  24.800   0.8651   0.32311   0.32168  -0.1424  0.0093  1.0000  -1.1514   0.0000   0.0000   0.0000   0.3873
  24.900   0.8649   0.32380   0.32237  -0.1428  0.0083  1.0000  -1.1636   0.0000   0.0000   0.0000   0.3877
  25.000   0.8647   0.32436   0.32294  -0.1432  0.0075  1.0000  -1.1847   0.0000   0.0000   0.0000   0.3880
  25.100   0.8646   0.32485   0.32343  -0.1436  0.0069  1.0000  -1.2119   0.0000   0.0000   0.0000   0.3882
  25.200   0.8646   0.32526   0.32385  -0.1439  0.0064  1.0000  -1.2447   0.0000   0.0000   0.0000   0.3884
  25.300   0.8647   0.32561   0.32421  -0.1443  0.0060  1.0000  -1.2827   0.0000   0.0000   0.0000   0.3886
  25.400   0.8648   0.32590   0.32450  -0.1447  0.0056  1.0000  -1.3252   0.0000   0.0000   0.0000   0.3887
  25.500   0.8651   0.32613   0.32474  -0.1450  0.0054  1.0000  -1.3720   0.0000   0.0000   0.0000   0.3888
  25.600   0.8653   0.32630   0.32492  -0.1453  0.0051  1.0000  -1.4228   0.0000   0.0000   0.0000   0.3888
  25.700   0.8656   0.32640   0.32503  -0.1456  0.0050  1.0000  -1.4777   0.0000   0.0000   0.0000   0.3888
  25.800   0.8659   0.32643   0.32507  -0.1458  0.0048  1.0000  -1.5369   0.0000   0.0000   0.0000   0.3887
  25.900   0.8553   0.32881   0.32742  -0.1457  0.0039  1.0000  -1.3023   0.0000   0.0000   0.0000   0.3910
  26.000   0.8551   0.32966   0.32827  -0.1462  0.0039  1.0000  -1.3002   0.0000   0.0000   0.0000   0.3914
  26.100   0.8550   0.33050   0.32911  -0.1466  0.0038  1.0000  -1.2987   0.0000   0.0000   0.0000   0.3918
  26.200   0.8549   0.33133   0.32994  -0.1470  0.0037  1.0000  -1.2964   0.0000   0.0000   0.0000   0.3922
  26.300   0.8546   0.33216   0.33078  -0.1474  0.0037  1.0000  -1.2908   0.0000   0.0000   0.0000   0.3925
  26.400   0.8542   0.33300   0.33162  -0.1478  0.0036  1.0000  -1.2803   0.0000   0.0000   0.0000   0.3929
  26.500   0.8535   0.33384   0.33246  -0.1481  0.0036  1.0000  -1.2650   0.0000   0.0000   0.0000   0.3932


