xflr5 v6.61

 Calculated polar for: SD7003-085-88

 1 1 Reynolds number fixed          Mach number fixed         

 xtrf =   1.000 (top)        1.000 (bottom)
 Mach =   0.000     Re =     0.130 e 6     Ncrit =   9.000

  alpha     CL        CD       CDp       Cm    Top Xtr Bot Xtr   Cpmin    Chinge    XCp    
 ------- -------- --------- --------- -------- ------- ------- -------- --------- ---------
 -10.000  -0.5335   0.11602   0.11138   0.0050  1.0000  0.0523  -1.5775   0.0000   0.0000   0.0000   0.2545
  -9.900  -0.5313   0.11453   0.10989   0.0046  1.0000  0.0526  -1.5733   0.0000   0.0000   0.0000   0.2538
  -9.800  -0.5293   0.11303   0.10841   0.0042  1.0000  0.0530  -1.5705   0.0000   0.0000   0.0000   0.2531
  -9.700  -0.5274   0.11153   0.10692   0.0037  1.0000  0.0533  -1.5692   0.0000   0.0000   0.0000   0.2522
  -9.600  -0.5257   0.11003   0.10543   0.0032  1.0000  0.0536  -1.5691   0.0000   0.0000   0.0000   0.2514
  -9.500  -0.5240   0.10852   0.10393   0.0027  1.0000  0.0539  -1.5703   0.0000   0.0000   0.0000   0.2504
  -9.400  -0.5225   0.10700   0.10243   0.0021  1.0000  0.0542  -1.5729   0.0000   0.0000   0.0000   0.2494
  -9.300  -0.5212   0.10548   0.10091   0.0015  1.0000  0.0544  -1.5767   0.0000   0.0000   0.0000   0.2483
  -9.200  -0.5200   0.10394   0.09939   0.0009  1.0000  0.0547  -1.5819   0.0000   0.0000   0.0000   0.2472
  -9.100  -0.5189   0.10239   0.09785   0.0002  1.0000  0.0549  -1.5886   0.0000   0.0000   0.0000   0.2459
  -9.000  -0.5181   0.10082   0.09630  -0.0005  1.0000  0.0551  -1.5969   0.0000   0.0000   0.0000   0.2447
  -8.900  -0.5174   0.09924   0.09473  -0.0012  1.0000  0.0553  -1.6070   0.0000   0.0000   0.0000   0.2433
  -8.800  -0.5169   0.09763   0.09314  -0.0020  1.0000  0.0554  -1.6192   0.0000   0.0000   0.0000   0.2419
  -8.700  -0.5167   0.09598   0.09151  -0.0028  1.0000  0.0555  -1.6338   0.0000   0.0000   0.0000   0.2403
  -8.600  -0.5166   0.09427   0.08981  -0.0038  1.0000  0.0554  -1.6514   0.0000   0.0000   0.0000   0.2386
  -8.500  -0.5168   0.09250   0.08806  -0.0048  1.0000  0.0553  -1.6729   0.0000   0.0000   0.0000   0.2367
  -8.400  -0.5175   0.09064   0.08622  -0.0059  1.0000  0.0550  -1.6999   0.0000   0.0000   0.0000   0.2345
  -8.200  -0.5219   0.08486   0.08044  -0.0106  1.0000  0.0435  -1.9166   0.0000   0.0000   0.0000   0.2256
  -8.100  -0.5228   0.08287   0.07848  -0.0108  1.0000  0.0414  -1.9310   0.0000   0.0000   0.0000   0.2252
  -8.000  -0.5247   0.08076   0.07639  -0.0118  1.0000  0.0398  -1.9665   0.0000   0.0000   0.0000   0.2235
  -7.900  -0.5277   0.07846   0.07412  -0.0132  1.0000  0.0384  -2.0170   0.0000   0.0000   0.0000   0.2210
  -7.800  -0.5319   0.07593   0.07162  -0.0152  1.0000  0.0371  -2.0828   0.0000   0.0000   0.0000   0.2176
  -7.700  -0.5368   0.07280   0.06851  -0.0184  1.0000  0.0358  -2.1733   0.0000   0.0000   0.0000   0.2120
  -7.600  -0.5436   0.06755   0.06324  -0.0243  1.0000  0.0338  -2.3581   0.0000   0.0000   0.0000   0.2014
  -7.300  -0.5403   0.05651   0.05178  -0.0327  1.0000  0.0278  -2.7810   0.0000   0.0000   0.0000   0.1854
  -7.200  -0.5431   0.05350   0.04869  -0.0338  1.0000  0.0273  -2.8503   0.0000   0.0000   0.0000   0.1837
  -7.100  -0.5439   0.05081   0.04590  -0.0347  1.0000  0.0269  -2.9056   0.0000   0.0000   0.0000   0.1820
  -7.000  -0.5437   0.04826   0.04323  -0.0355  1.0000  0.0266  -2.9548   0.0000   0.0000   0.0000   0.1805
  -6.900  -0.5424   0.04580   0.04063  -0.0362  1.0000  0.0263  -3.0008   0.0000   0.0000   0.0000   0.1792
  -6.800  -0.5403   0.04343   0.03810  -0.0366  1.0000  0.0261  -3.0429   0.0000   0.0000   0.0000   0.1781
  -6.700  -0.5373   0.04116   0.03565  -0.0369  1.0000  0.0258  -3.0809   0.0000   0.0000   0.0000   0.1771
  -6.600  -0.5336   0.03898   0.03328  -0.0371  1.0000  0.0256  -3.1144   0.0000   0.0000   0.0000   0.1763
  -6.500  -0.5291   0.03691   0.03101  -0.0372  1.0000  0.0255  -3.1432   0.0000   0.0000   0.0000   0.1755
  -6.400  -0.5238   0.03495   0.02884  -0.0372  1.0000  0.0254  -3.1665   0.0000   0.0000   0.0000   0.1749
  -6.300  -0.5179   0.03312   0.02679  -0.0371  1.0000  0.0253  -3.1840   0.0000   0.0000   0.0000   0.1743
  -6.200  -0.5114   0.03142   0.02486  -0.0369  1.0000  0.0254  -3.1953   0.0000   0.0000   0.0000   0.1738
  -6.100  -0.5042   0.02984   0.02307  -0.0366  1.0000  0.0255  -3.2000   0.0000   0.0000   0.0000   0.1733
  -6.000  -0.4966   0.02841   0.02142  -0.0363  1.0000  0.0257  -3.1982   0.0000   0.0000   0.0000   0.1728
  -5.900  -0.4885   0.02710   0.01992  -0.0359  1.0000  0.0261  -3.1895   0.0000   0.0000   0.0000   0.1723
  -5.800  -0.4800   0.02594   0.01858  -0.0356  1.0000  0.0266  -3.1731   0.0000   0.0000   0.0000   0.1718
  -5.700  -0.4711   0.02497   0.01744  -0.0352  1.0000  0.0271  -3.1462   0.0000   0.0000   0.0000   0.1712
  -5.600  -0.4618   0.02423   0.01656  -0.0348  1.0000  0.0278  -3.1059   0.0000   0.0000   0.0000   0.1706
  -5.500  -0.4527   0.02333   0.01553  -0.0344  1.0000  0.0285  -3.0730   0.0000   0.0000   0.0000   0.1699
  -5.400  -0.4457   0.02092   0.01287  -0.0340  1.0000  0.0308  -3.1221   0.0000   0.0000   0.0000   0.1697
  -5.300  -0.4369   0.02016   0.01209  -0.0336  1.0000  0.0332  -3.0641   0.0000   0.0000   0.0000   0.1690
  -5.200  -0.4275   0.01980   0.01173  -0.0334  1.0000  0.0354  -2.9803   0.0000   0.0000   0.0000   0.1680
  -5.100  -0.4181   0.01933   0.01121  -0.0330  1.0000  0.0368  -2.8982   0.0000   0.0000   0.0000   0.1671
  -5.000  -0.4089   0.01835   0.00989  -0.0325  1.0000  0.0355  -2.8663   0.0000   0.0000   0.0000   0.1667
  -4.900  -0.3992   0.01804   0.00959  -0.0321  1.0000  0.0394  -2.8095   0.0000   0.0000   0.0000   0.1656
  -4.800  -0.3894   0.01767   0.00918  -0.0317  1.0000  0.0445  -2.7763   0.0000   0.0000   0.0000   0.1646
  -4.700  -0.3806   0.01675   0.00827  -0.0313  1.0000  0.0528  -2.7868   0.0000   0.0000   0.0000   0.1640
  -4.600  -0.3710   0.01646   0.00804  -0.0311  1.0000  0.0616  -2.7414   0.0000   0.0000   0.0000   0.1625
  -4.500  -0.3609   0.01647   0.00802  -0.0308  1.0000  0.0692  -2.6753   0.0000   0.0000   0.0000   0.1609
  -4.400  -0.3519   0.01611   0.00774  -0.0307  1.0000  0.0790  -2.6111   0.0000   0.0000   0.0000   0.1592
  -4.300  -0.3424   0.01635   0.00809  -0.0307  1.0000  0.0901  -2.5131   0.0000   0.0000   0.0000   0.1568
  -4.200  -0.3325   0.01677   0.00850  -0.0306  1.0000  0.0991  -2.4252   0.0000   0.0000   0.0000   0.1546
  -4.100  -0.3237   0.01604   0.00783  -0.0303  1.0000  0.1092  -2.3780   0.0000   0.0000   0.0000   0.1528
  -4.000  -0.3145   0.01593   0.00781  -0.0302  1.0000  0.1182  -2.3075   0.0000   0.0000   0.0000   0.1507
  -3.900  -0.3048   0.01580   0.00768  -0.0299  1.0000  0.1253  -2.2461   0.0000   0.0000   0.0000   0.1486
  -3.800  -0.2950   0.01558   0.00741  -0.0296  1.0000  0.1301  -2.1912   0.0000   0.0000   0.0000   0.1465
  -3.700  -0.2851   0.01540   0.00718  -0.0292  1.0000  0.1334  -2.1353   0.0000   0.0000   0.0000   0.1442
  -3.600  -0.2758   0.01463   0.00645  -0.0289  1.0000  0.1418  -2.0939   0.0000   0.0000   0.0000   0.1420
  -3.500  -0.2664   0.01424   0.00615  -0.0286  1.0000  0.1503  -2.0394   0.0000   0.0000   0.0000   0.1393
  -3.400  -0.2569   0.01403   0.00597  -0.0283  1.0000  0.1597  -1.9802   0.0000   0.0000   0.0000   0.1364
  -3.300  -0.2471   0.01391   0.00581  -0.0281  1.0000  0.1691  -1.9213   0.0000   0.0000   0.0000   0.1332
  -3.200  -0.2378   0.01340   0.00545  -0.0278  1.0000  0.1857  -1.8708   0.0000   0.0000   0.0000   0.1299
  -3.100  -0.2284   0.01313   0.00526  -0.0275  1.0000  0.2031  -1.8147   0.0000   0.0000   0.0000   0.1262
  -3.000  -0.2189   0.01273   0.00501  -0.0273  1.0000  0.2284  -1.7627   0.0000   0.0000   0.0000   0.1221
  -2.900  -0.2095   0.01238   0.00482  -0.0271  1.0000  0.2624  -1.7085   0.0000   0.0000   0.0000   0.1175
  -2.800  -0.2003   0.01199   0.00468  -0.0269  1.0000  0.3087  -1.6534   0.0000   0.0000   0.0000   0.1127
  -2.700  -0.1914   0.01163   0.00459  -0.0266  1.0000  0.3611  -1.5972   0.0000   0.0000   0.0000   0.1077
  -2.600  -0.1827   0.01131   0.00453  -0.0263  1.0000  0.4145  -1.5406   0.0000   0.0000   0.0000   0.1029
  -2.500  -0.1741   0.01105   0.00451  -0.0258  1.0000  0.4674  -1.4843   0.0000   0.0000   0.0000   0.0985
  -2.400  -0.1658   0.01082   0.00451  -0.0253  1.0000  0.5189  -1.4288   0.0000   0.0000   0.0000   0.0945
  -2.300  -0.1579   0.01063   0.00453  -0.0246  1.0000  0.5697  -1.3743   0.0000   0.0000   0.0000   0.0913
  -2.200  -0.1505   0.01047   0.00457  -0.0237  1.0000  0.6200  -1.3213   0.0000   0.0000   0.0000   0.0895
  -2.100  -0.1434   0.01035   0.00463  -0.0227  1.0000  0.6674  -1.2696   0.0000   0.0000   0.0000   0.0889
  -2.000  -0.1372   0.01026   0.00470  -0.0214  1.0000  0.7093  -1.2204   0.0000   0.0000   0.0000   0.0908
  -1.900  -0.1313   0.01020   0.00476  -0.0201  1.0000  0.7453  -1.1723   0.0000   0.0000   0.0000   0.0938
  -1.800  -0.1253   0.01017   0.00482  -0.0188  1.0000  0.7781  -1.1245   0.0000   0.0000   0.0000   0.0967
  -1.700  -0.1194   0.01016   0.00486  -0.0176  1.0000  0.8097  -1.0771   0.0000   0.0000   0.0000   0.0998
  -1.600  -0.1141   0.01013   0.00491  -0.0161  1.0000  0.8384  -1.0312   0.0000   0.0000   0.0000   0.1061
  -1.500  -0.1082   0.01012   0.00495  -0.0148  1.0000  0.8669  -0.9828   0.0000   0.0000   0.0000   0.1100
  -1.400  -0.1008   0.01011   0.00497  -0.0139  1.0000  0.8983  -0.9261   0.0000   0.0000   0.0000   0.1090
  -1.300  -0.0856   0.01008   0.00487  -0.0144  1.0000  0.9410  -0.8279   0.0000   0.0000   0.0000   0.0781
  -1.200  -0.0625   0.01002   0.00477  -0.0170  1.0000  1.0000  -0.7725   0.0000   0.0000   0.0000  -0.0262
  -1.100  -0.0539   0.01008   0.00477  -0.0171  0.9997  1.0000  -0.7429   0.0000   0.0000   0.0000  -0.0712
  -1.000  -0.0308   0.01016   0.00479  -0.0197  0.9945  1.0000  -0.6890   0.0000   0.0000   0.0000  -0.3962
  -0.900  -0.0077   0.01024   0.00480  -0.0223  0.9894  1.0000  -0.6382   0.0000   0.0000   0.0000  -2.6728
  -0.800   0.0145   0.01029   0.00479  -0.0246  0.9836  1.0000  -0.5985   0.0000   0.0000   0.0000   1.9530
  -0.700   0.0367   0.01033   0.00478  -0.0270  0.9776  1.0000  -0.5590   0.0000   0.0000   0.0000   0.9859
  -0.600   0.0604   0.01037   0.00477  -0.0295  0.9731  1.0000  -0.5182   0.0000   0.0000   0.0000   0.7396
  -0.500   0.0793   0.01036   0.00473  -0.0311  0.9658  1.0000  -0.4834   0.0000   0.0000   0.0000   0.6426
  -0.400   0.1006   0.01036   0.00469  -0.0332  0.9595  1.0000  -0.4462   0.0000   0.0000   0.0000   0.5795
  -0.300   0.1243   0.01033   0.00463  -0.0356  0.9546  1.0000  -0.4434   0.0000   0.0000   0.0000   0.5361
  -0.200   0.1444   0.01030   0.00457  -0.0373  0.9477  1.0000  -0.4611   0.0000   0.0000   0.0000   0.5078
  -0.100   0.1621   0.01026   0.00451  -0.0385  0.9387  1.0000  -0.4797   0.0000   0.0000   0.0000   0.4869
   0.000   0.1829   0.01020   0.00443  -0.0403  0.9316  1.0000  -0.5007   0.0000   0.0000   0.0000   0.4693
   0.100   0.2035   0.01015   0.00436  -0.0420  0.9251  1.0000  -0.5218   0.0000   0.0000   0.0000   0.4553
   0.200   0.2162   0.01013   0.00432  -0.0422  0.9133  1.0000  -0.5371   0.0000   0.0000   0.0000   0.4439
   0.300   0.2330   0.01008   0.00424  -0.0431  0.9039  1.0000  -0.5556   0.0000   0.0000   0.0000   0.4336
   0.400   0.2519   0.01003   0.00415  -0.0443  0.8959  1.0000  -0.5760   0.0000   0.0000   0.0000   0.4245
   0.500   0.2613   0.01003   0.00413  -0.0438  0.8818  1.0000  -0.5890   0.0000   0.0000   0.0000   0.4162
   0.600   0.2747   0.01000   0.00406  -0.0439  0.8700  1.0000  -0.6076   0.0000   0.0000   0.0000   0.4084
   0.700   0.2886   0.00998   0.00400  -0.0441  0.8595  1.0000  -0.6274   0.0000   0.0000   0.0000   0.4013
   0.800   0.2974   0.01001   0.00400  -0.0435  0.8453  1.0000  -0.6427   0.0000   0.0000   0.0000   0.3946
   0.900   0.3084   0.01002   0.00396  -0.0431  0.8329  1.0000  -0.6601   0.0000   0.0000   0.0000   0.3882
   1.000   0.3201   0.01005   0.00391  -0.0428  0.8221  1.0000  -0.6783   0.0000   0.0000   0.0000   0.3822
   1.100   0.3288   0.01009   0.00394  -0.0423  0.8083  1.0000  -0.6936   0.0000   0.0000   0.0000   0.3769
   1.200   0.3386   0.01013   0.00393  -0.0417  0.7949  1.0000  -0.7101   0.0000   0.0000   0.0000   0.3715
   1.300   0.3488   0.01018   0.00389  -0.0412  0.7827  1.0000  -0.7273   0.0000   0.0000   0.0000   0.3663
   1.400   0.3583   0.01024   0.00395  -0.0407  0.7697  1.0000  -0.7436   0.0000   0.0000   0.0000   0.3618
   1.500   0.3678   0.01029   0.00396  -0.0402  0.7559  1.0000  -0.7600   0.0000   0.0000   0.0000   0.3574
   1.600   0.3775   0.01036   0.00394  -0.0396  0.7431  1.0000  -0.7769   0.0000   0.0000   0.0000   0.3530
   1.700   0.3874   0.01045   0.00394  -0.0392  0.7311  1.0000  -0.7940   0.0000   0.0000   0.0000   0.3491
   1.800   0.3972   0.01050   0.00399  -0.0388  0.7182  1.0000  -0.8144   0.0000   0.0000   0.0000   0.3456
   1.900   0.4069   0.01057   0.00400  -0.0384  0.7052  1.0000  -0.8351   0.0000   0.0000   0.0000   0.3421
   2.000   0.4167   0.01067   0.00400  -0.0378  0.6930  1.0000  -0.8561   0.0000   0.0000   0.0000   0.3386
   2.100   0.4267   0.01077   0.00404  -0.0375  0.6809  1.0000  -0.8772   0.0000   0.0000   0.0000   0.3356
   2.200   0.4366   0.01083   0.00408  -0.0371  0.6674  1.0000  -0.8982   0.0000   0.0000   0.0000   0.3328
   2.300   0.4463   0.01092   0.00409  -0.0367  0.6539  1.0000  -0.9194   0.0000   0.0000   0.0000   0.3298
   2.400   0.4560   0.01105   0.00410  -0.0362  0.6409  1.0000  -0.9408   0.0000   0.0000   0.0000   0.3269
   2.500   0.4661   0.01113   0.00416  -0.0359  0.6285  1.0000  -0.9622   0.0000   0.0000   0.0000   0.3245
   2.600   0.4761   0.01120   0.00421  -0.0356  0.6152  1.0000  -0.9844   0.0000   0.0000   0.0000   0.3222
   2.700   0.4860   0.01131   0.00424  -0.0352  0.6023  1.0000  -1.0107   0.0000   0.0000   0.0000   0.3198
   2.800   0.4957   0.01147   0.00427  -0.0348  0.5899  1.0000  -1.0371   0.0000   0.0000   0.0000   0.3175
   2.900   0.5060   0.01156   0.00436  -0.0345  0.5784  1.0000  -1.0639   0.0000   0.0000   0.0000   0.3155
   3.000   0.5162   0.01164   0.00443  -0.0343  0.5657  1.0000  -1.0909   0.0000   0.0000   0.0000   0.3136
   3.100   0.5261   0.01175   0.00447  -0.0339  0.5526  1.0000  -1.1178   0.0000   0.0000   0.0000   0.3116
   3.200   0.5357   0.01193   0.00451  -0.0335  0.5394  1.0000  -1.1447   0.0000   0.0000   0.0000   0.3096
   3.300   0.5459   0.01204   0.00460  -0.0333  0.5274  1.0000  -1.1721   0.0000   0.0000   0.0000   0.3080
   3.400   0.5561   0.01212   0.00468  -0.0330  0.5146  1.0000  -1.1997   0.0000   0.0000   0.0000   0.3064
   3.500   0.5660   0.01224   0.00473  -0.0327  0.5015  1.0000  -1.2272   0.0000   0.0000   0.0000   0.3047
   3.600   0.5756   0.01244   0.00480  -0.0323  0.4885  1.0000  -1.2546   0.0000   0.0000   0.0000   0.3030
   3.700   0.5859   0.01258   0.00492  -0.0321  0.4772  1.0000  -1.2824   0.0000   0.0000   0.0000   0.3016
   3.800   0.5962   0.01267   0.00503  -0.0320  0.4659  1.0000  -1.3106   0.0000   0.0000   0.0000   0.3003
   3.900   0.6063   0.01280   0.00512  -0.0317  0.4538  1.0000  -1.3387   0.0000   0.0000   0.0000   0.2989
   4.000   0.6159   0.01299   0.00520  -0.0313  0.4414  1.0000  -1.3666   0.0000   0.0000   0.0000   0.2974
   4.100   0.6259   0.01321   0.00534  -0.0311  0.4291  1.0000  -1.3945   0.0000   0.0000   0.0000   0.2961
   4.200   0.6363   0.01329   0.00546  -0.0309  0.4182  1.0000  -1.4289   0.0000   0.0000   0.0000   0.2950
   4.300   0.6463   0.01341   0.00555  -0.0307  0.4059  1.0000  -1.4665   0.0000   0.0000   0.0000   0.2938
   4.400   0.6559   0.01360   0.00564  -0.0304  0.3935  1.0000  -1.5037   0.0000   0.0000   0.0000   0.2925
   4.500   0.6656   0.01389   0.00581  -0.0301  0.3805  1.0000  -1.5436   0.0000   0.0000   0.0000   0.2914
   4.600   0.6760   0.01396   0.00595  -0.0300  0.3708  1.0000  -1.5941   0.0000   0.0000   0.0000   0.2904
   4.700   0.6862   0.01409   0.00608  -0.0298  0.3599  1.0000  -1.6446   0.0000   0.0000   0.0000   0.2893
   4.800   0.6959   0.01429   0.00619  -0.0295  0.3491  1.0000  -1.6947   0.0000   0.0000   0.0000   0.2883
   4.900   0.7053   0.01465   0.00641  -0.0292  0.3365  1.0000  -1.7435   0.0000   0.0000   0.0000   0.2872
   5.000   0.7157   0.01481   0.00660  -0.0291  0.3279  1.0000  -1.7948   0.0000   0.0000   0.0000   0.2863
   5.100   0.7259   0.01496   0.00713  -0.0288  0.3162  1.0000  -1.7977   0.0000   0.0000   0.0000   0.2853
   5.200   0.7357   0.01513   0.00727  -0.0286  0.3058  1.0000  -1.8659   0.0000   0.0000   0.0000   0.2844
   5.300   0.7450   0.01545   0.00746  -0.0283  0.2945  1.0000  -1.9445   0.0000   0.0000   0.0000   0.2834
   5.400   0.7549   0.01577   0.00774  -0.0281  0.2841  1.0000  -2.0233   0.0000   0.0000   0.0000   0.2826
   5.500   0.7652   0.01586   0.00790  -0.0279  0.2757  1.0000  -2.1055   0.0000   0.0000   0.0000   0.2818
   5.600   0.7751   0.01600   0.00806  -0.0277  0.2665  1.0000  -2.1875   0.0000   0.0000   0.0000   0.2809
   5.700   0.7847   0.01623   0.00822  -0.0275  0.2573  1.0000  -2.2684   0.0000   0.0000   0.0000   0.2801
   5.800   0.7938   0.01674   0.00859  -0.0272  0.2462  1.0000  -2.3450   0.0000   0.0000   0.0000   0.2793
   5.900   0.8039   0.01699   0.00889  -0.0270  0.2394  1.0000  -2.4265   0.0000   0.0000   0.0000   0.2785
   6.000   0.8141   0.01715   0.00911  -0.0268  0.2325  1.0000  -2.5100   0.0000   0.0000   0.0000   0.2778
   6.100   0.8241   0.01733   0.00931  -0.0266  0.2247  1.0000  -2.5941   0.0000   0.0000   0.0000   0.2770
   6.200   0.8336   0.01755   0.00950  -0.0264  0.2167  1.0000  -2.6783   0.0000   0.0000   0.0000   0.2763
   6.300   0.8425   0.01805   0.00987  -0.0261  0.2069  1.0000  -2.7578   0.0000   0.0000   0.0000   0.2755
   6.400   0.8521   0.01845   0.01028  -0.0259  0.1993  1.0000  -2.8396   0.0000   0.0000   0.0000   0.2748
   6.500   0.8621   0.01854   0.01045  -0.0257  0.1928  1.0000  -2.9275   0.0000   0.0000   0.0000   0.2742
   6.600   0.8719   0.01870   0.01063  -0.0255  0.1855  1.0000  -3.0153   0.0000   0.0000   0.0000   0.2735
   6.700   0.8814   0.01892   0.01084  -0.0253  0.1786  1.0000  -3.1027   0.0000   0.0000   0.0000   0.2728
   6.800   0.8902   0.01939   0.01121  -0.0250  0.1713  1.0000  -3.1851   0.0000   0.0000   0.0000   0.2721
   6.900   0.8991   0.02023   0.01201  -0.0248  0.1633  1.0000  -3.2593   0.0000   0.0000   0.0000   0.2714
   7.000   0.9091   0.02037   0.01226  -0.0245  0.1590  1.0000  -3.3475   0.0000   0.0000   0.0000   0.2708
   7.100   0.9188   0.02058   0.01254  -0.0243  0.1533  1.0000  -3.4351   0.0000   0.0000   0.0000   0.2701
   7.200   0.9283   0.02080   0.01277  -0.0240  0.1471  1.0000  -3.5239   0.0000   0.0000   0.0000   0.2695
   7.300   0.9373   0.02105   0.01299  -0.0238  0.1411  1.0000  -3.6137   0.0000   0.0000   0.0000   0.2689
   7.400   0.9454   0.02177   0.01360  -0.0235  0.1335  1.0000  -3.6925   0.0000   0.0000   0.0000   0.2682
   7.500   0.9543   0.02245   0.01432  -0.0232  0.1278  1.0000  -3.7702   0.0000   0.0000   0.0000   0.2676
   7.600   0.9639   0.02255   0.01451  -0.0230  0.1234  1.0000  -3.8620   0.0000   0.0000   0.0000   0.2670
   7.700   0.9732   0.02277   0.01478  -0.0227  0.1182  1.0000  -3.9517   0.0000   0.0000   0.0000   0.2664
   7.800   0.9823   0.02307   0.01510  -0.0225  0.1134  1.0000  -4.0397   0.0000   0.0000   0.0000   0.2658
   7.900   0.9911   0.02343   0.01546  -0.0222  0.1091  1.0000  -4.1268   0.0000   0.0000   0.0000   0.2652
   8.000   0.9992   0.02413   0.01610  -0.0219  0.1043  1.0000  -4.2049   0.0000   0.0000   0.0000   0.2646
   8.100   1.0061   0.02588   0.01788  -0.0215  0.0988  1.0000  -4.2493   0.0000   0.0000   0.0000   0.2639
   8.200   1.0155   0.02612   0.01823  -0.0212  0.0968  1.0000  -4.3346   0.0000   0.0000   0.0000   0.2633
   8.300   1.0246   0.02653   0.01874  -0.0208  0.0942  1.0000  -4.4144   0.0000   0.0000   0.0000   0.2627
   8.400   1.0333   0.02698   0.01950  -0.0204  0.0904  1.0000  -4.4553   0.0000   0.0000   0.0000   0.2620
   8.500   1.0418   0.02748   0.02007  -0.0201  0.0871  1.0000  -4.5257   0.0000   0.0000   0.0000   0.2614
   8.600   1.0503   0.02795   0.02058  -0.0197  0.0839  1.0000  -4.5998   0.0000   0.0000   0.0000   0.2608
   8.700   1.0585   0.02845   0.02109  -0.0194  0.0809  1.0000  -4.6751   0.0000   0.0000   0.0000   0.2602
   8.800   1.0660   0.02922   0.02187  -0.0190  0.0778  1.0000  -4.7412   0.0000   0.0000   0.0000   0.2596
   8.900   1.0709   0.03124   0.02398  -0.0186  0.0742  1.0000  -4.7596   0.0000   0.0000   0.0000   0.2590
   9.000   1.0753   0.03304   0.02597  -0.0180  0.0716  1.0000  -4.7766   0.0000   0.0000   0.0000   0.2584
   9.100   1.0846   0.03269   0.02569  -0.0177  0.0691  1.0000  -4.8747   0.0000   0.0000   0.0000   0.2578
   9.200   1.0932   0.03257   0.02562  -0.0174  0.0656  1.0000  -4.9691   0.0000   0.0000   0.0000   0.2573
   9.300   1.1008   0.03287   0.02599  -0.0171  0.0625  1.0000  -5.0421   0.0000   0.0000   0.0000   0.2567
   9.400   1.1082   0.03326   0.02642  -0.0167  0.0597  1.0000  -5.1085   0.0000   0.0000   0.0000   0.2561
   9.500   1.1155   0.03349   0.02662  -0.0163  0.0566  1.0000  -5.1831   0.0000   0.0000   0.0000   0.2555
   9.600   1.1205   0.03435   0.02744  -0.0159  0.0531  1.0000  -5.2265   0.0000   0.0000   0.0000   0.2550
   9.700   1.1163   0.03791   0.03127  -0.0150  0.0492  1.0000  -5.1102   0.0000   0.0000   0.0000   0.2541
   9.800   1.1234   0.03791   0.03141  -0.0143  0.0461  1.0000  -5.1193   0.0000   0.0000   0.0000   0.2533
   9.900   1.1273   0.03898   0.03262  -0.0136  0.0436  1.0000  -5.0999   0.0000   0.0000   0.0000   0.2525
  10.000   1.1303   0.04025   0.03404  -0.0129  0.0419  1.0000  -5.0873   0.0000   0.0000   0.0000   0.2518
  10.100   1.1325   0.04161   0.03554  -0.0122  0.0408  1.0000  -5.0784   0.0000   0.0000   0.0000   0.2511
  10.200   1.1340   0.04302   0.03710  -0.0116  0.0400  1.0000  -5.0712   0.0000   0.0000   0.0000   0.2504
  10.300   1.1346   0.04448   0.03870  -0.0109  0.0394  1.0000  -5.0634   0.0000   0.0000   0.0000   0.2497
  10.400   1.1343   0.04600   0.04036  -0.0103  0.0390  1.0000  -5.0534   0.0000   0.0000   0.0000   0.2490
  10.500   1.1330   0.04756   0.04207  -0.0096  0.0387  1.0000  -5.0401   0.0000   0.0000   0.0000   0.2483
  10.600   1.1305   0.04917   0.04382  -0.0090  0.0384  1.0000  -5.0231   0.0000   0.0000   0.0000   0.2477
  10.700   1.1268   0.05081   0.04559  -0.0084  0.0383  1.0000  -5.0024   0.0000   0.0000   0.0000   0.2470
  10.800   1.1215   0.05242   0.04733  -0.0077  0.0382  1.0000  -4.9780   0.0000   0.0000   0.0000   0.2463
  10.900   1.1148   0.05398   0.04901  -0.0069  0.0382  1.0000  -4.9506   0.0000   0.0000   0.0000   0.2456
  11.000   1.1072   0.05561   0.05074  -0.0063  0.0383  1.0000  -4.9201   0.0000   0.0000   0.0000   0.2450
  11.100   1.0988   0.05733   0.05257  -0.0060  0.0383  1.0000  -4.8862   0.0000   0.0000   0.0000   0.2447
  11.200   1.0898   0.05919   0.05453  -0.0061  0.0384  1.0000  -4.8485   0.0000   0.0000   0.0000   0.2447
  11.300   1.0802   0.06124   0.05667  -0.0066  0.0385  1.0000  -4.8065   0.0000   0.0000   0.0000   0.2451
  11.400   1.0700   0.06346   0.05899  -0.0075  0.0386  1.0000  -4.7598   0.0000   0.0000   0.0000   0.2458
  11.500   1.0593   0.06594   0.06156  -0.0089  0.0388  1.0000  -4.7076   0.0000   0.0000   0.0000   0.2471
  11.600   1.0478   0.06877   0.06448  -0.0107  0.0390  1.0000  -4.6467   0.0000   0.0000   0.0000   0.2488
  11.700   1.0350   0.07206   0.06785  -0.0132  0.0393  1.0000  -4.5734   0.0000   0.0000   0.0000   0.2512
  11.800   1.0210   0.07585   0.07173  -0.0163  0.0397  1.0000  -4.4870   0.0000   0.0000   0.0000   0.2542
  11.900   1.0054   0.08030   0.07626  -0.0200  0.0402  1.0000  -4.3823   0.0000   0.0000   0.0000   0.2581
  12.000   0.9875   0.08554   0.08156  -0.0243  0.0409  1.0000  -4.2529   0.0000   0.0000   0.0000   0.2628
  12.100   0.9666   0.09199   0.08807  -0.0295  0.0419  1.0000  -4.0851   0.0000   0.0000   0.0000   0.2687
  12.200   0.9443   0.09942   0.09552  -0.0348  0.0432  1.0000  -3.8829   0.0000   0.0000   0.0000   0.2752
  12.300   0.9249   0.10654   0.10262  -0.0394  0.0445  1.0000  -3.6829   0.0000   0.0000   0.0000   0.2810
  12.400   0.9102   0.11264   0.10870  -0.0428  0.0453  1.0000  -3.5078   0.0000   0.0000   0.0000   0.2856
  12.500   0.8993   0.11768   0.11371  -0.0455  0.0458  1.0000  -3.3664   0.0000   0.0000   0.0000   0.2892
  12.600   0.8907   0.12208   0.11808  -0.0478  0.0462  1.0000  -3.2461   0.0000   0.0000   0.0000   0.2923
  12.700   0.8836   0.12609   0.12207  -0.0498  0.0465  1.0000  -3.1397   0.0000   0.0000   0.0000   0.2951
  12.800   0.8777   0.12980   0.12575  -0.0517  0.0468  1.0000  -3.0453   0.0000   0.0000   0.0000   0.2975
  13.000   0.8701   0.13598   0.13174  -0.0544  0.0478  1.0000  -2.9392   0.0000   0.0000   0.0000   0.3012
  13.100   0.8664   0.13921   0.13496  -0.0559  0.0479  1.0000  -2.8582   0.0000   0.0000   0.0000   0.3031
  13.200   0.8632   0.14232   0.13806  -0.0573  0.0482  1.0000  -2.7835   0.0000   0.0000   0.0000   0.3049
  13.300   0.8604   0.14539   0.14111  -0.0585  0.0485  1.0000  -2.7135   0.0000   0.0000   0.0000   0.3065
  13.500   0.8389   0.15960   0.15529  -0.0672  0.0632  1.0000  -2.1428   0.0000   0.0000   0.0000   0.3192
  13.800   0.8602   0.16625   0.16202  -0.0646  0.0747  1.0000  -2.1600   0.0000   0.0000   0.0000   0.3140
  13.900   0.8614   0.16842   0.16419  -0.0653  0.0746  1.0000  -2.1419   0.0000   0.0000   0.0000   0.3146
  14.000   0.8624   0.17072   0.16649  -0.0660  0.0743  1.0000  -2.1252   0.0000   0.0000   0.0000   0.3152
  14.100   0.8629   0.17339   0.16916  -0.0666  0.0738  1.0000  -2.1072   0.0000   0.0000   0.0000   0.3158
  14.200   0.8536   0.18133   0.17704  -0.0682  0.0724  1.0000  -2.0061   0.0000   0.0000   0.0000   0.3186
  14.300   0.8549   0.18345   0.17916  -0.0691  0.0724  1.0000  -1.9860   0.0000   0.0000   0.0000   0.3195
  14.400   0.8562   0.18555   0.18125  -0.0701  0.0723  1.0000  -1.9667   0.0000   0.0000   0.0000   0.3203
  14.500   0.8576   0.18763   0.18332  -0.0710  0.0723  1.0000  -1.9482   0.0000   0.0000   0.0000   0.3212
  14.600   0.8590   0.18967   0.18537  -0.0719  0.0723  1.0000  -1.9304   0.0000   0.0000   0.0000   0.3220
  14.700   0.8604   0.19170   0.18739  -0.0728  0.0723  1.0000  -1.9131   0.0000   0.0000   0.0000   0.3229
  14.800   0.8619   0.19369   0.18937  -0.0737  0.0722  1.0000  -1.8964   0.0000   0.0000   0.0000   0.3237
  14.900   0.8633   0.19564   0.19133  -0.0747  0.0722  1.0000  -1.8802   0.0000   0.0000   0.0000   0.3246
  15.000   0.8648   0.19756   0.19324  -0.0756  0.0721  1.0000  -1.8644   0.0000   0.0000   0.0000   0.3254
  15.100   0.8663   0.19944   0.19512  -0.0766  0.0721  1.0000  -1.8490   0.0000   0.0000   0.0000   0.3263
  15.200   0.8678   0.20127   0.19694  -0.0776  0.0720  1.0000  -1.8339   0.0000   0.0000   0.0000   0.3272
  15.300   0.8692   0.20303   0.19870  -0.0785  0.0719  1.0000  -1.8191   0.0000   0.0000   0.0000   0.3281
  15.400   0.8707   0.20472   0.20039  -0.0795  0.0718  1.0000  -1.8044   0.0000   0.0000   0.0000   0.3290
  15.500   0.8721   0.20626   0.20192  -0.0806  0.0717  1.0000  -1.7896   0.0000   0.0000   0.0000   0.3299
  15.600   0.8736   0.20785   0.20366  -0.0816  0.0716  1.0000  -1.7639   0.0000   0.0000   0.0000   0.3308
  15.700   0.8750   0.20918   0.20499  -0.0826  0.0714  1.0000  -1.7490   0.0000   0.0000   0.0000   0.3318
  15.800   0.8753   0.21019   0.20599  -0.0840  0.0711  1.0000  -1.7272   0.0000   0.0000   0.0000   0.3332
  15.900   0.8744   0.21073   0.20652  -0.0857  0.0705  1.0000  -1.6975   0.0000   0.0000   0.0000   0.3351
  16.000   0.8715   0.21081   0.20658  -0.0878  0.0696  1.0000  -1.6558   0.0000   0.0000   0.0000   0.3377
  16.100   0.8699   0.21139   0.20715  -0.0898  0.0682  1.0000  -1.6174   0.0000   0.0000   0.0000   0.3401
  16.200   0.8705   0.21275   0.20850  -0.0912  0.0667  1.0000  -1.5936   0.0000   0.0000   0.0000   0.3416
  16.300   0.8718   0.21437   0.21013  -0.0923  0.0654  1.0000  -1.5787   0.0000   0.0000   0.0000   0.3426
  16.400   0.8734   0.21608   0.21183  -0.0933  0.0641  1.0000  -1.5689   0.0000   0.0000   0.0000   0.3434
  16.500   0.8753   0.21778   0.21354  -0.0941  0.0627  1.0000  -1.5636   0.0000   0.0000   0.0000   0.3440
  16.600   0.8774   0.21945   0.21521  -0.0949  0.0612  1.0000  -1.5635   0.0000   0.0000   0.0000   0.3445
  16.700   0.8800   0.22100   0.21676  -0.0955  0.0593  1.0000  -1.5720   0.0000   0.0000   0.0000   0.3447
  16.800   0.8835   0.22225   0.21801  -0.0957  0.0570  1.0000  -1.6014   0.0000   0.0000   0.0000   0.3444
  16.900   0.8979   0.22982   0.22561  -0.0902  0.0496  1.0000  -1.8333   0.0000   0.0000   0.0000   0.3361
  17.000   0.8991   0.23155   0.22733  -0.0912  0.0495  1.0000  -1.8267   0.0000   0.0000   0.0000   0.3370
  17.100   0.9006   0.23345   0.22923  -0.0922  0.0495  1.0000  -1.8213   0.0000   0.0000   0.0000   0.3378
  17.200   0.9020   0.23539   0.23117  -0.0931  0.0494  1.0000  -1.8154   0.0000   0.0000   0.0000   0.3386
  17.300   0.9035   0.23728   0.23306  -0.0940  0.0493  1.0000  -1.8082   0.0000   0.0000   0.0000   0.3394
  17.400   0.9048   0.23908   0.23486  -0.0950  0.0492  1.0000  -1.7995   0.0000   0.0000   0.0000   0.3402
  17.500   0.9061   0.24077   0.23654  -0.0960  0.0491  1.0000  -1.7887   0.0000   0.0000   0.0000   0.3410
  17.600   0.9073   0.24226   0.23803  -0.0971  0.0489  1.0000  -1.7754   0.0000   0.0000   0.0000   0.3419
  17.700   0.9073   0.24343   0.23920  -0.0984  0.0486  1.0000  -1.7514   0.0000   0.0000   0.0000   0.3433
  17.800   0.9059   0.24423   0.23999  -0.1002  0.0481  1.0000  -1.7141   0.0000   0.0000   0.0000   0.3453
  17.900   0.9043   0.24479   0.24053  -0.1024  0.0470  1.0000  -1.6632   0.0000   0.0000   0.0000   0.3479
  18.000   0.9044   0.24612   0.24186  -0.1043  0.0448  1.0000  -1.6223   0.0000   0.0000   0.0000   0.3499
  18.100   0.9057   0.24800   0.24374  -0.1054  0.0428  1.0000  -1.6083   0.0000   0.0000   0.0000   0.3508
  18.200   0.9074   0.24993   0.24566  -0.1062  0.0410  1.0000  -1.6048   0.0000   0.0000   0.0000   0.3514
  18.300   0.9093   0.25182   0.24756  -0.1069  0.0395  1.0000  -1.6069   0.0000   0.0000   0.0000   0.3518
  18.400   0.9113   0.25367   0.24942  -0.1075  0.0382  1.0000  -1.6134   0.0000   0.0000   0.0000   0.3520
  18.500   0.9134   0.25548   0.25123  -0.1080  0.0371  1.0000  -1.6242   0.0000   0.0000   0.0000   0.3521
  18.600   0.9157   0.25725   0.25301  -0.1084  0.0361  1.0000  -1.6397   0.0000   0.0000   0.0000   0.3521
  18.700   0.9182   0.25900   0.25476  -0.1087  0.0352  1.0000  -1.6606   0.0000   0.0000   0.0000   0.3519
  18.800   0.9210   0.26075   0.25652  -0.1088  0.0344  1.0000  -1.6882   0.0000   0.0000   0.0000   0.3515
  18.900   0.9241   0.26258   0.25836  -0.1088  0.0337  1.0000  -1.7237   0.0000   0.0000   0.0000   0.3509
  19.000   0.9281   0.26464   0.26043  -0.1084  0.0331  1.0000  -1.7707   0.0000   0.0000   0.0000   0.3499
  19.100   0.9338   0.26769   0.26350  -0.1074  0.0323  1.0000  -1.8410   0.0000   0.0000   0.0000   0.3479
  19.200   0.9300   0.27648   0.27225  -0.1076  0.0312  1.0000  -1.7671   0.0000   0.0000   0.0000   0.3486
  19.300   0.9310   0.27883   0.27460  -0.1083  0.0312  1.0000  -1.7561   0.0000   0.0000   0.0000   0.3491
  19.400   0.9320   0.28116   0.27693  -0.1090  0.0312  1.0000  -1.7453   0.0000   0.0000   0.0000   0.3496
  19.500   0.9329   0.28348   0.27925  -0.1097  0.0312  1.0000  -1.7347   0.0000   0.0000   0.0000   0.3502
  19.600   0.9338   0.28578   0.28156  -0.1104  0.0312  1.0000  -1.7242   0.0000   0.0000   0.0000   0.3507
  19.700   0.9345   0.28807   0.28385  -0.1111  0.0311  1.0000  -1.7138   0.0000   0.0000   0.0000   0.3512
  19.800   0.9353   0.29034   0.28612  -0.1118  0.0311  1.0000  -1.7034   0.0000   0.0000   0.0000   0.3518
  19.900   0.9359   0.29258   0.28837  -0.1125  0.0311  1.0000  -1.6930   0.0000   0.0000   0.0000   0.3523
  20.000   0.9364   0.29479   0.29059  -0.1131  0.0311  1.0000  -1.6826   0.0000   0.0000   0.0000   0.3528
  20.100   0.9368   0.29698   0.29279  -0.1138  0.0311  1.0000  -1.6720   0.0000   0.0000   0.0000   0.3533
  20.200   0.9372   0.29914   0.29495  -0.1144  0.0310  1.0000  -1.6614   0.0000   0.0000   0.0000   0.3539
  20.300   0.9374   0.30127   0.29709  -0.1151  0.0310  1.0000  -1.6507   0.0000   0.0000   0.0000   0.3544
  20.400   0.9375   0.30337   0.29919  -0.1157  0.0310  1.0000  -1.6399   0.0000   0.0000   0.0000   0.3549
  20.500   0.9374   0.30541   0.30124  -0.1163  0.0310  1.0000  -1.6286   0.0000   0.0000   0.0000   0.3555
  20.600   0.9371   0.30740   0.30324  -0.1169  0.0309  1.0000  -1.6170   0.0000   0.0000   0.0000   0.3560
  20.700   0.9366   0.30934   0.30519  -0.1174  0.0309  1.0000  -1.6051   0.0000   0.0000   0.0000   0.3566
  20.800   0.9360   0.31123   0.30708  -0.1180  0.0309  1.0000  -1.5929   0.0000   0.0000   0.0000   0.3572
  20.900   0.9351   0.31302   0.30889  -0.1185  0.0308  1.0000  -1.5798   0.0000   0.0000   0.0000   0.3578
  21.000   0.9338   0.31473   0.31060  -0.1190  0.0308  1.0000  -1.5660   0.0000   0.0000   0.0000   0.3584
  21.100   0.9320   0.31629   0.31218  -0.1195  0.0307  1.0000  -1.5494   0.0000   0.0000   0.0000   0.3591
  21.200   0.9292   0.31766   0.31356  -0.1200  0.0307  1.0000  -1.5288   0.0000   0.0000   0.0000   0.3599
  21.300   0.9259   0.31886   0.31477  -0.1204  0.0306  1.0000  -1.5069   0.0000   0.0000   0.0000   0.3607
  21.400   0.9217   0.31982   0.31575  -0.1207  0.0305  1.0000  -1.4832   0.0000   0.0000   0.0000   0.3615
  21.500   0.8937   0.31497   0.31099  -0.1177  0.0306  1.0000  -1.4126   0.0000   0.0000   0.0000   0.3626
  21.600   0.8796   0.31256   0.30863  -0.1166  0.0305  1.0000  -1.3697   0.0000   0.0000   0.0000   0.3636
  21.700   0.8711   0.31144   0.30753  -0.1163  0.0304  1.0000  -1.3380   0.0000   0.0000   0.0000   0.3645
  21.800   0.8646   0.31072   0.30684  -0.1162  0.0304  1.0000  -1.3098   0.0000   0.0000   0.0000   0.3654
  21.900   0.8591   0.31023   0.30637  -0.1163  0.0303  1.0000  -1.2836   0.0000   0.0000   0.0000   0.3663
  22.000   0.8546   0.30990   0.30606  -0.1165  0.0301  1.0000  -1.2583   0.0000   0.0000   0.0000   0.3672
  22.100   0.8507   0.30971   0.30588  -0.1168  0.0299  1.0000  -1.2335   0.0000   0.0000   0.0000   0.3682
  22.200   0.8474   0.30967   0.30586  -0.1172  0.0297  1.0000  -1.2092   0.0000   0.0000   0.0000   0.3691
  22.300   0.8447   0.30981   0.30601  -0.1177  0.0294  1.0000  -1.1855   0.0000   0.0000   0.0000   0.3701
  22.400   0.8425   0.31010   0.30632  -0.1181  0.0290  1.0000  -1.1636   0.0000   0.0000   0.0000   0.3709
  22.500   0.8406   0.31051   0.30674  -0.1186  0.0285  1.0000  -1.1447   0.0000   0.0000   0.0000   0.3717
  22.600   0.8388   0.31097   0.30722  -0.1189  0.0280  1.0000  -1.1285   0.0000   0.0000   0.0000   0.3723
  22.700   0.8371   0.31145   0.30771  -0.1192  0.0276  1.0000  -1.1146   0.0000   0.0000   0.0000   0.3729
  22.800   0.8354   0.31194   0.30822  -0.1195  0.0271  1.0000  -1.1024   0.0000   0.0000   0.0000   0.3734
  22.900   0.8338   0.31243   0.30873  -0.1197  0.0267  1.0000  -1.0916   0.0000   0.0000   0.0000   0.3739
  23.000   0.8324   0.31293   0.30924  -0.1200  0.0263  1.0000  -1.0818   0.0000   0.0000   0.0000   0.3744
  23.100   0.8309   0.31344   0.30976  -0.1203  0.0259  1.0000  -1.0729   0.0000   0.0000   0.0000   0.3749
  23.200   0.8296   0.31395   0.31029  -0.1205  0.0255  1.0000  -1.0646   0.0000   0.0000   0.0000   0.3753
  23.300   0.8284   0.31447   0.31082  -0.1208  0.0252  1.0000  -1.0570   0.0000   0.0000   0.0000   0.3757
  23.400   0.8272   0.31499   0.31135  -0.1210  0.0248  1.0000  -1.0500   0.0000   0.0000   0.0000   0.3762
  23.500   0.8261   0.31552   0.31189  -0.1213  0.0245  1.0000  -1.0435   0.0000   0.0000   0.0000   0.3766
  23.600   0.8251   0.31605   0.31244  -0.1216  0.0242  1.0000  -1.0374   0.0000   0.0000   0.0000   0.3770
  23.700   0.8241   0.31659   0.31299  -0.1219  0.0238  1.0000  -1.0318   0.0000   0.0000   0.0000   0.3774
  23.800   0.8232   0.31713   0.31354  -0.1221  0.0235  1.0000  -1.0265   0.0000   0.0000   0.0000   0.3778
  23.900   0.8223   0.31767   0.31410  -0.1224  0.0232  1.0000  -1.0217   0.0000   0.0000   0.0000   0.3782
  24.000   0.8215   0.31822   0.31466  -0.1227  0.0230  1.0000  -1.0173   0.0000   0.0000   0.0000   0.3785
  24.100   0.8208   0.31877   0.31522  -0.1230  0.0227  1.0000  -1.0132   0.0000   0.0000   0.0000   0.3789
  24.200   0.8201   0.31932   0.31578  -0.1233  0.0224  1.0000  -1.0095   0.0000   0.0000   0.0000   0.3793
  24.300   0.8194   0.31988   0.31635  -0.1236  0.0221  1.0000  -1.0062   0.0000   0.0000   0.0000   0.3796
  24.400   0.8188   0.32043   0.31692  -0.1239  0.0219  1.0000  -1.0032   0.0000   0.0000   0.0000   0.3800
  24.500   0.8182   0.32099   0.31749  -0.1242  0.0216  1.0000  -1.0006   0.0000   0.0000   0.0000   0.3803
  24.600   0.8177   0.32154   0.31805  -0.1245  0.0214  1.0000  -0.9984   0.0000   0.0000   0.0000   0.3807
  24.700   0.8171   0.32210   0.31862  -0.1248  0.0212  1.0000  -0.9966   0.0000   0.0000   0.0000   0.3810
  24.800   0.8167   0.32266   0.31919  -0.1251  0.0209  1.0000  -0.9951   0.0000   0.0000   0.0000   0.3813
  24.900   0.8162   0.32321   0.31976  -0.1254  0.0207  1.0000  -0.9941   0.0000   0.0000   0.0000   0.3816
  25.000   0.8158   0.32377   0.32032  -0.1257  0.0205  1.0000  -0.9936   0.0000   0.0000   0.0000   0.3819
  25.100   0.8154   0.32431   0.32096  -0.1260  0.0203  1.0000  -0.9947   0.0000   0.0000   0.0000   0.3822
  25.200   0.8151   0.32486   0.32152  -0.1263  0.0200  1.0000  -0.9953   0.0000   0.0000   0.0000   0.3825
  25.300   0.8148   0.32541   0.32208  -0.1266  0.0198  1.0000  -0.9963   0.0000   0.0000   0.0000   0.3828
  25.400   0.8144   0.32595   0.32263  -0.1269  0.0196  1.0000  -0.9978   0.0000   0.0000   0.0000   0.3831
  25.500   0.8142   0.32650   0.32319  -0.1271  0.0194  1.0000  -1.0000   0.0000   0.0000   0.0000   0.3833
  25.600   0.8139   0.32704   0.32374  -0.1274  0.0193  1.0000  -1.0027   0.0000   0.0000   0.0000   0.3836
  25.700   0.8137   0.32758   0.32429  -0.1277  0.0191  1.0000  -1.0061   0.0000   0.0000   0.0000   0.3838
  25.800   0.8134   0.32812   0.32484  -0.1280  0.0189  1.0000  -1.0102   0.0000   0.0000   0.0000   0.3840
  25.900   0.8132   0.32866   0.32540  -0.1282  0.0187  1.0000  -1.0152   0.0000   0.0000   0.0000   0.3842
  26.000   0.8131   0.32922   0.32597  -0.1284  0.0185  1.0000  -1.0210   0.0000   0.0000   0.0000   0.3843
  26.100   0.8129   0.32979   0.32655  -0.1286  0.0184  1.0000  -1.0279   0.0000   0.0000   0.0000   0.3844
  26.200   0.8128   0.33039   0.32716  -0.1288  0.0182  1.0000  -1.0359   0.0000   0.0000   0.0000   0.3845
  26.300   0.8128   0.33104   0.32782  -0.1290  0.0180  1.0000  -1.0451   0.0000   0.0000   0.0000   0.3845
  26.400   0.8128   0.33179   0.32859  -0.1291  0.0179  1.0000  -1.0559   0.0000   0.0000   0.0000   0.3845
  26.500   0.8131   0.33273   0.32954  -0.1291  0.0177  1.0000  -1.0684   0.0000   0.0000   0.0000   0.3843
  26.600   0.8136   0.33410   0.33092  -0.1290  0.0175  1.0000  -1.0829   0.0000   0.0000   0.0000   0.3839
  26.700   0.8153   0.33701   0.33385  -0.1287  0.0173  1.0000  -1.1002   0.0000   0.0000   0.0000   0.3831
  27.600   0.8130   0.34608   0.34296  -0.1321  0.0169  1.0000  -1.0143   0.0000   0.0000   0.0000   0.3864
  27.700   0.8126   0.34658   0.34348  -0.1325  0.0169  1.0000  -1.0075   0.0000   0.0000   0.0000   0.3868
  27.800   0.8123   0.34709   0.34399  -0.1329  0.0169  1.0000  -1.0007   0.0000   0.0000   0.0000   0.3872
  27.900   0.8119   0.34759   0.34450  -0.1334  0.0168  1.0000  -0.9940   0.0000   0.0000   0.0000   0.3877
  28.000   0.8116   0.34808   0.34501  -0.1338  0.0168  1.0000  -0.9873   0.0000   0.0000   0.0000   0.3881
  28.100   0.8113   0.34857   0.34551  -0.1343  0.0168  1.0000  -0.9807   0.0000   0.0000   0.0000   0.3885
  28.200   0.8109   0.34899   0.34594  -0.1347  0.0168  1.0000  -0.9727   0.0000   0.0000   0.0000   0.3890
  28.300   0.8104   0.34942   0.34637  -0.1352  0.0168  1.0000  -0.9649   0.0000   0.0000   0.0000   0.3895
  28.400   0.8100   0.34984   0.34681  -0.1357  0.0168  1.0000  -0.9571   0.0000   0.0000   0.0000   0.3900
  28.500   0.8096   0.35027   0.34725  -0.1361  0.0168  1.0000  -0.9494   0.0000   0.0000   0.0000   0.3905
  28.600   0.8092   0.35071   0.34769  -0.1366  0.0167  1.0000  -0.9419   0.0000   0.0000   0.0000   0.3910
  28.700   0.8089   0.35114   0.34814  -0.1371  0.0167  1.0000  -0.9344   0.0000   0.0000   0.0000   0.3914
  28.800   0.8086   0.35159   0.34859  -0.1376  0.0167  1.0000  -0.9270   0.0000   0.0000   0.0000   0.3919
  28.900   0.8082   0.35203   0.34905  -0.1380  0.0167  1.0000  -0.9197   0.0000   0.0000   0.0000   0.3924
  29.000   0.8080   0.35248   0.34951  -0.1385  0.0167  1.0000  -0.9124   0.0000   0.0000   0.0000   0.3929
  29.100   0.8077   0.35294   0.34997  -0.1390  0.0166  1.0000  -0.9053   0.0000   0.0000   0.0000   0.3933
  29.200   0.8074   0.35340   0.35044  -0.1395  0.0166  1.0000  -0.8982   0.0000   0.0000   0.0000   0.3938
  29.300   0.8072   0.35386   0.35092  -0.1400  0.0166  1.0000  -0.8911   0.0000   0.0000   0.0000   0.3943
  29.400   0.8070   0.35434   0.35140  -0.1405  0.0166  1.0000  -0.8841   0.0000   0.0000   0.0000   0.3947
  29.500   0.8068   0.35482   0.35189  -0.1410  0.0165  1.0000  -0.8772   0.0000   0.0000   0.0000   0.3952
  29.600   0.8066   0.35531   0.35239  -0.1415  0.0165  1.0000  -0.8703   0.0000   0.0000   0.0000   0.3956
  29.700   0.8065   0.35581   0.35291  -0.1420  0.0165  1.0000  -0.8635   0.0000   0.0000   0.0000   0.3961
  29.800   0.8064   0.35632   0.35342  -0.1425  0.0164  1.0000  -0.8566   0.0000   0.0000   0.0000   0.3966
  29.900   0.8063   0.35684   0.35395  -0.1431  0.0164  1.0000  -0.8498   0.0000   0.0000   0.0000   0.3970
  30.000   0.8062   0.35738   0.35450  -0.1436  0.0164  1.0000  -0.8430   0.0000   0.0000   0.0000   0.3975


