xflr5 v6.61

 Calculated polar for: SD7037-092-88

 1 1 Reynolds number fixed          Mach number fixed         

 xtrf =   1.000 (top)        1.000 (bottom)
 Mach =   0.000     Re =     0.400 e 6     Ncrit =   9.000

  alpha     CL        CD       CDp       Cm    Top Xtr Bot Xtr   Cpmin    Chinge    XCp    
 ------- -------- --------- --------- -------- ------- ------- -------- --------- ---------
 -10.000  -0.3639   0.11413   0.11135  -0.0260  1.0000  0.0201  -1.5223   0.0000   0.0000   0.0000   0.1715
  -9.900  -0.3617   0.11280   0.11003  -0.0266  1.0000  0.0201  -1.5285   0.0000   0.0000   0.0000   0.1695
  -9.800  -0.3596   0.11147   0.10871  -0.0271  1.0000  0.0201  -1.5350   0.0000   0.0000   0.0000   0.1676
  -9.700  -0.3576   0.11014   0.10739  -0.0277  1.0000  0.0201  -1.5417   0.0000   0.0000   0.0000   0.1656
  -9.600  -0.3556   0.10882   0.10607  -0.0283  1.0000  0.0202  -1.5487   0.0000   0.0000   0.0000   0.1637
  -9.500  -0.3536   0.10749   0.10475  -0.0288  1.0000  0.0202  -1.5560   0.0000   0.0000   0.0000   0.1617
  -9.400  -0.3517   0.10616   0.10343  -0.0294  1.0000  0.0202  -1.5636   0.0000   0.0000   0.0000   0.1598
  -9.300  -0.3500   0.10484   0.10212  -0.0299  1.0000  0.0202  -1.5715   0.0000   0.0000   0.0000   0.1579
  -9.200  -0.3482   0.10352   0.10081  -0.0305  1.0000  0.0202  -1.5797   0.0000   0.0000   0.0000   0.1560
  -9.100  -0.3466   0.10221   0.09951  -0.0310  1.0000  0.0202  -1.5883   0.0000   0.0000   0.0000   0.1541
  -9.000  -0.3451   0.10090   0.09821  -0.0315  1.0000  0.0202  -1.5972   0.0000   0.0000   0.0000   0.1523
  -8.900  -0.3437   0.09960   0.09692  -0.0320  1.0000  0.0202  -1.6064   0.0000   0.0000   0.0000   0.1505
  -8.800  -0.3424   0.09830   0.09562  -0.0325  1.0000  0.0202  -1.6160   0.0000   0.0000   0.0000   0.1487
  -8.700  -0.3411   0.09698   0.09432  -0.0330  1.0000  0.0202  -1.6259   0.0000   0.0000   0.0000   0.1469
  -8.600  -0.3399   0.09567   0.09302  -0.0335  1.0000  0.0203  -1.6363   0.0000   0.0000   0.0000   0.1452
  -8.500  -0.3390   0.09438   0.09174  -0.0340  1.0000  0.0203  -1.6470   0.0000   0.0000   0.0000   0.1437
  -8.400  -0.3382   0.09310   0.09047  -0.0344  1.0000  0.0203  -1.6583   0.0000   0.0000   0.0000   0.1423
  -8.200  -0.3562   0.08644   0.08390  -0.0362  1.0000  0.0210  -1.9168   0.0000   0.0000   0.0000   0.1427
  -8.100  -0.3621   0.08441   0.08189  -0.0363  1.0000  0.0213  -1.9728   0.0000   0.0000   0.0000   0.1441
  -8.000  -0.3664   0.08296   0.08046  -0.0362  1.0000  0.0215  -2.0004   0.0000   0.0000   0.0000   0.1459
  -7.900  -0.3709   0.08183   0.07936  -0.0357  1.0000  0.0217  -2.0182   0.0000   0.0000   0.0000   0.1485
  -7.800  -0.3763   0.08095   0.07850  -0.0349  1.0000  0.0218  -2.0333   0.0000   0.0000   0.0000   0.1522
  -7.700  -0.3830   0.08027   0.07784  -0.0337  1.0000  0.0218  -2.0494   0.0000   0.0000   0.0000   0.1570
  -7.600  -0.3909   0.07974   0.07734  -0.0323  1.0000  0.0219  -2.0679   0.0000   0.0000   0.0000   0.1627
  -7.500  -0.3997   0.07930   0.07693  -0.0307  1.0000  0.0218  -2.0885   0.0000   0.0000   0.0000   0.1686
  -7.400  -0.4082   0.07878   0.07644  -0.0294  1.0000  0.0218  -2.1095   0.0000   0.0000   0.0000   0.1737
  -7.300  -0.4143   0.07792   0.07559  -0.0288  1.0000  0.0219  -2.1273   0.0000   0.0000   0.0000   0.1764
  -7.200  -0.4195   0.07692   0.07462  -0.0285  1.0000  0.0220  -2.1437   0.0000   0.0000   0.0000   0.1782
  -7.100  -0.4155   0.07497   0.07267  -0.0307  0.9990  0.0223  -2.1403   0.0000   0.0000   0.0000   0.1721
  -7.000  -0.4067   0.07303   0.07072  -0.0336  0.9976  0.0227  -2.1086   0.0000   0.0000   0.0000   0.1636
  -6.900  -0.3976   0.07151   0.06920  -0.0356  0.9965  0.0232  -2.0575   0.0000   0.0000   0.0000   0.1565
  -6.800  -0.3887   0.06992   0.06760  -0.0379  0.9950  0.0236  -2.0155   0.0000   0.0000   0.0000   0.1486
  -6.700  -0.3792   0.06821   0.06588  -0.0406  0.9933  0.0241  -1.9796   0.0000   0.0000   0.0000   0.1393
  -6.600  -0.3692   0.06642   0.06408  -0.0434  0.9917  0.0246  -1.9470   0.0000   0.0000   0.0000   0.1288
  -6.500  -0.3586   0.06453   0.06217  -0.0464  0.9902  0.0252  -1.9193   0.0000   0.0000   0.0000   0.1168
  -6.400  -0.3473   0.06250   0.06012  -0.0498  0.9889  0.0258  -1.8979   0.0000   0.0000   0.0000   0.1029
  -6.300  -0.3352   0.06033   0.05792  -0.0534  0.9878  0.0265  -1.8818   0.0000   0.0000   0.0000   0.0869
  -6.200  -0.3241   0.05818   0.05573  -0.0567  0.9862  0.0273  -1.8726   0.0000   0.0000   0.0000   0.0712
  -6.100  -0.3148   0.05614   0.05365  -0.0593  0.9836  0.0280  -1.8698   0.0000   0.0000   0.0000   0.0576
  -6.000  -0.3038   0.05395   0.05142  -0.0623  0.9812  0.0289  -1.8690   0.0000   0.0000   0.0000   0.0410
  -5.900  -0.2916   0.05169   0.04910  -0.0654  0.9792  0.0300  -1.8707   0.0000   0.0000   0.0000   0.0216
  -5.800  -0.2782   0.04940   0.04673  -0.0685  0.9775  0.0313  -1.8757   0.0000   0.0000   0.0000  -0.0006
  -5.700  -0.2635   0.04719   0.04443  -0.0715  0.9760  0.0329  -1.8838   0.0000   0.0000   0.0000  -0.0259
  -5.600  -0.2465   0.04577   0.04291  -0.0739  0.9749  0.0351  -1.8754   0.0000   0.0000   0.0000  -0.0543
  -5.500  -0.2251   0.04674   0.04378  -0.0748  0.9743  0.0373  -1.7991   0.0000   0.0000   0.0000  -0.0874
  -5.400  -0.2100   0.04556   0.04249  -0.0768  0.9734  0.0376  -1.7791   0.0000   0.0000   0.0000  -0.1211
  -5.300  -0.1956   0.04403   0.04084  -0.0788  0.9726  0.0377  -1.7663   0.0000   0.0000   0.0000  -0.1588
  -5.200  -0.1811   0.04240   0.03909  -0.0809  0.9719  0.0378  -1.7540   0.0000   0.0000   0.0000  -0.2025
  -5.100  -0.1728   0.04114   0.03773  -0.0813  0.9690  0.0378  -1.7452   0.0000   0.0000   0.0000  -0.2265
  -5.000  -0.1780   0.03304   0.02927  -0.0840  0.9635  0.0402  -1.9734   0.0000   0.0000   0.0000  -0.2284
  -4.900  -0.1673   0.03114   0.02732  -0.0852  0.9618  0.0415  -1.9390   0.0000   0.0000   0.0000  -0.2659
  -4.800  -0.1549   0.02997   0.02610  -0.0862  0.9602  0.0427  -1.8838   0.0000   0.0000   0.0000  -0.3135
  -4.700  -0.1420   0.02906   0.02517  -0.0871  0.9588  0.0437  -1.8206   0.0000   0.0000   0.0000  -0.3705
  -4.600  -0.1290   0.02820   0.02427  -0.0879  0.9574  0.0449  -1.7610   0.0000   0.0000   0.0000  -0.4396
  -4.500  -0.1158   0.02740   0.02342  -0.0887  0.9561  0.0464  -1.7043   0.0000   0.0000   0.0000  -0.5243
  -4.400  -0.1026   0.02694   0.02280  -0.0894  0.9550  0.0493  -1.6341   0.0000   0.0000   0.0000  -0.6312
  -4.300  -0.0890   0.02608   0.02184  -0.0901  0.9538  0.0512  -1.5944   0.0000   0.0000   0.0000  -0.7732
  -4.200  -0.0752   0.02530   0.02097  -0.0907  0.9526  0.0533  -1.5559   0.0000   0.0000   0.0000  -0.9696
  -4.100  -0.0611   0.02471   0.02029  -0.0912  0.9513  0.0555  -1.5153   0.0000   0.0000   0.0000  -1.2593
  -4.000  -0.0492   0.02446   0.01998  -0.0911  0.9492  0.0574  -1.4724   0.0000   0.0000   0.0000  -1.6195
  -3.900  -0.0397   0.02488   0.02038  -0.0902  0.9457  0.0592  -1.4182   0.0000   0.0000   0.0000  -2.0426
  -3.800  -0.0275   0.02590   0.02137  -0.0895  0.9426  0.0604  -1.3467   0.0000   0.0000   0.0000  -3.0339
  -3.600  -0.0056   0.02448   0.01976  -0.0893  0.9368  0.0606  -1.2905   0.0000   0.0000   0.0000  -15.7201
  -3.500   0.0027   0.01707   0.01158  -0.0888  0.9340  0.0345  -1.6229   0.0000   0.0000   0.0000  33.4604
  -3.400   0.0152   0.01423   0.00823  -0.0877  0.9320  0.0231  -1.8394   0.0000   0.0000   0.0000   6.0692
  -3.300   0.0281   0.01430   0.00828  -0.0877  0.9300  0.0216  -1.7652   0.0000   0.0000   0.0000   3.4036
  -3.200   0.0407   0.01453   0.00854  -0.0877  0.9281  0.0207  -1.6741   0.0000   0.0000   0.0000   2.4258
  -3.100   0.0514   0.01322   0.00709  -0.0873  0.9260  0.0192  -1.7070   0.0000   0.0000   0.0000   1.9638
  -3.000   0.0618   0.01251   0.00630  -0.0870  0.9236  0.0186  -1.6954   0.0000   0.0000   0.0000   1.6690
  -2.900   0.0706   0.01200   0.00573  -0.0863  0.9202  0.0181  -1.6723   0.0000   0.0000   0.0000   1.4818
  -2.800   0.0801   0.01158   0.00525  -0.0858  0.9166  0.0177  -1.6415   0.0000   0.0000   0.0000   1.3291
  -2.700   0.0901   0.01120   0.00482  -0.0853  0.9130  0.0173  -1.6048   0.0000   0.0000   0.0000   1.2041
  -2.600   0.1005   0.01087   0.00443  -0.0849  0.9095  0.0170  -1.5628   0.0000   0.0000   0.0000   1.1011
  -2.500   0.1112   0.01059   0.00409  -0.0846  0.9062  0.0167  -1.5162   0.0000   0.0000   0.0000   1.0161
  -2.400   0.1221   0.01034   0.00379  -0.0843  0.9032  0.0166  -1.4657   0.0000   0.0000   0.0000   0.9454
  -2.300   0.1331   0.01014   0.00352  -0.0841  0.9004  0.0164  -1.4120   0.0000   0.0000   0.0000   0.8857
  -2.200   0.1444   0.00997   0.00329  -0.0839  0.8977  0.0164  -1.3550   0.0000   0.0000   0.0000   0.8344
  -2.100   0.1558   0.00985   0.00311  -0.0837  0.8948  0.0164  -1.2957   0.0000   0.0000   0.0000   0.7904
  -2.000   0.1662   0.00974   0.00296  -0.0834  0.8916  0.0165  -1.2371   0.0000   0.0000   0.0000   0.7545
  -1.900   0.1765   0.00964   0.00283  -0.0831  0.8878  0.0168  -1.1773   0.0000   0.0000   0.0000   0.7230
  -1.800   0.1870   0.00955   0.00271  -0.0828  0.8835  0.0171  -1.1153   0.0000   0.0000   0.0000   0.6947
  -1.700   0.1976   0.00946   0.00259  -0.0825  0.8792  0.0176  -1.0511   0.0000   0.0000   0.0000   0.6692
  -1.600   0.2083   0.00937   0.00248  -0.0823  0.8749  0.0183  -0.9851   0.0000   0.0000   0.0000   0.6462
  -1.500   0.2192   0.00929   0.00237  -0.0820  0.8708  0.0194  -0.9177   0.0000   0.0000   0.0000   0.6252
  -1.400   0.2303   0.00922   0.00228  -0.0818  0.8669  0.0224  -0.8517   0.0000   0.0000   0.0000   0.6061
  -1.300   0.2409   0.00891   0.00217  -0.0817  0.8631  0.0764  -0.7924   0.0000   0.0000   0.0000   0.5899
  -1.200   0.2515   0.00867   0.00211  -0.0816  0.8592  0.1281  -0.7363   0.0000   0.0000   0.0000   0.5752
  -1.100   0.2615   0.00844   0.00209  -0.0815  0.8550  0.1784  -0.6844   0.0000   0.0000   0.0000   0.5621
  -1.000   0.2717   0.00822   0.00207  -0.0814  0.8501  0.2333  -0.6349   0.0000   0.0000   0.0000   0.5499
  -0.900   0.2818   0.00800   0.00205  -0.0813  0.8446  0.2897  -0.5871   0.0000   0.0000   0.0000   0.5385
  -0.800   0.2920   0.00777   0.00202  -0.0811  0.8390  0.3490  -0.5406   0.0000   0.0000   0.0000   0.5278
  -0.700   0.3022   0.00755   0.00199  -0.0810  0.8334  0.4093  -0.5325   0.0000   0.0000   0.0000   0.5177
  -0.600   0.3122   0.00732   0.00196  -0.0807  0.8279  0.4785  -0.5423   0.0000   0.0000   0.0000   0.5082
  -0.400   0.3293   0.00671   0.00207  -0.0796  0.8175  0.6857  -0.5603   0.0000   0.0000   0.0000   0.4911
  -0.300   0.3324   0.00607   0.00225  -0.0764  0.8130  0.9597  -0.5670   0.0000   0.0000   0.0000   0.4793
  -0.200   0.3507   0.00603   0.00219  -0.0779  0.8075  0.9790  -0.5826   0.0000   0.0000   0.0000   0.4713
  -0.100   0.3691   0.00600   0.00212  -0.0794  0.8011  0.9953  -0.5991   0.0000   0.0000   0.0000   0.4641
   0.000   0.3816   0.00600   0.00206  -0.0796  0.7940  1.0000  -0.6120   0.0000   0.0000   0.0000   0.4576
   0.100   0.3918   0.00602   0.00201  -0.0793  0.7864  1.0000  -0.6234   0.0000   0.0000   0.0000   0.4513
   0.200   0.4022   0.00605   0.00198  -0.0791  0.7794  1.0000  -0.6350   0.0000   0.0000   0.0000   0.4455
   0.300   0.4125   0.00606   0.00197  -0.0789  0.7726  1.0000  -0.6465   0.0000   0.0000   0.0000   0.4400
   0.400   0.4229   0.00609   0.00195  -0.0787  0.7649  1.0000  -0.6581   0.0000   0.0000   0.0000   0.4347
   0.500   0.4333   0.00611   0.00193  -0.0785  0.7571  1.0000  -0.6698   0.0000   0.0000   0.0000   0.4297
   0.600   0.4437   0.00615   0.00190  -0.0783  0.7493  1.0000  -0.6827   0.0000   0.0000   0.0000   0.4249
   0.700   0.4540   0.00621   0.00188  -0.0780  0.7408  1.0000  -0.6962   0.0000   0.0000   0.0000   0.4202
   0.800   0.4646   0.00624   0.00188  -0.0779  0.7342  1.0000  -0.7100   0.0000   0.0000   0.0000   0.4160
   0.900   0.4752   0.00627   0.00188  -0.0777  0.7268  1.0000  -0.7238   0.0000   0.0000   0.0000   0.4118
   1.000   0.4857   0.00630   0.00188  -0.0776  0.7181  1.0000  -0.7376   0.0000   0.0000   0.0000   0.4079
   1.100   0.4960   0.00636   0.00186  -0.0773  0.7089  1.0000  -0.7514   0.0000   0.0000   0.0000   0.4040
   1.200   0.5062   0.00643   0.00186  -0.0771  0.6993  1.0000  -0.7651   0.0000   0.0000   0.0000   0.4003
   1.300   0.5167   0.00649   0.00187  -0.0769  0.6910  1.0000  -0.7790   0.0000   0.0000   0.0000   0.3968
   1.400   0.5275   0.00652   0.00188  -0.0768  0.6850  1.0000  -0.7931   0.0000   0.0000   0.0000   0.3935
   1.500   0.5382   0.00656   0.00190  -0.0767  0.6778  1.0000  -0.8073   0.0000   0.0000   0.0000   0.3903
   1.600   0.5487   0.00661   0.00191  -0.0766  0.6695  1.0000  -0.8234   0.0000   0.0000   0.0000   0.3872
   1.700   0.5591   0.00668   0.00191  -0.0764  0.6603  1.0000  -0.8398   0.0000   0.0000   0.0000   0.3842
   1.800   0.5692   0.00677   0.00193  -0.0761  0.6500  1.0000  -0.8561   0.0000   0.0000   0.0000   0.3813
   1.900   0.5797   0.00683   0.00195  -0.0760  0.6420  1.0000  -0.8728   0.0000   0.0000   0.0000   0.3785
   2.000   0.5905   0.00687   0.00198  -0.0759  0.6347  1.0000  -0.8898   0.0000   0.0000   0.0000   0.3759
   2.100   0.6010   0.00692   0.00200  -0.0757  0.6261  1.0000  -0.9067   0.0000   0.0000   0.0000   0.3733
   2.200   0.6114   0.00700   0.00202  -0.0756  0.6171  1.0000  -0.9235   0.0000   0.0000   0.0000   0.3708
   2.300   0.6217   0.00708   0.00204  -0.0754  0.6081  1.0000  -0.9402   0.0000   0.0000   0.0000   0.3684
   2.400   0.6318   0.00718   0.00208  -0.0752  0.5981  1.0000  -0.9568   0.0000   0.0000   0.0000   0.3660
   2.500   0.6426   0.00723   0.00212  -0.0751  0.5924  1.0000  -0.9743   0.0000   0.0000   0.0000   0.3638
   2.600   0.6534   0.00727   0.00215  -0.0750  0.5857  1.0000  -0.9948   0.0000   0.0000   0.0000   0.3617
   2.700   0.6640   0.00734   0.00218  -0.0749  0.5773  1.0000  -1.0152   0.0000   0.0000   0.0000   0.3596
   2.800   0.6743   0.00742   0.00221  -0.0747  0.5676  1.0000  -1.0355   0.0000   0.0000   0.0000   0.3576
   2.900   0.6842   0.00753   0.00225  -0.0745  0.5567  1.0000  -1.0554   0.0000   0.0000   0.0000   0.3555
   3.000   0.6943   0.00764   0.00230  -0.0743  0.5459  1.0000  -1.0756   0.0000   0.0000   0.0000   0.3536
   3.100   0.7051   0.00768   0.00234  -0.0742  0.5398  1.0000  -1.0966   0.0000   0.0000   0.0000   0.3517
   3.200   0.7159   0.00773   0.00242  -0.0741  0.5333  1.0000  -1.1179   0.0000   0.0000   0.0000   0.3500
   3.300   0.7264   0.00780   0.00246  -0.0740  0.5253  1.0000  -1.1388   0.0000   0.0000   0.0000   0.3482
   3.400   0.7366   0.00789   0.00250  -0.0739  0.5166  1.0000  -1.1595   0.0000   0.0000   0.0000   0.3465
   3.500   0.7466   0.00801   0.00255  -0.0737  0.5070  1.0000  -1.1800   0.0000   0.0000   0.0000   0.3448
   3.600   0.7567   0.00812   0.00261  -0.0735  0.4967  1.0000  -1.2005   0.0000   0.0000   0.0000   0.3431
   3.700   0.7675   0.00817   0.00266  -0.0734  0.4916  1.0000  -1.2221   0.0000   0.0000   0.0000   0.3416
   3.800   0.7781   0.00823   0.00271  -0.0733  0.4842  1.0000  -1.2475   0.0000   0.0000   0.0000   0.3401
   3.900   0.7885   0.00832   0.00276  -0.0732  0.4749  1.0000  -1.2732   0.0000   0.0000   0.0000   0.3386
   4.000   0.7984   0.00844   0.00281  -0.0730  0.4642  1.0000  -1.2987   0.0000   0.0000   0.0000   0.3371
   4.100   0.8078   0.00860   0.00289  -0.0727  0.4503  1.0000  -1.3235   0.0000   0.0000   0.0000   0.3356
   4.200   0.8183   0.00868   0.00295  -0.0726  0.4417  1.0000  -1.3500   0.0000   0.0000   0.0000   0.3342
   4.300   0.8286   0.00877   0.00300  -0.0725  0.4308  1.0000  -1.3817   0.0000   0.0000   0.0000   0.3329
   4.400   0.8382   0.00892   0.00306  -0.0722  0.4171  1.0000  -1.4130   0.0000   0.0000   0.0000   0.3315
   4.500   0.8472   0.00911   0.00315  -0.0719  0.3999  1.0000  -1.4436   0.0000   0.0000   0.0000   0.3301
   4.600   0.8576   0.00920   0.00321  -0.0718  0.3897  1.0000  -1.4765   0.0000   0.0000   0.0000   0.3288
   4.700   0.8673   0.00935   0.00328  -0.0716  0.3748  1.0000  -1.5085   0.0000   0.0000   0.0000   0.3275
   4.800   0.8760   0.00957   0.00337  -0.0713  0.3558  1.0000  -1.5393   0.0000   0.0000   0.0000   0.3262
   4.900   0.8860   0.00970   0.00345  -0.0711  0.3423  1.0000  -1.5720   0.0000   0.0000   0.0000   0.3250
   5.000   0.8953   0.00989   0.00354  -0.0708  0.3253  1.0000  -1.6040   0.0000   0.0000   0.0000   0.3238
   5.100   0.9040   0.01014   0.00365  -0.0705  0.3049  1.0000  -1.6350   0.0000   0.0000   0.0000   0.3226
   5.200   0.9140   0.01026   0.00374  -0.0704  0.2932  1.0000  -1.6685   0.0000   0.0000   0.0000   0.3215
   5.300   0.9233   0.01046   0.00384  -0.0702  0.2785  1.0000  -1.7009   0.0000   0.0000   0.0000   0.3204
   5.400   0.9325   0.01067   0.00395  -0.0699  0.2645  1.0000  -1.7332   0.0000   0.0000   0.0000   0.3193
   5.500   0.9427   0.01078   0.00404  -0.0698  0.2580  1.0000  -1.7673   0.0000   0.0000   0.0000   0.3182
   5.600   0.9529   0.01088   0.00414  -0.0697  0.2520  1.0000  -1.8030   0.0000   0.0000   0.0000   0.3172
   5.700   0.9629   0.01101   0.00425  -0.0695  0.2445  1.0000  -1.8555   0.0000   0.0000   0.0000   0.3162
   5.800   0.9726   0.01118   0.00436  -0.0694  0.2360  1.0000  -1.9149   0.0000   0.0000   0.0000   0.3152
   5.900   0.9820   0.01136   0.00448  -0.0692  0.2264  1.0000  -1.9744   0.0000   0.0000   0.0000   0.3142
   6.000   0.9919   0.01150   0.00459  -0.0690  0.2181  1.0000  -2.0360   0.0000   0.0000   0.0000   0.3132
   6.100   1.0019   0.01163   0.00470  -0.0689  0.2113  1.0000  -2.1292   0.0000   0.0000   0.0000   0.3123
   6.200   1.0114   0.01180   0.00483  -0.0687  0.2016  1.0000  -2.2224   0.0000   0.0000   0.0000   0.3113
   6.300   1.0202   0.01205   0.00498  -0.0684  0.1898  1.0000  -2.3137   0.0000   0.0000   0.0000   0.3103
   6.400   1.0297   0.01223   0.00511  -0.0682  0.1796  1.0000  -2.4089   0.0000   0.0000   0.0000   0.3094
   6.500   1.0395   0.01237   0.00523  -0.0681  0.1729  1.0000  -2.5072   0.0000   0.0000   0.0000   0.3085
   6.600   1.0490   0.01254   0.00536  -0.0679  0.1648  1.0000  -2.6051   0.0000   0.0000   0.0000   0.3076
   6.700   1.0580   0.01278   0.00552  -0.0676  0.1553  1.0000  -2.7012   0.0000   0.0000   0.0000   0.3067
   6.800   1.0671   0.01299   0.00567  -0.0674  0.1455  1.0000  -2.7991   0.0000   0.0000   0.0000   0.3058
   6.900   1.0808   0.01274   0.00607  -0.0675  0.1741  1.0000  -2.9774   0.0000   0.0000   0.0000   0.3051
   7.000   1.0908   0.01285   0.00624  -0.0674  0.1727  1.0000  -3.0913   0.0000   0.0000   0.0000   0.3042
   7.100   1.1006   0.01299   0.00640  -0.0672  0.1694  1.0000  -3.2027   0.0000   0.0000   0.0000   0.3034
   7.200   1.1100   0.01317   0.00657  -0.0670  0.1642  1.0000  -3.3123   0.0000   0.0000   0.0000   0.3026
   7.300   1.1190   0.01339   0.00675  -0.0667  0.1574  1.0000  -3.4199   0.0000   0.0000   0.0000   0.3017
   7.400   1.1279   0.01361   0.00694  -0.0664  0.1491  1.0000  -3.5277   0.0000   0.0000   0.0000   0.3009
   7.500   1.1375   0.01377   0.00711  -0.0662  0.1443  1.0000  -3.6402   0.0000   0.0000   0.0000   0.3001
   7.600   1.1472   0.01390   0.00726  -0.0661  0.1403  1.0000  -3.7547   0.0000   0.0000   0.0000   0.2993
   7.700   1.1565   0.01408   0.00743  -0.0658  0.1348  1.0000  -3.8681   0.0000   0.0000   0.0000   0.2985
   7.800   1.1652   0.01431   0.00762  -0.0656  0.1282  1.0000  -3.9792   0.0000   0.0000   0.0000   0.2977
   7.900   1.1736   0.01458   0.00783  -0.0652  0.1205  1.0000  -4.0887   0.0000   0.0000   0.0000   0.2969
   8.000   1.1824   0.01480   0.00804  -0.0649  0.1134  1.0000  -4.2011   0.0000   0.0000   0.0000   0.2961
   8.100   1.1919   0.01494   0.00820  -0.0647  0.1099  1.0000  -4.3192   0.0000   0.0000   0.0000   0.2954
   8.200   1.2009   0.01513   0.00838  -0.0645  0.1046  1.0000  -4.4354   0.0000   0.0000   0.0000   0.2946
   8.300   1.2094   0.01538   0.00859  -0.0642  0.0981  1.0000  -4.5486   0.0000   0.0000   0.0000   0.2939
   8.400   1.2173   0.01568   0.00882  -0.0638  0.0905  1.0000  -4.6586   0.0000   0.0000   0.0000   0.2931
   8.500   1.2260   0.01590   0.00904  -0.0635  0.0845  1.0000  -4.7728   0.0000   0.0000   0.0000   0.2923
   8.600   1.2347   0.01611   0.00923  -0.0632  0.0789  1.0000  -4.8872   0.0000   0.0000   0.0000   0.2916
   8.700   1.2422   0.01645   0.00947  -0.0628  0.0699  1.0000  -4.9914   0.0000   0.0000   0.0000   0.2908
   8.800   1.2487   0.01689   0.00978  -0.0623  0.0550  1.0000  -5.0711   0.0000   0.0000   0.0000   0.2900
   8.900   1.2412   0.01893   0.01141  -0.0595  0.0117  1.0000  -4.8449   0.0000   0.0000   0.0000   0.2880
   9.000   1.2482   0.01932   0.01189  -0.0589  0.0113  1.0000  -4.9033   0.0000   0.0000   0.0000   0.2870
   9.100   1.2548   0.01974   0.01239  -0.0582  0.0110  1.0000  -4.9643   0.0000   0.0000   0.0000   0.2861
   9.200   1.2611   0.02017   0.01291  -0.0575  0.0109  1.0000  -5.0258   0.0000   0.0000   0.0000   0.2851
   9.300   1.2669   0.02063   0.01345  -0.0567  0.0107  1.0000  -5.0868   0.0000   0.0000   0.0000   0.2842
   9.400   1.2724   0.02110   0.01400  -0.0558  0.0106  1.0000  -5.1464   0.0000   0.0000   0.0000   0.2832
   9.500   1.2774   0.02161   0.01458  -0.0549  0.0106  1.0000  -5.2040   0.0000   0.0000   0.0000   0.2822
   9.600   1.2818   0.02213   0.01519  -0.0540  0.0105  1.0000  -5.2590   0.0000   0.0000   0.0000   0.2811
   9.700   1.2857   0.02269   0.01583  -0.0529  0.0105  1.0000  -5.3115   0.0000   0.0000   0.0000   0.2800
   9.800   1.2889   0.02326   0.01647  -0.0518  0.0105  1.0000  -5.3605   0.0000   0.0000   0.0000   0.2789
   9.900   1.2911   0.02384   0.01712  -0.0505  0.0105  1.0000  -5.4052   0.0000   0.0000   0.0000   0.2777
  10.000   1.2929   0.02444   0.01780  -0.0492  0.0105  1.0000  -5.4473   0.0000   0.0000   0.0000   0.2765
  10.100   1.2944   0.02507   0.01850  -0.0478  0.0105  1.0000  -5.4871   0.0000   0.0000   0.0000   0.2753
  10.200   1.2957   0.02573   0.01924  -0.0465  0.0106  1.0000  -5.5250   0.0000   0.0000   0.0000   0.2741
  10.300   1.2968   0.02643   0.02001  -0.0452  0.0106  1.0000  -5.5609   0.0000   0.0000   0.0000   0.2729
  10.400   1.2976   0.02716   0.02082  -0.0439  0.0106  1.0000  -5.5950   0.0000   0.0000   0.0000   0.2717
  10.500   1.2985   0.02793   0.02167  -0.0427  0.0107  1.0000  -5.6277   0.0000   0.0000   0.0000   0.2706
  10.600   1.2984   0.02883   0.02272  -0.0414  0.0106  1.0000  -5.6303   0.0000   0.0000   0.0000   0.2695
  10.700   1.2988   0.02969   0.02366  -0.0402  0.0107  1.0000  -5.6545   0.0000   0.0000   0.0000   0.2684
  10.800   1.2992   0.03059   0.02465  -0.0390  0.0107  1.0000  -5.6793   0.0000   0.0000   0.0000   0.2673
  10.900   1.2997   0.03154   0.02568  -0.0379  0.0108  1.0000  -5.7034   0.0000   0.0000   0.0000   0.2663
  11.000   1.2998   0.03254   0.02676  -0.0368  0.0109  1.0000  -5.7253   0.0000   0.0000   0.0000   0.2653
  11.100   1.2999   0.03359   0.02790  -0.0358  0.0109  1.0000  -5.7450   0.0000   0.0000   0.0000   0.2644
  11.200   1.2998   0.03469   0.02910  -0.0348  0.0110  1.0000  -5.7624   0.0000   0.0000   0.0000   0.2635
  11.300   1.2995   0.03586   0.03037  -0.0338  0.0111  1.0000  -5.7769   0.0000   0.0000   0.0000   0.2626
  11.400   1.2986   0.03709   0.03170  -0.0328  0.0112  1.0000  -5.7873   0.0000   0.0000   0.0000   0.2617
  11.500   1.2971   0.03838   0.03308  -0.0319  0.0113  1.0000  -5.7933   0.0000   0.0000   0.0000   0.2608
  11.600   1.2950   0.03973   0.03454  -0.0309  0.0113  1.0000  -5.7951   0.0000   0.0000   0.0000   0.2600
  11.700   1.2925   0.04117   0.03609  -0.0301  0.0114  1.0000  -5.7923   0.0000   0.0000   0.0000   0.2592
  11.800   1.2893   0.04270   0.03773  -0.0292  0.0115  1.0000  -5.7841   0.0000   0.0000   0.0000   0.2585
  11.900   1.2852   0.04433   0.03947  -0.0285  0.0116  1.0000  -5.7701   0.0000   0.0000   0.0000   0.2578
  12.000   1.2804   0.04609   0.04134  -0.0278  0.0117  1.0000  -5.7491   0.0000   0.0000   0.0000   0.2572
  12.100   1.2746   0.04800   0.04337  -0.0272  0.0118  1.0000  -5.7191   0.0000   0.0000   0.0000   0.2567
  12.200   1.2673   0.05009   0.04557  -0.0267  0.0119  1.0000  -5.6774   0.0000   0.0000   0.0000   0.2562
  12.300   1.2575   0.05262   0.04824  -0.0262  0.0120  1.0000  -5.6069   0.0000   0.0000   0.0000   0.2559
  12.400   1.2523   0.05499   0.05072  -0.0258  0.0125  1.0000  -5.5459   0.0000   0.0000   0.0000   0.2555
  12.500   1.2547   0.05562   0.05138  -0.0257  0.0126  1.0000  -5.6116   0.0000   0.0000   0.0000   0.2552
  12.600   1.2569   0.05630   0.05208  -0.0256  0.0127  1.0000  -5.6750   0.0000   0.0000   0.0000   0.2549
  12.700   1.2589   0.05701   0.05283  -0.0255  0.0129  1.0000  -5.7357   0.0000   0.0000   0.0000   0.2546
  12.800   1.2603   0.05778   0.05364  -0.0254  0.0130  1.0000  -5.7919   0.0000   0.0000   0.0000   0.2544
  12.900   1.2606   0.05872   0.05461  -0.0255  0.0131  1.0000  -5.8381   0.0000   0.0000   0.0000   0.2542
  13.000   1.2604   0.05975   0.05569  -0.0255  0.0133  1.0000  -5.8791   0.0000   0.0000   0.0000   0.2541
  13.100   1.2601   0.06086   0.05686  -0.0256  0.0135  1.0000  -5.9165   0.0000   0.0000   0.0000   0.2540
  13.200   1.2591   0.06211   0.05817  -0.0258  0.0137  1.0000  -5.9453   0.0000   0.0000   0.0000   0.2539
  13.300   1.2563   0.06365   0.05978  -0.0262  0.0139  1.0000  -5.9580   0.0000   0.0000   0.0000   0.2541
  13.400   1.2528   0.06538   0.06159  -0.0266  0.0141  1.0000  -5.9593   0.0000   0.0000   0.0000   0.2543
  13.500   1.2479   0.06738   0.06369  -0.0272  0.0144  1.0000  -5.9435   0.0000   0.0000   0.0000   0.2547
  13.600   1.2409   0.06977   0.06619  -0.0281  0.0146  1.0000  -5.9080   0.0000   0.0000   0.0000   0.2553
  13.700   1.2326   0.07249   0.06903  -0.0291  0.0149  1.0000  -5.8524   0.0000   0.0000   0.0000   0.2562
  13.800   1.2231   0.07548   0.07214  -0.0305  0.0151  1.0000  -5.7871   0.0000   0.0000   0.0000   0.2573
  13.900   1.2130   0.07866   0.07543  -0.0320  0.0154  1.0000  -5.7151   0.0000   0.0000   0.0000   0.2585
  14.000   1.2029   0.08193   0.07881  -0.0337  0.0156  1.0000  -5.6437   0.0000   0.0000   0.0000   0.2600
  14.100   1.1934   0.08519   0.08216  -0.0355  0.0157  1.0000  -5.5811   0.0000   0.0000   0.0000   0.2616
  14.200   1.1838   0.08854   0.08560  -0.0374  0.0158  1.0000  -5.5145   0.0000   0.0000   0.0000   0.2633
  14.300   1.1752   0.09177   0.08890  -0.0395  0.0158  1.0000  -5.4646   0.0000   0.0000   0.0000   0.2651
  14.400   1.1664   0.09514   0.09234  -0.0416  0.0159  1.0000  -5.4046   0.0000   0.0000   0.0000   0.2670
  14.500   1.1584   0.09840   0.09567  -0.0438  0.0159  1.0000  -5.3590   0.0000   0.0000   0.0000   0.2690
  14.600   1.1503   0.10176   0.09908  -0.0460  0.0159  1.0000  -5.3073   0.0000   0.0000   0.0000   0.2711
  14.700   1.1425   0.10513   0.10252  -0.0483  0.0159  1.0000  -5.2567   0.0000   0.0000   0.0000   0.2732
  14.800   1.1352   0.10849   0.10592  -0.0506  0.0158  1.0000  -5.2120   0.0000   0.0000   0.0000   0.2754
  14.900   1.1275   0.11198   0.10946  -0.0530  0.0158  1.0000  -5.1559   0.0000   0.0000   0.0000   0.2777
  15.000   1.1206   0.11539   0.11291  -0.0554  0.0157  1.0000  -5.1110   0.0000   0.0000   0.0000   0.2801
  15.100   1.1133   0.11894   0.11651  -0.0579  0.0156  1.0000  -5.0545   0.0000   0.0000   0.0000   0.2825
  15.200   1.1060   0.12244   0.12005  -0.0603  0.0155  1.0000  -4.9967   0.0000   0.0000   0.0000   0.2850
  15.300   1.0991   0.12586   0.12350  -0.0628  0.0154  1.0000  -4.9401   0.0000   0.0000   0.0000   0.2875
  15.400   1.0915   0.12944   0.12712  -0.0653  0.0154  1.0000  -4.8677   0.0000   0.0000   0.0000   0.2901
  15.500   1.0843   0.13314   0.13085  -0.0679  0.0153  1.0000  -4.7982   0.0000   0.0000   0.0000   0.2929
  15.600   1.0763   0.13717   0.13491  -0.0706  0.0152  1.0000  -4.7079   0.0000   0.0000   0.0000   0.2958
  15.700   1.0679   0.14149   0.13926  -0.0734  0.0151  1.0000  -4.6073   0.0000   0.0000   0.0000   0.2990
  15.800   1.0584   0.14638   0.14418  -0.0764  0.0150  1.0000  -4.4760   0.0000   0.0000   0.0000   0.3025
  15.900   1.0469   0.15218   0.15000  -0.0798  0.0150  1.0000  -4.3004   0.0000   0.0000   0.0000   0.3066
  16.000   1.0253   0.16225   0.16004  -0.0848  0.0154  1.0000  -3.8998   0.0000   0.0000   0.0000   0.3135
  16.500   0.9817   0.19477   0.19250  -0.0967  0.0262  1.0000  -2.5997   0.0000   0.0000   0.0000   0.3301
  16.600   0.9815   0.19736   0.19509  -0.0977  0.0260  1.0000  -2.5765   0.0000   0.0000   0.0000   0.3311
  16.700   0.9796   0.20053   0.19826  -0.0989  0.0256  1.0000  -2.5336   0.0000   0.0000   0.0000   0.3324
  17.000   0.9623   0.21678   0.21444  -0.1047  0.0245  1.0000  -2.1432   0.0000   0.0000   0.0000   0.3403
  17.100   0.9633   0.21932   0.21698  -0.1056  0.0245  1.0000  -2.1241   0.0000   0.0000   0.0000   0.3411
  17.200   0.9644   0.22185   0.21951  -0.1066  0.0244  1.0000  -2.1057   0.0000   0.0000   0.0000   0.3418
  17.300   0.9654   0.22437   0.22203  -0.1075  0.0244  1.0000  -2.0880   0.0000   0.0000   0.0000   0.3426
  17.400   0.9665   0.22689   0.22455  -0.1084  0.0244  1.0000  -2.0709   0.0000   0.0000   0.0000   0.3433
  17.500   0.9676   0.22939   0.22705  -0.1093  0.0244  1.0000  -2.0544   0.0000   0.0000   0.0000   0.3440
  17.600   0.9688   0.23189   0.22955  -0.1102  0.0244  1.0000  -2.0384   0.0000   0.0000   0.0000   0.3446
  17.700   0.9699   0.23437   0.23204  -0.1111  0.0244  1.0000  -2.0229   0.0000   0.0000   0.0000   0.3453
  17.800   0.9710   0.23685   0.23452  -0.1120  0.0244  1.0000  -2.0080   0.0000   0.0000   0.0000   0.3460
  17.900   0.9722   0.23932   0.23699  -0.1129  0.0244  1.0000  -1.9935   0.0000   0.0000   0.0000   0.3466
  18.000   0.9733   0.24178   0.23945  -0.1137  0.0244  1.0000  -1.9794   0.0000   0.0000   0.0000   0.3472
  18.100   0.9745   0.24424   0.24191  -0.1146  0.0243  1.0000  -1.9658   0.0000   0.0000   0.0000   0.3479
  18.200   0.9756   0.24668   0.24435  -0.1154  0.0243  1.0000  -1.9526   0.0000   0.0000   0.0000   0.3485
  18.300   0.9768   0.24911   0.24679  -0.1163  0.0243  1.0000  -1.9398   0.0000   0.0000   0.0000   0.3491
  18.400   0.9779   0.25153   0.24921  -0.1171  0.0243  1.0000  -1.9274   0.0000   0.0000   0.0000   0.3497
  18.500   0.9790   0.25394   0.25162  -0.1180  0.0243  1.0000  -1.9154   0.0000   0.0000   0.0000   0.3503
  18.600   0.9801   0.25633   0.25401  -0.1188  0.0242  1.0000  -1.9038   0.0000   0.0000   0.0000   0.3509
  18.700   0.9812   0.25871   0.25639  -0.1197  0.0242  1.0000  -1.8927   0.0000   0.0000   0.0000   0.3515
  18.800   0.9823   0.26106   0.25874  -0.1205  0.0242  1.0000  -1.8820   0.0000   0.0000   0.0000   0.3520
  18.900   0.9833   0.26339   0.26107  -0.1213  0.0241  1.0000  -1.8718   0.0000   0.0000   0.0000   0.3526
  19.000   0.9844   0.26568   0.26337  -0.1221  0.0241  1.0000  -1.8622   0.0000   0.0000   0.0000   0.3532
  19.100   0.9855   0.26794   0.26563  -0.1229  0.0240  1.0000  -1.8534   0.0000   0.0000   0.0000   0.3537
  19.200   0.9867   0.27013   0.26783  -0.1238  0.0239  1.0000  -1.8454   0.0000   0.0000   0.0000   0.3543
  19.300   0.9879   0.27225   0.26996  -0.1246  0.0238  1.0000  -1.8387   0.0000   0.0000   0.0000   0.3548
  19.400   0.9892   0.27426   0.27197  -0.1254  0.0237  1.0000  -1.8336   0.0000   0.0000   0.0000   0.3553
  19.500   0.9908   0.27613   0.27384  -0.1263  0.0234  1.0000  -1.8299   0.0000   0.0000   0.0000   0.3559
  19.600   0.9918   0.27811   0.27582  -0.1274  0.0229  1.0000  -1.8138   0.0000   0.0000   0.0000   0.3568
  19.700   0.9925   0.28034   0.27806  -0.1286  0.0224  1.0000  -1.7895   0.0000   0.0000   0.0000   0.3578
  19.800   0.9931   0.28271   0.28043  -0.1296  0.0218  1.0000  -1.7675   0.0000   0.0000   0.0000   0.3586
  19.900   0.9937   0.28512   0.28284  -0.1305  0.0213  1.0000  -1.7493   0.0000   0.0000   0.0000   0.3593
  20.000   0.9940   0.28752   0.28524  -0.1313  0.0208  1.0000  -1.7343   0.0000   0.0000   0.0000   0.3599
  20.100   0.9943   0.28989   0.28762  -0.1321  0.0203  1.0000  -1.7215   0.0000   0.0000   0.0000   0.3605
  20.200   0.9945   0.29223   0.28996  -0.1328  0.0199  1.0000  -1.7103   0.0000   0.0000   0.0000   0.3611
  20.300   0.9945   0.29454   0.29228  -0.1335  0.0195  1.0000  -1.7003   0.0000   0.0000   0.0000   0.3616
  20.400   0.9945   0.29682   0.29456  -0.1341  0.0192  1.0000  -1.6911   0.0000   0.0000   0.0000   0.3621
  20.500   0.9942   0.29906   0.29681  -0.1347  0.0188  1.0000  -1.6825   0.0000   0.0000   0.0000   0.3626
  20.600   0.9939   0.30125   0.29907  -0.1353  0.0185  1.0000  -1.6711   0.0000   0.0000   0.0000   0.3632
  20.700   0.9933   0.30340   0.30122  -0.1359  0.0182  1.0000  -1.6625   0.0000   0.0000   0.0000   0.3637
  20.800   0.9926   0.30550   0.30333  -0.1364  0.0179  1.0000  -1.6547   0.0000   0.0000   0.0000   0.3642
  20.900   0.9916   0.30755   0.30539  -0.1369  0.0176  1.0000  -1.6471   0.0000   0.0000   0.0000   0.3647
  21.000   0.9902   0.30954   0.30738  -0.1373  0.0174  1.0000  -1.6393   0.0000   0.0000   0.0000   0.3652
  21.100   0.9885   0.31143   0.30929  -0.1377  0.0171  1.0000  -1.6312   0.0000   0.0000   0.0000   0.3657
  21.200   0.9863   0.31321   0.31108  -0.1381  0.0169  1.0000  -1.6222   0.0000   0.0000   0.0000   0.3662
  21.300   0.9834   0.31484   0.31271  -0.1383  0.0167  1.0000  -1.6119   0.0000   0.0000   0.0000   0.3668
  21.600   0.9216   0.30609   0.30410  -0.1330  0.0164  1.0000  -1.4389   0.0000   0.0000   0.0000   0.3710
  21.700   0.9166   0.30611   0.30412  -0.1329  0.0163  1.0000  -1.4243   0.0000   0.0000   0.0000   0.3716
  21.800   0.9123   0.30623   0.30426  -0.1329  0.0161  1.0000  -1.4122   0.0000   0.0000   0.0000   0.3722
  21.900   0.9086   0.30641   0.30445  -0.1329  0.0159  1.0000  -1.4019   0.0000   0.0000   0.0000   0.3727
  22.000   0.9053   0.30664   0.30470  -0.1330  0.0157  1.0000  -1.3932   0.0000   0.0000   0.0000   0.3732
  22.100   0.9023   0.30692   0.30499  -0.1331  0.0156  1.0000  -1.3859   0.0000   0.0000   0.0000   0.3737
  22.200   0.8995   0.30723   0.30531  -0.1332  0.0154  1.0000  -1.3798   0.0000   0.0000   0.0000   0.3742
  22.300   0.8971   0.30756   0.30565  -0.1333  0.0152  1.0000  -1.3749   0.0000   0.0000   0.0000   0.3747
  22.400   0.8948   0.30791   0.30601  -0.1335  0.0151  1.0000  -1.3710   0.0000   0.0000   0.0000   0.3751
  22.500   0.8927   0.30826   0.30638  -0.1336  0.0149  1.0000  -1.3689   0.0000   0.0000   0.0000   0.3755
  22.600   0.8909   0.30861   0.30673  -0.1338  0.0147  1.0000  -1.3698   0.0000   0.0000   0.0000   0.3758
  22.700   0.8893   0.30893   0.30707  -0.1340  0.0146  1.0000  -1.3745   0.0000   0.0000   0.0000   0.3761
  22.800   0.8879   0.30921   0.30736  -0.1341  0.0143  1.0000  -1.3845   0.0000   0.0000   0.0000   0.3764
  22.900   0.8869   0.30942   0.30758  -0.1342  0.0141  1.0000  -1.4018   0.0000   0.0000   0.0000   0.3765
  23.000   0.8861   0.30953   0.30770  -0.1343  0.0138  1.0000  -1.4291   0.0000   0.0000   0.0000   0.3765
  23.100   0.8858   0.30951   0.30769  -0.1342  0.0135  1.0000  -1.4697   0.0000   0.0000   0.0000   0.3762
  23.200   0.8860   0.30933   0.30753  -0.1339  0.0132  1.0000  -1.5276   0.0000   0.0000   0.0000   0.3756
  23.300   0.8702   0.31150   0.30968  -0.1330  0.0122  1.0000  -1.3384   0.0000   0.0000   0.0000   0.3776
  23.400   0.8688   0.31211   0.31030  -0.1333  0.0122  1.0000  -1.3246   0.0000   0.0000   0.0000   0.3782
  23.500   0.8675   0.31272   0.31091  -0.1337  0.0122  1.0000  -1.3115   0.0000   0.0000   0.0000   0.3788
  23.600   0.8663   0.31333   0.31153  -0.1341  0.0122  1.0000  -1.2991   0.0000   0.0000   0.0000   0.3793
  23.700   0.8651   0.31395   0.31216  -0.1345  0.0121  1.0000  -1.2873   0.0000   0.0000   0.0000   0.3798
  23.800   0.8641   0.31458   0.31280  -0.1349  0.0121  1.0000  -1.2763   0.0000   0.0000   0.0000   0.3803
  23.900   0.8631   0.31523   0.31346  -0.1352  0.0121  1.0000  -1.2658   0.0000   0.0000   0.0000   0.3808
  24.000   0.8621   0.31588   0.31412  -0.1356  0.0121  1.0000  -1.2557   0.0000   0.0000   0.0000   0.3812
  24.100   0.8612   0.31654   0.31478  -0.1359  0.0121  1.0000  -1.2458   0.0000   0.0000   0.0000   0.3817
  24.200   0.8603   0.31719   0.31544  -0.1363  0.0121  1.0000  -1.2359   0.0000   0.0000   0.0000   0.3821
  24.300   0.8595   0.31785   0.31611  -0.1367  0.0121  1.0000  -1.2263   0.0000   0.0000   0.0000   0.3826
  24.400   0.8587   0.31851   0.31678  -0.1371  0.0121  1.0000  -1.2168   0.0000   0.0000   0.0000   0.3830
  24.500   0.8579   0.31918   0.31745  -0.1374  0.0120  1.0000  -1.2076   0.0000   0.0000   0.0000   0.3834
  24.600   0.8572   0.31985   0.31813  -0.1378  0.0120  1.0000  -1.1986   0.0000   0.0000   0.0000   0.3839
  24.700   0.8565   0.32052   0.31881  -0.1382  0.0120  1.0000  -1.1899   0.0000   0.0000   0.0000   0.3843
  24.800   0.8559   0.32120   0.31949  -0.1386  0.0120  1.0000  -1.1814   0.0000   0.0000   0.0000   0.3847
  24.900   0.8553   0.32188   0.32018  -0.1390  0.0120  1.0000  -1.1733   0.0000   0.0000   0.0000   0.3852
  25.000   0.8548   0.32257   0.32087  -0.1394  0.0119  1.0000  -1.1678   0.0000   0.0000   0.0000   0.3856
  25.100   0.8543   0.32326   0.32157  -0.1399  0.0119  1.0000  -1.1666   0.0000   0.0000   0.0000   0.3861
  25.200   0.8538   0.32397   0.32228  -0.1403  0.0118  1.0000  -1.1631   0.0000   0.0000   0.0000   0.3865
  25.300   0.8536   0.32471   0.32302  -0.1408  0.0117  1.0000  -1.1570   0.0000   0.0000   0.0000   0.3870
  25.400   0.8534   0.32553   0.32385  -0.1415  0.0116  1.0000  -1.1425   0.0000   0.0000   0.0000   0.3877
  25.500   0.8543   0.32667   0.32499  -0.1424  0.0111  1.0000  -1.1192   0.0000   0.0000   0.0000   0.3884
  25.600   0.8565   0.32826   0.32658  -0.1433  0.0090  1.0000  -1.0969   0.0000   0.0000   0.0000   0.3890
  25.700   0.8564   0.32895   0.32729  -0.1437  0.0079  1.0000  -1.1096   0.0000   0.0000   0.0000   0.3893
  25.800   0.8562   0.32954   0.32788  -0.1441  0.0071  1.0000  -1.1287   0.0000   0.0000   0.0000   0.3896
  25.900   0.8562   0.33006   0.32840  -0.1445  0.0066  1.0000  -1.1518   0.0000   0.0000   0.0000   0.3898
  26.000   0.8561   0.33053   0.32888  -0.1449  0.0061  1.0000  -1.1785   0.0000   0.0000   0.0000   0.3900
  26.100   0.8561   0.33095   0.32931  -0.1452  0.0058  1.0000  -1.2085   0.0000   0.0000   0.0000   0.3902
  26.200   0.8562   0.33132   0.32968  -0.1456  0.0055  1.0000  -1.2419   0.0000   0.0000   0.0000   0.3904
  26.300   0.8562   0.33164   0.33001  -0.1459  0.0053  1.0000  -1.2785   0.0000   0.0000   0.0000   0.3905
  26.400   0.8563   0.33191   0.33029  -0.1462  0.0051  1.0000  -1.3184   0.0000   0.0000   0.0000   0.3905
  26.500   0.8564   0.33212   0.33051  -0.1465  0.0049  1.0000  -1.3614   0.0000   0.0000   0.0000   0.3906
  26.600   0.8565   0.33228   0.33068  -0.1467  0.0048  1.0000  -1.4074   0.0000   0.0000   0.0000   0.3905
  26.700   0.8561   0.33247   0.33087  -0.1469  0.0046  1.0000  -1.4467   0.0000   0.0000   0.0000   0.3905
  26.800   0.8471   0.33480   0.33317  -0.1465  0.0040  1.0000  -1.2273   0.0000   0.0000   0.0000   0.3922
  26.900   0.8466   0.33563   0.33401  -0.1468  0.0040  1.0000  -1.2159   0.0000   0.0000   0.0000   0.3926
  27.000   0.8461   0.33646   0.33484  -0.1472  0.0040  1.0000  -1.2051   0.0000   0.0000   0.0000   0.3930
  27.100   0.8457   0.33728   0.33567  -0.1476  0.0040  1.0000  -1.1947   0.0000   0.0000   0.0000   0.3933
  27.200   0.8453   0.33811   0.33649  -0.1479  0.0040  1.0000  -1.1846   0.0000   0.0000   0.0000   0.3937
  27.300   0.8449   0.33892   0.33732  -0.1483  0.0040  1.0000  -1.1748   0.0000   0.0000   0.0000   0.3940
  27.400   0.8446   0.33974   0.33814  -0.1487  0.0040  1.0000  -1.1653   0.0000   0.0000   0.0000   0.3943
  27.500   0.8442   0.34055   0.33895  -0.1490  0.0040  1.0000  -1.1561   0.0000   0.0000   0.0000   0.3947
  27.600   0.8439   0.34137   0.33977  -0.1494  0.0040  1.0000  -1.1472   0.0000   0.0000   0.0000   0.3950
  27.700   0.8436   0.34218   0.34059  -0.1498  0.0040  1.0000  -1.1385   0.0000   0.0000   0.0000   0.3953
  27.800   0.8433   0.34299   0.34140  -0.1501  0.0040  1.0000  -1.1300   0.0000   0.0000   0.0000   0.3956
  27.900   0.8430   0.34380   0.34221  -0.1505  0.0040  1.0000  -1.1217   0.0000   0.0000   0.0000   0.3959


