xflr5 v6.61

 Calculated polar for: SD7037-092-88

 1 1 Reynolds number fixed          Mach number fixed         

 xtrf =   1.000 (top)        1.000 (bottom)
 Mach =   0.000     Re =     0.625 e 6     Ncrit =   9.000

  alpha     CL        CD       CDp       Cm    Top Xtr Bot Xtr   Cpmin    Chinge    XCp    
 ------- -------- --------- --------- -------- ------- ------- -------- --------- ---------
 -10.000  -0.3818   0.10617   0.10393  -0.0252  1.0000  0.0101  -1.9583   0.0000   0.0000   0.0000   0.1768
  -9.900  -0.3795   0.10499   0.10276  -0.0256  1.0000  0.0102  -1.9444   0.0000   0.0000   0.0000   0.1754
  -9.800  -0.3774   0.10381   0.10159  -0.0260  1.0000  0.0103  -1.9318   0.0000   0.0000   0.0000   0.1739
  -9.700  -0.3752   0.10263   0.10041  -0.0265  1.0000  0.0105  -1.9204   0.0000   0.0000   0.0000   0.1725
  -9.600  -0.3732   0.10144   0.09923  -0.0269  1.0000  0.0106  -1.9102   0.0000   0.0000   0.0000   0.1710
  -9.500  -0.3713   0.10025   0.09804  -0.0273  1.0000  0.0107  -1.9011   0.0000   0.0000   0.0000   0.1695
  -9.400  -0.3694   0.09905   0.09686  -0.0278  1.0000  0.0108  -1.8932   0.0000   0.0000   0.0000   0.1680
  -9.300  -0.3676   0.09786   0.09567  -0.0282  1.0000  0.0109  -1.8864   0.0000   0.0000   0.0000   0.1665
  -9.200  -0.3660   0.09667   0.09448  -0.0287  1.0000  0.0111  -1.8808   0.0000   0.0000   0.0000   0.1651
  -9.100  -0.3644   0.09547   0.09330  -0.0291  1.0000  0.0112  -1.8762   0.0000   0.0000   0.0000   0.1636
  -9.000  -0.3630   0.09428   0.09212  -0.0295  1.0000  0.0113  -1.8728   0.0000   0.0000   0.0000   0.1622
  -8.900  -0.3617   0.09310   0.09094  -0.0299  1.0000  0.0114  -1.8704   0.0000   0.0000   0.0000   0.1609
  -8.800  -0.3605   0.09190   0.08976  -0.0304  1.0000  0.0116  -1.8690   0.0000   0.0000   0.0000   0.1595
  -8.700  -0.3594   0.09070   0.08856  -0.0308  1.0000  0.0117  -1.8684   0.0000   0.0000   0.0000   0.1582
  -8.600  -0.3584   0.08949   0.08736  -0.0312  1.0000  0.0118  -1.8688   0.0000   0.0000   0.0000   0.1569
  -8.500  -0.3576   0.08829   0.08617  -0.0316  1.0000  0.0120  -1.8702   0.0000   0.0000   0.0000   0.1557
  -8.400  -0.3570   0.08710   0.08499  -0.0319  1.0000  0.0121  -1.8729   0.0000   0.0000   0.0000   0.1547
  -8.300  -0.3568   0.08593   0.08384  -0.0322  1.0000  0.0122  -1.8769   0.0000   0.0000   0.0000   0.1539
  -8.200  -0.3570   0.08479   0.08271  -0.0324  1.0000  0.0124  -1.8822   0.0000   0.0000   0.0000   0.1535
  -8.100  -0.3578   0.08368   0.08162  -0.0325  1.0000  0.0125  -1.8891   0.0000   0.0000   0.0000   0.1535
  -8.000  -0.3592   0.08263   0.08059  -0.0325  1.0000  0.0126  -1.8974   0.0000   0.0000   0.0000   0.1541
  -7.900  -0.3617   0.08168   0.07965  -0.0322  1.0000  0.0127  -1.9079   0.0000   0.0000   0.0000   0.1557
  -7.800  -0.3660   0.08088   0.07887  -0.0315  1.0000  0.0128  -1.9212   0.0000   0.0000   0.0000   0.1589
  -7.700  -0.3723   0.08026   0.07827  -0.0303  1.0000  0.0128  -1.9374   0.0000   0.0000   0.0000   0.1638
  -7.600  -0.3801   0.07978   0.07781  -0.0287  1.0000  0.0128  -1.9560   0.0000   0.0000   0.0000   0.1697
  -7.500  -0.3878   0.07927   0.07733  -0.0273  0.9999  0.0128  -1.9752   0.0000   0.0000   0.0000   0.1751
  -7.400  -0.3812   0.07731   0.07537  -0.0301  0.9984  0.0130  -1.9798   0.0000   0.0000   0.0000   0.1665
  -7.300  -0.3742   0.07528   0.07334  -0.0332  0.9966  0.0133  -1.9868   0.0000   0.0000   0.0000   0.1567
  -7.200  -0.3672   0.07314   0.07120  -0.0366  0.9943  0.0135  -1.9967   0.0000   0.0000   0.0000   0.1459
  -7.100  -0.3577   0.07066   0.06872  -0.0408  0.9923  0.0138  -2.0081   0.0000   0.0000   0.0000   0.1313
  -7.000  -0.3479   0.06810   0.06615  -0.0454  0.9906  0.0141  -2.0248   0.0000   0.0000   0.0000   0.1149
  -6.900  -0.3371   0.06533   0.06337  -0.0505  0.9891  0.0144  -2.0461   0.0000   0.0000   0.0000   0.0956
  -6.800  -0.3253   0.06239   0.06041  -0.0559  0.9879  0.0148  -2.0711   0.0000   0.0000   0.0000   0.0738
  -6.700  -0.3134   0.05942   0.05741  -0.0609  0.9866  0.0152  -2.0997   0.0000   0.0000   0.0000   0.0509
  -6.600  -0.3045   0.05677   0.05473  -0.0647  0.9839  0.0155  -2.1299   0.0000   0.0000   0.0000   0.0328
  -6.500  -0.2936   0.05398   0.05188  -0.0687  0.9817  0.0160  -2.1615   0.0000   0.0000   0.0000   0.0112
  -6.400  -0.2816   0.05117   0.04902  -0.0726  0.9799  0.0165  -2.1934   0.0000   0.0000   0.0000  -0.0127
  -6.300  -0.2685   0.04860   0.04638  -0.0760  0.9785  0.0172  -2.2164   0.0000   0.0000   0.0000  -0.0380
  -6.200  -0.2545   0.04666   0.04438  -0.0785  0.9773  0.0181  -2.2139   0.0000   0.0000   0.0000  -0.0637
  -6.100  -0.2380   0.04637   0.04406  -0.0794  0.9766  0.0193  -2.1395   0.0000   0.0000   0.0000  -0.0893
  -6.000  -0.2219   0.04597   0.04360  -0.0807  0.9757  0.0199  -2.0734   0.0000   0.0000   0.0000  -0.1195
  -5.900  -0.2092   0.04431   0.04185  -0.0827  0.9744  0.0201  -2.0674   0.0000   0.0000   0.0000  -0.1518
  -5.800  -0.1972   0.04254   0.03998  -0.0847  0.9730  0.0201  -2.0677   0.0000   0.0000   0.0000  -0.1859
  -5.700  -0.1855   0.04080   0.03814  -0.0865  0.9716  0.0202  -2.0669   0.0000   0.0000   0.0000  -0.2234
  -5.600  -0.1797   0.03953   0.03678  -0.0866  0.9679  0.0202  -2.0671   0.0000   0.0000   0.0000  -0.2390
  -5.500  -0.1721   0.03817   0.03533  -0.0871  0.9646  0.0202  -2.0642   0.0000   0.0000   0.0000  -0.2633
  -5.400  -0.1785   0.02961   0.02627  -0.0898  0.9586  0.0217  -2.4393   0.0000   0.0000   0.0000  -0.2607
  -5.300  -0.1715   0.02768   0.02426  -0.0904  0.9560  0.0228  -2.4168   0.0000   0.0000   0.0000  -0.2846
  -5.200  -0.1624   0.02692   0.02348  -0.0906  0.9539  0.0237  -2.3396   0.0000   0.0000   0.0000  -0.3158
  -5.100  -0.1526   0.02641   0.02294  -0.0908  0.9519  0.0245  -2.2524   0.0000   0.0000   0.0000  -0.3536
  -5.000  -0.1431   0.02602   0.02254  -0.0909  0.9498  0.0254  -2.1656   0.0000   0.0000   0.0000  -0.3935
  -4.900  -0.1350   0.02560   0.02210  -0.0906  0.9475  0.0263  -2.0927   0.0000   0.0000   0.0000  -0.4298
  -4.800  -0.1265   0.02514   0.02161  -0.0904  0.9449  0.0275  -2.0264   0.0000   0.0000   0.0000  -0.4736
  -4.700  -0.1176   0.02464   0.02105  -0.0902  0.9422  0.0288  -1.9666   0.0000   0.0000   0.0000  -0.5266
  -4.600  -0.1082   0.02413   0.02048  -0.0900  0.9395  0.0304  -1.9120   0.0000   0.0000   0.0000  -0.5916
  -4.500  -0.0983   0.02371   0.01999  -0.0897  0.9368  0.0323  -1.8597   0.0000   0.0000   0.0000  -0.6729
  -4.400  -0.0883   0.02322   0.01932  -0.0894  0.9341  0.0337  -1.8202   0.0000   0.0000   0.0000  -0.7732
  -4.300  -0.0755   0.02447   0.02061  -0.0888  0.9318  0.0366  -1.7068   0.0000   0.0000   0.0000  -0.9392
  -4.200  -0.0623   0.02599   0.02213  -0.0881  0.9295  0.0377  -1.5963   0.0000   0.0000   0.0000  -1.1794
  -4.100  -0.0522   0.02560   0.02164  -0.0878  0.9268  0.0378  -1.5574   0.0000   0.0000   0.0000  -1.4496
  -4.000  -0.0518   0.01944   0.01507  -0.0885  0.9233  0.0426  -1.7009   0.0000   0.0000   0.0000  -1.4783
  -3.900  -0.0425   0.01898   0.01462  -0.0884  0.9209  0.0445  -1.6317   0.0000   0.0000   0.0000  -1.8492
  -3.800  -0.0328   0.01851   0.01414  -0.0882  0.9184  0.0459  -1.5740   0.0000   0.0000   0.0000  -2.4657
  -3.700  -0.0229   0.01804   0.01365  -0.0880  0.9156  0.0475  -1.5209   0.0000   0.0000   0.0000  -3.6297
  -3.600  -0.0128   0.01757   0.01314  -0.0877  0.9126  0.0491  -1.4726   0.0000   0.0000   0.0000  -6.6496
  -3.500  -0.0026   0.01708   0.01260  -0.0874  0.9096  0.0508  -1.4287   0.0000   0.0000   0.0000  -33.2268
  -3.400   0.0077   0.01660   0.01206  -0.0870  0.9065  0.0525  -1.3879   0.0000   0.0000   0.0000  11.7041
  -3.300   0.0182   0.01612   0.01151  -0.0867  0.9034  0.0540  -1.3491   0.0000   0.0000   0.0000   5.0615
  -3.100   0.0423   0.01144   0.00599  -0.0842  0.8978  0.0245  -1.6877   0.0000   0.0000   0.0000   2.2590
  -3.000   0.0543   0.01174   0.00627  -0.0839  0.8943  0.0214  -1.6165   0.0000   0.0000   0.0000   1.8090
  -2.900   0.0644   0.01070   0.00513  -0.0833  0.8921  0.0183  -1.6589   0.0000   0.0000   0.0000   1.5550
  -2.800   0.0746   0.01004   0.00440  -0.0829  0.8895  0.0171  -1.6562   0.0000   0.0000   0.0000   1.3697
  -2.700   0.0851   0.00958   0.00386  -0.0825  0.8865  0.0161  -1.6368   0.0000   0.0000   0.0000   1.2274
  -2.600   0.0957   0.00923   0.00343  -0.0822  0.8832  0.0153  -1.6067   0.0000   0.0000   0.0000   1.1156
  -2.500   0.1064   0.00895   0.00308  -0.0819  0.8796  0.0147  -1.5691   0.0000   0.0000   0.0000   1.0254
  -2.400   0.1172   0.00873   0.00278  -0.0817  0.8757  0.0142  -1.5250   0.0000   0.0000   0.0000   0.9514
  -2.300   0.1280   0.00855   0.00254  -0.0814  0.8717  0.0139  -1.4746   0.0000   0.0000   0.0000   0.8896
  -2.200   0.1389   0.00842   0.00234  -0.0811  0.8676  0.0136  -1.4180   0.0000   0.0000   0.0000   0.8374
  -2.100   0.1498   0.00832   0.00218  -0.0809  0.8632  0.0134  -1.3557   0.0000   0.0000   0.0000   0.7928
  -2.000   0.1609   0.00824   0.00205  -0.0808  0.8591  0.0133  -1.2898   0.0000   0.0000   0.0000   0.7543
  -1.900   0.1720   0.00816   0.00194  -0.0806  0.8559  0.0132  -1.2222   0.0000   0.0000   0.0000   0.7210
  -1.800   0.1831   0.00809   0.00184  -0.0805  0.8522  0.0132  -1.1536   0.0000   0.0000   0.0000   0.6916
  -1.700   0.1942   0.00804   0.00175  -0.0804  0.8480  0.0134  -1.0846   0.0000   0.0000   0.0000   0.6656
  -1.600   0.2052   0.00799   0.00166  -0.0803  0.8431  0.0136  -1.0154   0.0000   0.0000   0.0000   0.6424
  -1.500   0.2162   0.00794   0.00157  -0.0801  0.8379  0.0140  -0.9460   0.0000   0.0000   0.0000   0.6216
  -1.400   0.2271   0.00790   0.00149  -0.0799  0.8323  0.0147  -0.8764   0.0000   0.0000   0.0000   0.6027
  -1.300   0.2379   0.00787   0.00142  -0.0797  0.8260  0.0157  -0.8072   0.0000   0.0000   0.0000   0.5856
  -1.200   0.2489   0.00784   0.00139  -0.0796  0.8207  0.0171  -0.7401   0.0000   0.0000   0.0000   0.5702
  -1.100   0.2600   0.00779   0.00137  -0.0795  0.8159  0.0187  -0.6786   0.0000   0.0000   0.0000   0.5561
  -1.000   0.2710   0.00775   0.00135  -0.0794  0.8102  0.0209  -0.6228   0.0000   0.0000   0.0000   0.5432
  -0.900   0.2815   0.00746   0.00129  -0.0794  0.8043  0.0827  -0.5740   0.0000   0.0000   0.0000   0.5320
  -0.800   0.2921   0.00728   0.00126  -0.0793  0.7979  0.1298  -0.5266   0.0000   0.0000   0.0000   0.5215
  -0.700   0.3025   0.00707   0.00124  -0.0793  0.7911  0.1870  -0.5340   0.0000   0.0000   0.0000   0.5118
  -0.600   0.3128   0.00691   0.00122  -0.0792  0.7833  0.2423  -0.5438   0.0000   0.0000   0.0000   0.5028
  -0.500   0.3233   0.00669   0.00123  -0.0792  0.7779  0.3103  -0.5537   0.0000   0.0000   0.0000   0.4945
  -0.400   0.3335   0.00641   0.00124  -0.0792  0.7715  0.4024  -0.5635   0.0000   0.0000   0.0000   0.4868
  -0.300   0.3338   0.00524   0.00151  -0.0770  0.7647  0.8215  -0.5681   0.0000   0.0000   0.0000   0.4799
  -0.200   0.3426   0.00519   0.00151  -0.0763  0.7564  0.8547  -0.5780   0.0000   0.0000   0.0000   0.4718
  -0.100   0.3513   0.00518   0.00150  -0.0755  0.7475  0.8788  -0.5885   0.0000   0.0000   0.0000   0.4641
   0.000   0.3601   0.00518   0.00149  -0.0748  0.7384  0.9010  -0.5991   0.0000   0.0000   0.0000   0.4568
   0.100   0.3700   0.00515   0.00149  -0.0744  0.7337  0.9242  -0.6104   0.0000   0.0000   0.0000   0.4499
   0.200   0.3817   0.00513   0.00148  -0.0743  0.7277  0.9475  -0.6228   0.0000   0.0000   0.0000   0.4435
   0.300   0.3972   0.00513   0.00145  -0.0752  0.7200  0.9667  -0.6376   0.0000   0.0000   0.0000   0.4380
   0.400   0.4143   0.00515   0.00142  -0.0764  0.7107  0.9837  -0.6535   0.0000   0.0000   0.0000   0.4330
   0.500   0.4310   0.00520   0.00138  -0.0776  0.6996  1.0000  -0.6692   0.0000   0.0000   0.0000   0.4286
   0.600   0.4414   0.00525   0.00138  -0.0774  0.6908  1.0000  -0.6821   0.0000   0.0000   0.0000   0.4239
   0.700   0.4522   0.00527   0.00138  -0.0774  0.6846  1.0000  -0.6959   0.0000   0.0000   0.0000   0.4194
   0.800   0.4629   0.00531   0.00139  -0.0772  0.6771  1.0000  -0.7098   0.0000   0.0000   0.0000   0.4152
   0.900   0.4735   0.00536   0.00139  -0.0771  0.6693  1.0000  -0.7236   0.0000   0.0000   0.0000   0.4111
   1.000   0.4839   0.00542   0.00139  -0.0769  0.6609  1.0000  -0.7373   0.0000   0.0000   0.0000   0.4071
   1.100   0.4941   0.00550   0.00140  -0.0767  0.6510  1.0000  -0.7510   0.0000   0.0000   0.0000   0.4034
   1.200   0.5048   0.00555   0.00141  -0.0766  0.6433  1.0000  -0.7650   0.0000   0.0000   0.0000   0.3998
   1.300   0.5157   0.00558   0.00143  -0.0766  0.6373  1.0000  -0.7792   0.0000   0.0000   0.0000   0.3964
   1.400   0.5265   0.00562   0.00144  -0.0765  0.6293  1.0000  -0.7934   0.0000   0.0000   0.0000   0.3931
   1.500   0.5370   0.00569   0.00145  -0.0763  0.6198  1.0000  -0.8075   0.0000   0.0000   0.0000   0.3899
   1.600   0.5472   0.00577   0.00147  -0.0762  0.6094  1.0000  -0.8234   0.0000   0.0000   0.0000   0.3868
   1.700   0.5574   0.00586   0.00149  -0.0760  0.5981  1.0000  -0.8397   0.0000   0.0000   0.0000   0.3839
   1.800   0.5684   0.00590   0.00151  -0.0759  0.5930  1.0000  -0.8567   0.0000   0.0000   0.0000   0.3811
   1.900   0.5794   0.00593   0.00153  -0.0759  0.5875  1.0000  -0.8738   0.0000   0.0000   0.0000   0.3784
   2.000   0.5902   0.00598   0.00155  -0.0758  0.5807  1.0000  -0.8908   0.0000   0.0000   0.0000   0.3758
   2.100   0.6009   0.00604   0.00157  -0.0757  0.5727  1.0000  -0.9078   0.0000   0.0000   0.0000   0.3733
   2.200   0.6112   0.00613   0.00160  -0.0756  0.5632  1.0000  -0.9245   0.0000   0.0000   0.0000   0.3708
   2.300   0.6213   0.00623   0.00163  -0.0754  0.5513  1.0000  -0.9411   0.0000   0.0000   0.0000   0.3684
   2.400   0.6321   0.00628   0.00166  -0.0753  0.5438  1.0000  -0.9584   0.0000   0.0000   0.0000   0.3662
   2.500   0.6430   0.00633   0.00169  -0.0753  0.5372  1.0000  -0.9764   0.0000   0.0000   0.0000   0.3640
   2.600   0.6537   0.00639   0.00172  -0.0752  0.5287  1.0000  -0.9968   0.0000   0.0000   0.0000   0.3619
   2.700   0.6642   0.00647   0.00175  -0.0750  0.5196  1.0000  -1.0172   0.0000   0.0000   0.0000   0.3598
   2.800   0.6744   0.00657   0.00179  -0.0749  0.5100  1.0000  -1.0374   0.0000   0.0000   0.0000   0.3578
   2.900   0.6847   0.00667   0.00183  -0.0747  0.4991  1.0000  -1.0576   0.0000   0.0000   0.0000   0.3558
   3.000   0.6956   0.00672   0.00187  -0.0747  0.4940  1.0000  -1.0787   0.0000   0.0000   0.0000   0.3539
   3.100   0.7066   0.00676   0.00194  -0.0747  0.4892  1.0000  -1.1001   0.0000   0.0000   0.0000   0.3521
   3.200   0.7174   0.00681   0.00197  -0.0746  0.4830  1.0000  -1.1214   0.0000   0.0000   0.0000   0.3504
   3.300   0.7277   0.00691   0.00201  -0.0745  0.4717  1.0000  -1.1421   0.0000   0.0000   0.0000   0.3486
   3.400   0.7369   0.00710   0.00207  -0.0742  0.4501  1.0000  -1.1618   0.0000   0.0000   0.0000   0.3469
   3.500   0.7473   0.00719   0.00211  -0.0741  0.4363  1.0000  -1.1828   0.0000   0.0000   0.0000   0.3452
   3.600   0.7567   0.00737   0.00216  -0.0738  0.4150  1.0000  -1.2030   0.0000   0.0000   0.0000   0.3435
   3.700   0.7663   0.00754   0.00222  -0.0736  0.3942  1.0000  -1.2232   0.0000   0.0000   0.0000   0.3419
   3.800   0.7763   0.00768   0.00228  -0.0734  0.3770  1.0000  -1.2483   0.0000   0.0000   0.0000   0.3404
   3.900   0.7854   0.00791   0.00236  -0.0731  0.3545  1.0000  -1.2725   0.0000   0.0000   0.0000   0.3389
   4.000   0.7957   0.00801   0.00242  -0.0730  0.3421  1.0000  -1.2984   0.0000   0.0000   0.0000   0.3374
   4.100   0.8055   0.00817   0.00248  -0.0729  0.3263  1.0000  -1.3239   0.0000   0.0000   0.0000   0.3360
   4.200   0.8150   0.00837   0.00257  -0.0726  0.3074  1.0000  -1.3489   0.0000   0.0000   0.0000   0.3346
   4.300   0.8254   0.00847   0.00264  -0.0726  0.2982  1.0000  -1.3787   0.0000   0.0000   0.0000   0.3333
   4.400   0.8356   0.00860   0.00270  -0.0724  0.2877  1.0000  -1.4110   0.0000   0.0000   0.0000   0.3320
   4.500   0.8455   0.00875   0.00278  -0.0723  0.2766  1.0000  -1.4429   0.0000   0.0000   0.0000   0.3307
   4.600   0.8554   0.00890   0.00287  -0.0721  0.2635  1.0000  -1.4750   0.0000   0.0000   0.0000   0.3294
   4.700   0.8659   0.00900   0.00294  -0.0721  0.2569  1.0000  -1.5082   0.0000   0.0000   0.0000   0.3282
   4.800   0.8763   0.00910   0.00301  -0.0720  0.2496  1.0000  -1.5414   0.0000   0.0000   0.0000   0.3270
   4.900   0.8863   0.00923   0.00309  -0.0718  0.2406  1.0000  -1.5744   0.0000   0.0000   0.0000   0.3258
   5.000   0.8962   0.00940   0.00318  -0.0717  0.2303  1.0000  -1.6071   0.0000   0.0000   0.0000   0.3247
   5.100   0.9062   0.00953   0.00328  -0.0716  0.2194  1.0000  -1.6404   0.0000   0.0000   0.0000   0.3236
   5.200   0.9166   0.00963   0.00335  -0.0715  0.2140  1.0000  -1.6744   0.0000   0.0000   0.0000   0.3225
   5.300   0.9267   0.00976   0.00344  -0.0714  0.2062  1.0000  -1.7082   0.0000   0.0000   0.0000   0.3214
   5.400   0.9364   0.00993   0.00354  -0.0712  0.1962  1.0000  -1.7415   0.0000   0.0000   0.0000   0.3203
   5.500   0.9461   0.01012   0.00365  -0.0710  0.1841  1.0000  -1.7752   0.0000   0.0000   0.0000   0.3192
   5.600   0.9563   0.01023   0.00374  -0.0709  0.1778  1.0000  -1.8194   0.0000   0.0000   0.0000   0.3182
   5.700   0.9664   0.01036   0.00384  -0.0708  0.1710  1.0000  -1.8636   0.0000   0.0000   0.0000   0.3172
   5.800   0.9760   0.01053   0.00395  -0.0706  0.1618  1.0000  -1.9153   0.0000   0.0000   0.0000   0.3162
   5.900   0.9854   0.01075   0.00408  -0.0704  0.1498  1.0000  -1.9802   0.0000   0.0000   0.0000   0.3152
   6.000   0.9954   0.01088   0.00418  -0.0703  0.1424  1.0000  -2.0738   0.0000   0.0000   0.0000   0.3142
   6.100   1.0052   0.01104   0.00430  -0.0701  0.1350  1.0000  -2.1679   0.0000   0.0000   0.0000   0.3133
   6.200   1.0146   0.01124   0.00444  -0.0699  0.1261  1.0000  -2.2611   0.0000   0.0000   0.0000   0.3123
   6.300   1.0240   0.01144   0.00456  -0.0697  0.1167  1.0000  -2.3558   0.0000   0.0000   0.0000   0.3114
   6.400   1.0341   0.01156   0.00467  -0.0696  0.1114  1.0000  -2.4548   0.0000   0.0000   0.0000   0.3105
   6.500   1.0439   0.01170   0.00479  -0.0694  0.1062  1.0000  -2.5540   0.0000   0.0000   0.0000   0.3096
   6.600   1.0533   0.01190   0.00494  -0.0692  0.0985  1.0000  -2.6518   0.0000   0.0000   0.0000   0.3087
   6.700   1.0622   0.01215   0.00510  -0.0690  0.0887  1.0000  -2.7482   0.0000   0.0000   0.0000   0.3078
   6.800   1.0783   0.01158   0.00522  -0.0695  0.1329  1.0000  -2.9267   0.0000   0.0000   0.0000   0.3071
   6.900   1.0894   0.01159   0.00533  -0.0695  0.1381  1.0000  -3.0486   0.0000   0.0000   0.0000   0.3063
   7.000   1.0996   0.01169   0.00546  -0.0693  0.1372  1.0000  -3.1630   0.0000   0.0000   0.0000   0.3055
   7.100   1.1096   0.01182   0.00559  -0.0692  0.1341  1.0000  -3.2757   0.0000   0.0000   0.0000   0.3047
   7.200   1.1191   0.01198   0.00573  -0.0690  0.1295  1.0000  -3.3871   0.0000   0.0000   0.0000   0.3039
   7.300   1.1285   0.01217   0.00589  -0.0688  0.1235  1.0000  -3.4978   0.0000   0.0000   0.0000   0.3030
   7.400   1.1379   0.01235   0.00605  -0.0686  0.1161  1.0000  -3.6096   0.0000   0.0000   0.0000   0.3022
   7.500   1.1477   0.01249   0.00619  -0.0684  0.1124  1.0000  -3.7251   0.0000   0.0000   0.0000   0.3014
   7.600   1.1575   0.01262   0.00633  -0.0682  0.1088  1.0000  -3.8413   0.0000   0.0000   0.0000   0.3007
   7.700   1.1668   0.01280   0.00649  -0.0680  0.1035  1.0000  -3.9562   0.0000   0.0000   0.0000   0.2999
   7.800   1.1756   0.01304   0.00667  -0.0678  0.0969  1.0000  -4.0688   0.0000   0.0000   0.0000   0.2991
   7.900   1.1844   0.01327   0.00684  -0.0675  0.0886  1.0000  -4.1822   0.0000   0.0000   0.0000   0.2983
   8.000   1.1939   0.01343   0.00700  -0.0673  0.0840  1.0000  -4.3003   0.0000   0.0000   0.0000   0.2975
   8.100   1.2031   0.01361   0.00717  -0.0671  0.0796  1.0000  -4.4181   0.0000   0.0000   0.0000   0.2968
   8.200   1.2117   0.01387   0.00737  -0.0668  0.0730  1.0000  -4.5320   0.0000   0.0000   0.0000   0.2960
   8.300   1.2197   0.01418   0.00760  -0.0664  0.0637  1.0000  -4.6418   0.0000   0.0000   0.0000   0.2952
   8.400   1.2284   0.01440   0.00779  -0.0661  0.0566  1.0000  -4.7545   0.0000   0.0000   0.0000   0.2945
   8.500   1.2322   0.01516   0.00827  -0.0652  0.0321  1.0000  -4.8126   0.0000   0.0000   0.0000   0.2935
   8.600   1.2317   0.01648   0.00942  -0.0634  0.0087  1.0000  -4.6821   0.0000   0.0000   0.0000   0.2919
   8.700   1.2400   0.01677   0.00977  -0.0629  0.0084  1.0000  -4.7588   0.0000   0.0000   0.0000   0.2910
   8.800   1.2482   0.01706   0.01013  -0.0625  0.0083  1.0000  -4.8393   0.0000   0.0000   0.0000   0.2902
   8.900   1.2562   0.01735   0.01049  -0.0620  0.0082  1.0000  -4.9208   0.0000   0.0000   0.0000   0.2893
   9.000   1.2641   0.01766   0.01087  -0.0615  0.0081  1.0000  -5.0020   0.0000   0.0000   0.0000   0.2885
   9.100   1.2716   0.01799   0.01126  -0.0609  0.0081  1.0000  -5.0816   0.0000   0.0000   0.0000   0.2876
   9.200   1.2789   0.01835   0.01169  -0.0603  0.0081  1.0000  -5.1588   0.0000   0.0000   0.0000   0.2867
   9.300   1.2858   0.01872   0.01213  -0.0596  0.0082  1.0000  -5.2328   0.0000   0.0000   0.0000   0.2858
   9.400   1.2922   0.01913   0.01262  -0.0589  0.0082  1.0000  -5.3028   0.0000   0.0000   0.0000   0.2849
   9.500   1.2981   0.01958   0.01313  -0.0581  0.0082  1.0000  -5.3680   0.0000   0.0000   0.0000   0.2839
   9.600   1.3035   0.02006   0.01369  -0.0572  0.0083  1.0000  -5.4288   0.0000   0.0000   0.0000   0.2829
   9.700   1.3083   0.02057   0.01428  -0.0563  0.0084  1.0000  -5.4854   0.0000   0.0000   0.0000   0.2819
   9.800   1.3126   0.02111   0.01490  -0.0553  0.0085  1.0000  -5.5382   0.0000   0.0000   0.0000   0.2808
   9.900   1.3164   0.02169   0.01556  -0.0542  0.0086  1.0000  -5.5868   0.0000   0.0000   0.0000   0.2797
  10.000   1.3194   0.02229   0.01624  -0.0530  0.0087  1.0000  -5.6311   0.0000   0.0000   0.0000   0.2786
  10.100   1.3213   0.02290   0.01694  -0.0516  0.0088  1.0000  -5.6692   0.0000   0.0000   0.0000   0.2773
  10.200   1.3226   0.02354   0.01766  -0.0501  0.0089  1.0000  -5.7033   0.0000   0.0000   0.0000   0.2760
  10.300   1.3221   0.02434   0.01861  -0.0484  0.0090  1.0000  -5.7008   0.0000   0.0000   0.0000   0.2746
  10.400   1.3224   0.02511   0.01946  -0.0469  0.0092  1.0000  -5.7204   0.0000   0.0000   0.0000   0.2733
  10.500   1.3226   0.02591   0.02034  -0.0454  0.0093  1.0000  -5.7412   0.0000   0.0000   0.0000   0.2721
  10.600   1.3227   0.02677   0.02128  -0.0440  0.0095  1.0000  -5.7593   0.0000   0.0000   0.0000   0.2708
  10.700   1.3228   0.02768   0.02229  -0.0426  0.0096  1.0000  -5.7751   0.0000   0.0000   0.0000   0.2697
  10.800   1.3228   0.02867   0.02336  -0.0413  0.0098  1.0000  -5.7880   0.0000   0.0000   0.0000   0.2685
  10.900   1.3225   0.02971   0.02451  -0.0400  0.0100  1.0000  -5.7971   0.0000   0.0000   0.0000   0.2674
  11.000   1.3220   0.03084   0.02573  -0.0387  0.0102  1.0000  -5.8021   0.0000   0.0000   0.0000   0.2663
  11.100   1.3213   0.03207   0.02706  -0.0374  0.0104  1.0000  -5.8021   0.0000   0.0000   0.0000   0.2652
  11.200   1.3200   0.03340   0.02851  -0.0362  0.0106  1.0000  -5.7956   0.0000   0.0000   0.0000   0.2641
  11.300   1.3180   0.03487   0.03009  -0.0350  0.0109  1.0000  -5.7811   0.0000   0.0000   0.0000   0.2631
  11.400   1.3149   0.03651   0.03185  -0.0337  0.0111  1.0000  -5.7556   0.0000   0.0000   0.0000   0.2621
  11.500   1.3102   0.03840   0.03388  -0.0325  0.0113  1.0000  -5.7130   0.0000   0.0000   0.0000   0.2611
  11.600   1.3021   0.04069   0.03632  -0.0311  0.0116  1.0000  -5.6392   0.0000   0.0000   0.0000   0.2601
  15.700   0.9533   0.18522   0.18336  -0.0937  0.0243  1.0000  -2.3358   0.0000   0.0000   0.0000   0.3313
  15.800   0.9536   0.18786   0.18600  -0.0949  0.0243  1.0000  -2.3069   0.0000   0.0000   0.0000   0.3324
  15.900   0.9541   0.19046   0.18860  -0.0960  0.0243  1.0000  -2.2802   0.0000   0.0000   0.0000   0.3335
  16.000   0.9547   0.19301   0.19115  -0.0971  0.0243  1.0000  -2.2557   0.0000   0.0000   0.0000   0.3345
  16.100   0.9555   0.19551   0.19365  -0.0982  0.0242  1.0000  -2.2334   0.0000   0.0000   0.0000   0.3354
  16.200   0.9564   0.19796   0.19610  -0.0993  0.0242  1.0000  -2.2135   0.0000   0.0000   0.0000   0.3363
  16.300   0.9575   0.20035   0.19848  -0.1003  0.0241  1.0000  -2.1963   0.0000   0.0000   0.0000   0.3372
  16.400   0.9589   0.20264   0.20077  -0.1013  0.0241  1.0000  -2.1830   0.0000   0.0000   0.0000   0.3380
  16.500   0.9607   0.20475   0.20288  -0.1023  0.0240  1.0000  -2.1764   0.0000   0.0000   0.0000   0.3387
  16.600   0.9639   0.20632   0.20445  -0.1032  0.0237  1.0000  -2.1907   0.0000   0.0000   0.0000   0.3391
  16.700   0.9696   0.20705   0.20519  -0.1038  0.0228  1.0000  -2.2380   0.0000   0.0000   0.0000   0.3389
  16.800   0.9725   0.20893   0.20707  -0.1047  0.0221  1.0000  -2.2409   0.0000   0.0000   0.0000   0.3394
  16.900   0.9743   0.21117   0.20931  -0.1057  0.0215  1.0000  -2.2294   0.0000   0.0000   0.0000   0.3401
  17.000   0.9755   0.21364   0.21178  -0.1068  0.0210  1.0000  -2.2089   0.0000   0.0000   0.0000   0.3410
  17.100   0.9765   0.21614   0.21428  -0.1079  0.0205  1.0000  -2.1880   0.0000   0.0000   0.0000   0.3419
  17.200   0.9774   0.21861   0.21675  -0.1090  0.0200  1.0000  -2.1690   0.0000   0.0000   0.0000   0.3428
  17.300   0.9783   0.22108   0.21921  -0.1100  0.0196  1.0000  -2.1510   0.0000   0.0000   0.0000   0.3437
  17.400   0.9793   0.22350   0.22164  -0.1111  0.0192  1.0000  -2.1355   0.0000   0.0000   0.0000   0.3445
  17.500   0.9803   0.22589   0.22403  -0.1120  0.0188  1.0000  -2.1225   0.0000   0.0000   0.0000   0.3453
  17.600   0.9814   0.22824   0.22638  -0.1130  0.0184  1.0000  -2.1119   0.0000   0.0000   0.0000   0.3460
  17.700   0.9826   0.23055   0.22869  -0.1139  0.0181  1.0000  -2.1033   0.0000   0.0000   0.0000   0.3467
  17.800   0.9838   0.23284   0.23098  -0.1148  0.0178  1.0000  -2.0965   0.0000   0.0000   0.0000   0.3473
  17.900   0.9850   0.23510   0.23324  -0.1157  0.0175  1.0000  -2.0916   0.0000   0.0000   0.0000   0.3480
  18.000   0.9863   0.23733   0.23548  -0.1166  0.0172  1.0000  -2.0882   0.0000   0.0000   0.0000   0.3485
  18.100   0.9876   0.23954   0.23769  -0.1175  0.0169  1.0000  -2.0865   0.0000   0.0000   0.0000   0.3491
  18.200   0.9890   0.24173   0.23988  -0.1183  0.0166  1.0000  -2.0862   0.0000   0.0000   0.0000   0.3496
  18.300   0.9903   0.24390   0.24204  -0.1191  0.0164  1.0000  -2.0874   0.0000   0.0000   0.0000   0.3502
  18.400   0.9917   0.24604   0.24419  -0.1199  0.0161  1.0000  -2.0900   0.0000   0.0000   0.0000   0.3506
  18.500   0.9931   0.24816   0.24631  -0.1207  0.0159  1.0000  -2.0939   0.0000   0.0000   0.0000   0.3511
  18.600   0.9946   0.25026   0.24842  -0.1214  0.0157  1.0000  -2.0993   0.0000   0.0000   0.0000   0.3515
  18.700   0.9960   0.25234   0.25050  -0.1222  0.0155  1.0000  -2.1059   0.0000   0.0000   0.0000   0.3519
  18.800   0.9975   0.25440   0.25257  -0.1229  0.0153  1.0000  -2.1139   0.0000   0.0000   0.0000   0.3523
  18.900   0.9990   0.25644   0.25461  -0.1236  0.0151  1.0000  -2.1233   0.0000   0.0000   0.0000   0.3527
  19.000   1.0004   0.25846   0.25663  -0.1243  0.0149  1.0000  -2.1339   0.0000   0.0000   0.0000   0.3530
  19.100   1.0019   0.26046   0.25864  -0.1250  0.0148  1.0000  -2.1458   0.0000   0.0000   0.0000   0.3533
  19.200   1.0034   0.26245   0.26062  -0.1257  0.0146  1.0000  -2.1590   0.0000   0.0000   0.0000   0.3536
  19.300   1.0049   0.26441   0.26259  -0.1263  0.0145  1.0000  -2.1735   0.0000   0.0000   0.0000   0.3539
  19.400   1.0064   0.26635   0.26454  -0.1269  0.0143  1.0000  -2.1892   0.0000   0.0000   0.0000   0.3541
  19.500   1.0078   0.26830   0.26649  -0.1275  0.0142  1.0000  -2.2051   0.0000   0.0000   0.0000   0.3544
  19.600   1.0092   0.27027   0.26851  -0.1281  0.0140  1.0000  -2.2146   0.0000   0.0000   0.0000   0.3546
  19.700   1.0105   0.27223   0.27048  -0.1287  0.0139  1.0000  -2.2296   0.0000   0.0000   0.0000   0.3549
  19.800   1.0118   0.27418   0.27243  -0.1293  0.0138  1.0000  -2.2458   0.0000   0.0000   0.0000   0.3551
  19.900   1.0126   0.27632   0.27457  -0.1299  0.0136  1.0000  -2.2538   0.0000   0.0000   0.0000   0.3554
  20.000   1.0132   0.27850   0.27676  -0.1306  0.0135  1.0000  -2.2598   0.0000   0.0000   0.0000   0.3558
  20.100   1.0136   0.28075   0.27902  -0.1312  0.0134  1.0000  -2.2633   0.0000   0.0000   0.0000   0.3562
  20.200   1.0136   0.28314   0.28140  -0.1318  0.0132  1.0000  -2.2613   0.0000   0.0000   0.0000   0.3567
  20.300   1.0127   0.28588   0.28415  -0.1325  0.0130  1.0000  -2.2446   0.0000   0.0000   0.0000   0.3573
  20.400   0.9944   0.29704   0.29528  -0.1341  0.0122  1.0000  -1.8654   0.0000   0.0000   0.0000   0.3617
  20.500   0.9940   0.29943   0.29768  -0.1347  0.0122  1.0000  -1.8500   0.0000   0.0000   0.0000   0.3623
  20.600   0.9933   0.30178   0.30004  -0.1353  0.0122  1.0000  -1.8344   0.0000   0.0000   0.0000   0.3629
  20.700   0.9924   0.30409   0.30235  -0.1359  0.0122  1.0000  -1.8185   0.0000   0.0000   0.0000   0.3635
  20.800   0.9913   0.30634   0.30461  -0.1364  0.0122  1.0000  -1.8022   0.0000   0.0000   0.0000   0.3640
  20.900   0.9897   0.30852   0.30679  -0.1369  0.0122  1.0000  -1.7853   0.0000   0.0000   0.0000   0.3647
  21.000   0.9878   0.31061   0.30889  -0.1374  0.0122  1.0000  -1.7675   0.0000   0.0000   0.0000   0.3653
  21.100   0.9853   0.31256   0.31085  -0.1378  0.0122  1.0000  -1.7486   0.0000   0.0000   0.0000   0.3659
  21.200   0.9819   0.31433   0.31263  -0.1381  0.0121  1.0000  -1.7279   0.0000   0.0000   0.0000   0.3666
  21.300   0.9265   0.30389   0.30227  -0.1326  0.0122  1.0000  -1.5763   0.0000   0.0000   0.0000   0.3699
  21.400   0.9196   0.30368   0.30208  -0.1324  0.0121  1.0000  -1.5480   0.0000   0.0000   0.0000   0.3707
  21.500   0.9142   0.30373   0.30215  -0.1323  0.0121  1.0000  -1.5236   0.0000   0.0000   0.0000   0.3714
  21.600   0.9096   0.30393   0.30235  -0.1324  0.0121  1.0000  -1.5016   0.0000   0.0000   0.0000   0.3721
  21.700   0.9055   0.30421   0.30264  -0.1325  0.0121  1.0000  -1.4812   0.0000   0.0000   0.0000   0.3728
  21.800   0.9019   0.30455   0.30299  -0.1326  0.0121  1.0000  -1.4622   0.0000   0.0000   0.0000   0.3735
  21.900   0.8987   0.30493   0.30339  -0.1328  0.0121  1.0000  -1.4444   0.0000   0.0000   0.0000   0.3741
  22.000   0.8958   0.30536   0.30382  -0.1329  0.0121  1.0000  -1.4278   0.0000   0.0000   0.0000   0.3747
  22.100   0.8931   0.30581   0.30429  -0.1332  0.0121  1.0000  -1.4122   0.0000   0.0000   0.0000   0.3753
  22.200   0.8907   0.30630   0.30478  -0.1334  0.0121  1.0000  -1.3975   0.0000   0.0000   0.0000   0.3759
  22.300   0.8885   0.30680   0.30529  -0.1336  0.0120  1.0000  -1.3837   0.0000   0.0000   0.0000   0.3764
  22.400   0.8864   0.30732   0.30581  -0.1339  0.0120  1.0000  -1.3707   0.0000   0.0000   0.0000   0.3770
  22.500   0.8845   0.30785   0.30636  -0.1342  0.0120  1.0000  -1.3585   0.0000   0.0000   0.0000   0.3775
  22.600   0.8828   0.30840   0.30691  -0.1345  0.0120  1.0000  -1.3465   0.0000   0.0000   0.0000   0.3780
  22.700   0.8811   0.30896   0.30748  -0.1348  0.0120  1.0000  -1.3351   0.0000   0.0000   0.0000   0.3785
  22.800   0.8796   0.30953   0.30805  -0.1351  0.0119  1.0000  -1.3240   0.0000   0.0000   0.0000   0.3790
  22.900   0.8781   0.31010   0.30864  -0.1354  0.0119  1.0000  -1.3130   0.0000   0.0000   0.0000   0.3795
  23.000   0.8767   0.31069   0.30923  -0.1357  0.0119  1.0000  -1.3023   0.0000   0.0000   0.0000   0.3800
  23.100   0.8753   0.31129   0.30984  -0.1360  0.0119  1.0000  -1.2920   0.0000   0.0000   0.0000   0.3804
  23.200   0.8741   0.31189   0.31045  -0.1363  0.0119  1.0000  -1.2822   0.0000   0.0000   0.0000   0.3809
  23.300   0.8730   0.31250   0.31106  -0.1366  0.0118  1.0000  -1.2729   0.0000   0.0000   0.0000   0.3813
  23.400   0.8719   0.31312   0.31168  -0.1370  0.0118  1.0000  -1.2640   0.0000   0.0000   0.0000   0.3818
  23.500   0.8709   0.31374   0.31231  -0.1373  0.0118  1.0000  -1.2551   0.0000   0.0000   0.0000   0.3822
  23.600   0.8700   0.31437   0.31295  -0.1377  0.0118  1.0000  -1.2466   0.0000   0.0000   0.0000   0.3827
  23.700   0.8692   0.31500   0.31359  -0.1380  0.0117  1.0000  -1.2387   0.0000   0.0000   0.0000   0.3831
  23.800   0.8685   0.31565   0.31424  -0.1384  0.0117  1.0000  -1.2314   0.0000   0.0000   0.0000   0.3835
  23.900   0.8679   0.31630   0.31490  -0.1388  0.0116  1.0000  -1.2250   0.0000   0.0000   0.0000   0.3839
  24.000   0.8673   0.31699   0.31560  -0.1392  0.0115  1.0000  -1.2164   0.0000   0.0000   0.0000   0.3844
  24.100   0.8670   0.31772   0.31633  -0.1397  0.0114  1.0000  -1.2085   0.0000   0.0000   0.0000   0.3849
  24.200   0.8671   0.31852   0.31714  -0.1403  0.0112  1.0000  -1.2010   0.0000   0.0000   0.0000   0.3854
  24.300   0.8682   0.31956   0.31818  -0.1410  0.0106  1.0000  -1.1909   0.0000   0.0000   0.0000   0.3858
  24.400   0.8688   0.32055   0.31918  -0.1415  0.0097  1.0000  -1.1807   0.0000   0.0000   0.0000   0.3862
  24.500   0.8686   0.32129   0.31992  -0.1419  0.0089  1.0000  -1.1797   0.0000   0.0000   0.0000   0.3866
  24.600   0.8682   0.32193   0.32057  -0.1423  0.0082  1.0000  -1.1854   0.0000   0.0000   0.0000   0.3869
  24.700   0.8678   0.32251   0.32115  -0.1427  0.0076  1.0000  -1.1968   0.0000   0.0000   0.0000   0.3872
  24.800   0.8675   0.32303   0.32168  -0.1431  0.0071  1.0000  -1.2141   0.0000   0.0000   0.0000   0.3875
  24.900   0.8674   0.32350   0.32215  -0.1434  0.0066  1.0000  -1.2374   0.0000   0.0000   0.0000   0.3878
  25.000   0.8673   0.32391   0.32257  -0.1438  0.0062  1.0000  -1.2672   0.0000   0.0000   0.0000   0.3880
  25.100   0.8673   0.32426   0.32293  -0.1441  0.0059  1.0000  -1.3047   0.0000   0.0000   0.0000   0.3881
  25.200   0.8674   0.32456   0.32323  -0.1445  0.0056  1.0000  -1.3465   0.0000   0.0000   0.0000   0.3883
  25.300   0.8676   0.32481   0.32349  -0.1448  0.0054  1.0000  -1.3927   0.0000   0.0000   0.0000   0.3884
  25.400   0.8678   0.32499   0.32368  -0.1451  0.0052  1.0000  -1.4430   0.0000   0.0000   0.0000   0.3884
  25.500   0.8681   0.32511   0.32381  -0.1454  0.0050  1.0000  -1.4973   0.0000   0.0000   0.0000   0.3884
  25.600   0.8683   0.32517   0.32387  -0.1456  0.0048  1.0000  -1.5558   0.0000   0.0000   0.0000   0.3883
  25.700   0.8676   0.32528   0.32399  -0.1458  0.0045  1.0000  -1.6020   0.0000   0.0000   0.0000   0.3884
  25.800   0.8581   0.32827   0.32695  -0.1462  0.0038  1.0000  -1.3378   0.0000   0.0000   0.0000   0.3911
  25.900   0.8588   0.32904   0.32772  -0.1467  0.0036  1.0000  -1.3579   0.0000   0.0000   0.0000   0.3914
  26.000   0.8594   0.32982   0.32851  -0.1471  0.0035  1.0000  -1.3742   0.0000   0.0000   0.0000   0.3916
  26.100   0.8596   0.33072   0.32941  -0.1476  0.0033  1.0000  -1.3738   0.0000   0.0000   0.0000   0.3919
  26.200   0.8592   0.33167   0.33036  -0.1480  0.0032  1.0000  -1.3595   0.0000   0.0000   0.0000   0.3923


