xflr5 v6.61

 Calculated polar for: SD7003-085-88

 1 1 Reynolds number fixed          Mach number fixed         

 xtrf =   1.000 (top)        1.000 (bottom)
 Mach =   0.000     Re =     0.563 e 6     Ncrit =   9.000

  alpha     CL        CD       CDp       Cm    Top Xtr Bot Xtr   Cpmin    Chinge    XCp    
 ------- -------- --------- --------- -------- ------- ------- -------- --------- ---------
 -10.000  -0.5403   0.10696   0.10465   0.0039  1.0000  0.0175  -2.0265   0.0000   0.0000   0.0000   0.2518
  -9.900  -0.5392   0.10538   0.10308   0.0032  1.0000  0.0176  -2.0328   0.0000   0.0000   0.0000   0.2505
  -9.800  -0.5382   0.10378   0.10149   0.0025  1.0000  0.0177  -2.0405   0.0000   0.0000   0.0000   0.2493
  -9.700  -0.5374   0.10217   0.09989   0.0017  1.0000  0.0178  -2.0495   0.0000   0.0000   0.0000   0.2480
  -9.600  -0.5366   0.10054   0.09826   0.0010  1.0000  0.0179  -2.0600   0.0000   0.0000   0.0000   0.2466
  -9.500  -0.5360   0.09890   0.09663   0.0002  1.0000  0.0180  -2.0718   0.0000   0.0000   0.0000   0.2452
  -9.400  -0.5356   0.09724   0.09498  -0.0006  1.0000  0.0181  -2.0851   0.0000   0.0000   0.0000   0.2438
  -9.300  -0.5353   0.09557   0.09331  -0.0014  1.0000  0.0182  -2.1000   0.0000   0.0000   0.0000   0.2423
  -9.200  -0.5352   0.09388   0.09163  -0.0022  1.0000  0.0183  -2.1166   0.0000   0.0000   0.0000   0.2408
  -9.100  -0.5353   0.09218   0.08994  -0.0031  1.0000  0.0184  -2.1348   0.0000   0.0000   0.0000   0.2393
  -9.000  -0.5355   0.09045   0.08822  -0.0040  1.0000  0.0184  -2.1549   0.0000   0.0000   0.0000   0.2377
  -8.900  -0.5357   0.08867   0.08645  -0.0049  1.0000  0.0185  -2.1767   0.0000   0.0000   0.0000   0.2360
  -8.800  -0.5362   0.08685   0.08463  -0.0060  1.0000  0.0186  -2.2005   0.0000   0.0000   0.0000   0.2341
  -8.700  -0.5368   0.08500   0.08279  -0.0070  1.0000  0.0187  -2.2264   0.0000   0.0000   0.0000   0.2322
  -8.600  -0.5377   0.08312   0.08092  -0.0081  1.0000  0.0187  -2.2546   0.0000   0.0000   0.0000   0.2303
  -8.500  -0.5390   0.08121   0.07903  -0.0093  1.0000  0.0188  -2.2851   0.0000   0.0000   0.0000   0.2282
  -8.400  -0.5405   0.07926   0.07709  -0.0105  1.0000  0.0188  -2.3181   0.0000   0.0000   0.0000   0.2261
  -8.300  -0.5423   0.07726   0.07510  -0.0118  1.0000  0.0189  -2.3534   0.0000   0.0000   0.0000   0.2238
  -8.200  -0.5445   0.07522   0.07308  -0.0132  1.0000  0.0189  -2.3911   0.0000   0.0000   0.0000   0.2213
  -8.100  -0.5474   0.07314   0.07101  -0.0148  1.0000  0.0189  -2.4316   0.0000   0.0000   0.0000   0.2187
  -8.000  -0.5510   0.07100   0.06890  -0.0165  1.0000  0.0190  -2.4755   0.0000   0.0000   0.0000   0.2158
  -7.900  -0.5545   0.06850   0.06641  -0.0194  1.0000  0.0190  -2.5277   0.0000   0.0000   0.0000   0.2110
  -7.800  -0.5560   0.06519   0.06309  -0.0238  1.0000  0.0191  -2.5963   0.0000   0.0000   0.0000   0.2032
  -7.700  -0.5572   0.06191   0.05977  -0.0273  1.0000  0.0192  -2.6664   0.0000   0.0000   0.0000   0.1971
  -7.600  -0.5580   0.05871   0.05653  -0.0301  1.0000  0.0193  -2.7360   0.0000   0.0000   0.0000   0.1921
  -7.500  -0.5586   0.05560   0.05336  -0.0324  1.0000  0.0193  -2.8047   0.0000   0.0000   0.0000   0.1880
  -7.400  -0.5588   0.05258   0.05027  -0.0342  1.0000  0.0194  -2.8725   0.0000   0.0000   0.0000   0.1847
  -7.300  -0.5586   0.04960   0.04720  -0.0357  1.0000  0.0194  -2.9413   0.0000   0.0000   0.0000   0.1821
  -7.200  -0.5582   0.04662   0.04412  -0.0369  1.0000  0.0194  -3.0141   0.0000   0.0000   0.0000   0.1799
  -7.000  -0.5615   0.03531   0.03219  -0.0379  1.0000  0.0131  -3.6974   0.0000   0.0000   0.0000   0.1779
  -6.900  -0.5680   0.02996   0.02642  -0.0381  1.0000  0.0122  -3.9785   0.0000   0.0000   0.0000   0.1783
  -6.800  -0.5674   0.02652   0.02265  -0.0377  1.0000  0.0115  -4.1306   0.0000   0.0000   0.0000   0.1789
  -6.700  -0.5643   0.02373   0.01954  -0.0372  1.0000  0.0109  -4.2423   0.0000   0.0000   0.0000   0.1794
  -6.600  -0.5594   0.02135   0.01688  -0.0365  1.0000  0.0104  -4.3268   0.0000   0.0000   0.0000   0.1800
  -6.500  -0.5534   0.01932   0.01458  -0.0359  1.0000  0.0099  -4.3879   0.0000   0.0000   0.0000   0.1804
  -6.400  -0.5463   0.01761   0.01262  -0.0352  1.0000  0.0095  -4.4243   0.0000   0.0000   0.0000   0.1808
  -6.300  -0.5386   0.01624   0.01105  -0.0346  1.0000  0.0092  -4.4310   0.0000   0.0000   0.0000   0.1810
  -6.200  -0.5304   0.01512   0.00975  -0.0340  1.0000  0.0089  -4.4170   0.0000   0.0000   0.0000   0.1812
  -6.100  -0.5218   0.01420   0.00869  -0.0335  1.0000  0.0088  -4.3839   0.0000   0.0000   0.0000   0.1812
  -6.000  -0.5129   0.01346   0.00782  -0.0330  1.0000  0.0086  -4.3343   0.0000   0.0000   0.0000   0.1811
  -5.900  -0.5039   0.01285   0.00710  -0.0325  1.0000  0.0085  -4.2713   0.0000   0.0000   0.0000   0.1809
  -5.800  -0.4946   0.01234   0.00650  -0.0321  1.0000  0.0085  -4.1970   0.0000   0.0000   0.0000   0.1807
  -5.700  -0.4851   0.01192   0.00600  -0.0317  1.0000  0.0085  -4.1130   0.0000   0.0000   0.0000   0.1803
  -5.600  -0.4755   0.01156   0.00557  -0.0313  1.0000  0.0086  -4.0206   0.0000   0.0000   0.0000   0.1798
  -5.500  -0.4658   0.01126   0.00520  -0.0310  1.0000  0.0086  -3.9213   0.0000   0.0000   0.0000   0.1792
  -5.400  -0.4560   0.01099   0.00488  -0.0306  1.0000  0.0088  -3.8164   0.0000   0.0000   0.0000   0.1786
  -5.300  -0.4462   0.01076   0.00459  -0.0303  1.0000  0.0090  -3.7064   0.0000   0.0000   0.0000   0.1779
  -5.200  -0.4363   0.01055   0.00433  -0.0300  1.0000  0.0093  -3.6048   0.0000   0.0000   0.0000   0.1771
  -5.100  -0.4264   0.01036   0.00411  -0.0297  1.0000  0.0098  -3.5067   0.0000   0.0000   0.0000   0.1763
  -5.000  -0.4165   0.01020   0.00393  -0.0294  1.0000  0.0103  -3.4037   0.0000   0.0000   0.0000   0.1754
  -4.900  -0.4066   0.01008   0.00378  -0.0291  1.0000  0.0105  -3.2890   0.0000   0.0000   0.0000   0.1744
  -4.800  -0.3967   0.01006   0.00360  -0.0289  1.0000  0.0094  -3.2570   0.0000   0.0000   0.0000   0.1734
  -4.700  -0.3868   0.00993   0.00345  -0.0286  1.0000  0.0099  -3.1449   0.0000   0.0000   0.0000   0.1723
  -4.600  -0.3769   0.00980   0.00332  -0.0283  1.0000  0.0106  -3.0349   0.0000   0.0000   0.0000   0.1712
  -4.500  -0.3671   0.00969   0.00321  -0.0280  1.0000  0.0114  -2.9306   0.0000   0.0000   0.0000   0.1700
  -4.400  -0.3572   0.00959   0.00312  -0.0277  1.0000  0.0122  -2.8332   0.0000   0.0000   0.0000   0.1687
  -4.300  -0.3475   0.00950   0.00304  -0.0274  1.0000  0.0131  -2.7424   0.0000   0.0000   0.0000   0.1674
  -4.200  -0.3377   0.00941   0.00296  -0.0271  1.0000  0.0140  -2.6572   0.0000   0.0000   0.0000   0.1660
  -4.100  -0.3280   0.00929   0.00288  -0.0269  1.0000  0.0185  -2.5772   0.0000   0.0000   0.0000   0.1645
  -4.000  -0.3131   0.00913   0.00279  -0.0277  0.9988  0.0252  -2.4785   0.0000   0.0000   0.0000   0.1578
  -3.900  -0.2977   0.00902   0.00272  -0.0287  0.9974  0.0318  -2.3817   0.0000   0.0000   0.0000   0.1501
  -3.800  -0.2825   0.00886   0.00265  -0.0296  0.9960  0.0404  -2.2872   0.0000   0.0000   0.0000   0.1416
  -3.700  -0.2672   0.00877   0.00258  -0.0305  0.9941  0.0447  -2.1948   0.0000   0.0000   0.0000   0.1321
  -3.600  -0.2514   0.00870   0.00252  -0.0315  0.9922  0.0467  -2.1035   0.0000   0.0000   0.0000   0.1211
  -3.500  -0.2354   0.00864   0.00246  -0.0325  0.9903  0.0493  -2.0133   0.0000   0.0000   0.0000   0.1083
  -3.400  -0.2193   0.00855   0.00241  -0.0335  0.9887  0.0548  -1.9247   0.0000   0.0000   0.0000   0.0933
  -3.300  -0.2036   0.00845   0.00236  -0.0345  0.9872  0.0602  -1.8385   0.0000   0.0000   0.0000   0.0764
  -3.200  -0.1900   0.00836   0.00230  -0.0350  0.9844  0.0648  -1.7605   0.0000   0.0000   0.0000   0.0617
  -3.100  -0.1756   0.00828   0.00224  -0.0357  0.9816  0.0688  -1.6810   0.0000   0.0000   0.0000   0.0425
  -3.000  -0.1603   0.00821   0.00218  -0.0366  0.9789  0.0722  -1.6005   0.0000   0.0000   0.0000   0.0178
  -2.900  -0.1446   0.00811   0.00212  -0.0375  0.9763  0.0815  -1.5201   0.0000   0.0000   0.0000  -0.0139
  -2.800  -0.1287   0.00799   0.00207  -0.0386  0.9738  0.0907  -1.4403   0.0000   0.0000   0.0000  -0.0542
  -2.700  -0.1148   0.00789   0.00201  -0.0391  0.9699  0.1002  -1.3675   0.0000   0.0000   0.0000  -0.0953
  -2.600  -0.1028   0.00768   0.00195  -0.0393  0.9640  0.1267  -1.3011   0.0000   0.0000   0.0000  -0.1379
  -2.500  -0.0893   0.00743   0.00189  -0.0400  0.9592  0.1648  -1.2317   0.0000   0.0000   0.0000  -0.2027
  -2.400  -0.0753   0.00717   0.00184  -0.0407  0.9550  0.2127  -1.1615   0.0000   0.0000   0.0000  -0.2972
  -2.300  -0.0619   0.00689   0.00179  -0.0413  0.9498  0.2667  -1.0942   0.0000   0.0000   0.0000  -0.4243
  -2.200  -0.0500   0.00671   0.00175  -0.0415  0.9420  0.3013  -1.0312   0.0000   0.0000   0.0000  -0.5875
  -2.100  -0.0367   0.00657   0.00170  -0.0419  0.9338  0.3286  -0.9641   0.0000   0.0000   0.0000  -0.9022
  -2.000  -0.0235   0.00636   0.00160  -0.0424  0.9256  0.3751  -0.8785   0.0000   0.0000   0.0000  -1.5648
  -1.900  -0.0125   0.00625   0.00157  -0.0423  0.9147  0.4036  -0.8265   0.0000   0.0000   0.0000  -3.1690
  -1.800  -0.0011   0.00611   0.00152  -0.0422  0.9034  0.4366  -0.7895   0.0000   0.0000   0.0000  -37.3251
  -1.700   0.0100   0.00604   0.00148  -0.0421  0.8932  0.4614  -0.7530   0.0000   0.0000   0.0000   4.4759
  -1.600   0.0204   0.00591   0.00146  -0.0419  0.8827  0.4942  -0.7183   0.0000   0.0000   0.0000   2.3180
  -1.500   0.0309   0.00585   0.00143  -0.0417  0.8712  0.5200  -0.6836   0.0000   0.0000   0.0000   1.6059
  -1.400   0.0410   0.00577   0.00141  -0.0413  0.8599  0.5511  -0.6497   0.0000   0.0000   0.0000   1.2619
  -1.300   0.0514   0.00570   0.00139  -0.0411  0.8488  0.5770  -0.6185   0.0000   0.0000   0.0000   1.0526
  -1.200   0.0614   0.00564   0.00138  -0.0407  0.8357  0.6055  -0.5934   0.0000   0.0000   0.0000   0.9155
  -1.000   0.0814   0.00555   0.00137  -0.0400  0.8116  0.6607  -0.5435   0.0000   0.0000   0.0000   0.7421
  -0.900   0.0913   0.00550   0.00137  -0.0396  0.7991  0.6864  -0.5190   0.0000   0.0000   0.0000   0.6841
  -0.800   0.1012   0.00549   0.00137  -0.0392  0.7867  0.7105  -0.4946   0.0000   0.0000   0.0000   0.6373
  -0.700   0.1113   0.00548   0.00137  -0.0388  0.7766  0.7291  -0.4701   0.0000   0.0000   0.0000   0.5987
  -0.600   0.1216   0.00544   0.00138  -0.0385  0.7672  0.7483  -0.4457   0.0000   0.0000   0.0000   0.5665
  -0.500   0.1320   0.00546   0.00138  -0.0382  0.7557  0.7637  -0.4443   0.0000   0.0000   0.0000   0.5391
  -0.400   0.1415   0.00546   0.00138  -0.0377  0.7429  0.7812  -0.4553   0.0000   0.0000   0.0000   0.5159
  -0.300   0.1513   0.00546   0.00139  -0.0373  0.7313  0.7991  -0.4665   0.0000   0.0000   0.0000   0.4956
  -0.200   0.1618   0.00547   0.00139  -0.0370  0.7209  0.8128  -0.4801   0.0000   0.0000   0.0000   0.4779
  -0.100   0.1712   0.00546   0.00139  -0.0365  0.7088  0.8288  -0.4931   0.0000   0.0000   0.0000   0.4620
   0.000   0.1808   0.00549   0.00140  -0.0360  0.6961  0.8433  -0.5063   0.0000   0.0000   0.0000   0.4479
   0.100   0.1908   0.00552   0.00140  -0.0356  0.6851  0.8555  -0.5198   0.0000   0.0000   0.0000   0.4354
   0.200   0.2005   0.00550   0.00141  -0.0351  0.6775  0.8688  -0.5331   0.0000   0.0000   0.0000   0.4239
   0.300   0.2104   0.00551   0.00141  -0.0347  0.6681  0.8812  -0.5466   0.0000   0.0000   0.0000   0.4136
   0.400   0.2202   0.00554   0.00142  -0.0343  0.6574  0.8925  -0.5601   0.0000   0.0000   0.0000   0.4043
   0.500   0.2291   0.00557   0.00142  -0.0336  0.6452  0.9058  -0.5731   0.0000   0.0000   0.0000   0.3952
   0.600   0.2387   0.00559   0.00142  -0.0331  0.6344  0.9190  -0.5865   0.0000   0.0000   0.0000   0.3872
   0.700   0.2489   0.00559   0.00142  -0.0327  0.6253  0.9310  -0.6030   0.0000   0.0000   0.0000   0.3800
   0.800   0.2595   0.00561   0.00141  -0.0325  0.6134  0.9444  -0.6199   0.0000   0.0000   0.0000   0.3735
   0.900   0.2716   0.00567   0.00141  -0.0326  0.5992  0.9563  -0.6382   0.0000   0.0000   0.0000   0.3682
   1.000   0.2852   0.00572   0.00140  -0.0330  0.5851  0.9683  -0.6578   0.0000   0.0000   0.0000   0.3640
   1.100   0.3007   0.00574   0.00140  -0.0339  0.5769  0.9777  -0.6791   0.0000   0.0000   0.0000   0.3609
   1.200   0.3158   0.00577   0.00139  -0.0347  0.5666  0.9871  -0.7002   0.0000   0.0000   0.0000   0.3580
   1.300   0.3316   0.00582   0.00138  -0.0357  0.5544  0.9963  -0.7220   0.0000   0.0000   0.0000   0.3558
   1.400   0.3435   0.00591   0.00141  -0.0359  0.5409  1.0000  -0.7406   0.0000   0.0000   0.0000   0.3526
   1.500   0.3541   0.00596   0.00142  -0.0358  0.5314  1.0000  -0.7580   0.0000   0.0000   0.0000   0.3491
   1.600   0.3648   0.00600   0.00143  -0.0357  0.5225  1.0000  -0.7757   0.0000   0.0000   0.0000   0.3458
   1.700   0.3754   0.00607   0.00144  -0.0356  0.5108  1.0000  -0.7937   0.0000   0.0000   0.0000   0.3427
   1.800   0.3857   0.00616   0.00146  -0.0354  0.4973  1.0000  -0.8149   0.0000   0.0000   0.0000   0.3397
   1.900   0.3962   0.00626   0.00148  -0.0353  0.4830  1.0000  -0.8364   0.0000   0.0000   0.0000   0.3369
   2.000   0.4072   0.00629   0.00150  -0.0353  0.4770  1.0000  -0.8586   0.0000   0.0000   0.0000   0.3343
   2.100   0.4181   0.00634   0.00152  -0.0352  0.4690  1.0000  -0.8808   0.0000   0.0000   0.0000   0.3318
   2.200   0.4288   0.00641   0.00154  -0.0351  0.4593  1.0000  -0.9030   0.0000   0.0000   0.0000   0.3294
   2.300   0.4394   0.00650   0.00156  -0.0350  0.4482  1.0000  -0.9251   0.0000   0.0000   0.0000   0.3272
   2.400   0.4499   0.00660   0.00160  -0.0349  0.4344  1.0000  -0.9473   0.0000   0.0000   0.0000   0.3250
   2.500   0.4609   0.00665   0.00163  -0.0348  0.4275  1.0000  -0.9701   0.0000   0.0000   0.0000   0.3230
   2.600   0.4718   0.00670   0.00165  -0.0348  0.4188  1.0000  -0.9929   0.0000   0.0000   0.0000   0.3211
   2.700   0.4825   0.00679   0.00168  -0.0347  0.4074  1.0000  -1.0207   0.0000   0.0000   0.0000   0.3192
   2.800   0.4930   0.00690   0.00172  -0.0346  0.3941  1.0000  -1.0483   0.0000   0.0000   0.0000   0.3174
   2.900   0.5037   0.00700   0.00176  -0.0345  0.3816  1.0000  -1.0764   0.0000   0.0000   0.0000   0.3157
   3.000   0.5147   0.00705   0.00180  -0.0345  0.3761  1.0000  -1.1052   0.0000   0.0000   0.0000   0.3140
   3.100   0.5256   0.00711   0.00184  -0.0344  0.3685  1.0000  -1.1340   0.0000   0.0000   0.0000   0.3125
   3.200   0.5364   0.00719   0.00187  -0.0343  0.3594  1.0000  -1.1627   0.0000   0.0000   0.0000   0.3110
   3.300   0.5470   0.00730   0.00192  -0.0343  0.3487  1.0000  -1.1914   0.0000   0.0000   0.0000   0.3095
   3.400   0.5576   0.00741   0.00198  -0.0342  0.3360  1.0000  -1.2202   0.0000   0.0000   0.0000   0.3081
   3.500   0.5686   0.00747   0.00203  -0.0341  0.3305  1.0000  -1.2498   0.0000   0.0000   0.0000   0.3068
   3.600   0.5796   0.00753   0.00207  -0.0341  0.3243  1.0000  -1.2795   0.0000   0.0000   0.0000   0.3055
   3.700   0.5904   0.00761   0.00212  -0.0340  0.3162  1.0000  -1.3092   0.0000   0.0000   0.0000   0.3042
   3.800   0.6010   0.00773   0.00218  -0.0339  0.3058  1.0000  -1.3388   0.0000   0.0000   0.0000   0.3030
   3.900   0.6115   0.00786   0.00225  -0.0339  0.2919  1.0000  -1.3682   0.0000   0.0000   0.0000   0.3018
   4.000   0.6223   0.00794   0.00231  -0.0338  0.2844  1.0000  -1.3985   0.0000   0.0000   0.0000   0.3007
   4.100   0.6332   0.00802   0.00236  -0.0337  0.2775  1.0000  -1.4375   0.0000   0.0000   0.0000   0.2996
   4.200   0.6439   0.00812   0.00242  -0.0337  0.2691  1.0000  -1.4767   0.0000   0.0000   0.0000   0.2985
   4.300   0.6545   0.00824   0.00248  -0.0336  0.2599  1.0000  -1.5159   0.0000   0.0000   0.0000   0.2975
   4.400   0.6650   0.00837   0.00257  -0.0335  0.2484  1.0000  -1.5552   0.0000   0.0000   0.0000   0.2965
   4.500   0.6759   0.00846   0.00264  -0.0335  0.2417  1.0000  -1.5954   0.0000   0.0000   0.0000   0.2955
   4.600   0.6867   0.00853   0.00271  -0.0334  0.2365  1.0000  -1.6490   0.0000   0.0000   0.0000   0.2946
   4.700   0.6974   0.00863   0.00278  -0.0333  0.2290  1.0000  -1.7026   0.0000   0.0000   0.0000   0.2936
   4.800   0.7079   0.00877   0.00285  -0.0333  0.2196  1.0000  -1.7562   0.0000   0.0000   0.0000   0.2927
   4.900   0.7185   0.00891   0.00311  -0.0332  0.2116  1.0000  -1.7865   0.0000   0.0000   0.0000   0.2918
   5.000   0.7291   0.00904   0.00322  -0.0331  0.2016  1.0000  -1.8329   0.0000   0.0000   0.0000   0.2909
   5.100   0.7399   0.00912   0.00329  -0.0330  0.1960  1.0000  -1.8988   0.0000   0.0000   0.0000   0.2901
   5.200   0.7504   0.00925   0.00337  -0.0330  0.1871  1.0000  -1.9823   0.0000   0.0000   0.0000   0.2893
   5.300   0.7606   0.00942   0.00346  -0.0329  0.1767  1.0000  -2.0652   0.0000   0.0000   0.0000   0.2885
   5.400   0.7710   0.00958   0.00358  -0.0328  0.1654  1.0000  -2.1485   0.0000   0.0000   0.0000   0.2877
   5.500   0.7818   0.00966   0.00367  -0.0327  0.1623  1.0000  -2.2354   0.0000   0.0000   0.0000   0.2870
   5.600   0.7926   0.00974   0.00376  -0.0327  0.1587  1.0000  -2.3230   0.0000   0.0000   0.0000   0.2862
   5.700   0.8032   0.00986   0.00386  -0.0326  0.1537  1.0000  -2.4108   0.0000   0.0000   0.0000   0.2855
   5.800   0.8137   0.01000   0.00396  -0.0325  0.1476  1.0000  -2.4986   0.0000   0.0000   0.0000   0.2848
   5.900   0.8240   0.01016   0.00407  -0.0324  0.1404  1.0000  -2.5868   0.0000   0.0000   0.0000   0.2841
   6.000   0.8343   0.01033   0.00421  -0.0323  0.1318  1.0000  -2.6752   0.0000   0.0000   0.0000   0.2834
   6.100   0.8450   0.01042   0.00432  -0.0322  0.1287  1.0000  -2.7673   0.0000   0.0000   0.0000   0.2827
   6.200   0.8557   0.01051   0.00442  -0.0322  0.1262  1.0000  -2.8608   0.0000   0.0000   0.0000   0.2820
   6.300   0.8663   0.01062   0.00453  -0.0321  0.1224  1.0000  -2.9545   0.0000   0.0000   0.0000   0.2814
   6.400   0.8767   0.01077   0.00465  -0.0320  0.1177  1.0000  -3.0484   0.0000   0.0000   0.0000   0.2808
   6.500   0.8869   0.01095   0.00477  -0.0319  0.1119  1.0000  -3.1420   0.0000   0.0000   0.0000   0.2801
   6.600   0.8970   0.01115   0.00492  -0.0318  0.1037  1.0000  -3.2354   0.0000   0.0000   0.0000   0.2795
   6.700   0.9074   0.01129   0.00507  -0.0317  0.0985  1.0000  -3.3316   0.0000   0.0000   0.0000   0.2788
   6.800   0.9180   0.01138   0.00516  -0.0316  0.0959  1.0000  -3.4320   0.0000   0.0000   0.0000   0.2783
   6.900   0.9284   0.01152   0.00528  -0.0315  0.0911  1.0000  -3.5317   0.0000   0.0000   0.0000   0.2777
   7.000   0.9383   0.01172   0.00542  -0.0314  0.0846  1.0000  -3.6301   0.0000   0.0000   0.0000   0.2771
   7.100   0.9481   0.01196   0.00559  -0.0313  0.0758  1.0000  -3.7275   0.0000   0.0000   0.0000   0.2765
   7.200   0.9584   0.01210   0.00573  -0.0312  0.0713  1.0000  -3.8296   0.0000   0.0000   0.0000   0.2760
   7.300   0.9687   0.01223   0.00585  -0.0311  0.0678  1.0000  -3.9339   0.0000   0.0000   0.0000   0.2754
   7.400   0.9787   0.01243   0.00600  -0.0310  0.0624  1.0000  -4.0367   0.0000   0.0000   0.0000   0.2749
   7.500   0.9882   0.01269   0.00618  -0.0309  0.0559  1.0000  -4.1380   0.0000   0.0000   0.0000   0.2743
   7.600   0.9981   0.01291   0.00637  -0.0307  0.0496  1.0000  -4.2402   0.0000   0.0000   0.0000   0.2737
   7.700   1.0084   0.01305   0.00651  -0.0306  0.0478  1.0000  -4.3480   0.0000   0.0000   0.0000   0.2732
   7.800   1.0185   0.01321   0.00667  -0.0305  0.0453  1.0000  -4.4554   0.0000   0.0000   0.0000   0.2727
   7.900   1.0285   0.01339   0.00684  -0.0304  0.0425  1.0000  -4.5627   0.0000   0.0000   0.0000   0.2722
   8.000   1.0393   0.01348   0.00717  -0.0302  0.0471  1.0000  -4.6433   0.0000   0.0000   0.0000   0.2716
   8.100   1.0494   0.01365   0.00735  -0.0301  0.0453  1.0000  -4.7479   0.0000   0.0000   0.0000   0.2710
   8.200   1.0592   0.01385   0.00752  -0.0300  0.0424  1.0000  -4.8552   0.0000   0.0000   0.0000   0.2705
   8.300   1.0687   0.01411   0.00773  -0.0298  0.0387  1.0000  -4.9619   0.0000   0.0000   0.0000   0.2700
   8.400   1.0780   0.01440   0.00799  -0.0296  0.0343  1.0000  -5.0654   0.0000   0.0000   0.0000   0.2695
   8.500   1.0874   0.01468   0.00828  -0.0294  0.0311  1.0000  -5.1670   0.0000   0.0000   0.0000   0.2689
   8.600   1.0977   0.01480   0.00842  -0.0293  0.0306  1.0000  -5.2839   0.0000   0.0000   0.0000   0.2684
   8.700   1.1077   0.01495   0.00860  -0.0292  0.0299  1.0000  -5.3987   0.0000   0.0000   0.0000   0.2679
   8.800   1.1176   0.01511   0.00879  -0.0291  0.0289  1.0000  -5.5129   0.0000   0.0000   0.0000   0.2675
   8.900   1.1274   0.01531   0.00900  -0.0289  0.0276  1.0000  -5.6264   0.0000   0.0000   0.0000   0.2670
   9.000   1.1370   0.01552   0.00922  -0.0287  0.0263  1.0000  -5.7393   0.0000   0.0000   0.0000   0.2665
   9.100   1.1465   0.01575   0.00945  -0.0286  0.0248  1.0000  -5.8516   0.0000   0.0000   0.0000   0.2660
   9.200   1.1558   0.01602   0.00970  -0.0284  0.0232  1.0000  -5.9623   0.0000   0.0000   0.0000   0.2655
   9.300   1.1649   0.01631   0.00999  -0.0281  0.0215  1.0000  -6.0694   0.0000   0.0000   0.0000   0.2650
   9.400   1.1736   0.01667   0.01037  -0.0279  0.0194  1.0000  -6.1665   0.0000   0.0000   0.0000   0.2644
   9.500   1.1813   0.01719   0.01098  -0.0274  0.0169  1.0000  -6.2355   0.0000   0.0000   0.0000   0.2637
   9.600   1.1916   0.01726   0.01105  -0.0274  0.0166  1.0000  -6.3682   0.0000   0.0000   0.0000   0.2633
   9.700   1.2017   0.01736   0.01116  -0.0273  0.0158  1.0000  -6.4938   0.0000   0.0000   0.0000   0.2630
   9.800   1.2079   0.01813   0.01190  -0.0267  0.0108  1.0000  -6.4763   0.0000   0.0000   0.0000   0.2622
   9.900   1.2153   0.01869   0.01252  -0.0262  0.0099  1.0000  -6.5286   0.0000   0.0000   0.0000   0.2615
  10.000   1.2226   0.01922   0.01314  -0.0257  0.0094  1.0000  -6.5907   0.0000   0.0000   0.0000   0.2609
  10.100   1.2298   0.01976   0.01376  -0.0252  0.0090  1.0000  -6.6570   0.0000   0.0000   0.0000   0.2602
  10.200   1.2366   0.02033   0.01441  -0.0247  0.0087  1.0000  -6.7243   0.0000   0.0000   0.0000   0.2596
  10.300   1.2431   0.02093   0.01509  -0.0242  0.0084  1.0000  -6.7905   0.0000   0.0000   0.0000   0.2589
  10.400   1.2491   0.02157   0.01582  -0.0236  0.0082  1.0000  -6.8544   0.0000   0.0000   0.0000   0.2582
  10.500   1.2547   0.02226   0.01661  -0.0230  0.0079  1.0000  -6.9145   0.0000   0.0000   0.0000   0.2575
  10.600   1.2596   0.02302   0.01748  -0.0223  0.0077  1.0000  -6.9693   0.0000   0.0000   0.0000   0.2567
  10.700   1.2637   0.02387   0.01843  -0.0215  0.0076  1.0000  -7.0174   0.0000   0.0000   0.0000   0.2559
  10.800   1.2669   0.02481   0.01948  -0.0207  0.0074  1.0000  -7.0570   0.0000   0.0000   0.0000   0.2551
  10.900   1.2690   0.02586   0.02066  -0.0198  0.0072  1.0000  -7.0860   0.0000   0.0000   0.0000   0.2543
  11.000   1.2698   0.02705   0.02199  -0.0189  0.0071  1.0000  -7.1025   0.0000   0.0000   0.0000   0.2534
  11.100   1.2690   0.02840   0.02348  -0.0178  0.0069  1.0000  -7.1048   0.0000   0.0000   0.0000   0.2524
  11.200   1.2771   0.02856   0.02363  -0.0175  0.0069  1.0000  -7.2473   0.0000   0.0000   0.0000   0.2520
  11.300   1.2866   0.02854   0.02360  -0.0174  0.0068  1.0000  -7.4141   0.0000   0.0000   0.0000   0.2516
  11.400   1.2961   0.02852   0.02358  -0.0173  0.0068  1.0000  -7.5835   0.0000   0.0000   0.0000   0.2513
  11.500   1.3055   0.02850   0.02355  -0.0172  0.0067  1.0000  -7.7553   0.0000   0.0000   0.0000   0.2509
  11.600   1.3149   0.02849   0.02353  -0.0171  0.0067  1.0000  -7.9292   0.0000   0.0000   0.0000   0.2506
  11.700   1.3492   0.02567   0.02041  -0.0196  0.0063  1.0000  -8.6014   0.0000   0.0000   0.0000   0.2519
  11.800   1.3592   0.02567   0.02039  -0.0196  0.0061  1.0000  -8.8015   0.0000   0.0000   0.0000   0.2516
  11.900   1.3681   0.02578   0.02050  -0.0194  0.0060  1.0000  -8.9827   0.0000   0.0000   0.0000   0.2512
  12.000   1.3763   0.02597   0.02070  -0.0192  0.0058  1.0000  -9.1526   0.0000   0.0000   0.0000   0.2508
  12.100   1.3839   0.02621   0.02095  -0.0189  0.0056  1.0000  -9.3149   0.0000   0.0000   0.0000   0.2503
  12.200   1.3911   0.02649   0.02125  -0.0186  0.0054  1.0000  -9.4708   0.0000   0.0000   0.0000   0.2498
  12.300   1.3978   0.02681   0.02160  -0.0182  0.0052  1.0000  -9.6224   0.0000   0.0000   0.0000   0.2493
  12.400   1.4041   0.02715   0.02196  -0.0178  0.0050  1.0000  -9.7717   0.0000   0.0000   0.0000   0.2488
  12.500   1.4101   0.02752   0.02235  -0.0173  0.0048  1.0000  -9.9193   0.0000   0.0000   0.0000   0.2483
  12.600   1.4157   0.02790   0.02277  -0.0168  0.0047  1.0000  -10.0651   0.0000   0.0000   0.0000   0.2477
  12.700   1.4208   0.02830   0.02320  -0.0163  0.0045  1.0000  -10.2090   0.0000   0.0000   0.0000   0.2471
  12.800   1.4251   0.02872   0.02365  -0.0157  0.0043  1.0000  -10.3462   0.0000   0.0000   0.0000   0.2465
  12.900   1.4284   0.02916   0.02412  -0.0149  0.0041  1.0000  -10.4762   0.0000   0.0000   0.0000   0.2458
  13.000   1.4310   0.02963   0.02462  -0.0141  0.0040  1.0000  -10.6006   0.0000   0.0000   0.0000   0.2450
  13.100   1.4330   0.03014   0.02517  -0.0132  0.0039  1.0000  -10.7195   0.0000   0.0000   0.0000   0.2442
  13.200   1.4344   0.03069   0.02576  -0.0124  0.0037  1.0000  -10.8330   0.0000   0.0000   0.0000   0.2435
  13.300   1.4351   0.03131   0.02642  -0.0115  0.0036  1.0000  -10.9394   0.0000   0.0000   0.0000   0.2427
  13.400   1.4351   0.03200   0.02716  -0.0108  0.0035  1.0000  -11.0385   0.0000   0.0000   0.0000   0.2420
  13.500   1.4345   0.03277   0.02797  -0.0101  0.0034  1.0000  -11.1295   0.0000   0.0000   0.0000   0.2413
  13.600   1.4333   0.03361   0.02886  -0.0095  0.0033  1.0000  -11.2132   0.0000   0.0000   0.0000   0.2407
  13.700   1.4316   0.03456   0.02986  -0.0090  0.0033  1.0000  -11.2893   0.0000   0.0000   0.0000   0.2402
  13.800   1.4295   0.03560   0.03097  -0.0087  0.0032  1.0000  -11.3585   0.0000   0.0000   0.0000   0.2398
  13.900   1.4271   0.03676   0.03218  -0.0085  0.0031  1.0000  -11.4215   0.0000   0.0000   0.0000   0.2395
  14.000   1.4241   0.03804   0.03353  -0.0085  0.0031  1.0000  -11.4746   0.0000   0.0000   0.0000   0.2394
  14.100   1.4207   0.03945   0.03500  -0.0087  0.0030  1.0000  -11.5202   0.0000   0.0000   0.0000   0.2393
  14.200   1.4167   0.04096   0.03658  -0.0090  0.0030  1.0000  -11.5563   0.0000   0.0000   0.0000   0.2394
  14.300   1.4121   0.04266   0.03835  -0.0096  0.0030  1.0000  -11.5814   0.0000   0.0000   0.0000   0.2396
  14.400   1.4075   0.04446   0.04022  -0.0103  0.0029  1.0000  -11.6039   0.0000   0.0000   0.0000   0.2399
  14.500   1.4023   0.04647   0.04229  -0.0112  0.0029  1.0000  -11.6143   0.0000   0.0000   0.0000   0.2404
  14.600   1.3969   0.04860   0.04451  -0.0123  0.0029  1.0000  -11.6186   0.0000   0.0000   0.0000   0.2410
  14.700   1.3911   0.05087   0.04685  -0.0135  0.0029  1.0000  -11.6153   0.0000   0.0000   0.0000   0.2417
  14.800   1.3846   0.05336   0.04941  -0.0149  0.0029  1.0000  -11.5984   0.0000   0.0000   0.0000   0.2425
  14.900   1.3782   0.05586   0.05198  -0.0163  0.0029  1.0000  -11.5810   0.0000   0.0000   0.0000   0.2434
  15.000   1.3706   0.05868   0.05487  -0.0180  0.0029  1.0000  -11.5423   0.0000   0.0000   0.0000   0.2445
  15.100   1.3635   0.06138   0.05764  -0.0196  0.0029  1.0000  -11.5094   0.0000   0.0000   0.0000   0.2455
  15.200   1.3549   0.06447   0.06081  -0.0215  0.0029  1.0000  -11.4501   0.0000   0.0000   0.0000   0.2468
  15.300   1.3469   0.06738   0.06378  -0.0231  0.0029  1.0000  -11.4002   0.0000   0.0000   0.0000   0.2480
  15.400   1.3373   0.07067   0.06714  -0.0251  0.0029  1.0000  -11.3221   0.0000   0.0000   0.0000   0.2494
  15.500   1.3280   0.07373   0.07027  -0.0268  0.0029  1.0000  -11.2495   0.0000   0.0000   0.0000   0.2506
  15.600   1.3179   0.07701   0.07362  -0.0287  0.0029  1.0000  -11.1613   0.0000   0.0000   0.0000   0.2520
  15.700   1.3075   0.08047   0.07713  -0.0307  0.0029  1.0000  -11.0642   0.0000   0.0000   0.0000   0.2536
  15.800   1.2982   0.08369   0.08042  -0.0325  0.0030  1.0000  -10.9832   0.0000   0.0000   0.0000   0.2550
  15.900   1.2868   0.08754   0.08433  -0.0347  0.0030  1.0000  -10.8598   0.0000   0.0000   0.0000   0.2568
  16.000   1.2769   0.09103   0.08788  -0.0367  0.0030  1.0000  -10.7602   0.0000   0.0000   0.0000   0.2584
  16.100   1.2675   0.09441   0.09133  -0.0386  0.0030  1.0000  -10.6667   0.0000   0.0000   0.0000   0.2599
  16.200   1.2555   0.09855   0.09553  -0.0411  0.0031  1.0000  -10.5197   0.0000   0.0000   0.0000   0.2620
  16.300   1.2457   0.10218   0.09922  -0.0432  0.0031  1.0000  -10.4095   0.0000   0.0000   0.0000   0.2639
  16.400   1.2367   0.10567   0.10276  -0.0452  0.0031  1.0000  -10.3086   0.0000   0.0000   0.0000   0.2656
  16.500   1.2253   0.10979   0.10695  -0.0476  0.0032  1.0000  -10.1574   0.0000   0.0000   0.0000   0.2678
  16.600   1.2147   0.11377   0.11099  -0.0500  0.0032  1.0000  -10.0157   0.0000   0.0000   0.0000   0.2700
  16.700   1.2060   0.11730   0.11457  -0.0521  0.0032  1.0000  -9.9059   0.0000   0.0000   0.0000   0.2719
  16.800   1.1972   0.12089   0.11821  -0.0542  0.0032  1.0000  -9.7899   0.0000   0.0000   0.0000   0.2739
  16.900   1.1841   0.12558   0.12296  -0.0571  0.0033  1.0000  -9.5807   0.0000   0.0000   0.0000   0.2768
  17.000   1.1746   0.12943   0.12687  -0.0594  0.0034  1.0000  -9.4372   0.0000   0.0000   0.0000   0.2790
  17.100   1.1663   0.13300   0.13049  -0.0616  0.0034  1.0000  -9.3129   0.0000   0.0000   0.0000   0.2812
  17.200   1.1574   0.13676   0.13430  -0.0639  0.0034  1.0000  -9.1711   0.0000   0.0000   0.0000   0.2835
  17.300   1.1420   0.14202   0.13964  -0.0672  0.0035  1.0000  -8.8777   0.0000   0.0000   0.0000   0.2872
  17.400   1.1323   0.14575   0.14342  -0.0697  0.0036  1.0000  -8.7015   0.0000   0.0000   0.0000   0.2898
  17.500   1.1231   0.14950   0.14722  -0.0721  0.0036  1.0000  -8.5270   0.0000   0.0000   0.0000   0.2925
  17.600   1.0530   0.17043   0.16843  -0.0843  0.0049  1.0000  -6.8109   0.0000   0.0000   0.0000   0.3096
  17.700   1.0622   0.16964   0.16762  -0.0840  0.0046  1.0000  -7.0726   0.0000   0.0000   0.0000   0.3082
  18.300   0.9574   0.22655   0.22453  -0.1075  0.0047  1.0000  -3.5412   0.0000   0.0000   0.0000   0.3443
  18.400   0.9551   0.23113   0.22909  -0.1090  0.0045  1.0000  -3.3726   0.0000   0.0000   0.0000   0.3461
  18.500   0.9531   0.23559   0.23355  -0.1103  0.0044  1.0000  -3.2066   0.0000   0.0000   0.0000   0.3478
  18.600   0.9519   0.23968   0.23763  -0.1116  0.0043  1.0000  -3.0655   0.0000   0.0000   0.0000   0.3493
  18.700   0.9512   0.24345   0.24140  -0.1127  0.0044  1.0000  -2.9463   0.0000   0.0000   0.0000   0.3506
  18.800   0.9509   0.24699   0.24494  -0.1138  0.0044  1.0000  -2.8441   0.0000   0.0000   0.0000   0.3517
  18.900   0.9509   0.25036   0.24831  -0.1148  0.0045  1.0000  -2.7546   0.0000   0.0000   0.0000   0.3528
  19.000   0.9510   0.25360   0.25155  -0.1158  0.0045  1.0000  -2.6753   0.0000   0.0000   0.0000   0.3537
  19.100   0.9513   0.25673   0.25467  -0.1167  0.0046  1.0000  -2.6046   0.0000   0.0000   0.0000   0.3546
  19.200   0.9517   0.25977   0.25771  -0.1176  0.0048  1.0000  -2.5412   0.0000   0.0000   0.0000   0.3554
  19.300   0.9521   0.26274   0.26068  -0.1185  0.0049  1.0000  -2.4837   0.0000   0.0000   0.0000   0.3562
  19.400   0.9525   0.26565   0.26359  -0.1193  0.0050  1.0000  -2.4309   0.0000   0.0000   0.0000   0.3570
  19.500   0.9529   0.26853   0.26647  -0.1202  0.0052  1.0000  -2.3817   0.0000   0.0000   0.0000   0.3577
  19.600   0.9533   0.27140   0.26934  -0.1210  0.0054  1.0000  -2.3342   0.0000   0.0000   0.0000   0.3584
  19.700   0.9534   0.27431   0.27225  -0.1218  0.0056  1.0000  -2.2853   0.0000   0.0000   0.0000   0.3592
  19.800   0.9530   0.27742   0.27536  -0.1226  0.0059  1.0000  -2.2256   0.0000   0.0000   0.0000   0.3600
  19.900   0.9460   0.28400   0.28194  -0.1232  0.0068  1.0000  -1.9749   0.0000   0.0000   0.0000   0.3617
  20.000   0.9465   0.28663   0.28458  -0.1238  0.0068  1.0000  -1.9530   0.0000   0.0000   0.0000   0.3622
  20.100   0.9470   0.28919   0.28714  -0.1245  0.0068  1.0000  -1.9345   0.0000   0.0000   0.0000   0.3626
  20.200   0.9475   0.29170   0.28965  -0.1251  0.0068  1.0000  -1.9178   0.0000   0.0000   0.0000   0.3631
  20.300   0.9480   0.29418   0.29214  -0.1257  0.0068  1.0000  -1.9019   0.0000   0.0000   0.0000   0.3636
  20.400   0.9483   0.29664   0.29460  -0.1263  0.0068  1.0000  -1.8867   0.0000   0.0000   0.0000   0.3641
  20.500   0.9486   0.29907   0.29703  -0.1270  0.0068  1.0000  -1.8718   0.0000   0.0000   0.0000   0.3646
  20.600   0.9487   0.30147   0.29944  -0.1275  0.0068  1.0000  -1.8571   0.0000   0.0000   0.0000   0.3651
  20.700   0.9486   0.30385   0.30182  -0.1281  0.0068  1.0000  -1.8425   0.0000   0.0000   0.0000   0.3656
  20.800   0.9484   0.30618   0.30416  -0.1287  0.0068  1.0000  -1.8278   0.0000   0.0000   0.0000   0.3661
  20.900   0.9480   0.30848   0.30647  -0.1292  0.0068  1.0000  -1.8130   0.0000   0.0000   0.0000   0.3666
  21.000   0.9474   0.31073   0.30872  -0.1297  0.0068  1.0000  -1.7979   0.0000   0.0000   0.0000   0.3671
  21.100   0.9465   0.31292   0.31092  -0.1301  0.0068  1.0000  -1.7824   0.0000   0.0000   0.0000   0.3676
  21.200   0.9453   0.31503   0.31304  -0.1306  0.0068  1.0000  -1.7664   0.0000   0.0000   0.0000   0.3681
  21.300   0.9437   0.31705   0.31506  -0.1310  0.0068  1.0000  -1.7496   0.0000   0.0000   0.0000   0.3687
  21.400   0.9415   0.31893   0.31695  -0.1313  0.0068  1.0000  -1.7317   0.0000   0.0000   0.0000   0.3692
  21.500   0.9385   0.32061   0.31865  -0.1315  0.0068  1.0000  -1.7121   0.0000   0.0000   0.0000   0.3698
  21.600   0.8889   0.31039   0.30851  -0.1263  0.0068  1.0000  -1.5756   0.0000   0.0000   0.0000   0.3725
  21.700   0.8817   0.30991   0.30804  -0.1260  0.0068  1.0000  -1.5465   0.0000   0.0000   0.0000   0.3732
  21.800   0.8762   0.30978   0.30793  -0.1258  0.0068  1.0000  -1.5218   0.0000   0.0000   0.0000   0.3739
  21.900   0.8716   0.30984   0.30800  -0.1257  0.0068  1.0000  -1.4998   0.0000   0.0000   0.0000   0.3746
  22.000   0.8677   0.31001   0.30818  -0.1257  0.0068  1.0000  -1.4794   0.0000   0.0000   0.0000   0.3752
  22.100   0.8642   0.31026   0.30845  -0.1258  0.0068  1.0000  -1.4604   0.0000   0.0000   0.0000   0.3758
  22.200   0.8611   0.31057   0.30877  -0.1259  0.0068  1.0000  -1.4425   0.0000   0.0000   0.0000   0.3763
  22.300   0.8582   0.31092   0.30913  -0.1260  0.0068  1.0000  -1.4255   0.0000   0.0000   0.0000   0.3769
  22.400   0.8556   0.31131   0.30953  -0.1261  0.0068  1.0000  -1.4093   0.0000   0.0000   0.0000   0.3774
  22.500   0.8533   0.31174   0.30996  -0.1263  0.0068  1.0000  -1.3939   0.0000   0.0000   0.0000   0.3779
  22.600   0.8511   0.31219   0.31042  -0.1265  0.0068  1.0000  -1.3791   0.0000   0.0000   0.0000   0.3784
  22.700   0.8491   0.31266   0.31090  -0.1267  0.0068  1.0000  -1.3648   0.0000   0.0000   0.0000   0.3789
  22.800   0.8472   0.31316   0.31140  -0.1269  0.0068  1.0000  -1.3511   0.0000   0.0000   0.0000   0.3794
  22.900   0.8455   0.31367   0.31192  -0.1271  0.0068  1.0000  -1.3379   0.0000   0.0000   0.0000   0.3799
  23.000   0.8439   0.31420   0.31246  -0.1273  0.0068  1.0000  -1.3251   0.0000   0.0000   0.0000   0.3804
  23.100   0.8423   0.31474   0.31300  -0.1276  0.0068  1.0000  -1.3127   0.0000   0.0000   0.0000   0.3809
  23.200   0.8409   0.31529   0.31356  -0.1278  0.0068  1.0000  -1.3006   0.0000   0.0000   0.0000   0.3813
  23.300   0.8396   0.31586   0.31413  -0.1281  0.0068  1.0000  -1.2890   0.0000   0.0000   0.0000   0.3818
  23.400   0.8384   0.31643   0.31471  -0.1283  0.0068  1.0000  -1.2776   0.0000   0.0000   0.0000   0.3822
  23.500   0.8372   0.31701   0.31530  -0.1286  0.0068  1.0000  -1.2666   0.0000   0.0000   0.0000   0.3827
  23.600   0.8361   0.31760   0.31590  -0.1289  0.0068  1.0000  -1.2558   0.0000   0.0000   0.0000   0.3831
  23.700   0.8350   0.31820   0.31651  -0.1292  0.0068  1.0000  -1.2454   0.0000   0.0000   0.0000   0.3835
  23.800   0.8341   0.31881   0.31712  -0.1295  0.0068  1.0000  -1.2352   0.0000   0.0000   0.0000   0.3839
  23.900   0.8332   0.31942   0.31774  -0.1298  0.0068  1.0000  -1.2252   0.0000   0.0000   0.0000   0.3844
  24.000   0.8323   0.32004   0.31836  -0.1301  0.0068  1.0000  -1.2155   0.0000   0.0000   0.0000   0.3848
  24.100   0.8315   0.32065   0.31898  -0.1304  0.0068  1.0000  -1.2060   0.0000   0.0000   0.0000   0.3852
  24.200   0.8308   0.32127   0.31961  -0.1308  0.0068  1.0000  -1.1967   0.0000   0.0000   0.0000   0.3856
  24.300   0.8301   0.32190   0.32024  -0.1311  0.0068  1.0000  -1.1877   0.0000   0.0000   0.0000   0.3861
  24.400   0.8294   0.32253   0.32088  -0.1314  0.0068  1.0000  -1.1789   0.0000   0.0000   0.0000   0.3865
  24.500   0.8288   0.32317   0.32152  -0.1318  0.0068  1.0000  -1.1704   0.0000   0.0000   0.0000   0.3869
  24.600   0.8282   0.32381   0.32217  -0.1322  0.0068  1.0000  -1.1620   0.0000   0.0000   0.0000   0.3873
  24.700   0.8277   0.32444   0.32284  -0.1325  0.0068  1.0000  -1.1543   0.0000   0.0000   0.0000   0.3877
  24.800   0.8272   0.32508   0.32349  -0.1329  0.0067  1.0000  -1.1463   0.0000   0.0000   0.0000   0.3881
  24.900   0.8267   0.32573   0.32414  -0.1332  0.0067  1.0000  -1.1385   0.0000   0.0000   0.0000   0.3885
  25.000   0.8263   0.32638   0.32479  -0.1336  0.0067  1.0000  -1.1309   0.0000   0.0000   0.0000   0.3889
  25.100   0.8259   0.32703   0.32545  -0.1340  0.0067  1.0000  -1.1234   0.0000   0.0000   0.0000   0.3893
  25.200   0.8255   0.32769   0.32611  -0.1344  0.0067  1.0000  -1.1162   0.0000   0.0000   0.0000   0.3897
  25.300   0.8251   0.32834   0.32677  -0.1347  0.0067  1.0000  -1.1092   0.0000   0.0000   0.0000   0.3901
  25.400   0.8248   0.32900   0.32744  -0.1351  0.0067  1.0000  -1.1023   0.0000   0.0000   0.0000   0.3905
  25.500   0.8245   0.32966   0.32810  -0.1355  0.0067  1.0000  -1.0957   0.0000   0.0000   0.0000   0.3909
  25.600   0.8242   0.33033   0.32877  -0.1359  0.0067  1.0000  -1.0892   0.0000   0.0000   0.0000   0.3912
  25.700   0.8240   0.33099   0.32944  -0.1363  0.0067  1.0000  -1.0829   0.0000   0.0000   0.0000   0.3916
  25.800   0.8238   0.33166   0.33012  -0.1366  0.0066  1.0000  -1.0768   0.0000   0.0000   0.0000   0.3920
  25.900   0.8236   0.33233   0.33079  -0.1370  0.0066  1.0000  -1.0708   0.0000   0.0000   0.0000   0.3923
  26.000   0.8234   0.33300   0.33147  -0.1374  0.0066  1.0000  -1.0651   0.0000   0.0000   0.0000   0.3927
  26.100   0.8232   0.33368   0.33215  -0.1378  0.0066  1.0000  -1.0595   0.0000   0.0000   0.0000   0.3931
  26.200   0.8231   0.33435   0.33283  -0.1382  0.0066  1.0000  -1.0541   0.0000   0.0000   0.0000   0.3934
  26.300   0.8230   0.33503   0.33352  -0.1386  0.0066  1.0000  -1.0479   0.0000   0.0000   0.0000   0.3938
  26.400   0.8229   0.33572   0.33421  -0.1390  0.0065  1.0000  -1.0417   0.0000   0.0000   0.0000   0.3941
  26.500   0.8228   0.33641   0.33490  -0.1395  0.0065  1.0000  -1.0357   0.0000   0.0000   0.0000   0.3945
  26.600   0.8227   0.33711   0.33560  -0.1399  0.0065  1.0000  -1.0298   0.0000   0.0000   0.0000   0.3949
  26.700   0.8227   0.33781   0.33631  -0.1403  0.0065  1.0000  -1.0241   0.0000   0.0000   0.0000   0.3952
  26.800   0.8227   0.33851   0.33701  -0.1407  0.0065  1.0000  -1.0186   0.0000   0.0000   0.0000   0.3956
  26.900   0.8227   0.33921   0.33772  -0.1412  0.0064  1.0000  -1.0133   0.0000   0.0000   0.0000   0.3959
  27.000   0.8228   0.33992   0.33844  -0.1416  0.0064  1.0000  -1.0081   0.0000   0.0000   0.0000   0.3963
  27.100   0.8229   0.34064   0.33916  -0.1420  0.0064  1.0000  -1.0030   0.0000   0.0000   0.0000   0.3966
  27.200   0.8231   0.34136   0.33989  -0.1425  0.0063  1.0000  -0.9981   0.0000   0.0000   0.0000   0.3970
  27.300   0.8233   0.34210   0.34063  -0.1429  0.0063  1.0000  -0.9932   0.0000   0.0000   0.0000   0.3973
  27.400   0.8236   0.34284   0.34138  -0.1434  0.0062  1.0000  -0.9882   0.0000   0.0000   0.0000   0.3976
  27.500   0.8239   0.34361   0.34215  -0.1438  0.0061  1.0000  -0.9832   0.0000   0.0000   0.0000   0.3979
  27.600   0.8243   0.34439   0.34293  -0.1443  0.0060  1.0000  -0.9778   0.0000   0.0000   0.0000   0.3982


