xflr5 v6.61

 Calculated polar for: SD7032-099-88

 1 1 Reynolds number fixed          Mach number fixed         

 xtrf =   1.000 (top)        1.000 (bottom)
 Mach =   0.000     Re =     1.000 e 6     Ncrit =   9.000

  alpha     CL        CD       CDp       Cm    Top Xtr Bot Xtr   Cpmin    Chinge    XCp    
 ------- -------- --------- --------- -------- ------- ------- -------- --------- ---------
  -9.000  -0.3232   0.08991   0.08819  -0.0375  1.0000  0.0060  -2.6431   0.0000   0.0000   0.0000   0.1251
  -8.900  -0.3245   0.08861   0.08690  -0.0377  1.0000  0.0061  -2.6581   0.0000   0.0000   0.0000   0.1251
  -8.800  -0.3254   0.08755   0.08586  -0.0377  1.0000  0.0062  -2.6547   0.0000   0.0000   0.0000   0.1256
  -8.700  -0.3277   0.08672   0.08504  -0.0372  1.0000  0.0063  -2.6499   0.0000   0.0000   0.0000   0.1281
  -8.600  -0.3232   0.08536   0.08369  -0.0386  0.9989  0.0064  -2.6147   0.0000   0.0000   0.0000   0.1224
  -8.500  -0.3179   0.08401   0.08235  -0.0400  0.9955  0.0066  -2.5725   0.0000   0.0000   0.0000   0.1158
  -8.400  -0.3122   0.08268   0.08101  -0.0416  0.9937  0.0067  -2.5284   0.0000   0.0000   0.0000   0.1085
  -8.300  -0.3062   0.08132   0.07966  -0.0432  0.9919  0.0069  -2.4840   0.0000   0.0000   0.0000   0.1005
  -8.200  -0.2994   0.08006   0.07840  -0.0449  0.9904  0.0071  -2.4277   0.0000   0.0000   0.0000   0.0917
  -8.100  -0.2922   0.07883   0.07717  -0.0466  0.9891  0.0072  -2.3662   0.0000   0.0000   0.0000   0.0821
  -8.000  -0.2844   0.07753   0.07588  -0.0485  0.9879  0.0075  -2.3063   0.0000   0.0000   0.0000   0.0710
  -7.900  -0.2767   0.07620   0.07455  -0.0505  0.9864  0.0077  -2.2515   0.0000   0.0000   0.0000   0.0592
  -7.800  -0.2696   0.07484   0.07319  -0.0523  0.9840  0.0079  -2.2060   0.0000   0.0000   0.0000   0.0474
  -7.700  -0.2623   0.07340   0.07175  -0.0545  0.9814  0.0082  -2.1657   0.0000   0.0000   0.0000   0.0338
  -7.600  -0.2545   0.07186   0.07021  -0.0568  0.9789  0.0085  -2.1304   0.0000   0.0000   0.0000   0.0181
  -7.500  -0.2464   0.07021   0.06856  -0.0594  0.9761  0.0088  -2.1005   0.0000   0.0000   0.0000   0.0001
  -7.400  -0.2380   0.06847   0.06681  -0.0623  0.9730  0.0092  -2.0765   0.0000   0.0000   0.0000  -0.0207
  -7.300  -0.2330   0.06690   0.06524  -0.0644  0.9677  0.0095  -2.0672   0.0000   0.0000   0.0000  -0.0352
  -7.200  -0.2293   0.06536   0.06370  -0.0664  0.9615  0.0098  -2.0659   0.0000   0.0000   0.0000  -0.0482
  -7.100  -0.2242   0.06362   0.06194  -0.0689  0.9559  0.0101  -2.0663   0.0000   0.0000   0.0000  -0.0661
  -7.000  -0.2192   0.06179   0.06009  -0.0716  0.9502  0.0105  -2.0728   0.0000   0.0000   0.0000  -0.0855
  -6.900  -0.2170   0.06008   0.05838  -0.0736  0.9449  0.0107  -2.0888   0.0000   0.0000   0.0000  -0.0977
  -6.800  -0.2139   0.05820   0.05649  -0.0759  0.9391  0.0110  -2.1080   0.0000   0.0000   0.0000  -0.1136
  -6.700  -0.2099   0.05622   0.05447  -0.0784  0.9336  0.0114  -2.1288   0.0000   0.0000   0.0000  -0.1317
  -6.600  -0.2054   0.05418   0.05239  -0.0807  0.9283  0.0118  -2.1507   0.0000   0.0000   0.0000  -0.1516
  -6.500  -0.1999   0.05212   0.05029  -0.0831  0.9238  0.0123  -2.1721   0.0000   0.0000   0.0000  -0.1740
  -6.400  -0.1939   0.05014   0.04829  -0.0850  0.9208  0.0129  -2.1901   0.0000   0.0000   0.0000  -0.1971
  -6.300  -0.1861   0.04855   0.04667  -0.0865  0.9177  0.0138  -2.1874   0.0000   0.0000   0.0000  -0.2234
  -6.200  -0.1680   0.05027   0.04840  -0.0851  0.9163  0.0157  -1.9929   0.0000   0.0000   0.0000  -0.2658
  -6.100  -0.1593   0.04923   0.04733  -0.0860  0.9129  0.0159  -1.9623   0.0000   0.0000   0.0000  -0.2999
  -6.000  -0.1523   0.04764   0.04569  -0.0872  0.9089  0.0160  -1.9659   0.0000   0.0000   0.0000  -0.3327
  -5.900  -0.1458   0.04594   0.04394  -0.0883  0.9048  0.0161  -1.9769   0.0000   0.0000   0.0000  -0.3662
  -5.800  -0.1393   0.04423   0.04215  -0.0893  0.9005  0.0162  -1.9902   0.0000   0.0000   0.0000  -0.4018
  -5.700  -0.1326   0.04253   0.04037  -0.0903  0.8958  0.0162  -2.0038   0.0000   0.0000   0.0000  -0.4422
  -5.600  -0.1255   0.04082   0.03859  -0.0912  0.8930  0.0162  -2.0163   0.0000   0.0000   0.0000  -0.4883
  -5.500  -0.1183   0.03915   0.03685  -0.0920  0.8906  0.0163  -2.0270   0.0000   0.0000   0.0000  -0.5399
  -5.400  -0.1110   0.03746   0.03503  -0.0927  0.8878  0.0163  -2.0421   0.0000   0.0000   0.0000  -0.5983
  -5.300  -0.1033   0.03592   0.03340  -0.0933  0.8849  0.0163  -2.0457   0.0000   0.0000   0.0000  -0.6673
  -5.200  -0.0953   0.03443   0.03182  -0.0938  0.8817  0.0163  -2.0467   0.0000   0.0000   0.0000  -0.7488
  -5.100  -0.0872   0.03299   0.03028  -0.0942  0.8785  0.0163  -2.0451   0.0000   0.0000   0.0000  -0.8466
  -5.000  -0.0791   0.03151   0.02870  -0.0946  0.8751  0.0163  -2.0440   0.0000   0.0000   0.0000  -0.9636
  -4.400  -0.0315   0.01583   0.01167  -0.0966  0.8556  0.0129  -2.5602   0.0000   0.0000   0.0000  -2.8603
  -4.300  -0.0220   0.01029   0.00532  -0.0955  0.8533  0.0081  -3.1861   0.0000   0.0000   0.0000  -4.1666
  -4.200  -0.0111   0.00963   0.00454  -0.0953  0.8503  0.0076  -3.1696   0.0000   0.0000   0.0000  -8.4767
  -4.100  -0.0000   0.00929   0.00413  -0.0952  0.8470  0.0074  -3.0984   0.0000   0.0000   0.0000  -2548.9316
  -4.000   0.0110   0.00903   0.00381  -0.0951  0.8435  0.0072  -3.0150   0.0000   0.0000   0.0000   8.9761
  -3.900   0.0222   0.00880   0.00353  -0.0950  0.8401  0.0071  -2.9273   0.0000   0.0000   0.0000   4.5945
  -3.800   0.0333   0.00859   0.00327  -0.0949  0.8366  0.0070  -2.8381   0.0000   0.0000   0.0000   3.1393
  -3.700   0.0443   0.00841   0.00302  -0.0948  0.8328  0.0070  -2.7484   0.0000   0.0000   0.0000   2.4135
  -3.600   0.0554   0.00824   0.00279  -0.0947  0.8284  0.0070  -2.6584   0.0000   0.0000   0.0000   1.9783
  -3.500   0.0666   0.00809   0.00258  -0.0946  0.8233  0.0071  -2.5676   0.0000   0.0000   0.0000   1.6864
  -3.400   0.0780   0.00793   0.00238  -0.0946  0.8211  0.0072  -2.4747   0.0000   0.0000   0.0000   1.4751
  -3.300   0.0895   0.00779   0.00220  -0.0945  0.8186  0.0075  -2.3797   0.0000   0.0000   0.0000   1.3175
  -3.200   0.1009   0.00767   0.00204  -0.0945  0.8154  0.0080  -2.2824   0.0000   0.0000   0.0000   1.1958
  -3.100   0.1123   0.00758   0.00192  -0.0944  0.8115  0.0087  -2.1847   0.0000   0.0000   0.0000   1.0992
  -3.000   0.1236   0.00751   0.00184  -0.0944  0.8072  0.0095  -2.0905   0.0000   0.0000   0.0000   1.0208
  -2.900   0.1348   0.00746   0.00178  -0.0944  0.8026  0.0103  -2.0015   0.0000   0.0000   0.0000   0.9559
  -2.800   0.1460   0.00741   0.00174  -0.0943  0.7981  0.0112  -1.9170   0.0000   0.0000   0.0000   0.9013
  -2.700   0.1571   0.00738   0.00169  -0.0942  0.7932  0.0120  -1.8369   0.0000   0.0000   0.0000   0.8546
  -2.600   0.1682   0.00735   0.00165  -0.0942  0.7874  0.0128  -1.7603   0.0000   0.0000   0.0000   0.8142
  -2.500   0.1794   0.00733   0.00161  -0.0942  0.7818  0.0136  -1.6862   0.0000   0.0000   0.0000   0.7786
  -2.400   0.1908   0.00728   0.00157  -0.0942  0.7793  0.0144  -1.6136   0.0000   0.0000   0.0000   0.7468
  -2.300   0.2022   0.00724   0.00153  -0.0942  0.7757  0.0153  -1.5429   0.0000   0.0000   0.0000   0.7187
  -2.200   0.2135   0.00720   0.00148  -0.0942  0.7711  0.0161  -1.4733   0.0000   0.0000   0.0000   0.6937
  -2.100   0.2248   0.00717   0.00144  -0.0942  0.7656  0.0191  -1.4143   0.0000   0.0000   0.0000   0.6711
  -2.000   0.2359   0.00712   0.00139  -0.0941  0.7595  0.0254  -1.3530   0.0000   0.0000   0.0000   0.6509
  -1.900   0.2469   0.00707   0.00134  -0.0941  0.7531  0.0326  -1.2908   0.0000   0.0000   0.0000   0.6327
  -1.800   0.2577   0.00697   0.00129  -0.0940  0.7463  0.0508  -1.2298   0.0000   0.0000   0.0000   0.6162
  -1.700   0.2688   0.00692   0.00126  -0.0940  0.7392  0.0650  -1.1690   0.0000   0.0000   0.0000   0.6009
  -1.600   0.2801   0.00681   0.00123  -0.0941  0.7366  0.0815  -1.1073   0.0000   0.0000   0.0000   0.5868
  -1.400   0.3025   0.00639   0.00113  -0.0944  0.7291  0.1816  -0.9643   0.0000   0.0000   0.0000   0.5625
  -1.300   0.3136   0.00631   0.00110  -0.0944  0.7238  0.2095  -0.9100   0.0000   0.0000   0.0000   0.5513
  -1.200   0.3247   0.00624   0.00109  -0.0944  0.7173  0.2321  -0.8561   0.0000   0.0000   0.0000   0.5410
  -1.100   0.3355   0.00618   0.00106  -0.0944  0.7097  0.2620  -0.8035   0.0000   0.0000   0.0000   0.5313
  -0.900   0.3573   0.00608   0.00104  -0.0943  0.6928  0.3156  -0.6998   0.0000   0.0000   0.0000   0.5138
  -0.800   0.3686   0.00602   0.00103  -0.0944  0.6892  0.3398  -0.6479   0.0000   0.0000   0.0000   0.5057
  -0.700   0.3798   0.00592   0.00102  -0.0944  0.6846  0.3727  -0.6348   0.0000   0.0000   0.0000   0.4982
  -0.600   0.3910   0.00587   0.00102  -0.0945  0.6793  0.3993  -0.6455   0.0000   0.0000   0.0000   0.4910
  -0.500   0.4020   0.00581   0.00102  -0.0945  0.6734  0.4287  -0.6560   0.0000   0.0000   0.0000   0.4843
  -0.400   0.4130   0.00578   0.00102  -0.0945  0.6668  0.4555  -0.6666   0.0000   0.0000   0.0000   0.4779
  -0.300   0.4238   0.00575   0.00102  -0.0944  0.6592  0.4825  -0.6770   0.0000   0.0000   0.0000   0.4719
  -0.200   0.4347   0.00575   0.00103  -0.0944  0.6505  0.5048  -0.6876   0.0000   0.0000   0.0000   0.4661
  -0.100   0.4457   0.00570   0.00104  -0.0944  0.6452  0.5313  -0.6982   0.0000   0.0000   0.0000   0.4606
   0.000   0.4571   0.00567   0.00105  -0.0944  0.6421  0.5508  -0.7091   0.0000   0.0000   0.0000   0.4553
   0.100   0.4681   0.00560   0.00107  -0.0944  0.6379  0.5833  -0.7199   0.0000   0.0000   0.0000   0.4504
   0.200   0.4793   0.00559   0.00107  -0.0944  0.6328  0.6004  -0.7307   0.0000   0.0000   0.0000   0.4455
   0.300   0.4902   0.00555   0.00110  -0.0944  0.6265  0.6279  -0.7414   0.0000   0.0000   0.0000   0.4410
   0.400   0.5009   0.00555   0.00111  -0.0943  0.6189  0.6524  -0.7527   0.0000   0.0000   0.0000   0.4366
   0.500   0.5112   0.00553   0.00114  -0.0941  0.6096  0.6862  -0.7646   0.0000   0.0000   0.0000   0.4324
   0.600   0.5217   0.00554   0.00117  -0.0940  0.5989  0.7141  -0.7766   0.0000   0.0000   0.0000   0.4283
   0.700   0.5323   0.00548   0.00120  -0.0938  0.5952  0.7496  -0.7888   0.0000   0.0000   0.0000   0.4243
   0.800   0.5426   0.00542   0.00123  -0.0936  0.5907  0.7818  -0.8009   0.0000   0.0000   0.0000   0.4205
   0.900   0.5530   0.00541   0.00126  -0.0934  0.5849  0.8071  -0.8134   0.0000   0.0000   0.0000   0.4168
   1.000   0.5628   0.00539   0.00129  -0.0930  0.5782  0.8342  -0.8269   0.0000   0.0000   0.0000   0.4131
   1.100   0.5725   0.00540   0.00131  -0.0927  0.5701  0.8560  -0.8404   0.0000   0.0000   0.0000   0.4096
   1.200   0.5816   0.00543   0.00134  -0.0922  0.5600  0.8796  -0.8535   0.0000   0.0000   0.0000   0.4061
   1.300   0.5902   0.00543   0.00136  -0.0915  0.5492  0.9033  -0.8663   0.0000   0.0000   0.0000   0.4026
   1.400   0.5992   0.00539   0.00136  -0.0909  0.5459  0.9301  -0.8794   0.0000   0.0000   0.0000   0.3992
   1.600   0.6266   0.00538   0.00136  -0.0920  0.5352  1.0000  -0.9128   0.0000   0.0000   0.0000   0.3941
   1.700   0.6377   0.00543   0.00138  -0.0920  0.5289  1.0000  -0.9275   0.0000   0.0000   0.0000   0.3914
   1.800   0.6487   0.00550   0.00140  -0.0920  0.5217  1.0000  -0.9422   0.0000   0.0000   0.0000   0.3889
   1.900   0.6595   0.00558   0.00142  -0.0919  0.5134  1.0000  -0.9568   0.0000   0.0000   0.0000   0.3864
   2.000   0.6703   0.00566   0.00145  -0.0919  0.5038  1.0000  -0.9715   0.0000   0.0000   0.0000   0.3840
   2.100   0.6815   0.00570   0.00148  -0.0919  0.4984  1.0000  -0.9864   0.0000   0.0000   0.0000   0.3817
   2.200   0.6928   0.00574   0.00153  -0.0920  0.4951  1.0000  -1.0031   0.0000   0.0000   0.0000   0.3795
   2.300   0.7040   0.00578   0.00155  -0.0920  0.4900  1.0000  -1.0206   0.0000   0.0000   0.0000   0.3773
   2.400   0.7149   0.00584   0.00158  -0.0920  0.4831  1.0000  -1.0381   0.0000   0.0000   0.0000   0.3752
   2.500   0.7257   0.00593   0.00161  -0.0919  0.4746  1.0000  -1.0554   0.0000   0.0000   0.0000   0.3732
   2.600   0.7362   0.00603   0.00165  -0.0919  0.4647  1.0000  -1.0725   0.0000   0.0000   0.0000   0.3712
   2.700   0.7469   0.00612   0.00168  -0.0918  0.4538  1.0000  -1.0899   0.0000   0.0000   0.0000   0.3692
   2.800   0.7581   0.00616   0.00172  -0.0918  0.4492  1.0000  -1.1077   0.0000   0.0000   0.0000   0.3674
   2.900   0.7693   0.00620   0.00174  -0.0919  0.4462  1.0000  -1.1256   0.0000   0.0000   0.0000   0.3655
   3.000   0.7804   0.00625   0.00178  -0.0919  0.4422  1.0000  -1.1436   0.0000   0.0000   0.0000   0.3638
   3.100   0.7914   0.00630   0.00181  -0.0919  0.4370  1.0000  -1.1615   0.0000   0.0000   0.0000   0.3620
   3.200   0.8022   0.00638   0.00185  -0.0919  0.4309  1.0000  -1.1793   0.0000   0.0000   0.0000   0.3603
   3.300   0.8129   0.00646   0.00189  -0.0918  0.4239  1.0000  -1.1970   0.0000   0.0000   0.0000   0.3587
   3.400   0.8235   0.00656   0.00194  -0.0918  0.4156  1.0000  -1.2147   0.0000   0.0000   0.0000   0.3571
   3.500   0.8342   0.00665   0.00198  -0.0917  0.4063  1.0000  -1.2325   0.0000   0.0000   0.0000   0.3555
   3.600   0.8452   0.00670   0.00203  -0.0917  0.4013  1.0000  -1.2506   0.0000   0.0000   0.0000   0.3540
   3.700   0.8563   0.00675   0.00206  -0.0917  0.3987  1.0000  -1.2694   0.0000   0.0000   0.0000   0.3525
   3.800   0.8674   0.00680   0.00210  -0.0918  0.3952  1.0000  -1.2908   0.0000   0.0000   0.0000   0.3510
   3.900   0.8783   0.00686   0.00215  -0.0917  0.3904  1.0000  -1.3122   0.0000   0.0000   0.0000   0.3496
   4.000   0.8890   0.00694   0.00220  -0.0917  0.3841  1.0000  -1.3335   0.0000   0.0000   0.0000   0.3482
   4.100   0.8994   0.00705   0.00225  -0.0916  0.3762  1.0000  -1.3546   0.0000   0.0000   0.0000   0.3468
   4.200   0.9097   0.00717   0.00232  -0.0915  0.3662  1.0000  -1.3756   0.0000   0.0000   0.0000   0.3455
   4.300   0.9202   0.00727   0.00238  -0.0915  0.3557  1.0000  -1.3968   0.0000   0.0000   0.0000   0.3441
   4.400   0.9312   0.00732   0.00242  -0.0915  0.3530  1.0000  -1.4216   0.0000   0.0000   0.0000   0.3429
   4.500   0.9422   0.00737   0.00247  -0.0915  0.3501  1.0000  -1.4479   0.0000   0.0000   0.0000   0.3416
   4.600   0.9531   0.00743   0.00252  -0.0915  0.3461  1.0000  -1.4743   0.0000   0.0000   0.0000   0.3404
   4.700   0.9637   0.00751   0.00258  -0.0914  0.3408  1.0000  -1.5005   0.0000   0.0000   0.0000   0.3392
   4.800   0.9741   0.00762   0.00265  -0.0914  0.3339  1.0000  -1.5265   0.0000   0.0000   0.0000   0.3380
   4.900   0.9843   0.00775   0.00272  -0.0913  0.3250  1.0000  -1.5530   0.0000   0.0000   0.0000   0.3368
   5.000   0.9945   0.00788   0.00280  -0.0912  0.3141  1.0000  -1.5843   0.0000   0.0000   0.0000   0.3356
   5.100   1.0052   0.00796   0.00286  -0.0911  0.3085  1.0000  -1.6165   0.0000   0.0000   0.0000   0.3345
   5.200   1.0161   0.00801   0.00291  -0.0911  0.3061  1.0000  -1.6493   0.0000   0.0000   0.0000   0.3334
   5.300   1.0269   0.00807   0.00297  -0.0911  0.3029  1.0000  -1.6822   0.0000   0.0000   0.0000   0.3323
   5.400   1.0374   0.00816   0.00304  -0.0911  0.2980  1.0000  -1.7209   0.0000   0.0000   0.0000   0.3313
   5.500   1.0477   0.00827   0.00312  -0.0910  0.2914  1.0000  -1.7621   0.0000   0.0000   0.0000   0.3302
   5.600   1.0576   0.00842   0.00321  -0.0908  0.2829  1.0000  -1.8028   0.0000   0.0000   0.0000   0.3292
   5.700   1.0676   0.00857   0.00329  -0.0907  0.2722  1.0000  -1.8438   0.0000   0.0000   0.0000   0.3281
   5.800   1.0715   0.00937   0.00374  -0.0898  0.2006  1.0000  -1.8769   0.0000   0.0000   0.0000   0.3269
   5.900   1.0781   0.00988   0.00399  -0.0893  0.1631  1.0000  -1.9106   0.0000   0.0000   0.0000   0.3258
   6.000   1.0868   0.01016   0.00416  -0.0890  0.1431  1.0000  -1.9488   0.0000   0.0000   0.0000   0.3247
   6.100   1.0945   0.01055   0.00438  -0.0886  0.1194  1.0000  -1.9852   0.0000   0.0000   0.0000   0.3237
   6.200   1.1032   0.01083   0.00455  -0.0884  0.1056  1.0000  -2.0241   0.0000   0.0000   0.0000   0.3227
   6.300   1.1112   0.01118   0.00478  -0.0880  0.0862  1.0000  -2.0614   0.0000   0.0000   0.0000   0.3217
   6.400   1.1189   0.01157   0.00502  -0.0876  0.0682  1.0000  -2.0983   0.0000   0.0000   0.0000   0.3206
   6.500   1.1278   0.01182   0.00521  -0.0873  0.0576  1.0000  -2.1382   0.0000   0.0000   0.0000   0.3196
   6.600   1.1359   0.01216   0.00544  -0.0869  0.0441  1.0000  -2.1765   0.0000   0.0000   0.0000   0.3187
   6.700   1.1442   0.01246   0.00568  -0.0866  0.0340  1.0000  -2.2164   0.0000   0.0000   0.0000   0.3177
   6.800   1.1524   0.01279   0.00592  -0.0862  0.0227  1.0000  -2.2572   0.0000   0.0000   0.0000   0.3167
   6.900   1.1610   0.01305   0.00613  -0.0859  0.0166  1.0000  -2.3008   0.0000   0.0000   0.0000   0.3157
   7.000   1.1709   0.01318   0.00625  -0.0858  0.0145  1.0000  -2.3447   0.0000   0.0000   0.0000   0.3149
   7.100   1.1786   0.01355   0.00657  -0.0853  0.0065  1.0000  -2.3604   0.0000   0.0000   0.0000   0.3139
   7.200   1.1882   0.01370   0.00670  -0.0851  0.0057  1.0000  -2.4108   0.0000   0.0000   0.0000   0.3130
   7.300   1.1979   0.01383   0.00683  -0.0850  0.0054  1.0000  -2.4915   0.0000   0.0000   0.0000   0.3121
   7.400   1.2076   0.01396   0.00695  -0.0848  0.0052  1.0000  -2.5733   0.0000   0.0000   0.0000   0.3113
   7.500   1.2173   0.01408   0.00707  -0.0847  0.0049  1.0000  -2.6565   0.0000   0.0000   0.0000   0.3105
   7.600   1.2271   0.01420   0.00718  -0.0845  0.0046  1.0000  -2.7411   0.0000   0.0000   0.0000   0.3097
   7.700   1.2368   0.01432   0.00730  -0.0843  0.0044  1.0000  -2.8269   0.0000   0.0000   0.0000   0.3089
   7.800   1.2465   0.01445   0.00742  -0.0842  0.0041  1.0000  -2.9138   0.0000   0.0000   0.0000   0.3081
   7.900   1.2560   0.01458   0.00755  -0.0840  0.0038  1.0000  -3.0017   0.0000   0.0000   0.0000   0.3073
   8.000   1.2655   0.01472   0.00768  -0.0838  0.0036  1.0000  -3.0911   0.0000   0.0000   0.0000   0.3065
   8.100   1.2749   0.01486   0.00782  -0.0836  0.0033  1.0000  -3.1824   0.0000   0.0000   0.0000   0.3057
   8.200   1.2844   0.01499   0.00795  -0.0834  0.0030  1.0000  -3.2756   0.0000   0.0000   0.0000   0.3049
   8.300   1.2937   0.01514   0.00810  -0.0832  0.0027  1.0000  -3.3706   0.0000   0.0000   0.0000   0.3041
   8.400   1.3029   0.01529   0.00825  -0.0830  0.0025  1.0000  -3.4680   0.0000   0.0000   0.0000   0.3034
   8.500   1.3121   0.01544   0.00840  -0.0828  0.0023  1.0000  -3.5685   0.0000   0.0000   0.0000   0.3026
   8.600   1.3212   0.01559   0.00856  -0.0825  0.0021  1.0000  -3.6726   0.0000   0.0000   0.0000   0.3018
   8.700   1.3303   0.01575   0.00873  -0.0823  0.0020  1.0000  -3.7804   0.0000   0.0000   0.0000   0.3011
   8.800   1.3393   0.01591   0.00890  -0.0820  0.0019  1.0000  -3.8918   0.0000   0.0000   0.0000   0.3003
   8.900   1.3482   0.01607   0.00908  -0.0817  0.0017  1.0000  -4.0058   0.0000   0.0000   0.0000   0.2995
   9.000   1.3571   0.01624   0.00926  -0.0814  0.0017  1.0000  -4.1218   0.0000   0.0000   0.0000   0.2988
   9.100   1.3662   0.01636   0.00944  -0.0813  0.0021  1.0000  -4.1251   0.0000   0.0000   0.0000   0.2981
   9.200   1.3750   0.01652   0.00961  -0.0810  0.0022  1.0000  -4.2122   0.0000   0.0000   0.0000   0.2974
   9.300   1.3836   0.01669   0.00980  -0.0807  0.0020  1.0000  -4.3256   0.0000   0.0000   0.0000   0.2966
   9.400   1.3921   0.01687   0.01000  -0.0803  0.0018  1.0000  -4.4500   0.0000   0.0000   0.0000   0.2959
   9.500   1.4005   0.01706   0.01022  -0.0800  0.0017  1.0000  -4.5793   0.0000   0.0000   0.0000   0.2951
   9.600   1.4088   0.01726   0.01045  -0.0796  0.0016  1.0000  -4.7092   0.0000   0.0000   0.0000   0.2943
   9.700   1.4169   0.01746   0.01068  -0.0792  0.0016  1.0000  -4.8380   0.0000   0.0000   0.0000   0.2936
   9.800   1.4249   0.01766   0.01092  -0.0788  0.0015  1.0000  -4.9654   0.0000   0.0000   0.0000   0.2928
   9.900   1.4328   0.01788   0.01118  -0.0783  0.0015  1.0000  -5.0911   0.0000   0.0000   0.0000   0.2920
  10.000   1.4404   0.01810   0.01144  -0.0778  0.0015  1.0000  -5.2151   0.0000   0.0000   0.0000   0.2912
  10.100   1.4477   0.01834   0.01173  -0.0773  0.0015  1.0000  -5.3374   0.0000   0.0000   0.0000   0.2904
  10.200   1.4548   0.01860   0.01202  -0.0768  0.0014  1.0000  -5.4580   0.0000   0.0000   0.0000   0.2896
  10.300   1.4616   0.01887   0.01234  -0.0762  0.0014  1.0000  -5.5760   0.0000   0.0000   0.0000   0.2888
  10.400   1.4677   0.01915   0.01266  -0.0754  0.0014  1.0000  -5.6902   0.0000   0.0000   0.0000   0.2880
  10.500   1.4732   0.01944   0.01300  -0.0746  0.0015  1.0000  -5.8002   0.0000   0.0000   0.0000   0.2870
  10.600   1.4782   0.01974   0.01334  -0.0737  0.0015  1.0000  -5.9075   0.0000   0.0000   0.0000   0.2861
  10.700   1.4829   0.02005   0.01370  -0.0728  0.0015  1.0000  -6.0128   0.0000   0.0000   0.0000   0.2851
  10.800   1.4873   0.02038   0.01408  -0.0718  0.0015  1.0000  -6.1165   0.0000   0.0000   0.0000   0.2842
  10.900   1.4914   0.02072   0.01446  -0.0708  0.0015  1.0000  -6.2187   0.0000   0.0000   0.0000   0.2832
  11.000   1.4953   0.02108   0.01487  -0.0698  0.0015  1.0000  -6.3205   0.0000   0.0000   0.0000   0.2823
  11.100   1.4990   0.02145   0.01528  -0.0688  0.0016  1.0000  -6.4207   0.0000   0.0000   0.0000   0.2813
  11.200   1.5024   0.02184   0.01571  -0.0678  0.0016  1.0000  -6.5191   0.0000   0.0000   0.0000   0.2804
  11.300   1.5057   0.02224   0.01616  -0.0668  0.0016  1.0000  -6.6174   0.0000   0.0000   0.0000   0.2794
  11.400   1.5090   0.02266   0.01663  -0.0658  0.0016  1.0000  -6.7163   0.0000   0.0000   0.0000   0.2785
  11.500   1.5120   0.02310   0.01711  -0.0649  0.0017  1.0000  -6.8127   0.0000   0.0000   0.0000   0.2776
  11.600   1.5146   0.02356   0.01762  -0.0639  0.0017  1.0000  -6.9072   0.0000   0.0000   0.0000   0.2767
  11.700   1.5171   0.02404   0.01814  -0.0629  0.0017  1.0000  -7.0013   0.0000   0.0000   0.0000   0.2758
  11.800   1.5196   0.02453   0.01867  -0.0619  0.0018  1.0000  -7.0955   0.0000   0.0000   0.0000   0.2750
  11.900   1.5215   0.02506   0.01925  -0.0610  0.0018  1.0000  -7.1856   0.0000   0.0000   0.0000   0.2741
  12.000   1.5232   0.02562   0.01985  -0.0600  0.0019  1.0000  -7.2742   0.0000   0.0000   0.0000   0.2733
  12.100   1.5250   0.02619   0.02048  -0.0591  0.0019  1.0000  -7.3632   0.0000   0.0000   0.0000   0.2724
  12.200   1.5267   0.02680   0.02113  -0.0582  0.0020  1.0000  -7.4515   0.0000   0.0000   0.0000   0.2716
  12.300   1.5277   0.02745   0.02184  -0.0573  0.0020  1.0000  -7.5331   0.0000   0.0000   0.0000   0.2708
  12.400   1.5282   0.02815   0.02259  -0.0564  0.0021  1.0000  -7.6108   0.0000   0.0000   0.0000   0.2700
  12.500   1.5287   0.02888   0.02337  -0.0555  0.0021  1.0000  -7.6878   0.0000   0.0000   0.0000   0.2693
  12.600   1.5290   0.02964   0.02419  -0.0546  0.0022  1.0000  -7.7612   0.0000   0.0000   0.0000   0.2685
  12.700   1.5278   0.03048   0.02509  -0.0537  0.0022  1.0000  -7.8220   0.0000   0.0000   0.0000   0.2678
  12.800   1.5263   0.03139   0.02606  -0.0529  0.0023  1.0000  -7.8781   0.0000   0.0000   0.0000   0.2670
  12.900   1.5248   0.03235   0.02710  -0.0520  0.0024  1.0000  -7.9313   0.0000   0.0000   0.0000   0.2663
  13.000   1.5226   0.03342   0.02824  -0.0512  0.0025  1.0000  -7.9743   0.0000   0.0000   0.0000   0.2657
  13.100   1.5190   0.03465   0.02954  -0.0505  0.0026  1.0000  -8.0015   0.0000   0.0000   0.0000   0.2651
  13.200   1.5151   0.03597   0.03095  -0.0498  0.0027  1.0000  -8.0172   0.0000   0.0000   0.0000   0.2645
  13.300   1.5099   0.03747   0.03255  -0.0490  0.0028  1.0000  -8.0112   0.0000   0.0000   0.0000   0.2639
  13.400   1.5029   0.03921   0.03439  -0.0484  0.0029  1.0000  -7.9840   0.0000   0.0000   0.0000   0.2634
  13.500   1.4952   0.04109   0.03639  -0.0478  0.0031  1.0000  -7.9362   0.0000   0.0000   0.0000   0.2630
  13.600   1.4866   0.04313   0.03854  -0.0473  0.0032  1.0000  -7.8816   0.0000   0.0000   0.0000   0.2626
  13.700   1.4777   0.04527   0.04079  -0.0469  0.0034  1.0000  -7.8219   0.0000   0.0000   0.0000   0.2623
  13.800   1.4688   0.04745   0.04309  -0.0465  0.0036  1.0000  -7.7545   0.0000   0.0000   0.0000   0.2621
  13.900   1.4596   0.04972   0.04546  -0.0464  0.0038  1.0000  -7.6966   0.0000   0.0000   0.0000   0.2620
  14.000   1.4504   0.05195   0.04780  -0.0463  0.0039  1.0000  -7.6341   0.0000   0.0000   0.0000   0.2619
  14.100   1.4409   0.05424   0.05020  -0.0461  0.0041  1.0000  -7.5626   0.0000   0.0000   0.0000   0.2618
  14.200   1.4315   0.05671   0.05278  -0.0463  0.0043  1.0000  -7.4986   0.0000   0.0000   0.0000   0.2619
  14.300   1.4219   0.05932   0.05548  -0.0465  0.0045  1.0000  -7.4268   0.0000   0.0000   0.0000   0.2620
  14.400   1.4121   0.06204   0.05833  -0.0467  0.0047  1.0000  -7.3441   0.0000   0.0000   0.0000   0.2622
  14.500   1.4021   0.06490   0.06129  -0.0471  0.0049  1.0000  -7.2627   0.0000   0.0000   0.0000   0.2625
  14.600   1.3922   0.06787   0.06436  -0.0478  0.0050  1.0000  -7.1922   0.0000   0.0000   0.0000   0.2631
  14.700   1.3817   0.07096   0.06756  -0.0484  0.0052  1.0000  -7.1049   0.0000   0.0000   0.0000   0.2636
  14.800   1.3706   0.07421   0.07091  -0.0492  0.0054  1.0000  -7.0100   0.0000   0.0000   0.0000   0.2643
  14.900   1.3603   0.07743   0.07423  -0.0504  0.0054  1.0000  -6.9395   0.0000   0.0000   0.0000   0.2652
  15.000   1.3495   0.08079   0.07769  -0.0516  0.0055  1.0000  -6.8561   0.0000   0.0000   0.0000   0.2662
  15.100   1.3377   0.08432   0.08132  -0.0529  0.0056  1.0000  -6.7565   0.0000   0.0000   0.0000   0.2674
  15.200   1.3271   0.08776   0.08485  -0.0545  0.0057  1.0000  -6.6784   0.0000   0.0000   0.0000   0.2687
  15.300   1.3168   0.09121   0.08837  -0.0562  0.0057  1.0000  -6.6044   0.0000   0.0000   0.0000   0.2701
  15.400   1.3044   0.09499   0.09225  -0.0579  0.0058  1.0000  -6.4958   0.0000   0.0000   0.0000   0.2717
  15.500   1.2931   0.09869   0.09605  -0.0599  0.0058  1.0000  -6.4027   0.0000   0.0000   0.0000   0.2734
  15.600   1.2842   0.10205   0.09947  -0.0618  0.0058  1.0000  -6.3441   0.0000   0.0000   0.0000   0.2751
  18.800   1.1262   0.21120   0.20982  -0.1249  0.0051  1.0000  -4.8788   0.0000   0.0000   0.0000   0.3344
  18.900   1.1205   0.21631   0.21495  -0.1269  0.0050  1.0000  -4.7470   0.0000   0.0000   0.0000   0.3368
  19.000   1.1142   0.22189   0.22054  -0.1290  0.0049  1.0000  -4.5924   0.0000   0.0000   0.0000   0.3394
  19.100   1.1064   0.22822   0.22688  -0.1313  0.0049  1.0000  -4.3808   0.0000   0.0000   0.0000   0.3424
  19.200   1.0956   0.23643   0.23508  -0.1338  0.0050  1.0000  -4.0509   0.0000   0.0000   0.0000   0.3462
  19.300   1.0792   0.24795   0.24659  -0.1371  0.0054  1.0000  -3.5135   0.0000   0.0000   0.0000   0.3515
  22.900   0.8992   0.31111   0.30996  -0.1476  0.0059  1.0000  -1.4950   0.0000   0.0000   0.0000   0.3871
  23.000   0.8981   0.31184   0.31070  -0.1479  0.0058  1.0000  -1.4889   0.0000   0.0000   0.0000   0.3876
  23.100   0.8973   0.31258   0.31143  -0.1482  0.0058  1.0000  -1.4881   0.0000   0.0000   0.0000   0.3879
  23.200   0.8972   0.31330   0.31216  -0.1486  0.0057  1.0000  -1.4979   0.0000   0.0000   0.0000   0.3883
  23.300   0.8984   0.31400   0.31286  -0.1491  0.0054  1.0000  -1.5271   0.0000   0.0000   0.0000   0.3884
  23.400   0.8994   0.31486   0.31373  -0.1496  0.0050  1.0000  -1.5418   0.0000   0.0000   0.0000   0.3885


