xflr5 v6.61

 Calculated polar for: SD7032-099-88

 1 1 Reynolds number fixed          Mach number fixed         

 xtrf =   1.000 (top)        1.000 (bottom)
 Mach =   0.000     Re =     0.160 e 6     Ncrit =   9.000

  alpha     CL        CD       CDp       Cm    Top Xtr Bot Xtr   Cpmin    Chinge    XCp    
 ------- -------- --------- --------- -------- ------- ------- -------- --------- ---------
 -10.000  -0.3295   0.11644   0.11217  -0.0345  1.0000  0.0348  -1.5327   0.0000   0.0000   0.0000   0.1366
  -9.900  -0.3263   0.11483   0.11057  -0.0344  1.0000  0.0352  -1.5116   0.0000   0.0000   0.0000   0.1360
  -9.800  -0.3229   0.11335   0.10910  -0.0343  1.0000  0.0355  -1.4888   0.0000   0.0000   0.0000   0.1353
  -9.700  -0.3196   0.11196   0.10772  -0.0342  1.0000  0.0359  -1.4673   0.0000   0.0000   0.0000   0.1345
  -9.600  -0.3164   0.11063   0.10640  -0.0341  1.0000  0.0362  -1.4478   0.0000   0.0000   0.0000   0.1336
  -9.500  -0.3134   0.10935   0.10514  -0.0341  1.0000  0.0366  -1.4306   0.0000   0.0000   0.0000   0.1326
  -9.400  -0.3107   0.10811   0.10391  -0.0342  1.0000  0.0369  -1.4162   0.0000   0.0000   0.0000   0.1316
  -9.300  -0.3082   0.10690   0.10272  -0.0342  1.0000  0.0372  -1.4040   0.0000   0.0000   0.0000   0.1305
  -9.200  -0.3060   0.10572   0.10155  -0.0343  1.0000  0.0376  -1.3937   0.0000   0.0000   0.0000   0.1294
  -9.100  -0.3039   0.10456   0.10040  -0.0344  1.0000  0.0379  -1.3852   0.0000   0.0000   0.0000   0.1284
  -9.000  -0.3021   0.10342   0.09928  -0.0346  1.0000  0.0383  -1.3782   0.0000   0.0000   0.0000   0.1274
  -8.900  -0.3006   0.10229   0.09817  -0.0347  1.0000  0.0386  -1.3726   0.0000   0.0000   0.0000   0.1265
  -8.800  -0.2992   0.10119   0.09709  -0.0348  1.0000  0.0390  -1.3682   0.0000   0.0000   0.0000   0.1257
  -8.700  -0.2981   0.10011   0.09603  -0.0349  1.0000  0.0393  -1.3650   0.0000   0.0000   0.0000   0.1251
  -8.600  -0.2973   0.09905   0.09499  -0.0349  1.0000  0.0397  -1.3628   0.0000   0.0000   0.0000   0.1247
  -8.500  -0.2967   0.09801   0.09398  -0.0349  1.0000  0.0400  -1.3617   0.0000   0.0000   0.0000   0.1245
  -8.400  -0.2965   0.09700   0.09299  -0.0349  1.0000  0.0404  -1.3616   0.0000   0.0000   0.0000   0.1246
  -8.300  -0.2965   0.09602   0.09203  -0.0348  1.0000  0.0407  -1.3624   0.0000   0.0000   0.0000   0.1250
  -8.200  -0.2970   0.09506   0.09110  -0.0347  1.0000  0.0411  -1.3641   0.0000   0.0000   0.0000   0.1258
  -8.100  -0.2978   0.09413   0.09020  -0.0345  1.0000  0.0414  -1.3666   0.0000   0.0000   0.0000   0.1269
  -8.000  -0.2991   0.09325   0.08934  -0.0342  1.0000  0.0417  -1.3701   0.0000   0.0000   0.0000   0.1285
  -7.900  -0.3009   0.09241   0.08853  -0.0338  1.0000  0.0421  -1.3745   0.0000   0.0000   0.0000   0.1307
  -7.800  -0.3033   0.09163   0.08778  -0.0333  1.0000  0.0424  -1.3799   0.0000   0.0000   0.0000   0.1334
  -7.700  -0.3064   0.09090   0.08708  -0.0327  1.0000  0.0426  -1.3861   0.0000   0.0000   0.0000   0.1368
  -7.600  -0.3100   0.09023   0.08644  -0.0319  1.0000  0.0429  -1.3932   0.0000   0.0000   0.0000   0.1407
  -7.500  -0.3143   0.08960   0.08584  -0.0311  1.0000  0.0431  -1.4010   0.0000   0.0000   0.0000   0.1450
  -7.400  -0.3190   0.08902   0.08530  -0.0301  1.0000  0.0434  -1.4095   0.0000   0.0000   0.0000   0.1497
  -7.300  -0.3243   0.08848   0.08479  -0.0291  1.0000  0.0436  -1.4188   0.0000   0.0000   0.0000   0.1547
  -7.200  -0.3300   0.08797   0.08432  -0.0280  1.0000  0.0437  -1.4286   0.0000   0.0000   0.0000   0.1598
  -7.100  -0.3363   0.08751   0.08388  -0.0268  1.0000  0.0439  -1.4392   0.0000   0.0000   0.0000   0.1651
  -7.000  -0.3430   0.08708   0.08349  -0.0255  1.0000  0.0440  -1.4503   0.0000   0.0000   0.0000   0.1705
  -6.900  -0.3503   0.08668   0.08313  -0.0242  1.0000  0.0441  -1.4622   0.0000   0.0000   0.0000   0.1760
  -6.800  -0.3580   0.08631   0.08280  -0.0229  1.0000  0.0442  -1.4746   0.0000   0.0000   0.0000   0.1815
  -6.700  -0.3657   0.08594   0.08245  -0.0215  1.0000  0.0443  -1.4874   0.0000   0.0000   0.0000   0.1867
  -6.600  -0.3727   0.08545   0.08200  -0.0205  1.0000  0.0444  -1.4997   0.0000   0.0000   0.0000   0.1907
  -6.500  -0.3779   0.08476   0.08134  -0.0200  1.0000  0.0446  -1.5111   0.0000   0.0000   0.0000   0.1931
  -6.400  -0.3826   0.08401   0.08062  -0.0196  1.0000  0.0448  -1.5224   0.0000   0.0000   0.0000   0.1949
  -6.300  -0.3870   0.08320   0.07984  -0.0193  1.0000  0.0450  -1.5338   0.0000   0.0000   0.0000   0.1963
  -6.200  -0.3909   0.08234   0.07900  -0.0192  1.0000  0.0452  -1.5453   0.0000   0.0000   0.0000   0.1971
  -6.100  -0.3797   0.08002   0.07667  -0.0235  0.9976  0.0462  -1.5514   0.0000   0.0000   0.0000   0.1845
  -6.000  -0.3669   0.07752   0.07415  -0.0283  0.9947  0.0474  -1.5612   0.0000   0.0000   0.0000   0.1691
  -5.900  -0.3534   0.07493   0.07154  -0.0337  0.9916  0.0487  -1.5776   0.0000   0.0000   0.0000   0.1510
  -5.800  -0.3365   0.07216   0.06873  -0.0401  0.9887  0.0504  -1.6031   0.0000   0.0000   0.0000   0.1269
  -5.700  -0.3107   0.07016   0.06660  -0.0489  0.9852  0.0534  -1.6458   0.0000   0.0000   0.0000   0.0885
  -5.600  -0.2940   0.06876   0.06509  -0.0533  0.9814  0.0542  -1.6568   0.0000   0.0000   0.0000   0.0643
  -5.500  -0.2802   0.06684   0.06307  -0.0568  0.9784  0.0545  -1.6647   0.0000   0.0000   0.0000   0.0428
  -5.400  -0.2663   0.06479   0.06092  -0.0600  0.9760  0.0547  -1.6700   0.0000   0.0000   0.0000   0.0200
  -5.300  -0.2523   0.06268   0.05871  -0.0631  0.9740  0.0548  -1.6727   0.0000   0.0000   0.0000  -0.0049
  -5.200  -0.2492   0.05520   0.05113  -0.0688  0.9722  0.0565  -1.8036   0.0000   0.0000   0.0000  -0.0310
  -5.100  -0.2438   0.05222   0.04813  -0.0704  0.9696  0.0578  -1.8028   0.0000   0.0000   0.0000  -0.0437
  -5.000  -0.2370   0.05054   0.04644  -0.0710  0.9661  0.0587  -1.7769   0.0000   0.0000   0.0000  -0.0546
  -4.900  -0.2271   0.04905   0.04494  -0.0719  0.9633  0.0596  -1.7398   0.0000   0.0000   0.0000  -0.0717
  -4.800  -0.2148   0.04744   0.04316  -0.0734  0.9607  0.0603  -1.7149   0.0000   0.0000   0.0000  -0.0969
  -4.400  -0.1438   0.03581   0.03054  -0.0820  0.9535  0.0306  -2.0521   0.0000   0.0000   0.0000  -0.3290
  -4.300  -0.1276   0.03289   0.02736  -0.0844  0.9523  0.0286  -2.0929   0.0000   0.0000   0.0000  -0.4211
  -4.200  -0.1098   0.03056   0.02475  -0.0864  0.9512  0.0269  -2.1220   0.0000   0.0000   0.0000  -0.5480
  -4.100  -0.0994   0.02898   0.02296  -0.0865  0.9478  0.0258  -2.1433   0.0000   0.0000   0.0000  -0.6336
  -4.000  -0.0895   0.02757   0.02133  -0.0865  0.9438  0.0250  -2.1606   0.0000   0.0000   0.0000  -0.7302
  -3.900  -0.0759   0.02611   0.01963  -0.0870  0.9410  0.0242  -2.1722   0.0000   0.0000   0.0000  -0.9121
  -3.800  -0.0611   0.02480   0.01808  -0.0876  0.9387  0.0237  -2.1718   0.0000   0.0000   0.0000  -1.2034
  -3.700  -0.0458   0.02367   0.01674  -0.0884  0.9368  0.0234  -2.1568   0.0000   0.0000   0.0000  -1.7068
  -3.600  -0.0299   0.02269   0.01557  -0.0891  0.9350  0.0234  -2.1274   0.0000   0.0000   0.0000  -2.7734
  -3.500  -0.0135   0.02183   0.01456  -0.0900  0.9333  0.0237  -2.0851   0.0000   0.0000   0.0000  -6.5086
  -3.400   0.0036   0.02106   0.01366  -0.0910  0.9317  0.0243  -2.0329   0.0000   0.0000   0.0000  26.0840
  -3.300   0.0212   0.02036   0.01285  -0.0920  0.9302  0.0251  -1.9731   0.0000   0.0000   0.0000   4.6355
  -3.200   0.0395   0.01971   0.01213  -0.0932  0.9289  0.0264  -1.9070   0.0000   0.0000   0.0000   2.6374
  -3.100   0.0583   0.01914   0.01149  -0.0945  0.9277  0.0280  -1.8365   0.0000   0.0000   0.0000   1.8890
  -3.000   0.0774   0.01867   0.01097  -0.0958  0.9266  0.0299  -1.7623   0.0000   0.0000   0.0000   1.5008
  -2.900   0.0962   0.01834   0.01061  -0.0971  0.9254  0.0317  -1.6845   0.0000   0.0000   0.0000   1.2693
  -2.800   0.1039   0.01823   0.01049  -0.0964  0.9207  0.0326  -1.6334   0.0000   0.0000   0.0000   1.1863
  -2.700   0.1121   0.01776   0.01000  -0.0958  0.9159  0.0341  -1.6086   0.0000   0.0000   0.0000   1.1121
  -2.600   0.1241   0.01710   0.00931  -0.0959  0.9126  0.0371  -1.5912   0.0000   0.0000   0.0000   1.0296
  -2.500   0.1377   0.01675   0.00898  -0.0964  0.9096  0.0413  -1.5442   0.0000   0.0000   0.0000   0.9555
  -2.400   0.1524   0.01668   0.00898  -0.0971  0.9069  0.0492  -1.4574   0.0000   0.0000   0.0000   0.8921
  -2.300   0.1678   0.01649   0.00882  -0.0979  0.9045  0.0580  -1.3932   0.0000   0.0000   0.0000   0.8375
  -2.200   0.1829   0.01466   0.00781  -0.0989  0.9028  0.2253  -1.5487   0.0000   0.0000   0.0000   0.7944
  -2.100   0.1974   0.01402   0.00769  -0.0997  0.9007  0.3548  -1.4996   0.0000   0.0000   0.0000   0.7584
  -2.000   0.2109   0.01349   0.00766  -0.1001  0.8987  0.4842  -1.4370   0.0000   0.0000   0.0000   0.7275
  -1.900   0.2227   0.01308   0.00768  -0.0998  0.8967  0.6034  -1.3746   0.0000   0.0000   0.0000   0.7006
  -1.800   0.2345   0.01283   0.00769  -0.0993  0.8947  0.6752  -1.3115   0.0000   0.0000   0.0000   0.6755
  -1.700   0.2377   0.01280   0.00773  -0.0975  0.8884  0.7115  -1.2730   0.0000   0.0000   0.0000   0.6622
  -1.600   0.2440   0.01271   0.00772  -0.0962  0.8831  0.7479  -1.2253   0.0000   0.0000   0.0000   0.6459
  -1.500   0.2521   0.01260   0.00768  -0.0951  0.8789  0.7798  -1.1718   0.0000   0.0000   0.0000   0.6287
  -1.400   0.2613   0.01250   0.00760  -0.0942  0.8753  0.8119  -1.1145   0.0000   0.0000   0.0000   0.6117
  -1.300   0.2705   0.01237   0.00749  -0.0932  0.8720  0.8471  -1.0548   0.0000   0.0000   0.0000   0.5954
  -1.200   0.2800   0.01214   0.00725  -0.0918  0.8693  0.8996  -0.9536   0.0000   0.0000   0.0000   0.5788
  -1.100   0.2987   0.01195   0.00703  -0.0927  0.8673  0.9402  -0.8799   0.0000   0.0000   0.0000   0.5610
  -1.000   0.3274   0.01171   0.00673  -0.0959  0.8657  0.9916  -0.7837   0.0000   0.0000   0.0000   0.5432
  -0.900   0.3431   0.01161   0.00654  -0.0966  0.8630  1.0000  -0.7210   0.0000   0.0000   0.0000   0.5318
  -0.800   0.3566   0.01156   0.00641  -0.0969  0.8600  1.0000  -0.6642   0.0000   0.0000   0.0000   0.5217
  -0.700   0.3630   0.01161   0.00641  -0.0961  0.8535  1.0000  -0.6253   0.0000   0.0000   0.0000   0.5148
  -0.600   0.3724   0.01160   0.00635  -0.0958  0.8478  1.0000  -0.6250   0.0000   0.0000   0.0000   0.5071
  -0.500   0.3834   0.01156   0.00625  -0.0957  0.8429  1.0000  -0.6354   0.0000   0.0000   0.0000   0.4993
  -0.400   0.3952   0.01151   0.00614  -0.0957  0.8387  1.0000  -0.6463   0.0000   0.0000   0.0000   0.4917
  -0.300   0.4075   0.01145   0.00602  -0.0958  0.8348  1.0000  -0.6577   0.0000   0.0000   0.0000   0.4844
  -0.200   0.4200   0.01137   0.00587  -0.0958  0.8312  1.0000  -0.6692   0.0000   0.0000   0.0000   0.4774
  -0.100   0.4326   0.01129   0.00573  -0.0958  0.8277  1.0000  -0.6809   0.0000   0.0000   0.0000   0.4707
   0.000   0.4454   0.01124   0.00560  -0.0959  0.8241  1.0000  -0.6928   0.0000   0.0000   0.0000   0.4643
   0.100   0.4554   0.01125   0.00558  -0.0956  0.8189  1.0000  -0.7027   0.0000   0.0000   0.0000   0.4589
   0.200   0.4646   0.01126   0.00557  -0.0952  0.8127  1.0000  -0.7121   0.0000   0.0000   0.0000   0.4538
   0.300   0.4750   0.01124   0.00551  -0.0950  0.8067  1.0000  -0.7223   0.0000   0.0000   0.0000   0.4487
   0.400   0.4860   0.01120   0.00542  -0.0948  0.8012  1.0000  -0.7344   0.0000   0.0000   0.0000   0.4437
   0.500   0.4974   0.01114   0.00531  -0.0946  0.7963  1.0000  -0.7470   0.0000   0.0000   0.0000   0.4388
   0.600   0.5091   0.01109   0.00520  -0.0945  0.7918  1.0000  -0.7599   0.0000   0.0000   0.0000   0.4341
   0.700   0.5213   0.01105   0.00510  -0.0945  0.7876  1.0000  -0.7731   0.0000   0.0000   0.0000   0.4296
   0.800   0.5336   0.01104   0.00502  -0.0945  0.7832  1.0000  -0.7865   0.0000   0.0000   0.0000   0.4253
   0.900   0.5436   0.01108   0.00505  -0.0943  0.7778  1.0000  -0.7981   0.0000   0.0000   0.0000   0.4216
   1.000   0.5535   0.01111   0.00506  -0.0940  0.7715  1.0000  -0.8101   0.0000   0.0000   0.0000   0.4179
   1.100   0.5639   0.01111   0.00503  -0.0938  0.7651  1.0000  -0.8239   0.0000   0.0000   0.0000   0.4143
   1.200   0.5746   0.01109   0.00498  -0.0936  0.7588  1.0000  -0.8382   0.0000   0.0000   0.0000   0.4107
   1.300   0.5858   0.01106   0.00489  -0.0934  0.7529  1.0000  -0.8529   0.0000   0.0000   0.0000   0.4071
   1.400   0.5974   0.01102   0.00479  -0.0932  0.7472  1.0000  -0.8680   0.0000   0.0000   0.0000   0.4037
   1.500   0.6093   0.01103   0.00472  -0.0931  0.7413  1.0000  -0.8834   0.0000   0.0000   0.0000   0.4004
   1.600   0.6199   0.01107   0.00474  -0.0929  0.7353  1.0000  -0.8975   0.0000   0.0000   0.0000   0.3974
   1.700   0.6298   0.01111   0.00477  -0.0927  0.7286  1.0000  -0.9112   0.0000   0.0000   0.0000   0.3946
   1.800   0.6402   0.01114   0.00479  -0.0925  0.7218  1.0000  -0.9252   0.0000   0.0000   0.0000   0.3918
   1.900   0.6508   0.01116   0.00478  -0.0923  0.7153  1.0000  -0.9396   0.0000   0.0000   0.0000   0.3891
   2.000   0.6618   0.01117   0.00475  -0.0922  0.7090  1.0000  -0.9544   0.0000   0.0000   0.0000   0.3864
   2.100   0.6731   0.01119   0.00470  -0.0920  0.7029  1.0000  -0.9695   0.0000   0.0000   0.0000   0.3837
   2.200   0.6847   0.01125   0.00475  -0.0919  0.6965  1.0000  -0.9849   0.0000   0.0000   0.0000   0.3812
   2.300   0.6952   0.01133   0.00480  -0.0918  0.6901  1.0000  -1.0005   0.0000   0.0000   0.0000   0.3789
   2.400   0.7053   0.01137   0.00485  -0.0916  0.6833  1.0000  -1.0167   0.0000   0.0000   0.0000   0.3766
   2.500   0.7155   0.01141   0.00488  -0.0914  0.6758  1.0000  -1.0333   0.0000   0.0000   0.0000   0.3743
   2.600   0.7260   0.01144   0.00487  -0.0911  0.6682  1.0000  -1.0504   0.0000   0.0000   0.0000   0.3721
   2.700   0.7367   0.01148   0.00485  -0.0909  0.6608  1.0000  -1.0678   0.0000   0.0000   0.0000   0.3699
   2.800   0.7477   0.01155   0.00482  -0.0907  0.6534  1.0000  -1.0855   0.0000   0.0000   0.0000   0.3677
   2.900   0.7587   0.01167   0.00486  -0.0906  0.6456  1.0000  -1.1031   0.0000   0.0000   0.0000   0.3657
   3.000   0.7687   0.01171   0.00493  -0.0904  0.6392  1.0000  -1.1196   0.0000   0.0000   0.0000   0.3638
   3.100   0.7789   0.01177   0.00499  -0.0902  0.6320  1.0000  -1.1364   0.0000   0.0000   0.0000   0.3619
   3.200   0.7891   0.01183   0.00503  -0.0900  0.6243  1.0000  -1.1535   0.0000   0.0000   0.0000   0.3601
   3.300   0.7996   0.01189   0.00504  -0.0898  0.6164  1.0000  -1.1709   0.0000   0.0000   0.0000   0.3582
   3.400   0.8101   0.01198   0.00504  -0.0896  0.6086  1.0000  -1.1885   0.0000   0.0000   0.0000   0.3564
   3.500   0.8209   0.01212   0.00508  -0.0894  0.5999  1.0000  -1.2063   0.0000   0.0000   0.0000   0.3546
   3.600   0.8310   0.01220   0.00517  -0.0892  0.5932  1.0000  -1.2232   0.0000   0.0000   0.0000   0.3530
   3.700   0.8411   0.01226   0.00525  -0.0890  0.5861  1.0000  -1.2402   0.0000   0.0000   0.0000   0.3514
   3.800   0.8512   0.01233   0.00532  -0.0888  0.5785  1.0000  -1.2596   0.0000   0.0000   0.0000   0.3498
   3.900   0.8615   0.01242   0.00537  -0.0886  0.5709  1.0000  -1.2800   0.0000   0.0000   0.0000   0.3482
   4.000   0.8718   0.01252   0.00541  -0.0884  0.5634  1.0000  -1.3007   0.0000   0.0000   0.0000   0.3466
   4.100   0.8821   0.01267   0.00547  -0.0882  0.5557  1.0000  -1.3215   0.0000   0.0000   0.0000   0.3451
   4.200   0.8927   0.01285   0.00559  -0.0881  0.5477  1.0000  -1.3423   0.0000   0.0000   0.0000   0.3437
   4.300   0.9026   0.01292   0.00569  -0.0879  0.5418  1.0000  -1.3626   0.0000   0.0000   0.0000   0.3423
   4.400   0.9127   0.01299   0.00579  -0.0877  0.5347  1.0000  -1.3831   0.0000   0.0000   0.0000   0.3409
   4.500   0.9227   0.01308   0.00587  -0.0875  0.5268  1.0000  -1.4067   0.0000   0.0000   0.0000   0.3395
   4.600   0.9326   0.01319   0.00593  -0.0873  0.5187  1.0000  -1.4317   0.0000   0.0000   0.0000   0.3381
   4.700   0.9425   0.01333   0.00599  -0.0870  0.5106  1.0000  -1.4567   0.0000   0.0000   0.0000   0.3367
   4.800   0.9526   0.01356   0.00611  -0.0868  0.5012  1.0000  -1.4819   0.0000   0.0000   0.0000   0.3355
   4.900   0.9626   0.01365   0.00623  -0.0866  0.4951  1.0000  -1.5068   0.0000   0.0000   0.0000   0.3342
   5.000   0.9725   0.01373   0.00635  -0.0864  0.4886  1.0000  -1.5319   0.0000   0.0000   0.0000   0.3330
   5.100   0.9824   0.01383   0.00646  -0.0862  0.4815  1.0000  -1.5623   0.0000   0.0000   0.0000   0.3318
   5.200   0.9923   0.01396   0.00656  -0.0860  0.4741  1.0000  -1.5930   0.0000   0.0000   0.0000   0.3306
   5.300   1.0021   0.01410   0.00666  -0.0858  0.4668  1.0000  -1.6237   0.0000   0.0000   0.0000   0.3294
   5.400   1.0117   0.01430   0.00678  -0.0855  0.4591  1.0000  -1.6545   0.0000   0.0000   0.0000   0.3282
   5.500   1.0218   0.01459   0.00697  -0.0854  0.4502  1.0000  -1.6857   0.0000   0.0000   0.0000   0.3271
   5.600   1.0316   0.01466   0.00711  -0.0852  0.4454  1.0000  -1.7252   0.0000   0.0000   0.0000   0.3260
   5.700   1.0414   0.01476   0.00725  -0.0849  0.4392  1.0000  -1.7650   0.0000   0.0000   0.0000   0.3249
   5.800   1.0511   0.01487   0.00738  -0.0847  0.4322  1.0000  -1.8050   0.0000   0.0000   0.0000   0.3238
   5.900   1.0608   0.01499   0.00782  -0.0844  0.4253  1.0000  -1.8524   0.0000   0.0000   0.0000   0.3227
   6.000   1.0704   0.01513   0.00794  -0.0842  0.4187  1.0000  -1.8912   0.0000   0.0000   0.0000   0.3216
   6.100   1.0796   0.01533   0.00808  -0.0839  0.4112  1.0000  -1.9297   0.0000   0.0000   0.0000   0.3205
   6.200   1.0894   0.01566   0.00831  -0.0837  0.4019  1.0000  -1.9690   0.0000   0.0000   0.0000   0.3196
   6.300   1.0990   0.01572   0.00845  -0.0835  0.3975  1.0000  -2.0086   0.0000   0.0000   0.0000   0.3186
   6.400   1.1086   0.01582   0.00860  -0.0833  0.3919  1.0000  -2.0485   0.0000   0.0000   0.0000   0.3176
   6.500   1.1181   0.01594   0.00875  -0.0830  0.3857  1.0000  -2.0886   0.0000   0.0000   0.0000   0.3166
   6.600   1.1275   0.01608   0.00889  -0.0828  0.3790  1.0000  -2.1288   0.0000   0.0000   0.0000   0.3156
   6.700   1.1365   0.01625   0.00902  -0.0825  0.3720  1.0000  -2.1687   0.0000   0.0000   0.0000   0.3146
   6.800   1.1453   0.01649   0.00919  -0.0821  0.3644  1.0000  -2.2082   0.0000   0.0000   0.0000   0.3136
   6.900   1.1546   0.01688   0.00947  -0.0819  0.3548  1.0000  -2.2482   0.0000   0.0000   0.0000   0.3127
   7.000   1.1638   0.01694   0.00962  -0.0816  0.3505  1.0000  -2.2889   0.0000   0.0000   0.0000   0.3118
   7.100   1.1731   0.01704   0.00978  -0.0813  0.3449  1.0000  -2.3569   0.0000   0.0000   0.0000   0.3109
   7.200   1.1822   0.01717   0.00995  -0.0811  0.3386  1.0000  -2.4351   0.0000   0.0000   0.0000   0.3100
   7.300   1.1911   0.01733   0.01010  -0.0807  0.3317  1.0000  -2.5132   0.0000   0.0000   0.0000   0.3091
   7.400   1.1991   0.01752   0.01022  -0.0803  0.3236  1.0000  -2.5900   0.0000   0.0000   0.0000   0.3081
   7.500   1.2065   0.01787   0.01042  -0.0798  0.3124  1.0000  -2.6647   0.0000   0.0000   0.0000   0.3071
   7.600   1.2148   0.01794   0.01053  -0.0794  0.3043  1.0000  -2.7446   0.0000   0.0000   0.0000   0.3062
   7.700   1.2229   0.01796   0.01059  -0.0790  0.2943  1.0000  -2.8255   0.0000   0.0000   0.0000   0.3053
   7.800   1.2297   0.01812   0.01065  -0.0784  0.2820  1.0000  -2.9026   0.0000   0.0000   0.0000   0.3043
   7.900   1.2351   0.01846   0.01082  -0.0777  0.2683  1.0000  -2.9735   0.0000   0.0000   0.0000   0.3033
   8.000   1.2434   0.01855   0.01093  -0.0773  0.2574  1.0000  -3.0579   0.0000   0.0000   0.0000   0.3025
   8.100   1.2506   0.01873   0.01105  -0.0768  0.2441  1.0000  -3.1385   0.0000   0.0000   0.0000   0.3016
   8.200   1.2558   0.01908   0.01125  -0.0761  0.2308  1.0000  -3.2107   0.0000   0.0000   0.0000   0.3006
   8.300   1.2630   0.01933   0.01146  -0.0757  0.2198  1.0000  -3.2920   0.0000   0.0000   0.0000   0.2998
   8.400   1.2708   0.01955   0.01165  -0.0753  0.2090  1.0000  -3.3768   0.0000   0.0000   0.0000   0.2989
   8.500   1.2775   0.01985   0.01188  -0.0748  0.1991  1.0000  -3.4573   0.0000   0.0000   0.0000   0.2981
   8.600   1.2836   0.02019   0.01215  -0.0742  0.1910  1.0000  -3.5356   0.0000   0.0000   0.0000   0.2972
   8.700   1.2909   0.02046   0.01241  -0.0737  0.1842  1.0000  -3.6200   0.0000   0.0000   0.0000   0.2964
   8.800   1.2991   0.02068   0.01264  -0.0734  0.1777  1.0000  -3.7098   0.0000   0.0000   0.0000   0.2956
   8.900   1.3064   0.02095   0.01290  -0.0730  0.1701  1.0000  -3.7963   0.0000   0.0000   0.0000   0.2948
   9.000   1.3126   0.02128   0.01318  -0.0724  0.1623  1.0000  -3.8789   0.0000   0.0000   0.0000   0.2940
   9.100   1.3179   0.02167   0.01350  -0.0717  0.1547  1.0000  -3.9578   0.0000   0.0000   0.0000   0.2931
   9.200   1.3248   0.02196   0.01379  -0.0712  0.1489  1.0000  -4.0451   0.0000   0.0000   0.0000   0.2923
   9.300   1.3324   0.02221   0.01406  -0.0708  0.1432  1.0000  -4.1370   0.0000   0.0000   0.0000   0.2915
   9.400   1.3404   0.02244   0.01465  -0.0703  0.1482  1.0000  -4.1628   0.0000   0.0000   0.0000   0.2907
   9.500   1.3480   0.02270   0.01498  -0.0699  0.1455  1.0000  -4.2349   0.0000   0.0000   0.0000   0.2899
   9.600   1.3550   0.02297   0.01529  -0.0694  0.1405  1.0000  -4.3187   0.0000   0.0000   0.0000   0.2891
   9.700   1.3611   0.02329   0.01561  -0.0688  0.1347  1.0000  -4.4025   0.0000   0.0000   0.0000   0.2883
   9.800   1.3660   0.02367   0.01596  -0.0681  0.1288  1.0000  -4.4821   0.0000   0.0000   0.0000   0.2874
   9.900   1.3694   0.02408   0.01633  -0.0671  0.1230  1.0000  -4.5558   0.0000   0.0000   0.0000   0.2865
  10.000   1.3740   0.02445   0.01671  -0.0663  0.1181  1.0000  -4.6358   0.0000   0.0000   0.0000   0.2856
  10.100   1.3800   0.02474   0.01704  -0.0657  0.1135  1.0000  -4.7260   0.0000   0.0000   0.0000   0.2847
  10.200   1.3851   0.02509   0.01740  -0.0650  0.1082  1.0000  -4.8126   0.0000   0.0000   0.0000   0.2839
  10.300   1.3893   0.02549   0.01779  -0.0642  0.1027  1.0000  -4.8952   0.0000   0.0000   0.0000   0.2830
  10.400   1.3925   0.02596   0.01823  -0.0633  0.0973  1.0000  -4.9730   0.0000   0.0000   0.0000   0.2821
  10.500   1.3949   0.02647   0.01871  -0.0624  0.0921  1.0000  -5.0470   0.0000   0.0000   0.0000   0.2812
  10.600   1.3996   0.02686   0.01913  -0.0616  0.0882  1.0000  -5.1349   0.0000   0.0000   0.0000   0.2804
  10.700   1.4037   0.02729   0.01958  -0.0609  0.0830  1.0000  -5.2216   0.0000   0.0000   0.0000   0.2796
  10.800   1.4056   0.02787   0.02010  -0.0600  0.0756  1.0000  -5.2969   0.0000   0.0000   0.0000   0.2787
  10.900   1.4052   0.02862   0.02075  -0.0590  0.0678  1.0000  -5.3582   0.0000   0.0000   0.0000   0.2778
  11.000   1.4074   0.02920   0.02131  -0.0581  0.0603  1.0000  -5.4362   0.0000   0.0000   0.0000   0.2770
  11.100   1.4083   0.02989   0.02195  -0.0572  0.0532  1.0000  -5.5062   0.0000   0.0000   0.0000   0.2762
  11.200   1.4081   0.03068   0.02268  -0.0563  0.0473  1.0000  -5.5681   0.0000   0.0000   0.0000   0.2753
  11.300   1.4095   0.03136   0.02337  -0.0555  0.0421  1.0000  -5.6388   0.0000   0.0000   0.0000   0.2746
  11.400   1.4104   0.03209   0.02411  -0.0546  0.0365  1.0000  -5.7063   0.0000   0.0000   0.0000   0.2738
  11.500   1.4092   0.03302   0.02499  -0.0537  0.0309  1.0000  -5.7588   0.0000   0.0000   0.0000   0.2730
  11.600   1.4081   0.03394   0.02591  -0.0528  0.0260  1.0000  -5.8093   0.0000   0.0000   0.0000   0.2722
  11.700   1.4069   0.03488   0.02686  -0.0519  0.0213  1.0000  -5.8580   0.0000   0.0000   0.0000   0.2714
  11.800   1.4043   0.03596   0.02791  -0.0510  0.0176  1.0000  -5.8963   0.0000   0.0000   0.0000   0.2707
  11.900   1.4013   0.03709   0.02906  -0.0501  0.0148  1.0000  -5.9260   0.0000   0.0000   0.0000   0.2700
  12.000   1.4002   0.03809   0.03012  -0.0494  0.0136  1.0000  -5.9693   0.0000   0.0000   0.0000   0.2693
  12.100   1.3992   0.03912   0.03122  -0.0488  0.0127  1.0000  -6.0137   0.0000   0.0000   0.0000   0.2687
  12.200   1.3978   0.04020   0.03237  -0.0482  0.0120  1.0000  -6.0561   0.0000   0.0000   0.0000   0.2681
  12.300   1.3962   0.04132   0.03357  -0.0476  0.0114  1.0000  -6.0976   0.0000   0.0000   0.0000   0.2675
  12.400   1.3945   0.04248   0.03480  -0.0471  0.0109  1.0000  -6.1390   0.0000   0.0000   0.0000   0.2670
  12.500   1.3926   0.04368   0.03607  -0.0467  0.0105  1.0000  -6.1792   0.0000   0.0000   0.0000   0.2666
  12.600   1.3902   0.04496   0.03742  -0.0463  0.0102  1.0000  -6.2155   0.0000   0.0000   0.0000   0.2662
  12.700   1.3877   0.04627   0.03880  -0.0460  0.0099  1.0000  -6.2512   0.0000   0.0000   0.0000   0.2659
  12.800   1.3853   0.04761   0.04022  -0.0458  0.0096  1.0000  -6.2860   0.0000   0.0000   0.0000   0.2655
  12.900   1.3822   0.04904   0.04173  -0.0456  0.0094  1.0000  -6.3158   0.0000   0.0000   0.0000   0.2653
  13.000   1.3789   0.05053   0.04329  -0.0455  0.0092  1.0000  -6.3433   0.0000   0.0000   0.0000   0.2651
  13.100   1.3756   0.05205   0.04489  -0.0455  0.0090  1.0000  -6.3699   0.0000   0.0000   0.0000   0.2650
  13.200   1.3719   0.05363   0.04655  -0.0455  0.0089  1.0000  -6.3929   0.0000   0.0000   0.0000   0.2649
  13.300   1.3676   0.05528   0.04829  -0.0456  0.0087  1.0000  -6.4109   0.0000   0.0000   0.0000   0.2649
  13.400   1.3634   0.05696   0.05005  -0.0458  0.0086  1.0000  -6.4288   0.0000   0.0000   0.0000   0.2649
  13.500   1.3592   0.05869   0.05186  -0.0460  0.0085  1.0000  -6.4456   0.0000   0.0000   0.0000   0.2649
  13.600   1.3545   0.06056   0.05381  -0.0463  0.0084  1.0000  -6.4572   0.0000   0.0000   0.0000   0.2651
  13.700   1.3500   0.06246   0.05579  -0.0467  0.0083  1.0000  -6.4695   0.0000   0.0000   0.0000   0.2653
  13.800   1.3457   0.06437   0.05778  -0.0471  0.0083  1.0000  -6.4820   0.0000   0.0000   0.0000   0.2655
  13.900   1.3410   0.06640   0.05989  -0.0477  0.0082  1.0000  -6.4906   0.0000   0.0000   0.0000   0.2659
  14.000   1.3362   0.06849   0.06206  -0.0483  0.0081  1.0000  -6.4976   0.0000   0.0000   0.0000   0.2662
  14.100   1.3318   0.07056   0.06421  -0.0489  0.0081  1.0000  -6.5060   0.0000   0.0000   0.0000   0.2666
  14.200   1.3273   0.07267   0.06640  -0.0496  0.0080  1.0000  -6.5130   0.0000   0.0000   0.0000   0.2670
  14.300   1.3223   0.07494   0.06874  -0.0504  0.0080  1.0000  -6.5143   0.0000   0.0000   0.0000   0.2676
  14.400   1.3175   0.07718   0.07106  -0.0512  0.0079  1.0000  -6.5167   0.0000   0.0000   0.0000   0.2682
  14.500   1.3130   0.07939   0.07334  -0.0520  0.0079  1.0000  -6.5202   0.0000   0.0000   0.0000   0.2687
  14.600   1.3085   0.08162   0.07564  -0.0529  0.0079  1.0000  -6.5225   0.0000   0.0000   0.0000   0.2693
  14.700   1.3035   0.08398   0.07808  -0.0539  0.0078  1.0000  -6.5200   0.0000   0.0000   0.0000   0.2700
  14.800   1.2989   0.08628   0.08045  -0.0548  0.0078  1.0000  -6.5190   0.0000   0.0000   0.0000   0.2707
  14.900   1.2946   0.08853   0.08276  -0.0557  0.0078  1.0000  -6.5200   0.0000   0.0000   0.0000   0.2714
  15.000   1.2904   0.09074   0.08505  -0.0566  0.0078  1.0000  -6.5212   0.0000   0.0000   0.0000   0.2720
  15.100   1.2858   0.09307   0.08745  -0.0577  0.0077  1.0000  -6.5176   0.0000   0.0000   0.0000   0.2728
  15.200   1.2814   0.09540   0.08984  -0.0587  0.0077  1.0000  -6.5140   0.0000   0.0000   0.0000   0.2736
  15.300   1.2774   0.09762   0.09213  -0.0597  0.0077  1.0000  -6.5131   0.0000   0.0000   0.0000   0.2743
  15.400   1.2736   0.09980   0.09437  -0.0607  0.0077  1.0000  -6.5132   0.0000   0.0000   0.0000   0.2750
  15.500   1.2699   0.10199   0.09663  -0.0617  0.0077  1.0000  -6.5122   0.0000   0.0000   0.0000   0.2757
  15.600   1.2659   0.10426   0.09897  -0.0628  0.0076  1.0000  -6.5071   0.0000   0.0000   0.0000   0.2766
  15.700   1.2616   0.10660   0.10138  -0.0640  0.0076  1.0000  -6.4983   0.0000   0.0000   0.0000   0.2775
  15.800   1.2577   0.10886   0.10370  -0.0651  0.0076  1.0000  -6.4923   0.0000   0.0000   0.0000   0.2784
  15.900   1.2542   0.11106   0.10596  -0.0662  0.0076  1.0000  -6.4877   0.0000   0.0000   0.0000   0.2792
  16.000   1.2507   0.11320   0.10817  -0.0673  0.0076  1.0000  -6.4831   0.0000   0.0000   0.0000   0.2801
  16.100   1.2472   0.11528   0.11031  -0.0684  0.0076  1.0000  -6.4767   0.0000   0.0000   0.0000   0.2809
  16.200   1.2433   0.11749   0.11258  -0.0696  0.0076  1.0000  -6.4646   0.0000   0.0000   0.0000   0.2819
  16.300   1.2393   0.11974   0.11491  -0.0710  0.0076  1.0000  -6.4501   0.0000   0.0000   0.0000   0.2830
  16.400   1.2357   0.12194   0.11717  -0.0722  0.0076  1.0000  -6.4374   0.0000   0.0000   0.0000   0.2840
  16.500   1.2323   0.12414   0.11944  -0.0735  0.0076  1.0000  -6.4251   0.0000   0.0000   0.0000   0.2850
  16.600   1.2289   0.12638   0.12174  -0.0747  0.0076  1.0000  -6.4123   0.0000   0.0000   0.0000   0.2860
  16.700   1.2255   0.12870   0.12413  -0.0760  0.0076  1.0000  -6.3966   0.0000   0.0000   0.0000   0.2871
  16.800   1.2216   0.13122   0.12671  -0.0775  0.0076  1.0000  -6.3730   0.0000   0.0000   0.0000   0.2883
  16.900   1.2173   0.13389   0.12945  -0.0791  0.0077  1.0000  -6.3433   0.0000   0.0000   0.0000   0.2897
  17.000   1.2134   0.13655   0.13217  -0.0806  0.0077  1.0000  -6.3149   0.0000   0.0000   0.0000   0.2910
  17.100   1.2095   0.13925   0.13494  -0.0822  0.0077  1.0000  -6.2848   0.0000   0.0000   0.0000   0.2924
  17.200   1.2054   0.14202   0.13778  -0.0838  0.0077  1.0000  -6.2512   0.0000   0.0000   0.0000   0.2938
  17.300   1.2011   0.14494   0.14076  -0.0854  0.0078  1.0000  -6.2111   0.0000   0.0000   0.0000   0.2953
  17.400   1.1959   0.14822   0.14410  -0.0874  0.0078  1.0000  -6.1571   0.0000   0.0000   0.0000   0.2971
  17.500   1.1909   0.15150   0.14745  -0.0892  0.0078  1.0000  -6.1024   0.0000   0.0000   0.0000   0.2988
  17.600   1.1860   0.15480   0.15083  -0.0911  0.0079  1.0000  -6.0454   0.0000   0.0000   0.0000   0.3006
  17.700   1.1808   0.15825   0.15434  -0.0930  0.0079  1.0000  -5.9812   0.0000   0.0000   0.0000   0.3025
  17.800   1.1748   0.16207   0.15822  -0.0951  0.0080  1.0000  -5.9014   0.0000   0.0000   0.0000   0.3046
  17.900   1.1681   0.16625   0.16247  -0.0974  0.0081  1.0000  -5.8049   0.0000   0.0000   0.0000   0.3069
  18.000   1.1614   0.17048   0.16677  -0.0997  0.0081  1.0000  -5.7032   0.0000   0.0000   0.0000   0.3093
  18.100   1.1541   0.17507   0.17142  -0.1020  0.0082  1.0000  -5.5836   0.0000   0.0000   0.0000   0.3119
  18.200   1.1445   0.18061   0.17704  -0.1048  0.0084  1.0000  -5.4179   0.0000   0.0000   0.0000   0.3151
  18.300   1.1341   0.18661   0.18311  -0.1077  0.0085  1.0000  -5.2239   0.0000   0.0000   0.0000   0.3186
  18.400   1.1195   0.19455   0.19111  -0.1113  0.0088  1.0000  -4.9282   0.0000   0.0000   0.0000   0.3233
  18.500   1.0990   0.20542   0.20205  -0.1157  0.0093  1.0000  -4.4668   0.0000   0.0000   0.0000   0.3297
  18.600   1.0789   0.21712   0.21375  -0.1198  0.0099  1.0000  -3.9501   0.0000   0.0000   0.0000   0.3360
  18.700   1.0693   0.22443   0.22104  -0.1221  0.0103  1.0000  -3.6707   0.0000   0.0000   0.0000   0.3393
  18.800   1.0620   0.23095   0.22754  -0.1241  0.0106  1.0000  -3.4384   0.0000   0.0000   0.0000   0.3421
  18.900   1.0571   0.23627   0.23285  -0.1257  0.0108  1.0000  -3.2749   0.0000   0.0000   0.0000   0.3442
  19.000   1.0534   0.24100   0.23756  -0.1271  0.0110  1.0000  -3.1458   0.0000   0.0000   0.0000   0.3460
  19.100   1.0505   0.24534   0.24190  -0.1283  0.0112  1.0000  -3.0381   0.0000   0.0000   0.0000   0.3475
  19.200   1.0481   0.24942   0.24596  -0.1295  0.0114  1.0000  -2.9453   0.0000   0.0000   0.0000   0.3489
  19.300   1.0461   0.25329   0.24983  -0.1305  0.0116  1.0000  -2.8638   0.0000   0.0000   0.0000   0.3501
  19.400   1.0443   0.25699   0.25353  -0.1316  0.0117  1.0000  -2.7911   0.0000   0.0000   0.0000   0.3512
  19.500   1.0426   0.26056   0.25709  -0.1325  0.0119  1.0000  -2.7257   0.0000   0.0000   0.0000   0.3522
  19.600   1.0411   0.26401   0.26054  -0.1334  0.0121  1.0000  -2.6663   0.0000   0.0000   0.0000   0.3532
  19.700   1.0397   0.26735   0.26388  -0.1342  0.0123  1.0000  -2.6122   0.0000   0.0000   0.0000   0.3541
  19.800   1.0383   0.27061   0.26713  -0.1350  0.0125  1.0000  -2.5625   0.0000   0.0000   0.0000   0.3549
  19.900   1.0369   0.27378   0.27030  -0.1358  0.0127  1.0000  -2.5166   0.0000   0.0000   0.0000   0.3558
  20.000   1.0355   0.27687   0.27340  -0.1365  0.0129  1.0000  -2.4741   0.0000   0.0000   0.0000   0.3565
  20.100   1.0339   0.27990   0.27643  -0.1371  0.0132  1.0000  -2.4341   0.0000   0.0000   0.0000   0.3572
  20.200   1.0322   0.28287   0.27940  -0.1377  0.0134  1.0000  -2.3960   0.0000   0.0000   0.0000   0.3579
  20.300   1.0301   0.28580   0.28234  -0.1383  0.0137  1.0000  -2.3586   0.0000   0.0000   0.0000   0.3586
  20.400   1.0275   0.28874   0.28529  -0.1387  0.0140  1.0000  -2.3191   0.0000   0.0000   0.0000   0.3593
  21.000   0.9495   0.29963   0.29640  -0.1320  0.0280  1.0000  -1.6701   0.0000   0.0000   0.0000   0.3642
  21.100   0.9419   0.29964   0.29644  -0.1316  0.0280  1.0000  -1.6389   0.0000   0.0000   0.0000   0.3649
  21.200   0.9357   0.29988   0.29670  -0.1314  0.0280  1.0000  -1.6115   0.0000   0.0000   0.0000   0.3655
  21.300   0.9304   0.30026   0.29710  -0.1313  0.0280  1.0000  -1.5865   0.0000   0.0000   0.0000   0.3662
  21.400   0.9257   0.30073   0.29758  -0.1313  0.0280  1.0000  -1.5634   0.0000   0.0000   0.0000   0.3668
  21.500   0.9216   0.30126   0.29813  -0.1313  0.0280  1.0000  -1.5417   0.0000   0.0000   0.0000   0.3674
  21.600   0.9178   0.30183   0.29872  -0.1313  0.0280  1.0000  -1.5212   0.0000   0.0000   0.0000   0.3680
  21.700   0.9143   0.30244   0.29934  -0.1314  0.0280  1.0000  -1.5017   0.0000   0.0000   0.0000   0.3685
  21.800   0.9111   0.30308   0.29999  -0.1315  0.0279  1.0000  -1.4831   0.0000   0.0000   0.0000   0.3691
  21.900   0.9081   0.30373   0.30065  -0.1316  0.0279  1.0000  -1.4652   0.0000   0.0000   0.0000   0.3696
  22.000   0.9053   0.30439   0.30133  -0.1318  0.0279  1.0000  -1.4480   0.0000   0.0000   0.0000   0.3702
  22.100   0.9027   0.30507   0.30203  -0.1320  0.0279  1.0000  -1.4314   0.0000   0.0000   0.0000   0.3707
  22.200   0.9003   0.30576   0.30273  -0.1322  0.0279  1.0000  -1.4153   0.0000   0.0000   0.0000   0.3712
  22.300   0.8980   0.30646   0.30343  -0.1324  0.0279  1.0000  -1.3998   0.0000   0.0000   0.0000   0.3718
  22.400   0.8958   0.30716   0.30415  -0.1326  0.0279  1.0000  -1.3847   0.0000   0.0000   0.0000   0.3723
  22.500   0.8938   0.30786   0.30486  -0.1329  0.0279  1.0000  -1.3700   0.0000   0.0000   0.0000   0.3728
  22.600   0.8918   0.30857   0.30558  -0.1331  0.0279  1.0000  -1.3557   0.0000   0.0000   0.0000   0.3733
  22.700   0.8900   0.30927   0.30629  -0.1334  0.0279  1.0000  -1.3418   0.0000   0.0000   0.0000   0.3738
  22.800   0.8882   0.30997   0.30700  -0.1337  0.0278  1.0000  -1.3281   0.0000   0.0000   0.0000   0.3743
  22.900   0.8865   0.31065   0.30769  -0.1340  0.0278  1.0000  -1.3146   0.0000   0.0000   0.0000   0.3748
  23.000   0.8849   0.31133   0.30838  -0.1343  0.0278  1.0000  -1.3014   0.0000   0.0000   0.0000   0.3754
  23.100   0.8833   0.31200   0.30906  -0.1346  0.0278  1.0000  -1.2884   0.0000   0.0000   0.0000   0.3759
  23.200   0.8818   0.31267   0.30974  -0.1349  0.0277  1.0000  -1.2757   0.0000   0.0000   0.0000   0.3764
  23.300   0.8803   0.31332   0.31040  -0.1352  0.0277  1.0000  -1.2631   0.0000   0.0000   0.0000   0.3769
  23.400   0.8789   0.31396   0.31105  -0.1356  0.0277  1.0000  -1.2506   0.0000   0.0000   0.0000   0.3775
  23.500   0.8775   0.31458   0.31168  -0.1360  0.0276  1.0000  -1.2380   0.0000   0.0000   0.0000   0.3780
  23.600   0.8761   0.31519   0.31230  -0.1364  0.0276  1.0000  -1.2255   0.0000   0.0000   0.0000   0.3786
  23.700   0.8744   0.31572   0.31284  -0.1368  0.0275  1.0000  -1.2096   0.0000   0.0000   0.0000   0.3793
  23.800   0.8727   0.31624   0.31336  -0.1373  0.0274  1.0000  -1.1925   0.0000   0.0000   0.0000   0.3800
  23.900   0.8710   0.31675   0.31389  -0.1378  0.0274  1.0000  -1.1752   0.0000   0.0000   0.0000   0.3808
  24.000   0.8694   0.31729   0.31443  -0.1384  0.0273  1.0000  -1.1576   0.0000   0.0000   0.0000   0.3816
  24.100   0.8680   0.31785   0.31499  -0.1389  0.0271  1.0000  -1.1395   0.0000   0.0000   0.0000   0.3824
  24.200   0.8667   0.31846   0.31561  -0.1396  0.0269  1.0000  -1.1205   0.0000   0.0000   0.0000   0.3833
  24.300   0.8656   0.31915   0.31631  -0.1403  0.0267  1.0000  -1.1006   0.0000   0.0000   0.0000   0.3841
  24.400   0.8648   0.31996   0.31713  -0.1410  0.0264  1.0000  -1.0802   0.0000   0.0000   0.0000   0.3850
  24.500   0.8642   0.32086   0.31803  -0.1417  0.0259  1.0000  -1.0612   0.0000   0.0000   0.0000   0.3857
  24.600   0.8637   0.32177   0.31895  -0.1422  0.0254  1.0000  -1.0452   0.0000   0.0000   0.0000   0.3864
  24.700   0.8633   0.32266   0.31985  -0.1427  0.0250  1.0000  -1.0324   0.0000   0.0000   0.0000   0.3869
  24.800   0.8628   0.32351   0.32071  -0.1432  0.0245  1.0000  -1.0219   0.0000   0.0000   0.0000   0.3874
  24.900   0.8622   0.32433   0.32154  -0.1436  0.0241  1.0000  -1.0130   0.0000   0.0000   0.0000   0.3878
  25.000   0.8617   0.32513   0.32235  -0.1440  0.0237  1.0000  -1.0053   0.0000   0.0000   0.0000   0.3882
  25.100   0.8613   0.32592   0.32314  -0.1443  0.0233  1.0000  -0.9984   0.0000   0.0000   0.0000   0.3886
  25.200   0.8608   0.32669   0.32393  -0.1447  0.0229  1.0000  -0.9923   0.0000   0.0000   0.0000   0.3889
  25.300   0.8603   0.32746   0.32470  -0.1450  0.0226  1.0000  -0.9867   0.0000   0.0000   0.0000   0.3893
  25.400   0.8599   0.32822   0.32547  -0.1454  0.0222  1.0000  -0.9816   0.0000   0.0000   0.0000   0.3896
  25.500   0.8595   0.32898   0.32624  -0.1458  0.0219  1.0000  -0.9770   0.0000   0.0000   0.0000   0.3899
  25.600   0.8591   0.32973   0.32700  -0.1461  0.0216  1.0000  -0.9728   0.0000   0.0000   0.0000   0.3902
  25.700   0.8587   0.33047   0.32775  -0.1465  0.0213  1.0000  -0.9690   0.0000   0.0000   0.0000   0.3906
  25.800   0.8583   0.33121   0.32850  -0.1468  0.0210  1.0000  -0.9655   0.0000   0.0000   0.0000   0.3909
  25.900   0.8580   0.33195   0.32924  -0.1471  0.0207  1.0000  -0.9625   0.0000   0.0000   0.0000   0.3912
  26.000   0.8577   0.33268   0.32998  -0.1475  0.0204  1.0000  -0.9598   0.0000   0.0000   0.0000   0.3915
  26.100   0.8574   0.33341   0.33072  -0.1478  0.0202  1.0000  -0.9574   0.0000   0.0000   0.0000   0.3917
  26.200   0.8571   0.33413   0.33145  -0.1482  0.0199  1.0000  -0.9554   0.0000   0.0000   0.0000   0.3920
  26.300   0.8568   0.33485   0.33218  -0.1485  0.0196  1.0000  -0.9539   0.0000   0.0000   0.0000   0.3923
  26.400   0.8565   0.33556   0.33290  -0.1489  0.0194  1.0000  -0.9527   0.0000   0.0000   0.0000   0.3925
  26.500   0.8563   0.33627   0.33362  -0.1492  0.0191  1.0000  -0.9518   0.0000   0.0000   0.0000   0.3928
  26.600   0.8561   0.33697   0.33433  -0.1495  0.0189  1.0000  -0.9515   0.0000   0.0000   0.0000   0.3931
  26.700   0.8558   0.33767   0.33504  -0.1499  0.0187  1.0000  -0.9515   0.0000   0.0000   0.0000   0.3933
  26.800   0.8557   0.33836   0.33573  -0.1502  0.0185  1.0000  -0.9521   0.0000   0.0000   0.0000   0.3935
  26.900   0.8555   0.33904   0.33642  -0.1505  0.0182  1.0000  -0.9531   0.0000   0.0000   0.0000   0.3938
  27.000   0.8553   0.33971   0.33710  -0.1509  0.0180  1.0000  -0.9547   0.0000   0.0000   0.0000   0.3940
  27.100   0.8551   0.34037   0.33778  -0.1512  0.0178  1.0000  -0.9569   0.0000   0.0000   0.0000   0.3942
  27.200   0.8550   0.34103   0.33844  -0.1515  0.0176  1.0000  -0.9597   0.0000   0.0000   0.0000   0.3944
  27.300   0.8548   0.34167   0.33909  -0.1518  0.0174  1.0000  -0.9631   0.0000   0.0000   0.0000   0.3945
  27.400   0.8547   0.34230   0.33973  -0.1521  0.0172  1.0000  -0.9674   0.0000   0.0000   0.0000   0.3947
  27.500   0.8546   0.34293   0.34043  -0.1524  0.0170  1.0000  -0.9717   0.0000   0.0000   0.0000   0.3949
  27.600   0.8545   0.34355   0.34106  -0.1527  0.0169  1.0000  -0.9768   0.0000   0.0000   0.0000   0.3950
  27.700   0.8543   0.34415   0.34167  -0.1529  0.0167  1.0000  -0.9832   0.0000   0.0000   0.0000   0.3951
  27.800   0.8543   0.34474   0.34226  -0.1532  0.0165  1.0000  -0.9907   0.0000   0.0000   0.0000   0.3952
  27.900   0.8542   0.34532   0.34285  -0.1534  0.0163  1.0000  -0.9994   0.0000   0.0000   0.0000   0.3952
  28.000   0.8541   0.34590   0.34344  -0.1536  0.0162  1.0000  -1.0094   0.0000   0.0000   0.0000   0.3952
  28.100   0.8541   0.34649   0.34405  -0.1537  0.0160  1.0000  -1.0209   0.0000   0.0000   0.0000   0.3952
  28.200   0.8542   0.34713   0.34470  -0.1538  0.0158  1.0000  -1.0339   0.0000   0.0000   0.0000   0.3951
  28.300   0.8544   0.34789   0.34547  -0.1539  0.0157  1.0000  -1.0485   0.0000   0.0000   0.0000   0.3948
  28.400   0.8547   0.34896   0.34655  -0.1537  0.0155  1.0000  -1.0649   0.0000   0.0000   0.0000   0.3944
  30.000   0.8492   0.36398   0.36166  -0.1594  0.0148  1.0000  -0.9389   0.0000   0.0000   0.0000   0.3990


