xflr5 v6.61

 Calculated polar for: SD7037-092-88

 1 1 Reynolds number fixed          Mach number fixed         

 xtrf =   1.000 (top)        1.000 (bottom)
 Mach =   0.000     Re =     1.000 e 6     Ncrit =   9.000

  alpha     CL        CD       CDp       Cm    Top Xtr Bot Xtr   Cpmin    Chinge    XCp    
 ------- -------- --------- --------- -------- ------- ------- -------- --------- ---------
 -10.000  -0.3608   0.10987   0.10807  -0.0241  1.0000  0.0078  -1.6446   0.0000   0.0000   0.0000   0.1758
  -9.900  -0.3588   0.10852   0.10673  -0.0247  1.0000  0.0078  -1.6525   0.0000   0.0000   0.0000   0.1740
  -9.800  -0.3568   0.10717   0.10538  -0.0252  1.0000  0.0078  -1.6606   0.0000   0.0000   0.0000   0.1723
  -9.700  -0.3549   0.10582   0.10404  -0.0257  1.0000  0.0078  -1.6689   0.0000   0.0000   0.0000   0.1705
  -9.600  -0.3530   0.10447   0.10269  -0.0262  1.0000  0.0078  -1.6775   0.0000   0.0000   0.0000   0.1687
  -9.500  -0.3512   0.10313   0.10135  -0.0267  1.0000  0.0078  -1.6863   0.0000   0.0000   0.0000   0.1670
  -9.400  -0.3494   0.10179   0.10002  -0.0272  1.0000  0.0078  -1.6954   0.0000   0.0000   0.0000   0.1652
  -9.300  -0.3477   0.10045   0.09868  -0.0277  1.0000  0.0078  -1.7048   0.0000   0.0000   0.0000   0.1635
  -9.200  -0.3461   0.09911   0.09735  -0.0281  1.0000  0.0078  -1.7145   0.0000   0.0000   0.0000   0.1618
  -9.100  -0.3445   0.09779   0.09603  -0.0286  1.0000  0.0079  -1.7246   0.0000   0.0000   0.0000   0.1601
  -9.000  -0.3431   0.09647   0.09472  -0.0291  1.0000  0.0079  -1.7349   0.0000   0.0000   0.0000   0.1585
  -8.900  -0.3418   0.09516   0.09342  -0.0295  1.0000  0.0079  -1.7457   0.0000   0.0000   0.0000   0.1569
  -8.800  -0.3407   0.09386   0.09213  -0.0300  1.0000  0.0079  -1.7567   0.0000   0.0000   0.0000   0.1555
  -8.700  -0.3396   0.09257   0.09084  -0.0304  1.0000  0.0079  -1.7682   0.0000   0.0000   0.0000   0.1540
  -8.600  -0.3385   0.09127   0.08955  -0.0308  1.0000  0.0079  -1.7799   0.0000   0.0000   0.0000   0.1526
  -8.500  -0.3376   0.08996   0.08825  -0.0312  1.0000  0.0079  -1.7921   0.0000   0.0000   0.0000   0.1512
  -8.400  -0.3369   0.08868   0.08697  -0.0316  1.0000  0.0079  -1.8046   0.0000   0.0000   0.0000   0.1500
  -8.300  -0.3364   0.08741   0.08572  -0.0319  1.0000  0.0079  -1.8176   0.0000   0.0000   0.0000   0.1490
  -8.200  -0.3364   0.08618   0.08449  -0.0321  1.0000  0.0079  -1.8311   0.0000   0.0000   0.0000   0.1484
  -8.100  -0.3368   0.08499   0.08332  -0.0323  1.0000  0.0079  -1.8451   0.0000   0.0000   0.0000   0.1482
  -8.000  -0.3379   0.08388   0.08222  -0.0322  1.0000  0.0079  -1.8596   0.0000   0.0000   0.0000   0.1487
  -7.900  -0.3408   0.08296   0.08132  -0.0317  1.0000  0.0079  -1.8748   0.0000   0.0000   0.0000   0.1512
  -7.800  -0.3465   0.08234   0.08072  -0.0305  1.0000  0.0079  -1.8904   0.0000   0.0000   0.0000   0.1565
  -7.700  -0.3411   0.08046   0.07884  -0.0326  0.9990  0.0079  -1.9061   0.0000   0.0000   0.0000   0.1489
  -7.600  -0.3351   0.07851   0.07688  -0.0350  0.9972  0.0079  -1.9228   0.0000   0.0000   0.0000   0.1402
  -7.500  -0.3297   0.07658   0.07496  -0.0373  0.9953  0.0079  -1.9407   0.0000   0.0000   0.0000   0.1315
  -7.400  -0.3239   0.07458   0.07297  -0.0398  0.9932  0.0079  -1.9602   0.0000   0.0000   0.0000   0.1216
  -7.300  -0.3174   0.07247   0.07085  -0.0428  0.9912  0.0079  -1.9817   0.0000   0.0000   0.0000   0.1098
  -7.200  -0.3099   0.07018   0.06856  -0.0463  0.9893  0.0079  -2.0058   0.0000   0.0000   0.0000   0.0952
  -7.100  -0.3003   0.06756   0.06594  -0.0508  0.9881  0.0079  -2.0338   0.0000   0.0000   0.0000   0.0754
  -7.000  -0.2894   0.06471   0.06309  -0.0559  0.9871  0.0079  -2.0669   0.0000   0.0000   0.0000   0.0511
  -6.900  -0.2811   0.06204   0.06040  -0.0603  0.9839  0.0079  -2.1035   0.0000   0.0000   0.0000   0.0298
  -6.800  -0.2719   0.05917   0.05751  -0.0649  0.9808  0.0079  -2.1453   0.0000   0.0000   0.0000   0.0055
  -6.700  -0.2620   0.05619   0.05450  -0.0694  0.9781  0.0079  -2.1917   0.0000   0.0000   0.0000  -0.0208
  -6.600  -0.2517   0.05316   0.05143  -0.0736  0.9755  0.0079  -2.2417   0.0000   0.0000   0.0000  -0.0484
  -6.500  -0.2417   0.05020   0.04841  -0.0773  0.9728  0.0079  -2.2938   0.0000   0.0000   0.0000  -0.0761
  -6.400  -0.2350   0.04773   0.04588  -0.0795  0.9691  0.0079  -2.3417   0.0000   0.0000   0.0000  -0.0943
  -6.300  -0.2304   0.04556   0.04366  -0.0807  0.9646  0.0079  -2.3861   0.0000   0.0000   0.0000  -0.1065
  -6.200  -0.2254   0.04345   0.04147  -0.0817  0.9603  0.0079  -2.4294   0.0000   0.0000   0.0000  -0.1190
  -6.100  -0.2199   0.04138   0.03933  -0.0827  0.9564  0.0079  -2.4703   0.0000   0.0000   0.0000  -0.1325
  -6.000  -0.2142   0.03944   0.03729  -0.0834  0.9526  0.0079  -2.5066   0.0000   0.0000   0.0000  -0.1464
  -5.900  -0.2085   0.03765   0.03541  -0.0840  0.9492  0.0079  -2.5365   0.0000   0.0000   0.0000  -0.1597
  -5.800  -0.2288   0.02535   0.02233  -0.0863  0.9406  0.0090  -3.4444   0.0000   0.0000   0.0000  -0.1344
  -5.700  -0.2229   0.02378   0.02064  -0.0863  0.9376  0.0095  -3.4408   0.0000   0.0000   0.0000  -0.1442
  -5.600  -0.2150   0.02295   0.01973  -0.0861  0.9350  0.0098  -3.3737   0.0000   0.0000   0.0000  -0.1578
  -5.500  -0.2065   0.02236   0.01909  -0.0860  0.9326  0.0102  -3.2863   0.0000   0.0000   0.0000  -0.1740
  -5.400  -0.1975   0.02188   0.01856  -0.0859  0.9303  0.0105  -3.1909   0.0000   0.0000   0.0000  -0.1924
  -5.300  -0.1883   0.02146   0.01808  -0.0858  0.9279  0.0108  -3.0931   0.0000   0.0000   0.0000  -0.2134
  -5.200  -0.1787   0.02106   0.01763  -0.0858  0.9250  0.0112  -2.9953   0.0000   0.0000   0.0000  -0.2377
  -5.100  -0.1691   0.02068   0.01721  -0.0857  0.9234  0.0116  -2.8970   0.0000   0.0000   0.0000  -0.2650
  -5.000  -0.1594   0.02031   0.01681  -0.0856  0.9216  0.0121  -2.7988   0.0000   0.0000   0.0000  -0.2955
  -4.900  -0.1497   0.01993   0.01639  -0.0856  0.9195  0.0126  -2.7058   0.0000   0.0000   0.0000  -0.3299
  -4.800  -0.1400   0.01953   0.01595  -0.0854  0.9171  0.0132  -2.6177   0.0000   0.0000   0.0000  -0.3693
  -4.700  -0.1301   0.01913   0.01550  -0.0853  0.9146  0.0138  -2.5343   0.0000   0.0000   0.0000  -0.4148
  -4.600  -0.1202   0.01873   0.01505  -0.0851  0.9119  0.0146  -2.4546   0.0000   0.0000   0.0000  -0.4681
  -4.500  -0.1101   0.01836   0.01463  -0.0850  0.9093  0.0155  -2.3772   0.0000   0.0000   0.0000  -0.5321
  -4.400  -0.0998   0.01804   0.01426  -0.0848  0.9068  0.0165  -2.3000   0.0000   0.0000   0.0000  -0.6107
  -4.300  -0.0893   0.01783   0.01401  -0.0846  0.9042  0.0175  -2.2209   0.0000   0.0000   0.0000  -0.7094
  -4.200  -0.0788   0.01758   0.01370  -0.0844  0.9014  0.0182  -2.1505   0.0000   0.0000   0.0000  -0.8341
  -4.100  -0.0692   0.01632   0.01218  -0.0841  0.8980  0.0175  -2.1616   0.0000   0.0000   0.0000  -0.9788
  -4.000  -0.0579   0.01660   0.01247  -0.0839  0.8943  0.0188  -2.0505   0.0000   0.0000   0.0000  -1.2161
  -3.900  -0.0447   0.01845   0.01445  -0.0838  0.8926  0.0201  -1.8517   0.0000   0.0000   0.0000  -1.6458
  -3.800  -0.0389   0.01418   0.00976  -0.0838  0.8904  0.0235  -1.9938   0.0000   0.0000   0.0000  -1.9250
  -3.700  -0.0287   0.01398   0.00959  -0.0838  0.8878  0.0254  -1.8881   0.0000   0.0000   0.0000  -2.6986
  -3.600  -0.0183   0.01394   0.00958  -0.0838  0.8849  0.0274  -1.7814   0.0000   0.0000   0.0000  -4.3891
  -3.500  -0.0076   0.01394   0.00959  -0.0838  0.8818  0.0298  -1.6820   0.0000   0.0000   0.0000  -10.8568
  -3.400   0.0033   0.01403   0.00971  -0.0838  0.8788  0.0330  -1.5888   0.0000   0.0000   0.0000  25.7037
  -3.100   0.0343   0.01258   0.00809  -0.0834  0.8681  0.0443  -1.4083   0.0000   0.0000   0.0000   2.7007
  -3.000   0.0447   0.01242   0.00793  -0.0834  0.8635  0.0472  -1.3333   0.0000   0.0000   0.0000   2.1294
  -2.600   0.0912   0.00854   0.00341  -0.0807  0.8507  0.0174  -1.5410   0.0000   0.0000   0.0000   1.1413
  -2.500   0.1020   0.00796   0.00268  -0.0803  0.8464  0.0150  -1.5617   0.0000   0.0000   0.0000   1.0426
  -2.400   0.1132   0.00765   0.00225  -0.0800  0.8420  0.0134  -1.5492   0.0000   0.0000   0.0000   0.9619
  -2.300   0.1243   0.00748   0.00200  -0.0798  0.8373  0.0125  -1.5036   0.0000   0.0000   0.0000   0.8964
  -2.200   0.1352   0.00738   0.00183  -0.0797  0.8320  0.0119  -1.4409   0.0000   0.0000   0.0000   0.8424
  -2.100   0.1462   0.00730   0.00169  -0.0795  0.8258  0.0115  -1.3735   0.0000   0.0000   0.0000   0.7967
  -2.000   0.1573   0.00723   0.00158  -0.0794  0.8210  0.0112  -1.3039   0.0000   0.0000   0.0000   0.7571
  -1.900   0.1686   0.00716   0.00148  -0.0793  0.8169  0.0109  -1.2338   0.0000   0.0000   0.0000   0.7225
  -1.800   0.1799   0.00710   0.00139  -0.0792  0.8114  0.0107  -1.1642   0.0000   0.0000   0.0000   0.6924
  -1.700   0.1910   0.00705   0.00130  -0.0791  0.8047  0.0106  -1.0954   0.0000   0.0000   0.0000   0.6659
  -1.600   0.2019   0.00702   0.00122  -0.0790  0.7973  0.0105  -1.0274   0.0000   0.0000   0.0000   0.6424
  -1.500   0.2128   0.00700   0.00114  -0.0788  0.7895  0.0105  -0.9601   0.0000   0.0000   0.0000   0.6214
  -1.400   0.2237   0.00699   0.00107  -0.0787  0.7818  0.0106  -0.8927   0.0000   0.0000   0.0000   0.6025
  -1.300   0.2351   0.00696   0.00102  -0.0787  0.7780  0.0109  -0.8238   0.0000   0.0000   0.0000   0.5852
  -1.200   0.2464   0.00694   0.00097  -0.0786  0.7728  0.0114  -0.7545   0.0000   0.0000   0.0000   0.5695
  -1.100   0.2576   0.00692   0.00093  -0.0785  0.7661  0.0124  -0.6860   0.0000   0.0000   0.0000   0.5552
  -1.000   0.2685   0.00692   0.00090  -0.0784  0.7578  0.0141  -0.6237   0.0000   0.0000   0.0000   0.5422
  -0.900   0.2792   0.00694   0.00089  -0.0783  0.7480  0.0159  -0.5692   0.0000   0.0000   0.0000   0.5303
  -0.800   0.2900   0.00695   0.00090  -0.0781  0.7379  0.0176  -0.5239   0.0000   0.0000   0.0000   0.5193
  -0.700   0.3012   0.00693   0.00090  -0.0781  0.7328  0.0193  -0.5342   0.0000   0.0000   0.0000   0.5091
  -0.600   0.3120   0.00676   0.00087  -0.0781  0.7261  0.0616  -0.5441   0.0000   0.0000   0.0000   0.4999
  -0.500   0.3228   0.00661   0.00086  -0.0781  0.7187  0.1036  -0.5541   0.0000   0.0000   0.0000   0.4914
  -0.400   0.3333   0.00645   0.00085  -0.0781  0.7109  0.1575  -0.5640   0.0000   0.0000   0.0000   0.4836
  -0.300   0.3420   0.00572   0.00089  -0.0782  0.7018  0.4092  -0.5728   0.0000   0.0000   0.0000   0.4779
  -0.200   0.3519   0.00546   0.00091  -0.0781  0.6923  0.5119  -0.5838   0.0000   0.0000   0.0000   0.4711
  -0.100   0.3617   0.00517   0.00095  -0.0780  0.6876  0.6227  -0.5949   0.0000   0.0000   0.0000   0.4646
   0.000   0.3712   0.00497   0.00100  -0.0776  0.6810  0.7089  -0.6059   0.0000   0.0000   0.0000   0.4580
   0.100   0.3809   0.00488   0.00102  -0.0772  0.6725  0.7614  -0.6170   0.0000   0.0000   0.0000   0.4516
   0.200   0.3904   0.00485   0.00105  -0.0768  0.6627  0.7948  -0.6281   0.0000   0.0000   0.0000   0.4455
   0.300   0.3998   0.00484   0.00107  -0.0764  0.6516  0.8229  -0.6391   0.0000   0.0000   0.0000   0.4397
   0.500   0.4189   0.00477   0.00111  -0.0755  0.6402  0.8785  -0.6614   0.0000   0.0000   0.0000   0.4287
   0.600   0.4284   0.00475   0.00112  -0.0750  0.6351  0.8993  -0.6730   0.0000   0.0000   0.0000   0.4235
   0.700   0.4379   0.00474   0.00113  -0.0745  0.6284  0.9206  -0.6859   0.0000   0.0000   0.0000   0.4185
   0.800   0.4475   0.00475   0.00113  -0.0740  0.6200  0.9443  -0.6991   0.0000   0.0000   0.0000   0.4137
   0.900   0.4606   0.00479   0.00113  -0.0744  0.6086  0.9664  -0.7147   0.0000   0.0000   0.0000   0.4097
   1.000   0.4769   0.00484   0.00113  -0.0755  0.5959  0.9838  -0.7326   0.0000   0.0000   0.0000   0.4065
   1.100   0.4930   0.00485   0.00112  -0.0766  0.5904  0.9986  -0.7506   0.0000   0.0000   0.0000   0.4034
   1.200   0.5042   0.00489   0.00113  -0.0766  0.5838  1.0000  -0.7650   0.0000   0.0000   0.0000   0.3999
   1.300   0.5150   0.00494   0.00115  -0.0766  0.5764  1.0000  -0.7792   0.0000   0.0000   0.0000   0.3965
   1.400   0.5257   0.00501   0.00116  -0.0765  0.5681  1.0000  -0.7932   0.0000   0.0000   0.0000   0.3932
   1.500   0.5362   0.00508   0.00118  -0.0763  0.5584  1.0000  -0.8073   0.0000   0.0000   0.0000   0.3901
   1.600   0.5468   0.00515   0.00120  -0.0762  0.5478  1.0000  -0.8236   0.0000   0.0000   0.0000   0.3871
   1.700   0.5579   0.00518   0.00121  -0.0762  0.5436  1.0000  -0.8407   0.0000   0.0000   0.0000   0.3842
   1.800   0.5689   0.00522   0.00123  -0.0762  0.5381  1.0000  -0.8577   0.0000   0.0000   0.0000   0.3814
   1.900   0.5797   0.00528   0.00125  -0.0761  0.5301  1.0000  -0.8747   0.0000   0.0000   0.0000   0.3787
   2.000   0.5902   0.00536   0.00128  -0.0760  0.5200  1.0000  -0.8915   0.0000   0.0000   0.0000   0.3761
   2.100   0.6005   0.00546   0.00131  -0.0759  0.5076  1.0000  -0.9081   0.0000   0.0000   0.0000   0.3736
   2.200   0.6112   0.00553   0.00133  -0.0758  0.4965  1.0000  -0.9251   0.0000   0.0000   0.0000   0.3712
   2.300   0.6223   0.00556   0.00136  -0.0758  0.4930  1.0000  -0.9426   0.0000   0.0000   0.0000   0.3689
   2.400   0.6333   0.00560   0.00138  -0.0758  0.4880  1.0000  -0.9601   0.0000   0.0000   0.0000   0.3666
   2.500   0.6442   0.00566   0.00141  -0.0757  0.4816  1.0000  -0.9784   0.0000   0.0000   0.0000   0.3645
   2.600   0.6549   0.00573   0.00144  -0.0756  0.4739  1.0000  -0.9989   0.0000   0.0000   0.0000   0.3624
   2.700   0.6654   0.00581   0.00147  -0.0755  0.4650  1.0000  -1.0193   0.0000   0.0000   0.0000   0.3603
   2.800   0.6759   0.00591   0.00151  -0.0754  0.4539  1.0000  -1.0397   0.0000   0.0000   0.0000   0.3583
   2.900   0.6868   0.00596   0.00155  -0.0754  0.4461  1.0000  -1.0606   0.0000   0.0000   0.0000   0.3564
   3.000   0.6978   0.00601   0.00158  -0.0754  0.4413  1.0000  -1.0818   0.0000   0.0000   0.0000   0.3546
   3.100   0.7079   0.00613   0.00165  -0.0752  0.4244  1.0000  -1.1025   0.0000   0.0000   0.0000   0.3527
   3.200   0.7150   0.00658   0.00175  -0.0747  0.3637  1.0000  -1.1199   0.0000   0.0000   0.0000   0.3508
   3.300   0.7237   0.00687   0.00184  -0.0743  0.3243  1.0000  -1.1389   0.0000   0.0000   0.0000   0.3490
   3.400   0.7333   0.00708   0.00191  -0.0741  0.2981  1.0000  -1.1589   0.0000   0.0000   0.0000   0.3473
   3.500   0.7435   0.00721   0.00197  -0.0740  0.2852  1.0000  -1.1796   0.0000   0.0000   0.0000   0.3457
   3.600   0.7536   0.00736   0.00204  -0.0739  0.2731  1.0000  -1.2004   0.0000   0.0000   0.0000   0.3441
   3.700   0.7641   0.00747   0.00209  -0.0738  0.2606  1.0000  -1.2216   0.0000   0.0000   0.0000   0.3425
   3.800   0.7747   0.00754   0.00214  -0.0738  0.2545  1.0000  -1.2477   0.0000   0.0000   0.0000   0.3411
   3.900   0.7850   0.00767   0.00221  -0.0737  0.2435  1.0000  -1.2733   0.0000   0.0000   0.0000   0.3396
   4.000   0.7947   0.00786   0.00229  -0.0735  0.2273  1.0000  -1.2983   0.0000   0.0000   0.0000   0.3381
   4.100   0.8051   0.00797   0.00236  -0.0734  0.2163  1.0000  -1.3244   0.0000   0.0000   0.0000   0.3367
   4.200   0.8154   0.00810   0.00242  -0.0733  0.2066  1.0000  -1.3506   0.0000   0.0000   0.0000   0.3354
   4.300   0.8252   0.00828   0.00252  -0.0732  0.1933  1.0000  -1.3778   0.0000   0.0000   0.0000   0.3340
   4.400   0.8354   0.00842   0.00259  -0.0730  0.1809  1.0000  -1.4099   0.0000   0.0000   0.0000   0.3327
   4.500   0.8460   0.00850   0.00265  -0.0730  0.1760  1.0000  -1.4430   0.0000   0.0000   0.0000   0.3315
   4.600   0.8563   0.00862   0.00273  -0.0729  0.1687  1.0000  -1.4758   0.0000   0.0000   0.0000   0.3302
   4.700   0.8663   0.00878   0.00282  -0.0728  0.1593  1.0000  -1.5082   0.0000   0.0000   0.0000   0.3290
   4.800   0.8763   0.00893   0.00291  -0.0726  0.1483  1.0000  -1.5408   0.0000   0.0000   0.0000   0.3278
   4.900   0.8869   0.00901   0.00298  -0.0726  0.1435  1.0000  -1.5746   0.0000   0.0000   0.0000   0.3266
   5.000   0.8974   0.00911   0.00304  -0.0725  0.1395  1.0000  -1.6086   0.0000   0.0000   0.0000   0.3255
   5.100   0.9077   0.00922   0.00312  -0.0724  0.1342  1.0000  -1.6424   0.0000   0.0000   0.0000   0.3244
   5.200   0.9178   0.00935   0.00321  -0.0723  0.1276  1.0000  -1.6760   0.0000   0.0000   0.0000   0.3233
   5.300   0.9277   0.00951   0.00331  -0.0721  0.1192  1.0000  -1.7095   0.0000   0.0000   0.0000   0.3222
   5.400   0.9382   0.00961   0.00339  -0.0721  0.1132  1.0000  -1.7440   0.0000   0.0000   0.0000   0.3211
   5.500   0.9486   0.00971   0.00347  -0.0720  0.1099  1.0000  -1.7873   0.0000   0.0000   0.0000   0.3201
   5.600   0.9588   0.00983   0.00356  -0.0719  0.1048  1.0000  -1.8315   0.0000   0.0000   0.0000   0.3190
   5.700   0.9684   0.01002   0.00368  -0.0717  0.0962  1.0000  -1.8747   0.0000   0.0000   0.0000   0.3180
   5.800   0.9781   0.01020   0.00380  -0.0715  0.0854  1.0000  -1.9181   0.0000   0.0000   0.0000   0.3170
   5.900   0.9882   0.01033   0.00390  -0.0714  0.0807  1.0000  -2.0084   0.0000   0.0000   0.0000   0.3160
   6.000   0.9980   0.01050   0.00403  -0.0712  0.0743  1.0000  -2.1014   0.0000   0.0000   0.0000   0.3150
   6.100   1.0072   0.01073   0.00417  -0.0710  0.0646  1.0000  -2.1932   0.0000   0.0000   0.0000   0.3140
   6.200   1.0173   0.01086   0.00427  -0.0709  0.0588  1.0000  -2.2902   0.0000   0.0000   0.0000   0.3131
   6.300   1.0270   0.01103   0.00441  -0.0707  0.0530  1.0000  -2.3866   0.0000   0.0000   0.0000   0.3122
   6.400   1.0357   0.01132   0.00460  -0.0704  0.0417  1.0000  -2.4788   0.0000   0.0000   0.0000   0.3112
   6.500   1.0456   0.01147   0.00472  -0.0703  0.0369  1.0000  -2.5784   0.0000   0.0000   0.0000   0.3103
   6.600   1.0544   0.01174   0.00493  -0.0700  0.0292  1.0000  -2.6730   0.0000   0.0000   0.0000   0.3093
   6.700   1.0639   0.01193   0.00508  -0.0698  0.0228  1.0000  -2.7722   0.0000   0.0000   0.0000   0.3084
   6.800   1.0849   0.01076   0.00471  -0.0710  0.0954  1.0000  -2.9822   0.0000   0.0000   0.0000   0.3082
   6.900   1.0966   0.01070   0.00476  -0.0711  0.1026  1.0000  -3.1055   0.0000   0.0000   0.0000   0.3074
   7.000   1.1070   0.01077   0.00486  -0.0710  0.1025  1.0000  -3.2213   0.0000   0.0000   0.0000   0.3066
   7.100   1.1171   0.01090   0.00498  -0.0709  0.0998  1.0000  -3.3352   0.0000   0.0000   0.0000   0.3058
   7.200   1.1267   0.01106   0.00512  -0.0707  0.0953  1.0000  -3.4476   0.0000   0.0000   0.0000   0.3049
   7.300   1.1364   0.01122   0.00526  -0.0705  0.0891  1.0000  -3.5610   0.0000   0.0000   0.0000   0.3041
   7.400   1.1464   0.01134   0.00538  -0.0704  0.0850  1.0000  -3.6773   0.0000   0.0000   0.0000   0.3033
   7.500   1.1563   0.01147   0.00550  -0.0702  0.0823  1.0000  -3.7945   0.0000   0.0000   0.0000   0.3026
   7.600   1.1658   0.01164   0.00564  -0.0701  0.0777  1.0000  -3.9106   0.0000   0.0000   0.0000   0.3018
   7.700   1.1748   0.01187   0.00581  -0.0698  0.0711  1.0000  -4.0242   0.0000   0.0000   0.0000   0.3010
   7.800   1.1838   0.01209   0.00599  -0.0695  0.0627  1.0000  -4.1385   0.0000   0.0000   0.0000   0.3002
   7.900   1.1934   0.01225   0.00613  -0.0694  0.0589  1.0000  -4.2578   0.0000   0.0000   0.0000   0.2994
   8.000   1.2024   0.01247   0.00631  -0.0691  0.0533  1.0000  -4.3734   0.0000   0.0000   0.0000   0.2986
   8.100   1.2104   0.01280   0.00654  -0.0687  0.0437  1.0000  -4.4829   0.0000   0.0000   0.0000   0.2978
   8.200   1.2186   0.01310   0.00678  -0.0684  0.0349  1.0000  -4.5915   0.0000   0.0000   0.0000   0.2970
   8.400   1.2267   0.01480   0.00837  -0.0659  0.0060  1.0000  -4.4706   0.0000   0.0000   0.0000   0.2944
   8.500   1.2356   0.01503   0.00866  -0.0655  0.0060  1.0000  -4.5619   0.0000   0.0000   0.0000   0.2935
   8.600   1.2443   0.01528   0.00896  -0.0651  0.0061  1.0000  -4.6540   0.0000   0.0000   0.0000   0.2927
   8.700   1.2528   0.01554   0.00926  -0.0647  0.0061  1.0000  -4.7464   0.0000   0.0000   0.0000   0.2919
   8.800   1.2612   0.01581   0.00958  -0.0643  0.0062  1.0000  -4.8387   0.0000   0.0000   0.0000   0.2911
   8.900   1.2695   0.01609   0.00991  -0.0639  0.0063  1.0000  -4.9309   0.0000   0.0000   0.0000   0.2903
   9.000   1.2775   0.01638   0.01025  -0.0634  0.0064  1.0000  -5.0222   0.0000   0.0000   0.0000   0.2894
   9.100   1.2853   0.01669   0.01061  -0.0629  0.0065  1.0000  -5.1124   0.0000   0.0000   0.0000   0.2886
   9.200   1.2929   0.01702   0.01100  -0.0623  0.0066  1.0000  -5.2006   0.0000   0.0000   0.0000   0.2877
   9.300   1.3002   0.01737   0.01140  -0.0618  0.0067  1.0000  -5.2861   0.0000   0.0000   0.0000   0.2869
   9.400   1.3071   0.01774   0.01184  -0.0611  0.0069  1.0000  -5.3673   0.0000   0.0000   0.0000   0.2860
   9.500   1.3135   0.01815   0.01232  -0.0604  0.0071  1.0000  -5.4422   0.0000   0.0000   0.0000   0.2851
   9.600   1.3193   0.01862   0.01286  -0.0596  0.0073  1.0000  -5.5069   0.0000   0.0000   0.0000   0.2841
   9.700   1.3242   0.01915   0.01349  -0.0586  0.0075  1.0000  -5.5559   0.0000   0.0000   0.0000   0.2830
   9.800   1.3279   0.01979   0.01423  -0.0574  0.0078  1.0000  -5.5854   0.0000   0.0000   0.0000   0.2819
   9.900   1.3304   0.02054   0.01509  -0.0559  0.0082  1.0000  -5.5985   0.0000   0.0000   0.0000   0.2806
  10.000   1.3317   0.02140   0.01606  -0.0544  0.0086  1.0000  -5.5992   0.0000   0.0000   0.0000   0.2792
  10.100   1.3320   0.02236   0.01714  -0.0527  0.0090  1.0000  -5.5902   0.0000   0.0000   0.0000   0.2778
  10.200   1.3310   0.02342   0.01832  -0.0508  0.0095  1.0000  -5.5685   0.0000   0.0000   0.0000   0.2763
  16.800   0.9941   0.19921   0.19777  -0.1028  0.0151  1.0000  -2.7670   0.0000   0.0000   0.0000   0.3345
  16.900   0.9955   0.20116   0.19973  -0.1037  0.0149  1.0000  -2.7753   0.0000   0.0000   0.0000   0.3351
  17.000   0.9966   0.20326   0.20182  -0.1047  0.0147  1.0000  -2.7775   0.0000   0.0000   0.0000   0.3358
  17.100   0.9976   0.20539   0.20395  -0.1056  0.0145  1.0000  -2.7789   0.0000   0.0000   0.0000   0.3365
  17.200   0.9987   0.20749   0.20605  -0.1066  0.0144  1.0000  -2.7818   0.0000   0.0000   0.0000   0.3372
  17.300   0.9999   0.20957   0.20813  -0.1075  0.0142  1.0000  -2.7863   0.0000   0.0000   0.0000   0.3379
  17.400   1.0010   0.21163   0.21020  -0.1084  0.0140  1.0000  -2.7919   0.0000   0.0000   0.0000   0.3385
  17.500   1.0021   0.21371   0.21228  -0.1093  0.0139  1.0000  -2.7978   0.0000   0.0000   0.0000   0.3391
  17.600   1.0031   0.21582   0.21439  -0.1102  0.0137  1.0000  -2.8025   0.0000   0.0000   0.0000   0.3398
  17.700   1.0036   0.21809   0.21666  -0.1112  0.0134  1.0000  -2.8003   0.0000   0.0000   0.0000   0.3405
  17.800   0.9780   0.23352   0.23203  -0.1160  0.0122  1.0000  -2.1694   0.0000   0.0000   0.0000   0.3489
  17.900   0.9791   0.23609   0.23461  -0.1169  0.0122  1.0000  -2.1501   0.0000   0.0000   0.0000   0.3497
  18.000   0.9802   0.23866   0.23718  -0.1178  0.0122  1.0000  -2.1316   0.0000   0.0000   0.0000   0.3504
  18.100   0.9813   0.24122   0.23974  -0.1188  0.0122  1.0000  -2.1139   0.0000   0.0000   0.0000   0.3510
  18.200   0.9824   0.24377   0.24229  -0.1197  0.0122  1.0000  -2.0970   0.0000   0.0000   0.0000   0.3517
  18.300   0.9835   0.24631   0.24483  -0.1206  0.0121  1.0000  -2.0808   0.0000   0.0000   0.0000   0.3524
  18.400   0.9847   0.24883   0.24736  -0.1215  0.0121  1.0000  -2.0653   0.0000   0.0000   0.0000   0.3530
  18.500   0.9858   0.25135   0.24988  -0.1223  0.0121  1.0000  -2.0505   0.0000   0.0000   0.0000   0.3536
  18.600   0.9869   0.25386   0.25239  -0.1232  0.0121  1.0000  -2.0363   0.0000   0.0000   0.0000   0.3543
  18.700   0.9880   0.25636   0.25489  -0.1241  0.0121  1.0000  -2.0228   0.0000   0.0000   0.0000   0.3549
  18.800   0.9891   0.25885   0.25738  -0.1249  0.0121  1.0000  -2.0100   0.0000   0.0000   0.0000   0.3554
  18.900   0.9902   0.26132   0.25986  -0.1258  0.0121  1.0000  -1.9978   0.0000   0.0000   0.0000   0.3560
  19.000   0.9913   0.26378   0.26232  -0.1266  0.0121  1.0000  -1.9863   0.0000   0.0000   0.0000   0.3566
  19.100   0.9924   0.26623   0.26477  -0.1274  0.0120  1.0000  -1.9755   0.0000   0.0000   0.0000   0.3572
  19.200   0.9934   0.26866   0.26720  -0.1283  0.0120  1.0000  -1.9655   0.0000   0.0000   0.0000   0.3577
  19.300   0.9944   0.27108   0.26962  -0.1291  0.0120  1.0000  -1.9563   0.0000   0.0000   0.0000   0.3582
  19.400   0.9955   0.27346   0.27201  -0.1299  0.0120  1.0000  -1.9481   0.0000   0.0000   0.0000   0.3588
  19.500   0.9965   0.27582   0.27437  -0.1307  0.0120  1.0000  -1.9411   0.0000   0.0000   0.0000   0.3593
  19.600   0.9976   0.27814   0.27669  -0.1314  0.0119  1.0000  -1.9356   0.0000   0.0000   0.0000   0.3598
  19.700   0.9987   0.28041   0.27896  -0.1322  0.0119  1.0000  -1.9321   0.0000   0.0000   0.0000   0.3602
  19.800   0.9998   0.28260   0.28116  -0.1329  0.0118  1.0000  -1.9317   0.0000   0.0000   0.0000   0.3607
  19.900   1.0012   0.28465   0.28322  -0.1337  0.0117  1.0000  -1.9365   0.0000   0.0000   0.0000   0.3611
  20.000   1.0032   0.28642   0.28499  -0.1344  0.0116  1.0000  -1.9532   0.0000   0.0000   0.0000   0.3613
  24.000   0.8723   0.31643   0.31533  -0.1418  0.0040  1.0000  -1.4219   0.0000   0.0000   0.0000   0.3860
  24.100   0.8713   0.31710   0.31600  -0.1421  0.0040  1.0000  -1.4113   0.0000   0.0000   0.0000   0.3864
  24.200   0.8704   0.31777   0.31668  -0.1424  0.0040  1.0000  -1.4008   0.0000   0.0000   0.0000   0.3868
  24.300   0.8695   0.31845   0.31736  -0.1428  0.0040  1.0000  -1.3907   0.0000   0.0000   0.0000   0.3872
  24.400   0.8687   0.31913   0.31805  -0.1431  0.0040  1.0000  -1.3810   0.0000   0.0000   0.0000   0.3877
  24.500   0.8679   0.31982   0.31875  -0.1435  0.0040  1.0000  -1.3717   0.0000   0.0000   0.0000   0.3881


