xflr5 v6.61

 Calculated polar for: SD7037-092-88

 1 1 Reynolds number fixed          Mach number fixed         

 xtrf =   1.000 (top)        1.000 (bottom)
 Mach =   0.000     Re =     0.688 e 6     Ncrit =   9.000

  alpha     CL        CD       CDp       Cm    Top Xtr Bot Xtr   Cpmin    Chinge    XCp    
 ------- -------- --------- --------- -------- ------- ------- -------- --------- ---------
 -10.000  -0.3825   0.10466   0.10253  -0.0266  1.0000  0.0086  -2.2039   0.0000   0.0000   0.0000   0.1731
  -9.900  -0.3827   0.10288   0.10075  -0.0272  1.0000  0.0087  -2.2439   0.0000   0.0000   0.0000   0.1716
  -9.800  -0.3822   0.10132   0.09919  -0.0278  1.0000  0.0089  -2.2639   0.0000   0.0000   0.0000   0.1701
  -9.700  -0.3813   0.09987   0.09776  -0.0283  1.0000  0.0090  -2.2736   0.0000   0.0000   0.0000   0.1686
  -9.600  -0.3802   0.09851   0.09640  -0.0288  1.0000  0.0091  -2.2771   0.0000   0.0000   0.0000   0.1671
  -9.500  -0.3790   0.09719   0.09509  -0.0293  1.0000  0.0092  -2.2769   0.0000   0.0000   0.0000   0.1657
  -9.400  -0.3777   0.09592   0.09382  -0.0297  1.0000  0.0093  -2.2743   0.0000   0.0000   0.0000   0.1643
  -9.300  -0.3765   0.09467   0.09258  -0.0302  1.0000  0.0094  -2.2703   0.0000   0.0000   0.0000   0.1629
  -9.200  -0.3753   0.09344   0.09136  -0.0306  1.0000  0.0095  -2.2657   0.0000   0.0000   0.0000   0.1616
  -9.100  -0.3741   0.09223   0.09016  -0.0311  1.0000  0.0096  -2.2607   0.0000   0.0000   0.0000   0.1603
  -9.000  -0.3730   0.09103   0.08896  -0.0315  1.0000  0.0097  -2.2557   0.0000   0.0000   0.0000   0.1589
  -8.900  -0.3718   0.08981   0.08776  -0.0319  1.0000  0.0098  -2.2507   0.0000   0.0000   0.0000   0.1576
  -8.800  -0.3708   0.08860   0.08656  -0.0324  1.0000  0.0098  -2.2462   0.0000   0.0000   0.0000   0.1563
  -8.700  -0.3695   0.08748   0.08544  -0.0327  1.0000  0.0099  -2.2339   0.0000   0.0000   0.0000   0.1551
  -8.600  -0.3684   0.08637   0.08434  -0.0330  1.0000  0.0100  -2.2231   0.0000   0.0000   0.0000   0.1542
  -8.500  -0.3677   0.08526   0.08324  -0.0333  1.0000  0.0101  -2.2141   0.0000   0.0000   0.0000   0.1533
  -8.400  -0.3672   0.08416   0.08216  -0.0335  1.0000  0.0102  -2.2072   0.0000   0.0000   0.0000   0.1527
  -8.300  -0.3672   0.08309   0.08109  -0.0337  1.0000  0.0103  -2.2027   0.0000   0.0000   0.0000   0.1524
  -8.200  -0.3678   0.08205   0.08007  -0.0337  1.0000  0.0104  -2.2009   0.0000   0.0000   0.0000   0.1525
  -8.100  -0.3691   0.08105   0.07908  -0.0337  1.0000  0.0105  -2.2022   0.0000   0.0000   0.0000   0.1532
  -8.000  -0.3718   0.08014   0.07819  -0.0333  1.0000  0.0105  -2.2080   0.0000   0.0000   0.0000   0.1549
  -7.900  -0.3766   0.07939   0.07746  -0.0325  1.0000  0.0106  -2.2204   0.0000   0.0000   0.0000   0.1585
  -7.800  -0.3837   0.07882   0.07692  -0.0311  1.0000  0.0106  -2.2402   0.0000   0.0000   0.0000   0.1640
  -7.700  -0.3927   0.07837   0.07650  -0.0293  1.0000  0.0106  -2.2658   0.0000   0.0000   0.0000   0.1705
  -7.600  -0.3896   0.07690   0.07503  -0.0309  0.9990  0.0107  -2.2609   0.0000   0.0000   0.0000   0.1659
  -7.500  -0.3827   0.07510   0.07323  -0.0336  0.9974  0.0108  -2.2484   0.0000   0.0000   0.0000   0.1574
  -7.400  -0.3760   0.07323   0.07136  -0.0365  0.9954  0.0110  -2.2407   0.0000   0.0000   0.0000   0.1483
  -7.300  -0.3678   0.07113   0.06926  -0.0399  0.9933  0.0112  -2.2337   0.0000   0.0000   0.0000   0.1367
  -7.200  -0.3584   0.06884   0.06697  -0.0440  0.9916  0.0114  -2.2302   0.0000   0.0000   0.0000   0.1226
  -7.100  -0.3486   0.06641   0.06453  -0.0484  0.9900  0.0116  -2.2323   0.0000   0.0000   0.0000   0.1064
  -7.000  -0.3378   0.06379   0.06190  -0.0533  0.9887  0.0118  -2.2393   0.0000   0.0000   0.0000   0.0876
  -6.900  -0.3262   0.06102   0.05910  -0.0583  0.9877  0.0121  -2.2505   0.0000   0.0000   0.0000   0.0665
  -6.800  -0.3157   0.05830   0.05636  -0.0628  0.9861  0.0123  -2.2661   0.0000   0.0000   0.0000   0.0462
  -6.700  -0.3065   0.05573   0.05375  -0.0666  0.9836  0.0125  -2.2846   0.0000   0.0000   0.0000   0.0279
  -6.600  -0.2959   0.05306   0.05104  -0.0705  0.9816  0.0128  -2.3022   0.0000   0.0000   0.0000   0.0070
  -6.500  -0.2845   0.05038   0.04831  -0.0742  0.9799  0.0132  -2.3189   0.0000   0.0000   0.0000  -0.0159
  -6.400  -0.2729   0.04779   0.04565  -0.0776  0.9782  0.0135  -2.3343   0.0000   0.0000   0.0000  -0.0395
  -6.300  -0.2614   0.04531   0.04310  -0.0806  0.9766  0.0140  -2.3481   0.0000   0.0000   0.0000  -0.0637
  -6.200  -0.2499   0.04295   0.04067  -0.0832  0.9750  0.0145  -2.3602   0.0000   0.0000   0.0000  -0.0884
  -6.100  -0.2385   0.04076   0.03839  -0.0854  0.9734  0.0151  -2.3695   0.0000   0.0000   0.0000  -0.1138
  -6.000  -0.2267   0.03876   0.03629  -0.0873  0.9720  0.0157  -2.3724   0.0000   0.0000   0.0000  -0.1410
  -5.900  -0.2188   0.03728   0.03473  -0.0878  0.9691  0.0164  -2.3705   0.0000   0.0000   0.0000  -0.1576
  -5.800  -0.2106   0.03605   0.03344  -0.0880  0.9660  0.0172  -2.3584   0.0000   0.0000   0.0000  -0.1745
  -5.700  -0.2002   0.03530   0.03263  -0.0882  0.9634  0.0181  -2.3188   0.0000   0.0000   0.0000  -0.1971
  -5.600  -0.1853   0.03629   0.03363  -0.0877  0.9618  0.0195  -2.1879   0.0000   0.0000   0.0000  -0.2301
  -5.500  -0.1728   0.03657   0.03386  -0.0876  0.9596  0.0200  -2.1014   0.0000   0.0000   0.0000  -0.2643
  -5.400  -0.1636   0.03563   0.03283  -0.0879  0.9569  0.0201  -2.0779   0.0000   0.0000   0.0000  -0.2948
  -5.300  -0.1548   0.03454   0.03163  -0.0882  0.9544  0.0202  -2.0614   0.0000   0.0000   0.0000  -0.3275
  -5.200  -0.1460   0.03342   0.03040  -0.0885  0.9519  0.0202  -2.0457   0.0000   0.0000   0.0000  -0.3646
  -5.100  -0.1379   0.03234   0.02923  -0.0886  0.9494  0.0203  -2.0304   0.0000   0.0000   0.0000  -0.4009
  -5.000  -0.1465   0.02424   0.02060  -0.0894  0.9436  0.0227  -2.3743   0.0000   0.0000   0.0000  -0.3692
  -4.900  -0.1383   0.02349   0.01983  -0.0893  0.9411  0.0236  -2.3021   0.0000   0.0000   0.0000  -0.4047
  -4.800  -0.1295   0.02303   0.01934  -0.0892  0.9385  0.0245  -2.2199   0.0000   0.0000   0.0000  -0.4482
  -4.700  -0.1204   0.02269   0.01900  -0.0891  0.9360  0.0254  -2.1322   0.0000   0.0000   0.0000  -0.4995
  -4.600  -0.1113   0.02233   0.01862  -0.0889  0.9335  0.0265  -2.0522   0.0000   0.0000   0.0000  -0.5585
  -4.500  -0.1021   0.02195   0.01820  -0.0887  0.9309  0.0277  -1.9801   0.0000   0.0000   0.0000  -0.6296
  -4.400  -0.0925   0.02153   0.01772  -0.0885  0.9283  0.0292  -1.9168   0.0000   0.0000   0.0000  -0.7182
  -4.300  -0.0826   0.02088   0.01686  -0.0882  0.9253  0.0301  -1.8801   0.0000   0.0000   0.0000  -0.8305
  -4.200  -0.0724   0.02071   0.01667  -0.0880  0.9231  0.0325  -1.8091   0.0000   0.0000   0.0000  -0.9795
  -4.100  -0.0611   0.02110   0.01707  -0.0876  0.9209  0.0353  -1.7226   0.0000   0.0000   0.0000  -1.2000
  -4.000  -0.0468   0.02341   0.01949  -0.0870  0.9189  0.0376  -1.5706   0.0000   0.0000   0.0000  -1.6282
  -3.900  -0.0362   0.02334   0.01934  -0.0867  0.9162  0.0378  -1.5194   0.0000   0.0000   0.0000  -2.1660
  -3.800  -0.0341   0.01769   0.01328  -0.0872  0.9126  0.0426  -1.6494   0.0000   0.0000   0.0000  -2.3313
  -3.700  -0.0246   0.01730   0.01290  -0.0870  0.9097  0.0448  -1.5758   0.0000   0.0000   0.0000  -3.3230
  -3.600  -0.0147   0.01687   0.01246  -0.0868  0.9067  0.0464  -1.5169   0.0000   0.0000   0.0000  -5.7226
  -3.500  -0.0045   0.01644   0.01200  -0.0865  0.9037  0.0481  -1.4635   0.0000   0.0000   0.0000  -18.9816
  -3.400   0.0058   0.01600   0.01151  -0.0863  0.9006  0.0498  -1.4153   0.0000   0.0000   0.0000  15.3312
  -3.300   0.0163   0.01556   0.01101  -0.0860  0.8972  0.0515  -1.3714   0.0000   0.0000   0.0000   5.5642
  -3.200   0.0272   0.01511   0.01049  -0.0857  0.8939  0.0531  -1.3306   0.0000   0.0000   0.0000   3.4315
  -3.100   0.0380   0.01462   0.00995  -0.0855  0.8917  0.0543  -1.2926   0.0000   0.0000   0.0000   2.5150
  -3.000   0.0518   0.01089   0.00552  -0.0833  0.8896  0.0232  -1.6502   0.0000   0.0000   0.0000   1.8724
  -2.900   0.0636   0.01100   0.00564  -0.0831  0.8868  0.0194  -1.6003   0.0000   0.0000   0.0000   1.5672
  -2.800   0.0735   0.00989   0.00441  -0.0825  0.8838  0.0175  -1.6420   0.0000   0.0000   0.0000   1.3821
  -2.700   0.0839   0.00936   0.00378  -0.0821  0.8804  0.0162  -1.6332   0.0000   0.0000   0.0000   1.2363
  -2.600   0.0945   0.00897   0.00330  -0.0818  0.8767  0.0152  -1.6097   0.0000   0.0000   0.0000   1.1216
  -2.500   0.1052   0.00868   0.00292  -0.0814  0.8729  0.0145  -1.5765   0.0000   0.0000   0.0000   1.0293
  -2.400   0.1161   0.00846   0.00262  -0.0812  0.8688  0.0139  -1.5350   0.0000   0.0000   0.0000   0.9538
  -2.300   0.1269   0.00830   0.00238  -0.0809  0.8645  0.0135  -1.4850   0.0000   0.0000   0.0000   0.8912
  -2.200   0.1380   0.00819   0.00220  -0.0807  0.8598  0.0131  -1.4262   0.0000   0.0000   0.0000   0.8383
  -2.100   0.1491   0.00808   0.00206  -0.0806  0.8569  0.0129  -1.3618   0.0000   0.0000   0.0000   0.7934
  -2.000   0.1602   0.00799   0.00194  -0.0805  0.8534  0.0127  -1.2946   0.0000   0.0000   0.0000   0.7547
  -1.900   0.1714   0.00792   0.00183  -0.0804  0.8495  0.0126  -1.2260   0.0000   0.0000   0.0000   0.7211
  -1.800   0.1824   0.00785   0.00172  -0.0802  0.8450  0.0126  -1.1570   0.0000   0.0000   0.0000   0.6916
  -1.700   0.1935   0.00780   0.00163  -0.0801  0.8401  0.0126  -1.0880   0.0000   0.0000   0.0000   0.6655
  -1.600   0.2044   0.00775   0.00153  -0.0799  0.8347  0.0128  -1.0191   0.0000   0.0000   0.0000   0.6422
  -1.500   0.2153   0.00772   0.00144  -0.0797  0.8287  0.0131  -0.9503   0.0000   0.0000   0.0000   0.6213
  -1.400   0.2262   0.00770   0.00137  -0.0796  0.8223  0.0136  -0.8812   0.0000   0.0000   0.0000   0.6025
  -1.300   0.2374   0.00765   0.00132  -0.0795  0.8181  0.0144  -0.8109   0.0000   0.0000   0.0000   0.5854
  -1.200   0.2486   0.00761   0.00128  -0.0794  0.8127  0.0158  -0.7425   0.0000   0.0000   0.0000   0.5699
  -1.100   0.2596   0.00758   0.00126  -0.0793  0.8067  0.0174  -0.6795   0.0000   0.0000   0.0000   0.5557
  -1.000   0.2706   0.00755   0.00124  -0.0792  0.8004  0.0190  -0.6227   0.0000   0.0000   0.0000   0.5428
  -0.900   0.2812   0.00736   0.00119  -0.0791  0.7939  0.0572  -0.5722   0.0000   0.0000   0.0000   0.5313
  -0.800   0.2917   0.00723   0.00115  -0.0790  0.7865  0.0935  -0.5247   0.0000   0.0000   0.0000   0.5206
  -0.700   0.3022   0.00703   0.00113  -0.0790  0.7801  0.1471  -0.5340   0.0000   0.0000   0.0000   0.5110
  -0.600   0.3129   0.00684   0.00113  -0.0790  0.7746  0.2025  -0.5440   0.0000   0.0000   0.0000   0.5020
  -0.500   0.3234   0.00662   0.00113  -0.0790  0.7675  0.2708  -0.5539   0.0000   0.0000   0.0000   0.4938
  -0.400   0.3336   0.00639   0.00113  -0.0789  0.7592  0.3510  -0.5637   0.0000   0.0000   0.0000   0.4860
  -0.300   0.3367   0.00524   0.00134  -0.0777  0.7510  0.7650  -0.5697   0.0000   0.0000   0.0000   0.4799
  -0.200   0.3447   0.00514   0.00137  -0.0768  0.7414  0.8178  -0.5793   0.0000   0.0000   0.0000   0.4719
  -0.100   0.3541   0.00510   0.00138  -0.0763  0.7354  0.8479  -0.5903   0.0000   0.0000   0.0000   0.4644
   0.000   0.3632   0.00505   0.00139  -0.0756  0.7300  0.8731  -0.6010   0.0000   0.0000   0.0000   0.4573
   0.100   0.3724   0.00503   0.00139  -0.0751  0.7234  0.8962  -0.6119   0.0000   0.0000   0.0000   0.4504
   0.200   0.3816   0.00502   0.00139  -0.0745  0.7157  0.9197  -0.6228   0.0000   0.0000   0.0000   0.4439
   0.300   0.3922   0.00502   0.00138  -0.0742  0.7067  0.9426  -0.6345   0.0000   0.0000   0.0000   0.4378
   0.400   0.4060   0.00506   0.00136  -0.0746  0.6955  0.9622  -0.6483   0.0000   0.0000   0.0000   0.4324
   0.500   0.4230   0.00506   0.00133  -0.0758  0.6885  0.9802  -0.6642   0.0000   0.0000   0.0000   0.4278
   0.600   0.4405   0.00507   0.00131  -0.0772  0.6808  0.9973  -0.6815   0.0000   0.0000   0.0000   0.4238
   0.700   0.4520   0.00511   0.00131  -0.0773  0.6727  1.0000  -0.6959   0.0000   0.0000   0.0000   0.4194
   0.800   0.4625   0.00517   0.00131  -0.0771  0.6646  1.0000  -0.7096   0.0000   0.0000   0.0000   0.4151
   0.900   0.4728   0.00524   0.00132  -0.0770  0.6555  1.0000  -0.7232   0.0000   0.0000   0.0000   0.4110
   1.000   0.4831   0.00531   0.00133  -0.0768  0.6453  1.0000  -0.7369   0.0000   0.0000   0.0000   0.4071
   1.100   0.4941   0.00533   0.00133  -0.0768  0.6407  1.0000  -0.7511   0.0000   0.0000   0.0000   0.4034
   1.200   0.5050   0.00537   0.00134  -0.0767  0.6339  1.0000  -0.7653   0.0000   0.0000   0.0000   0.3998
   1.300   0.5157   0.00542   0.00135  -0.0766  0.6253  1.0000  -0.7793   0.0000   0.0000   0.0000   0.3964
   1.400   0.5260   0.00549   0.00137  -0.0764  0.6153  1.0000  -0.7932   0.0000   0.0000   0.0000   0.3931
   1.500   0.5362   0.00558   0.00138  -0.0762  0.6038  1.0000  -0.8070   0.0000   0.0000   0.0000   0.3899
   1.600   0.5468   0.00564   0.00140  -0.0761  0.5950  1.0000  -0.8232   0.0000   0.0000   0.0000   0.3868
   1.700   0.5579   0.00567   0.00142  -0.0761  0.5904  1.0000  -0.8402   0.0000   0.0000   0.0000   0.3840
   1.800   0.5688   0.00571   0.00144  -0.0760  0.5843  1.0000  -0.8572   0.0000   0.0000   0.0000   0.3812
   1.900   0.5796   0.00577   0.00146  -0.0759  0.5770  1.0000  -0.8741   0.0000   0.0000   0.0000   0.3785
   2.000   0.5901   0.00584   0.00148  -0.0758  0.5686  1.0000  -0.8910   0.0000   0.0000   0.0000   0.3758
   2.100   0.6004   0.00593   0.00151  -0.0757  0.5584  1.0000  -0.9076   0.0000   0.0000   0.0000   0.3733
   2.200   0.6108   0.00602   0.00154  -0.0755  0.5466  1.0000  -0.9243   0.0000   0.0000   0.0000   0.3708
   2.300   0.6218   0.00605   0.00156  -0.0755  0.5416  1.0000  -0.9417   0.0000   0.0000   0.0000   0.3685
   2.400   0.6326   0.00610   0.00159  -0.0754  0.5342  1.0000  -0.9590   0.0000   0.0000   0.0000   0.3663
   2.500   0.6432   0.00617   0.00162  -0.0753  0.5251  1.0000  -0.9768   0.0000   0.0000   0.0000   0.3641
   2.600   0.6536   0.00626   0.00165  -0.0752  0.5155  1.0000  -0.9970   0.0000   0.0000   0.0000   0.3619
   2.700   0.6639   0.00636   0.00169  -0.0750  0.5050  1.0000  -1.0171   0.0000   0.0000   0.0000   0.3598
   2.800   0.6745   0.00644   0.00173  -0.0750  0.4962  1.0000  -1.0376   0.0000   0.0000   0.0000   0.3578
   2.900   0.6855   0.00647   0.00176  -0.0749  0.4920  1.0000  -1.0587   0.0000   0.0000   0.0000   0.3559
   3.000   0.6964   0.00652   0.00179  -0.0749  0.4862  1.0000  -1.0798   0.0000   0.0000   0.0000   0.3541
   3.100   0.7072   0.00658   0.00187  -0.0748  0.4797  1.0000  -1.1010   0.0000   0.0000   0.0000   0.3523
   3.200   0.7176   0.00667   0.00190  -0.0747  0.4700  1.0000  -1.1218   0.0000   0.0000   0.0000   0.3505
   3.300   0.7269   0.00686   0.00196  -0.0744  0.4464  1.0000  -1.1415   0.0000   0.0000   0.0000   0.3487
   3.400   0.7370   0.00698   0.00199  -0.0743  0.4286  1.0000  -1.1622   0.0000   0.0000   0.0000   0.3470
   3.500   0.7458   0.00722   0.00206  -0.0739  0.3997  1.0000  -1.1816   0.0000   0.0000   0.0000   0.3452
   3.600   0.7560   0.00734   0.00211  -0.0738  0.3829  1.0000  -1.2025   0.0000   0.0000   0.0000   0.3436
   3.700   0.7650   0.00758   0.00219  -0.0735  0.3578  1.0000  -1.2222   0.0000   0.0000   0.0000   0.3420
   3.800   0.7752   0.00771   0.00225  -0.0734  0.3426  1.0000  -1.2473   0.0000   0.0000   0.0000   0.3405
   3.900   0.7850   0.00787   0.00231  -0.0732  0.3260  1.0000  -1.2725   0.0000   0.0000   0.0000   0.3390
   4.000   0.7946   0.00806   0.00240  -0.0730  0.3065  1.0000  -1.2973   0.0000   0.0000   0.0000   0.3375
   4.100   0.8051   0.00815   0.00245  -0.0729  0.2983  1.0000  -1.3236   0.0000   0.0000   0.0000   0.3362
   4.200   0.8154   0.00826   0.00251  -0.0728  0.2889  1.0000  -1.3498   0.0000   0.0000   0.0000   0.3348
   4.300   0.8255   0.00840   0.00258  -0.0727  0.2788  1.0000  -1.3790   0.0000   0.0000   0.0000   0.3334
   4.400   0.8355   0.00855   0.00267  -0.0726  0.2661  1.0000  -1.4107   0.0000   0.0000   0.0000   0.3321
   4.500   0.8459   0.00865   0.00273  -0.0725  0.2582  1.0000  -1.4435   0.0000   0.0000   0.0000   0.3309
   4.600   0.8563   0.00875   0.00280  -0.0724  0.2510  1.0000  -1.4765   0.0000   0.0000   0.0000   0.3296
   4.700   0.8664   0.00888   0.00288  -0.0723  0.2409  1.0000  -1.5091   0.0000   0.0000   0.0000   0.3284
   4.800   0.8762   0.00906   0.00297  -0.0721  0.2293  1.0000  -1.5414   0.0000   0.0000   0.0000   0.3272
   4.900   0.8864   0.00918   0.00306  -0.0720  0.2190  1.0000  -1.5745   0.0000   0.0000   0.0000   0.3260
   5.000   0.8968   0.00928   0.00313  -0.0719  0.2134  1.0000  -1.6082   0.0000   0.0000   0.0000   0.3249
   5.100   0.9070   0.00941   0.00321  -0.0718  0.2053  1.0000  -1.6417   0.0000   0.0000   0.0000   0.3238
   5.200   0.9167   0.00958   0.00330  -0.0716  0.1949  1.0000  -1.6747   0.0000   0.0000   0.0000   0.3226
   5.300   0.9265   0.00975   0.00341  -0.0715  0.1827  1.0000  -1.7078   0.0000   0.0000   0.0000   0.3215
   5.400   0.9369   0.00985   0.00350  -0.0714  0.1771  1.0000  -1.7422   0.0000   0.0000   0.0000   0.3205
   5.500   0.9470   0.00998   0.00359  -0.0713  0.1701  1.0000  -1.7788   0.0000   0.0000   0.0000   0.3194
   5.600   0.9567   0.01015   0.00370  -0.0711  0.1610  1.0000  -1.8218   0.0000   0.0000   0.0000   0.3184
   5.700   0.9663   0.01034   0.00381  -0.0709  0.1502  1.0000  -1.8648   0.0000   0.0000   0.0000   0.3174
   5.800   0.9764   0.01046   0.00391  -0.0708  0.1434  1.0000  -1.9140   0.0000   0.0000   0.0000   0.3164
   5.900   0.9864   0.01060   0.00401  -0.0707  0.1371  1.0000  -1.9887   0.0000   0.0000   0.0000   0.3154
   6.000   0.9959   0.01080   0.00414  -0.0705  0.1278  1.0000  -2.0800   0.0000   0.0000   0.0000   0.3144
   6.100   1.0053   0.01100   0.00426  -0.0703  0.1174  1.0000  -2.1722   0.0000   0.0000   0.0000   0.3134
   6.200   1.0154   0.01112   0.00437  -0.0702  0.1119  1.0000  -2.2690   0.0000   0.0000   0.0000   0.3125
   6.300   1.0254   0.01125   0.00448  -0.0700  0.1070  1.0000  -2.3667   0.0000   0.0000   0.0000   0.3116
   6.400   1.0349   0.01144   0.00462  -0.0699  0.0998  1.0000  -2.4633   0.0000   0.0000   0.0000   0.3107
   6.500   1.0440   0.01167   0.00477  -0.0696  0.0905  1.0000  -2.5585   0.0000   0.0000   0.0000   0.3097
   6.600   1.0538   0.01182   0.00488  -0.0695  0.0837  1.0000  -2.6587   0.0000   0.0000   0.0000   0.3089
   6.700   1.0635   0.01199   0.00502  -0.0693  0.0777  1.0000  -2.7590   0.0000   0.0000   0.0000   0.3080
   6.800   1.0794   0.01144   0.00511  -0.0698  0.1236  1.0000  -2.9373   0.0000   0.0000   0.0000   0.3074
   6.900   1.0908   0.01140   0.00520  -0.0698  0.1304  1.0000  -3.0607   0.0000   0.0000   0.0000   0.3066
   7.000   1.1011   0.01150   0.00532  -0.0697  0.1294  1.0000  -3.1750   0.0000   0.0000   0.0000   0.3057
   7.100   1.1109   0.01165   0.00546  -0.0695  0.1258  1.0000  -3.2871   0.0000   0.0000   0.0000   0.3049
   7.200   1.1205   0.01181   0.00560  -0.0693  0.1202  1.0000  -3.3984   0.0000   0.0000   0.0000   0.3041
   7.300   1.1302   0.01196   0.00575  -0.0692  0.1139  1.0000  -3.5113   0.0000   0.0000   0.0000   0.3033
   7.400   1.1402   0.01208   0.00588  -0.0690  0.1117  1.0000  -3.6273   0.0000   0.0000   0.0000   0.3025
   7.500   1.1500   0.01222   0.00602  -0.0689  0.1080  1.0000  -3.7428   0.0000   0.0000   0.0000   0.3017
   7.600   1.1593   0.01240   0.00617  -0.0687  0.1026  1.0000  -3.8570   0.0000   0.0000   0.0000   0.3009
   7.700   1.1682   0.01263   0.00634  -0.0684  0.0959  1.0000  -3.9695   0.0000   0.0000   0.0000   0.3001
   7.800   1.1773   0.01285   0.00651  -0.0681  0.0876  1.0000  -4.0833   0.0000   0.0000   0.0000   0.2993
   7.900   1.1869   0.01300   0.00666  -0.0680  0.0837  1.0000  -4.2017   0.0000   0.0000   0.0000   0.2986
   8.000   1.1962   0.01317   0.00683  -0.0677  0.0792  1.0000  -4.3194   0.0000   0.0000   0.0000   0.2978
   8.100   1.2048   0.01343   0.00702  -0.0675  0.0726  1.0000  -4.4332   0.0000   0.0000   0.0000   0.2970
   8.200   1.2130   0.01371   0.00723  -0.0671  0.0637  1.0000  -4.5449   0.0000   0.0000   0.0000   0.2962
   8.300   1.2221   0.01391   0.00740  -0.0669  0.0578  1.0000  -4.6608   0.0000   0.0000   0.0000   0.2955
   8.400   1.2289   0.01434   0.00771  -0.0664  0.0460  1.0000  -4.7595   0.0000   0.0000   0.0000   0.2946
   8.500   1.2256   0.01598   0.00900  -0.0642  0.0081  1.0000  -4.5958   0.0000   0.0000   0.0000   0.2929
   8.600   1.2342   0.01625   0.00933  -0.0637  0.0079  1.0000  -4.6736   0.0000   0.0000   0.0000   0.2920
   8.700   1.2426   0.01651   0.00966  -0.0633  0.0078  1.0000  -4.7567   0.0000   0.0000   0.0000   0.2912
   8.800   1.2509   0.01679   0.00999  -0.0629  0.0077  1.0000  -4.8418   0.0000   0.0000   0.0000   0.2904
   8.900   1.2591   0.01707   0.01034  -0.0624  0.0076  1.0000  -4.9274   0.0000   0.0000   0.0000   0.2895
   9.000   1.2670   0.01737   0.01070  -0.0619  0.0076  1.0000  -5.0123   0.0000   0.0000   0.0000   0.2887
   9.100   1.2747   0.01769   0.01108  -0.0614  0.0077  1.0000  -5.0957   0.0000   0.0000   0.0000   0.2878
   9.200   1.2821   0.01803   0.01149  -0.0608  0.0077  1.0000  -5.1766   0.0000   0.0000   0.0000   0.2870
   9.300   1.2891   0.01840   0.01193  -0.0602  0.0077  1.0000  -5.2541   0.0000   0.0000   0.0000   0.2861
   9.400   1.2957   0.01880   0.01240  -0.0595  0.0078  1.0000  -5.3275   0.0000   0.0000   0.0000   0.2851
   9.500   1.3018   0.01923   0.01291  -0.0587  0.0079  1.0000  -5.3959   0.0000   0.0000   0.0000   0.2842
   9.600   1.3074   0.01969   0.01345  -0.0578  0.0080  1.0000  -5.4584   0.0000   0.0000   0.0000   0.2832
   9.700   1.3124   0.02020   0.01403  -0.0569  0.0081  1.0000  -5.5153   0.0000   0.0000   0.0000   0.2822
   9.800   1.3168   0.02074   0.01466  -0.0559  0.0082  1.0000  -5.5670   0.0000   0.0000   0.0000   0.2811
   9.900   1.3205   0.02132   0.01532  -0.0548  0.0083  1.0000  -5.6137   0.0000   0.0000   0.0000   0.2800
  10.000   1.3236   0.02194   0.01602  -0.0536  0.0084  1.0000  -5.6554   0.0000   0.0000   0.0000   0.2789
  10.100   1.3257   0.02257   0.01674  -0.0522  0.0086  1.0000  -5.6909   0.0000   0.0000   0.0000   0.2776
  10.200   1.3268   0.02323   0.01748  -0.0507  0.0087  1.0000  -5.7211   0.0000   0.0000   0.0000   0.2763
  10.300   1.3258   0.02409   0.01850  -0.0489  0.0089  1.0000  -5.7069   0.0000   0.0000   0.0000   0.2749
  10.400   1.3258   0.02489   0.01937  -0.0473  0.0091  1.0000  -5.7229   0.0000   0.0000   0.0000   0.2735
  10.500   1.3259   0.02573   0.02031  -0.0458  0.0093  1.0000  -5.7379   0.0000   0.0000   0.0000   0.2722
  10.600   1.3257   0.02664   0.02131  -0.0443  0.0095  1.0000  -5.7490   0.0000   0.0000   0.0000   0.2710
  10.700   1.3254   0.02763   0.02239  -0.0428  0.0097  1.0000  -5.7568   0.0000   0.0000   0.0000   0.2697
  10.800   1.3252   0.02871   0.02357  -0.0414  0.0099  1.0000  -5.7606   0.0000   0.0000   0.0000   0.2686
  10.900   1.3245   0.02988   0.02484  -0.0401  0.0102  1.0000  -5.7589   0.0000   0.0000   0.0000   0.2674
  11.000   1.3234   0.03116   0.02624  -0.0387  0.0105  1.0000  -5.7504   0.0000   0.0000   0.0000   0.2662
  11.100   1.3218   0.03261   0.02780  -0.0373  0.0107  1.0000  -5.7325   0.0000   0.0000   0.0000   0.2651
  11.200   1.3190   0.03430   0.02962  -0.0360  0.0110  1.0000  -5.6996   0.0000   0.0000   0.0000   0.2640
  11.300   1.3138   0.03639   0.03186  -0.0345  0.0114  1.0000  -5.6386   0.0000   0.0000   0.0000   0.2629
  15.800   0.9550   0.18778   0.18601  -0.0953  0.0242  1.0000  -2.3046   0.0000   0.0000   0.0000   0.3327
  15.900   0.9561   0.19011   0.18834  -0.0964  0.0241  1.0000  -2.2887   0.0000   0.0000   0.0000   0.3336
  16.000   0.9582   0.19210   0.19033  -0.0974  0.0239  1.0000  -2.2866   0.0000   0.0000   0.0000   0.3343
  16.100   0.9671   0.19172   0.18995  -0.0976  0.0228  1.0000  -2.3869   0.0000   0.0000   0.0000   0.3334
  16.200   0.9699   0.19355   0.19179  -0.0985  0.0222  1.0000  -2.3929   0.0000   0.0000   0.0000   0.3339
  16.300   0.9716   0.19579   0.19402  -0.0995  0.0217  1.0000  -2.3811   0.0000   0.0000   0.0000   0.3346
  16.400   0.9728   0.19817   0.19641  -0.1006  0.0212  1.0000  -2.3633   0.0000   0.0000   0.0000   0.3355
  16.500   0.9738   0.20063   0.19886  -0.1017  0.0208  1.0000  -2.3429   0.0000   0.0000   0.0000   0.3364
  16.600   0.9746   0.20313   0.20136  -0.1028  0.0203  1.0000  -2.3210   0.0000   0.0000   0.0000   0.3374
  16.700   0.9753   0.20566   0.20389  -0.1039  0.0199  1.0000  -2.2983   0.0000   0.0000   0.0000   0.3384
  16.800   0.9760   0.20816   0.20639  -0.1050  0.0195  1.0000  -2.2780   0.0000   0.0000   0.0000   0.3393
  16.900   0.9769   0.21060   0.20883  -0.1061  0.0191  1.0000  -2.2603   0.0000   0.0000   0.0000   0.3402
  17.000   0.9778   0.21301   0.21124  -0.1071  0.0187  1.0000  -2.2451   0.0000   0.0000   0.0000   0.3411
  17.100   0.9787   0.21538   0.21360  -0.1081  0.0184  1.0000  -2.2321   0.0000   0.0000   0.0000   0.3419
  17.200   0.9797   0.21772   0.21594  -0.1091  0.0180  1.0000  -2.2208   0.0000   0.0000   0.0000   0.3427
  17.300   0.9808   0.22002   0.21825  -0.1101  0.0177  1.0000  -2.2116   0.0000   0.0000   0.0000   0.3434
  17.400   0.9820   0.22229   0.22052  -0.1110  0.0174  1.0000  -2.2046   0.0000   0.0000   0.0000   0.3441
  17.500   0.9832   0.22453   0.22276  -0.1120  0.0171  1.0000  -2.1997   0.0000   0.0000   0.0000   0.3448
  17.600   0.9845   0.22673   0.22496  -0.1129  0.0168  1.0000  -2.1966   0.0000   0.0000   0.0000   0.3454
  17.700   0.9858   0.22891   0.22714  -0.1137  0.0166  1.0000  -2.1954   0.0000   0.0000   0.0000   0.3460
  17.800   0.9872   0.23106   0.22929  -0.1146  0.0163  1.0000  -2.1960   0.0000   0.0000   0.0000   0.3465
  17.900   0.9887   0.23318   0.23141  -0.1154  0.0161  1.0000  -2.1983   0.0000   0.0000   0.0000   0.3471
  18.000   0.9901   0.23527   0.23351  -0.1162  0.0159  1.0000  -2.2022   0.0000   0.0000   0.0000   0.3476
  18.100   0.9917   0.23734   0.23558  -0.1170  0.0157  1.0000  -2.2079   0.0000   0.0000   0.0000   0.3480
  18.200   0.9932   0.23939   0.23763  -0.1178  0.0155  1.0000  -2.2151   0.0000   0.0000   0.0000   0.3485
  18.300   0.9948   0.24141   0.23965  -0.1186  0.0153  1.0000  -2.2239   0.0000   0.0000   0.0000   0.3489
  18.400   0.9964   0.24341   0.24165  -0.1193  0.0151  1.0000  -2.2343   0.0000   0.0000   0.0000   0.3493
  18.500   0.9981   0.24538   0.24363  -0.1200  0.0149  1.0000  -2.2463   0.0000   0.0000   0.0000   0.3496
  18.600   0.9998   0.24733   0.24559  -0.1207  0.0147  1.0000  -2.2597   0.0000   0.0000   0.0000   0.3499
  18.700   1.0014   0.24930   0.24755  -0.1214  0.0146  1.0000  -2.2730   0.0000   0.0000   0.0000   0.3503
  18.800   1.0030   0.25125   0.24951  -0.1221  0.0144  1.0000  -2.2875   0.0000   0.0000   0.0000   0.3506
  18.900   1.0046   0.25318   0.25145  -0.1228  0.0143  1.0000  -2.3031   0.0000   0.0000   0.0000   0.3509
  19.000   1.0062   0.25511   0.25337  -0.1234  0.0141  1.0000  -2.3196   0.0000   0.0000   0.0000   0.3511
  19.100   1.0078   0.25703   0.25530  -0.1241  0.0140  1.0000  -2.3369   0.0000   0.0000   0.0000   0.3514
  19.200   1.0092   0.25907   0.25734  -0.1248  0.0139  1.0000  -2.3487   0.0000   0.0000   0.0000   0.3517
  19.300   1.0103   0.26119   0.25946  -0.1255  0.0137  1.0000  -2.3577   0.0000   0.0000   0.0000   0.3521
  19.400   1.0112   0.26341   0.26174  -0.1262  0.0136  1.0000  -2.3550   0.0000   0.0000   0.0000   0.3526
  19.500   1.0120   0.26565   0.26397  -0.1269  0.0134  1.0000  -2.3589   0.0000   0.0000   0.0000   0.3530
  19.600   1.0125   0.26800   0.26633  -0.1276  0.0133  1.0000  -2.3584   0.0000   0.0000   0.0000   0.3535
  19.700   1.0122   0.27068   0.26901  -0.1284  0.0131  1.0000  -2.3451   0.0000   0.0000   0.0000   0.3541
  19.800   0.9945   0.28273   0.28099  -0.1306  0.0122  1.0000  -1.9349   0.0000   0.0000   0.0000   0.3591
  19.900   0.9948   0.28524   0.28350  -0.1313  0.0122  1.0000  -1.9202   0.0000   0.0000   0.0000   0.3596
  20.000   0.9950   0.28772   0.28599  -0.1321  0.0122  1.0000  -1.9057   0.0000   0.0000   0.0000   0.3602
  20.100   0.9952   0.29019   0.28846  -0.1328  0.0122  1.0000  -1.8912   0.0000   0.0000   0.0000   0.3608
  22.700   0.8827   0.30919   0.30778  -0.1355  0.0118  1.0000  -1.3347   0.0000   0.0000   0.0000   0.3791
  22.800   0.8812   0.30976   0.30835  -0.1358  0.0118  1.0000  -1.3243   0.0000   0.0000   0.0000   0.3796
  22.900   0.8798   0.31033   0.30894  -0.1361  0.0118  1.0000  -1.3146   0.0000   0.0000   0.0000   0.3800
  23.000   0.8786   0.31092   0.30953  -0.1364  0.0117  1.0000  -1.3051   0.0000   0.0000   0.0000   0.3805
  23.100   0.8774   0.31152   0.31014  -0.1368  0.0117  1.0000  -1.2961   0.0000   0.0000   0.0000   0.3809
  23.200   0.8763   0.31213   0.31075  -0.1371  0.0117  1.0000  -1.2878   0.0000   0.0000   0.0000   0.3814
  23.300   0.8754   0.31274   0.31137  -0.1375  0.0116  1.0000  -1.2803   0.0000   0.0000   0.0000   0.3818
  23.400   0.8747   0.31338   0.31202  -0.1379  0.0115  1.0000  -1.2728   0.0000   0.0000   0.0000   0.3823
  23.500   0.8740   0.31407   0.31272  -0.1383  0.0114  1.0000  -1.2641   0.0000   0.0000   0.0000   0.3828
  23.600   0.8737   0.31481   0.31346  -0.1388  0.0113  1.0000  -1.2562   0.0000   0.0000   0.0000   0.3832
  23.700   0.8740   0.31565   0.31431  -0.1394  0.0109  1.0000  -1.2479   0.0000   0.0000   0.0000   0.3837
  23.800   0.8745   0.31661   0.31527  -0.1399  0.0104  1.0000  -1.2365   0.0000   0.0000   0.0000   0.3841
  23.900   0.8743   0.31745   0.31611  -0.1404  0.0097  1.0000  -1.2267   0.0000   0.0000   0.0000   0.3845
  24.000   0.8738   0.31817   0.31684  -0.1408  0.0092  1.0000  -1.2213   0.0000   0.0000   0.0000   0.3849
  24.100   0.8731   0.31883   0.31750  -0.1411  0.0087  1.0000  -1.2196   0.0000   0.0000   0.0000   0.3853
  24.200   0.8725   0.31945   0.31813  -0.1415  0.0082  1.0000  -1.2213   0.0000   0.0000   0.0000   0.3857
  24.300   0.8719   0.32004   0.31872  -0.1418  0.0078  1.0000  -1.2264   0.0000   0.0000   0.0000   0.3860
  24.400   0.8714   0.32060   0.31929  -0.1422  0.0073  1.0000  -1.2352   0.0000   0.0000   0.0000   0.3864
  24.500   0.8709   0.32112   0.31982  -0.1425  0.0070  1.0000  -1.2481   0.0000   0.0000   0.0000   0.3867
  24.600   0.8706   0.32161   0.32031  -0.1429  0.0066  1.0000  -1.2653   0.0000   0.0000   0.0000   0.3869
  24.700   0.8703   0.32206   0.32077  -0.1432  0.0063  1.0000  -1.2872   0.0000   0.0000   0.0000   0.3872
  24.800   0.8702   0.32246   0.32118  -0.1436  0.0060  1.0000  -1.3139   0.0000   0.0000   0.0000   0.3874
  24.900   0.8701   0.32282   0.32155  -0.1439  0.0057  1.0000  -1.3455   0.0000   0.0000   0.0000   0.3876
  25.000   0.8702   0.32313   0.32186  -0.1442  0.0055  1.0000  -1.3818   0.0000   0.0000   0.0000   0.3877
  25.100   0.8703   0.32339   0.32213  -0.1446  0.0053  1.0000  -1.4228   0.0000   0.0000   0.0000   0.3878
  25.200   0.8704   0.32360   0.32234  -0.1449  0.0051  1.0000  -1.4682   0.0000   0.0000   0.0000   0.3879
  25.300   0.8706   0.32374   0.32250  -0.1451  0.0050  1.0000  -1.5178   0.0000   0.0000   0.0000   0.3879
  25.400   0.8708   0.32384   0.32260  -0.1454  0.0048  1.0000  -1.5706   0.0000   0.0000   0.0000   0.3878
  25.500   0.8701   0.32401   0.32278  -0.1456  0.0046  1.0000  -1.6145   0.0000   0.0000   0.0000   0.3879
  25.600   0.8598   0.32691   0.32564  -0.1459  0.0038  1.0000  -1.3457   0.0000   0.0000   0.0000   0.3907
  25.700   0.8607   0.32763   0.32637  -0.1464  0.0037  1.0000  -1.3728   0.0000   0.0000   0.0000   0.3910
  25.800   0.8617   0.32834   0.32709  -0.1469  0.0035  1.0000  -1.4022   0.0000   0.0000   0.0000   0.3912


