xflr5 v6.61

 Calculated polar for: SG6043

 1 1 Reynolds number fixed          Mach number fixed         

 xtrf =   1.000 (top)        1.000 (bottom)
 Mach =   0.000     Re =     0.200 e 6     Ncrit =   9.000

  alpha     CL        CD       CDp       Cm    Top Xtr Bot Xtr   Cpmin    Chinge    XCp    
 ------- -------- --------- --------- -------- ------- ------- -------- --------- ---------
 -10.000  -0.3311   0.13351   0.12997  -0.0266  1.0000  0.0235  -1.3513   0.0000   0.0000   0.0000   0.1587
  -9.900  -0.3321   0.13280   0.12927  -0.0260  1.0000  0.0236  -1.3473   0.0000   0.0000   0.0000   0.1607
  -9.800  -0.3305   0.13179   0.12827  -0.0262  0.9997  0.0238  -1.3406   0.0000   0.0000   0.0000   0.1598
  -9.700  -0.3244   0.13031   0.12679  -0.0276  0.9989  0.0241  -1.3293   0.0000   0.0000   0.0000   0.1540
  -9.600  -0.3184   0.12886   0.12533  -0.0290  0.9981  0.0244  -1.3195   0.0000   0.0000   0.0000   0.1480
  -9.500  -0.3125   0.12738   0.12385  -0.0303  0.9971  0.0246  -1.3106   0.0000   0.0000   0.0000   0.1417
  -9.400  -0.3067   0.12592   0.12239  -0.0317  0.9960  0.0249  -1.3030   0.0000   0.0000   0.0000   0.1352
  -9.300  -0.3008   0.12447   0.12094  -0.0331  0.9950  0.0253  -1.2965   0.0000   0.0000   0.0000   0.1284
  -9.200  -0.2948   0.12302   0.11949  -0.0346  0.9941  0.0256  -1.2908   0.0000   0.0000   0.0000   0.1210
  -9.100  -0.2888   0.12158   0.11804  -0.0361  0.9932  0.0260  -1.2861   0.0000   0.0000   0.0000   0.1132
  -9.000  -0.2831   0.12014   0.11661  -0.0375  0.9922  0.0263  -1.2823   0.0000   0.0000   0.0000   0.1054
  -8.900  -0.2779   0.11873   0.11520  -0.0388  0.9907  0.0267  -1.2797   0.0000   0.0000   0.0000   0.0983
  -8.800  -0.2726   0.11733   0.11380  -0.0401  0.9893  0.0271  -1.2779   0.0000   0.0000   0.0000   0.0906
  -8.700  -0.2672   0.11592   0.11240  -0.0415  0.9881  0.0275  -1.2770   0.0000   0.0000   0.0000   0.0824
  -8.600  -0.2617   0.11451   0.11099  -0.0429  0.9869  0.0280  -1.2770   0.0000   0.0000   0.0000   0.0734
  -8.500  -0.2559   0.11309   0.10956  -0.0445  0.9859  0.0284  -1.2781   0.0000   0.0000   0.0000   0.0635
  -8.400  -0.2499   0.11165   0.10812  -0.0461  0.9850  0.0290  -1.2804   0.0000   0.0000   0.0000   0.0525
  -8.300  -0.2445   0.11028   0.10675  -0.0476  0.9839  0.0295  -1.2847   0.0000   0.0000   0.0000   0.0421
  -8.200  -0.2416   0.10909   0.10557  -0.0484  0.9816  0.0300  -1.2916   0.0000   0.0000   0.0000   0.0363
  -8.100  -0.2375   0.10785   0.10433  -0.0497  0.9798  0.0306  -1.3012   0.0000   0.0000   0.0000   0.0274
  -8.000  -0.2328   0.10662   0.10310  -0.0514  0.9781  0.0313  -1.3162   0.0000   0.0000   0.0000   0.0161
  -7.900  -0.2278   0.10549   0.10198  -0.0535  0.9765  0.0320  -1.3410   0.0000   0.0000   0.0000   0.0014
  -7.800  -0.2224   0.10454   0.10103  -0.0565  0.9749  0.0327  -1.3776   0.0000   0.0000   0.0000  -0.0177
  -7.700  -0.2160   0.10361   0.10010  -0.0597  0.9736  0.0332  -1.4136   0.0000   0.0000   0.0000  -0.0404
  -7.600  -0.2174   0.10302   0.09952  -0.0598  0.9696  0.0333  -1.4326   0.0000   0.0000   0.0000  -0.0389
  -7.500  -0.2144   0.10210   0.09861  -0.0612  0.9667  0.0335  -1.4512   0.0000   0.0000   0.0000  -0.0492
  -7.400  -0.2093   0.10098   0.09749  -0.0630  0.9646  0.0336  -1.4635   0.0000   0.0000   0.0000  -0.0646
  -7.300  -0.2033   0.09971   0.09622  -0.0649  0.9629  0.0338  -1.4761   0.0000   0.0000   0.0000  -0.0835
  -7.200  -0.1966   0.09832   0.09484  -0.0671  0.9614  0.0338  -1.4892   0.0000   0.0000   0.0000  -0.1058
  -7.100  -0.1890   0.09680   0.09332  -0.0696  0.9603  0.0339  -1.5030   0.0000   0.0000   0.0000  -0.1333
  -7.000  -0.1950   0.09636   0.09289  -0.0681  0.9547  0.0339  -1.5154   0.0000   0.0000   0.0000  -0.1132
  -6.900  -0.1908   0.09499   0.09153  -0.0696  0.9519  0.0340  -1.5294   0.0000   0.0000   0.0000  -0.1290
  -6.800  -0.1839   0.09335   0.08989  -0.0719  0.9497  0.0340  -1.5448   0.0000   0.0000   0.0000  -0.1550
  -6.700  -0.1755   0.09152   0.08806  -0.0746  0.9480  0.0341  -1.5618   0.0000   0.0000   0.0000  -0.1901
  -6.600  -0.1657   0.08953   0.08607  -0.0777  0.9466  0.0341  -1.5810   0.0000   0.0000   0.0000  -0.2346
  -6.500  -0.1550   0.08743   0.08395  -0.0812  0.9455  0.0341  -1.6028   0.0000   0.0000   0.0000  -0.2904
  -6.400  -0.1600   0.08189   0.07845  -0.0830  0.9447  0.0353  -1.7056   0.0000   0.0000   0.0000  -0.2844
  -6.300  -0.1695   0.08162   0.07821  -0.0804  0.9385  0.0353  -1.7155   0.0000   0.0000   0.0000  -0.2391
  -6.200  -0.1670   0.08041   0.07700  -0.0793  0.9365  0.0359  -1.6735   0.0000   0.0000   0.0000  -0.2397
  -6.100  -0.1619   0.07936   0.07596  -0.0787  0.9349  0.0365  -1.6235   0.0000   0.0000   0.0000  -0.2508
  -6.000  -0.1552   0.07834   0.07494  -0.0786  0.9334  0.0372  -1.5740   0.0000   0.0000   0.0000  -0.2714
  -5.900  -0.1472   0.07721   0.07382  -0.0791  0.9320  0.0381  -1.5327   0.0000   0.0000   0.0000  -0.3036
  -5.800  -0.1380   0.07594   0.07255  -0.0805  0.9307  0.0392  -1.5018   0.0000   0.0000   0.0000  -0.3499
  -5.700  -0.1276   0.07450   0.07110  -0.0826  0.9295  0.0407  -1.4817   0.0000   0.0000   0.0000  -0.4149
  -5.600  -0.1158   0.07285   0.06944  -0.0856  0.9284  0.0427  -1.4742   0.0000   0.0000   0.0000  -0.5084
  -5.500  -0.1005   0.07079   0.06732  -0.0907  0.9273  0.0460  -1.5003   0.0000   0.0000   0.0000  -0.6743
  -5.400  -0.0979   0.06973   0.06625  -0.0927  0.9229  0.0475  -1.5336   0.0000   0.0000   0.0000  -0.7186
  -5.300  -0.0934   0.06876   0.06530  -0.0957  0.9170  0.0489  -1.5767   0.0000   0.0000   0.0000  -0.7966
  -5.200  -0.0695   0.06724   0.06360  -0.1037  0.9140  0.0502  -1.6351   0.0000   0.0000   0.0000  -1.2692
  -5.100  -0.0549   0.06545   0.06173  -0.1073  0.9123  0.0504  -1.6431   0.0000   0.0000   0.0000  -1.7392
  -5.000  -0.0431   0.06146   0.05766  -0.1123  0.9108  0.0510  -1.7091   0.0000   0.0000   0.0000  -2.4048
  -4.900  -0.0436   0.05776   0.05404  -0.1127  0.9100  0.0528  -1.6858   0.0000   0.0000   0.0000  -2.3768
  -4.800  -0.0396   0.05782   0.05418  -0.1103  0.9093  0.0543  -1.5599   0.0000   0.0000   0.0000  -2.5787
  -4.700  -0.0317   0.05763   0.05402  -0.1093  0.9086  0.0562  -1.4576   0.0000   0.0000   0.0000  -3.2574
  -4.600  -0.0192   0.05666   0.05304  -0.1106  0.9078  0.0583  -1.3917   0.0000   0.0000   0.0000  -5.6023
  -4.500  -0.0032   0.05509   0.05144  -0.1136  0.9070  0.0604  -1.3502   0.0000   0.0000   0.0000  -35.3286
  -4.400   0.0151   0.05321   0.04948  -0.1174  0.9064  0.0623  -1.3213   0.0000   0.0000   0.0000   8.1478
  -4.300   0.0124   0.05266   0.04892  -0.1162  0.9010  0.0630  -1.3225   0.0000   0.0000   0.0000   9.7496
  -4.200   0.0163   0.05169   0.04791  -0.1165  0.8964  0.0643  -1.3193   0.0000   0.0000   0.0000   7.5176
  -4.100   0.0446   0.05109   0.04703  -0.1220  0.8940  0.0691  -1.3290   0.0000   0.0000   0.0000   3.0193
  -4.000   0.0627   0.05071   0.04648  -0.1243  0.8923  0.0699  -1.3080   0.0000   0.0000   0.0000   2.2583
  -3.900   0.0785   0.04962   0.04526  -0.1264  0.8911  0.0701  -1.3014   0.0000   0.0000   0.0000   1.8801
  -3.800   0.0893   0.04316   0.03874  -0.1315  0.8904  0.0728  -1.3631   0.0000   0.0000   0.0000   1.7404
  -3.700   0.1010   0.04190   0.03751  -0.1324  0.8895  0.0737  -1.3216   0.0000   0.0000   0.0000   1.5760
  -3.600   0.1138   0.04084   0.03646  -0.1334  0.8887  0.0748  -1.2797   0.0000   0.0000   0.0000   1.4350
  -3.500   0.1276   0.03985   0.03546  -0.1346  0.8879  0.0761  -1.2398   0.0000   0.0000   0.0000   1.3159
  -3.400   0.1426   0.03888   0.03446  -0.1360  0.8872  0.0777  -1.2026   0.0000   0.0000   0.0000   1.2139
  -3.300   0.1586   0.03788   0.03341  -0.1376  0.8865  0.0797  -1.1689   0.0000   0.0000   0.0000   1.1262
  -3.200   0.1761   0.03684   0.03229  -0.1395  0.8859  0.0824  -1.1406   0.0000   0.0000   0.0000   1.0496
  -3.100   0.1954   0.03585   0.03118  -0.1416  0.8853  0.0861  -1.1197   0.0000   0.0000   0.0000   0.9812
  -2.800   0.2713   0.02779   0.02180  -0.1504  0.8848  0.0521  -1.4072   0.0000   0.0000   0.0000   0.8097
  -2.700   0.2892   0.02620   0.02016  -0.1520  0.8845  0.0466  -1.4084   0.0000   0.0000   0.0000   0.7802
  -2.600   0.3091   0.02460   0.01831  -0.1539  0.8843  0.0435  -1.4294   0.0000   0.0000   0.0000   0.7520
  -2.500   0.3291   0.02314   0.01656  -0.1554  0.8842  0.0407  -1.4640   0.0000   0.0000   0.0000   0.7263
  -2.400   0.3481   0.02200   0.01516  -0.1567  0.8840  0.0386  -1.4867   0.0000   0.0000   0.0000   0.7039
  -2.300   0.3660   0.02122   0.01421  -0.1578  0.8837  0.0375  -1.4818   0.0000   0.0000   0.0000   0.6846
  -2.200   0.3835   0.02061   0.01350  -0.1589  0.8834  0.0369  -1.4596   0.0000   0.0000   0.0000   0.6673
  -2.100   0.4011   0.02002   0.01279  -0.1600  0.8831  0.0368  -1.4377   0.0000   0.0000   0.0000   0.6516
  -2.000   0.3873   0.02061   0.01343  -0.1555  0.8740  0.0367  -1.4378   0.0000   0.0000   0.0000   0.6542
  -1.900   0.4005   0.02018   0.01291  -0.1558  0.8722  0.0367  -1.4177   0.0000   0.0000   0.0000   0.6415
  -1.800   0.4153   0.01972   0.01241  -0.1564  0.8708  0.0369  -1.3889   0.0000   0.0000   0.0000   0.6289
  -1.700   0.4304   0.01926   0.01193  -0.1570  0.8695  0.0373  -1.3590   0.0000   0.0000   0.0000   0.6170
  -1.600   0.4461   0.01883   0.01148  -0.1578  0.8685  0.0381  -1.3272   0.0000   0.0000   0.0000   0.6057
  -1.500   0.4620   0.01844   0.01107  -0.1587  0.8675  0.0394  -1.2931   0.0000   0.0000   0.0000   0.5951
  -1.400   0.4781   0.01810   0.01072  -0.1595  0.8666  0.0415  -1.2594   0.0000   0.0000   0.0000   0.5852
  -1.300   0.4944   0.01779   0.01038  -0.1604  0.8658  0.0454  -1.2346   0.0000   0.0000   0.0000   0.5758
  -1.200   0.5143   0.01702   0.00977  -0.1621  0.8655  0.0998  -1.3017   0.0000   0.0000   0.0000   0.5663
  -1.100   0.5309   0.01671   0.00962  -0.1633  0.8647  0.1415  -1.2454   0.0000   0.0000   0.0000   0.5584
  -1.000   0.5477   0.01643   0.00947  -0.1644  0.8640  0.1822  -1.1748   0.0000   0.0000   0.0000   0.5510
  -0.900   0.5652   0.01605   0.00933  -0.1658  0.8633  0.2533  -1.0989   0.0000   0.0000   0.0000   0.5440
  -0.800   0.5831   0.01532   0.00937  -0.1676  0.8628  0.4765  -1.0189   0.0000   0.0000   0.0000   0.5379
  -0.700   0.5969   0.01486   0.00940  -0.1679  0.8620  0.6369  -0.9491   0.0000   0.0000   0.0000   0.5316
  -0.600   0.6089   0.01454   0.00933  -0.1676  0.8611  0.7233  -0.8844   0.0000   0.0000   0.0000   0.5254
  -0.500   0.6202   0.01429   0.00921  -0.1672  0.8601  0.7808  -0.8222   0.0000   0.0000   0.0000   0.5195
  -0.400   0.6313   0.01407   0.00905  -0.1666  0.8591  0.8249  -0.7615   0.0000   0.0000   0.0000   0.5138
  -0.300   0.6416   0.01384   0.00888  -0.1659  0.8581  0.8751  -0.7253   0.0000   0.0000   0.0000   0.5083
  -0.200   0.6563   0.01356   0.00864  -0.1662  0.8571  1.0000  -0.7355   0.0000   0.0000   0.0000   0.5028
  -0.100   0.6482   0.01407   0.00915  -0.1628  0.8492  1.0000  -0.7322   0.0000   0.0000   0.0000   0.5006
   0.000   0.6587   0.01411   0.00913  -0.1626  0.8462  1.0000  -0.7404   0.0000   0.0000   0.0000   0.4962
   0.100   0.6718   0.01407   0.00904  -0.1630  0.8439  1.0000  -0.7503   0.0000   0.0000   0.0000   0.4918
   0.200   0.6860   0.01400   0.00891  -0.1635  0.8420  1.0000  -0.7608   0.0000   0.0000   0.0000   0.4873
   0.300   0.7008   0.01391   0.00876  -0.1641  0.8403  1.0000  -0.7718   0.0000   0.0000   0.0000   0.4830
   0.400   0.7160   0.01381   0.00861  -0.1647  0.8387  1.0000  -0.7836   0.0000   0.0000   0.0000   0.4789
   0.500   0.7313   0.01370   0.00846  -0.1654  0.8373  1.0000  -0.7958   0.0000   0.0000   0.0000   0.4749
   0.600   0.7471   0.01359   0.00830  -0.1662  0.8359  1.0000  -0.8084   0.0000   0.0000   0.0000   0.4710
   0.700   0.7633   0.01348   0.00814  -0.1671  0.8346  1.0000  -0.8213   0.0000   0.0000   0.0000   0.4673
   0.800   0.7798   0.01336   0.00797  -0.1680  0.8333  1.0000  -0.8352   0.0000   0.0000   0.0000   0.4637
   0.900   0.7964   0.01325   0.00782  -0.1689  0.8319  1.0000  -0.8495   0.0000   0.0000   0.0000   0.4603
   1.000   0.8130   0.01317   0.00770  -0.1699  0.8305  1.0000  -0.8651   0.0000   0.0000   0.0000   0.4570
   1.100   0.8176   0.01336   0.00788  -0.1686  0.8263  1.0000  -0.8724   0.0000   0.0000   0.0000   0.4542
   1.200   0.8226   0.01351   0.00802  -0.1675  0.8217  1.0000  -0.8800   0.0000   0.0000   0.0000   0.4514
   1.300   0.8326   0.01352   0.00802  -0.1672  0.8182  1.0000  -0.8912   0.0000   0.0000   0.0000   0.4485
   1.400   0.8447   0.01348   0.00795  -0.1672  0.8152  1.0000  -0.9041   0.0000   0.0000   0.0000   0.4456
   1.500   0.8584   0.01339   0.00784  -0.1676  0.8126  1.0000  -0.9192   0.0000   0.0000   0.0000   0.4427
   1.600   0.8729   0.01329   0.00771  -0.1681  0.8104  1.0000  -0.9351   0.0000   0.0000   0.0000   0.4399
   1.700   0.8880   0.01319   0.00758  -0.1687  0.8083  1.0000  -0.9520   0.0000   0.0000   0.0000   0.4372
   1.800   0.9036   0.01307   0.00743  -0.1694  0.8062  1.0000  -0.9704   0.0000   0.0000   0.0000   0.4346
   1.900   0.9194   0.01297   0.00730  -0.1702  0.8041  1.0000  -0.9891   0.0000   0.0000   0.0000   0.4321
   2.000   0.9351   0.01291   0.00720  -0.1710  0.8020  1.0000  -1.0091   0.0000   0.0000   0.0000   0.4297
   2.100   0.9425   0.01301   0.00731  -0.1702  0.7982  1.0000  -1.0226   0.0000   0.0000   0.0000   0.4273
   2.200   0.9484   0.01311   0.00742  -0.1692  0.7935  1.0000  -1.0349   0.0000   0.0000   0.0000   0.4250
   2.300   0.9580   0.01312   0.00743  -0.1688  0.7894  1.0000  -1.0504   0.0000   0.0000   0.0000   0.4227
   2.400   0.9696   0.01309   0.00738  -0.1687  0.7857  1.0000  -1.0687   0.0000   0.0000   0.0000   0.4204
   2.500   0.9826   0.01301   0.00729  -0.1689  0.7823  1.0000  -1.0897   0.0000   0.0000   0.0000   0.4182
   2.600   0.9965   0.01292   0.00723  -0.1693  0.7792  1.0000  -1.1141   0.0000   0.0000   0.0000   0.4160
   2.700   1.0110   0.01282   0.00710  -0.1698  0.7762  1.0000  -1.1397   0.0000   0.0000   0.0000   0.4139
   2.800   1.0261   0.01274   0.00699  -0.1704  0.7732  1.0000  -1.1659   0.0000   0.0000   0.0000   0.4119
   2.900   1.0394   0.01274   0.00696  -0.1707  0.7699  1.0000  -1.1904   0.0000   0.0000   0.0000   0.4100
   3.000   1.0448   0.01283   0.00708  -0.1695  0.7650  1.0000  -1.2064   0.0000   0.0000   0.0000   0.4079
   3.100   1.0531   0.01286   0.00712  -0.1689  0.7602  1.0000  -1.2256   0.0000   0.0000   0.0000   0.4059
   3.200   1.0634   0.01285   0.00710  -0.1686  0.7556  1.0000  -1.2473   0.0000   0.0000   0.0000   0.4040
   3.300   1.0752   0.01281   0.00704  -0.1686  0.7514  1.0000  -1.2705   0.0000   0.0000   0.0000   0.4021
   3.400   1.0878   0.01274   0.00695  -0.1687  0.7474  1.0000  -1.2949   0.0000   0.0000   0.0000   0.4003
   3.500   1.1019   0.01266   0.00684  -0.1691  0.7435  1.0000  -1.3212   0.0000   0.0000   0.0000   0.3985
   3.600   1.1173   0.01262   0.00674  -0.1698  0.7395  1.0000  -1.3527   0.0000   0.0000   0.0000   0.3969
   3.700   1.1231   0.01270   0.00686  -0.1687  0.7344  1.0000  -1.3723   0.0000   0.0000   0.0000   0.3950
   3.800   1.1306   0.01273   0.00691  -0.1679  0.7286  1.0000  -1.3942   0.0000   0.0000   0.0000   0.3932
   3.900   1.1401   0.01273   0.00691  -0.1675  0.7230  1.0000  -1.4187   0.0000   0.0000   0.0000   0.3914
   4.000   1.1509   0.01269   0.00686  -0.1673  0.7176  1.0000  -1.4452   0.0000   0.0000   0.0000   0.3897
   4.100   1.1638   0.01265   0.00678  -0.1674  0.7127  1.0000  -1.4743   0.0000   0.0000   0.0000   0.3881
   4.200   1.1780   0.01261   0.00668  -0.1679  0.7077  1.0000  -1.5054   0.0000   0.0000   0.0000   0.3866
   4.300   1.1853   0.01268   0.00678  -0.1671  0.7018  1.0000  -1.5274   0.0000   0.0000   0.0000   0.3849
   4.400   1.1926   0.01272   0.00685  -0.1662  0.6952  1.0000  -1.5525   0.0000   0.0000   0.0000   0.3833
   4.500   1.2018   0.01274   0.00686  -0.1658  0.6886  1.0000  -1.5815   0.0000   0.0000   0.0000   0.3817
   4.600   1.2130   0.01272   0.00681  -0.1656  0.6820  1.0000  -1.6136   0.0000   0.0000   0.0000   0.3801
   4.700   1.2257   0.01271   0.00672  -0.1657  0.6753  1.0000  -1.6523   0.0000   0.0000   0.0000   0.3787
   4.800   1.2339   0.01277   0.00680  -0.1651  0.6683  1.0000  -1.6848   0.0000   0.0000   0.0000   0.3771
   4.900   1.2414   0.01283   0.00688  -0.1643  0.6604  1.0000  -1.7163   0.0000   0.0000   0.0000   0.3756
   5.000   1.2506   0.01287   0.00689  -0.1638  0.6524  1.0000  -1.7513   0.0000   0.0000   0.0000   0.3741
   5.100   1.2613   0.01290   0.00699  -0.1636  0.6446  1.0000  -1.7898   0.0000   0.0000   0.0000   0.3726
   5.200   1.2719   0.01296   0.00700  -0.1634  0.6373  1.0000  -1.8278   0.0000   0.0000   0.0000   0.3712
   5.300   1.2790   0.01305   0.00713  -0.1625  0.6295  1.0000  -1.8594   0.0000   0.0000   0.0000   0.3698
   5.400   1.2873   0.01313   0.00720  -0.1619  0.6211  1.0000  -1.8933   0.0000   0.0000   0.0000   0.3683
   5.500   1.2966   0.01321   0.00724  -0.1615  0.6126  1.0000  -1.9294   0.0000   0.0000   0.0000   0.3669
   5.600   1.3069   0.01332   0.00725  -0.1612  0.6040  1.0000  -1.9674   0.0000   0.0000   0.0000   0.3656
   5.700   1.3138   0.01341   0.00739  -0.1604  0.5952  1.0000  -1.9991   0.0000   0.0000   0.0000   0.3642
   5.800   1.3214   0.01352   0.00748  -0.1596  0.5850  1.0000  -2.0324   0.0000   0.0000   0.0000   0.3628
   5.900   1.3298   0.01365   0.00753  -0.1590  0.5743  1.0000  -2.0674   0.0000   0.0000   0.0000   0.3614
   6.000   1.3376   0.01380   0.00763  -0.1583  0.5643  1.0000  -2.1016   0.0000   0.0000   0.0000   0.3600
   6.100   1.3445   0.01393   0.00776  -0.1574  0.5531  1.0000  -2.1340   0.0000   0.0000   0.0000   0.3587
   6.200   1.3515   0.01410   0.00786  -0.1566  0.5412  1.0000  -2.1670   0.0000   0.0000   0.0000   0.3573
   6.300   1.3587   0.01428   0.00797  -0.1558  0.5302  1.0000  -2.2003   0.0000   0.0000   0.0000   0.3559
   6.400   1.3654   0.01443   0.00812  -0.1549  0.5188  1.0000  -2.2328   0.0000   0.0000   0.0000   0.3546
   6.500   1.3717   0.01463   0.00826  -0.1540  0.5067  1.0000  -2.2648   0.0000   0.0000   0.0000   0.3532
   6.600   1.3778   0.01486   0.00841  -0.1530  0.4951  1.0000  -2.2965   0.0000   0.0000   0.0000   0.3519
   6.700   1.3840   0.01504   0.00858  -0.1521  0.4828  1.0000  -2.3284   0.0000   0.0000   0.0000   0.3506
   6.800   1.3890   0.01529   0.00875  -0.1509  0.4694  1.0000  -2.3583   0.0000   0.0000   0.0000   0.3492
   6.900   1.3940   0.01555   0.00893  -0.1497  0.4569  1.0000  -2.3881   0.0000   0.0000   0.0000   0.3478
   7.000   1.3989   0.01577   0.00912  -0.1486  0.4432  1.0000  -2.4179   0.0000   0.0000   0.0000   0.3465
   7.100   1.4017   0.01607   0.00932  -0.1470  0.4295  1.0000  -2.4479   0.0000   0.0000   0.0000   0.3450
   7.200   1.4060   0.01633   0.00953  -0.1458  0.4162  1.0000  -2.4827   0.0000   0.0000   0.0000   0.3436
   7.300   1.4093   0.01663   0.00976  -0.1443  0.4018  1.0000  -2.5153   0.0000   0.0000   0.0000   0.3423
   7.400   1.4114   0.01699   0.01002  -0.1427  0.3886  1.0000  -2.5455   0.0000   0.0000   0.0000   0.3408
   7.500   1.4159   0.01726   0.01026  -0.1416  0.3748  1.0000  -2.5841   0.0000   0.0000   0.0000   0.3395
   7.600   1.4179   0.01764   0.01054  -0.1400  0.3615  1.0000  -2.6204   0.0000   0.0000   0.0000   0.3381
   7.700   1.4213   0.01798   0.01082  -0.1387  0.3489  1.0000  -2.6605   0.0000   0.0000   0.0000   0.3368
   7.800   1.4248   0.01831   0.01111  -0.1374  0.3355  1.0000  -2.7010   0.0000   0.0000   0.0000   0.3355
   7.900   1.4259   0.01876   0.01145  -0.1358  0.3233  1.0000  -2.7349   0.0000   0.0000   0.0000   0.3342
   8.000   1.4303   0.01908   0.01174  -0.1347  0.3111  1.0000  -2.7781   0.0000   0.0000   0.0000   0.3330
   8.100   1.4331   0.01947   0.01207  -0.1333  0.2988  1.0000  -2.8169   0.0000   0.0000   0.0000   0.3317
   8.200   1.4343   0.01995   0.01245  -0.1318  0.2876  1.0000  -2.8515   0.0000   0.0000   0.0000   0.3304
   8.300   1.4388   0.02030   0.01292  -0.1308  0.2755  1.0000  -2.8942   0.0000   0.0000   0.0000   0.3292
   8.400   1.4409   0.02076   0.01332  -0.1294  0.2643  1.0000  -2.9309   0.0000   0.0000   0.0000   0.3280
   8.500   1.4428   0.02123   0.01373  -0.1280  0.2544  1.0000  -2.9674   0.0000   0.0000   0.0000   0.3268
   8.600   1.4476   0.02158   0.01408  -0.1271  0.2446  1.0000  -3.0124   0.0000   0.0000   0.0000   0.3257
   8.700   1.4501   0.02205   0.01448  -0.1258  0.2350  1.0000  -3.0510   0.0000   0.0000   0.0000   0.3245
   8.800   1.4508   0.02262   0.01497  -0.1243  0.2259  1.0000  -3.0842   0.0000   0.0000   0.0000   0.3233
   8.900   1.4563   0.02295   0.01532  -0.1235  0.2179  1.0000  -3.1317   0.0000   0.0000   0.0000   0.3222
   9.000   1.4599   0.02339   0.01574  -0.1225  0.2096  1.0000  -3.1736   0.0000   0.0000   0.0000   0.3212
   9.100   1.4615   0.02395   0.01622  -0.1212  0.2018  1.0000  -3.2098   0.0000   0.0000   0.0000   0.3200
   9.200   1.4639   0.02447   0.01672  -0.1200  0.1947  1.0000  -3.2482   0.0000   0.0000   0.0000   0.3189
   9.300   1.4692   0.02484   0.01711  -0.1193  0.1881  1.0000  -3.2952   0.0000   0.0000   0.0000   0.3180
   9.400   1.4726   0.02531   0.01756  -0.1183  0.1814  1.0000  -3.3373   0.0000   0.0000   0.0000   0.3169
   9.500   1.4745   0.02589   0.01808  -0.1171  0.1752  1.0000  -3.3744   0.0000   0.0000   0.0000   0.3159
   9.600   1.4748   0.02659   0.01871  -0.1157  0.1688  1.0000  -3.4058   0.0000   0.0000   0.0000   0.3147
   9.700   1.4807   0.02691   0.01910  -0.1151  0.1644  1.0000  -3.4555   0.0000   0.0000   0.0000   0.3138
   9.800   1.4852   0.02734   0.01955  -0.1142  0.1592  1.0000  -3.5009   0.0000   0.0000   0.0000   0.3129
   9.900   1.4884   0.02785   0.02004  -0.1133  0.1542  1.0000  -3.5425   0.0000   0.0000   0.0000   0.3119
  10.000   1.4901   0.02848   0.02062  -0.1122  0.1494  1.0000  -3.5796   0.0000   0.0000   0.0000   0.3109
  10.100   1.4902   0.02927   0.02135  -0.1109  0.1440  1.0000  -3.6099   0.0000   0.0000   0.0000   0.3099
  10.200   1.4953   0.02968   0.02180  -0.1102  0.1404  1.0000  -3.6573   0.0000   0.0000   0.0000   0.3090
  10.300   1.5004   0.03008   0.02226  -0.1095  0.1366  1.0000  -3.7052   0.0000   0.0000   0.0000   0.3081
  10.400   1.5045   0.03055   0.02275  -0.1087  0.1326  1.0000  -3.7504   0.0000   0.0000   0.0000   0.3072
  10.500   1.5074   0.03112   0.02330  -0.1079  0.1287  1.0000  -3.7921   0.0000   0.0000   0.0000   0.3063
  10.600   1.5091   0.03180   0.02395  -0.1069  0.1251  1.0000  -3.8292   0.0000   0.0000   0.0000   0.3054
  10.700   1.5092   0.03265   0.02475  -0.1057  0.1209  1.0000  -3.8593   0.0000   0.0000   0.0000   0.3045
  10.800   1.5126   0.03326   0.02538  -0.1049  0.1178  1.0000  -3.9000   0.0000   0.0000   0.0000   0.3036
  10.900   1.5175   0.03369   0.02588  -0.1042  0.1154  1.0000  -3.9474   0.0000   0.0000   0.0000   0.3028
  11.000   1.5218   0.03418   0.02642  -0.1035  0.1127  1.0000  -3.9926   0.0000   0.0000   0.0000   0.3019
  11.100   1.5257   0.03472   0.02699  -0.1028  0.1099  1.0000  -4.0366   0.0000   0.0000   0.0000   0.3011
  11.200   1.5289   0.03530   0.02760  -0.1021  0.1072  1.0000  -4.0786   0.0000   0.0000   0.0000   0.3003
  11.300   1.5310   0.03598   0.02827  -0.1012  0.1047  1.0000  -4.1170   0.0000   0.0000   0.0000   0.2995
  11.400   1.5320   0.03676   0.02903  -0.1003  0.1021  1.0000  -4.1546   0.0000   0.0000   0.0000   0.2986
  11.500   1.5322   0.03770   0.02993  -0.0992  0.0988  1.0000  -4.1916   0.0000   0.0000   0.0000   0.2977
  11.600   1.5350   0.03845   0.03070  -0.0983  0.0963  1.0000  -4.2384   0.0000   0.0000   0.0000   0.2969
  11.700   1.5392   0.03894   0.03126  -0.0977  0.0948  1.0000  -4.2952   0.0000   0.0000   0.0000   0.2961
  11.800   1.5433   0.03946   0.03191  -0.0972  0.0930  1.0000  -4.3478   0.0000   0.0000   0.0000   0.2954
  11.900   1.5469   0.04002   0.03253  -0.0965  0.0910  1.0000  -4.4016   0.0000   0.0000   0.0000   0.2947
  12.000   1.5499   0.04064   0.03319  -0.0959  0.0890  1.0000  -4.4540   0.0000   0.0000   0.0000   0.2939
  12.100   1.5525   0.04130   0.03388  -0.0952  0.0870  1.0000  -4.5055   0.0000   0.0000   0.0000   0.2932
  12.200   1.5547   0.04200   0.03460  -0.0946  0.0851  1.0000  -4.5558   0.0000   0.0000   0.0000   0.2925
  12.300   1.5563   0.04277   0.03537  -0.0939  0.0832  1.0000  -4.6033   0.0000   0.0000   0.0000   0.2918
  12.400   1.5574   0.04364   0.03623  -0.0931  0.0812  1.0000  -4.6475   0.0000   0.0000   0.0000   0.2911
  12.500   1.5585   0.04465   0.03721  -0.0922  0.0787  1.0000  -4.6874   0.0000   0.0000   0.0000   0.2903
  12.600   1.5616   0.04554   0.03812  -0.0915  0.0767  1.0000  -4.7339   0.0000   0.0000   0.0000   0.2895
  12.700   1.5650   0.04616   0.03881  -0.0909  0.0759  1.0000  -4.7882   0.0000   0.0000   0.0000   0.2889
  12.800   1.5681   0.04682   0.03955  -0.0904  0.0749  1.0000  -4.8407   0.0000   0.0000   0.0000   0.2882
  12.900   1.5709   0.04752   0.04032  -0.0898  0.0738  1.0000  -4.8918   0.0000   0.0000   0.0000   0.2875
  13.000   1.5736   0.04825   0.04111  -0.0893  0.0725  1.0000  -4.9424   0.0000   0.0000   0.0000   0.2869
  13.100   1.5761   0.04899   0.04190  -0.0887  0.0712  1.0000  -4.9926   0.0000   0.0000   0.0000   0.2862
  13.200   1.5784   0.04974   0.04271  -0.0882  0.0699  1.0000  -5.0426   0.0000   0.0000   0.0000   0.2856
  13.300   1.5805   0.05052   0.04353  -0.0876  0.0685  1.0000  -5.0922   0.0000   0.0000   0.0000   0.2850
  13.400   1.5824   0.05132   0.04436  -0.0871  0.0672  1.0000  -5.1414   0.0000   0.0000   0.0000   0.2844
  13.500   1.5837   0.05218   0.04525  -0.0866  0.0660  1.0000  -5.1884   0.0000   0.0000   0.0000   0.2839
  13.600   1.5845   0.05310   0.04620  -0.0861  0.0648  1.0000  -5.2331   0.0000   0.0000   0.0000   0.2833
  13.700   1.5850   0.05408   0.04718  -0.0856  0.0635  1.0000  -5.2756   0.0000   0.0000   0.0000   0.2827
  13.800   1.5856   0.05512   0.04822  -0.0850  0.0619  1.0000  -5.3155   0.0000   0.0000   0.0000   0.2821
  13.900   1.5880   0.05639   0.04949  -0.0840  0.0593  1.0000  -5.3484   0.0000   0.0000   0.0000   0.2813
  14.000   1.5893   0.05720   0.05038  -0.0836  0.0588  1.0000  -5.3953   0.0000   0.0000   0.0000   0.2808
  14.100   1.5906   0.05803   0.05128  -0.0832  0.0581  1.0000  -5.4419   0.0000   0.0000   0.0000   0.2803
  14.200   1.5916   0.05891   0.05224  -0.0828  0.0574  1.0000  -5.4862   0.0000   0.0000   0.0000   0.2798
  14.300   1.5924   0.05984   0.05325  -0.0825  0.0565  1.0000  -5.5290   0.0000   0.0000   0.0000   0.2793
  14.400   1.5928   0.06082   0.05430  -0.0821  0.0556  1.0000  -5.5699   0.0000   0.0000   0.0000   0.2788
  14.500   1.5933   0.06182   0.05536  -0.0817  0.0546  1.0000  -5.6108   0.0000   0.0000   0.0000   0.2784
  14.600   1.5938   0.06283   0.05643  -0.0814  0.0536  1.0000  -5.6524   0.0000   0.0000   0.0000   0.2780
  14.700   1.5944   0.06385   0.05750  -0.0811  0.0527  1.0000  -5.6944   0.0000   0.0000   0.0000   0.2775
  14.800   1.5950   0.06488   0.05858  -0.0808  0.0517  1.0000  -5.7365   0.0000   0.0000   0.0000   0.2771
  14.900   1.5952   0.06596   0.05971  -0.0806  0.0509  1.0000  -5.7769   0.0000   0.0000   0.0000   0.2767
  15.000   1.5950   0.06711   0.06089  -0.0804  0.0501  1.0000  -5.8153   0.0000   0.0000   0.0000   0.2764
  15.100   1.5948   0.06828   0.06210  -0.0802  0.0493  1.0000  -5.8531   0.0000   0.0000   0.0000   0.2760
  15.200   1.5946   0.06947   0.06332  -0.0800  0.0485  1.0000  -5.8901   0.0000   0.0000   0.0000   0.2757
  15.300   1.5943   0.07068   0.06457  -0.0798  0.0478  1.0000  -5.9259   0.0000   0.0000   0.0000   0.2753
  15.400   1.5940   0.07193   0.06583  -0.0795  0.0470  1.0000  -5.9597   0.0000   0.0000   0.0000   0.2750
  15.500   1.5936   0.07322   0.06715  -0.0791  0.0460  1.0000  -5.9887   0.0000   0.0000   0.0000   0.2745
  15.600   1.5921   0.07480   0.06879  -0.0785  0.0448  1.0000  -6.0002   0.0000   0.0000   0.0000   0.2740
  15.700   1.5892   0.07670   0.07080  -0.0779  0.0438  1.0000  -5.9966   0.0000   0.0000   0.0000   0.2736
  15.800   1.5884   0.07800   0.07219  -0.0779  0.0435  1.0000  -6.0264   0.0000   0.0000   0.0000   0.2733
  15.900   1.5873   0.07937   0.07364  -0.0779  0.0433  1.0000  -6.0540   0.0000   0.0000   0.0000   0.2732
  16.000   1.5862   0.08075   0.07511  -0.0780  0.0430  1.0000  -6.1019   0.0000   0.0000   0.0000   0.2730
  16.100   1.5850   0.08216   0.07660  -0.0780  0.0426  1.0000  -6.1549   0.0000   0.0000   0.0000   0.2728
  16.200   1.5835   0.08366   0.07825  -0.0781  0.0422  1.0000  -6.2097   0.0000   0.0000   0.0000   0.2727
  16.300   1.5816   0.08520   0.07988  -0.0782  0.0419  1.0000  -6.2568   0.0000   0.0000   0.0000   0.2726
  16.400   1.5793   0.08681   0.08158  -0.0783  0.0415  1.0000  -6.2995   0.0000   0.0000   0.0000   0.2725
  16.500   1.5770   0.08843   0.08329  -0.0785  0.0411  1.0000  -6.3415   0.0000   0.0000   0.0000   0.2725
  16.600   1.5747   0.09007   0.08501  -0.0788  0.0408  1.0000  -6.3829   0.0000   0.0000   0.0000   0.2725
  16.700   1.5722   0.09175   0.08678  -0.0790  0.0404  1.0000  -6.4212   0.0000   0.0000   0.0000   0.2725
  16.800   1.5690   0.09354   0.08865  -0.0794  0.0401  1.0000  -6.4535   0.0000   0.0000   0.0000   0.2726
  16.900   1.5655   0.09540   0.09060  -0.0798  0.0398  1.0000  -6.4819   0.0000   0.0000   0.0000   0.2727
  17.000   1.5620   0.09727   0.09255  -0.0803  0.0394  1.0000  -6.5100   0.0000   0.0000   0.0000   0.2729
  17.100   1.5584   0.09915   0.09453  -0.0808  0.0391  1.0000  -6.5367   0.0000   0.0000   0.0000   0.2731
  17.200   1.5545   0.10110   0.09656  -0.0814  0.0388  1.0000  -6.5599   0.0000   0.0000   0.0000   0.2734
  17.300   1.5500   0.10319   0.09874  -0.0821  0.0386  1.0000  -6.5758   0.0000   0.0000   0.0000   0.2738
  17.400   1.5454   0.10530   0.10093  -0.0829  0.0383  1.0000  -6.5906   0.0000   0.0000   0.0000   0.2742
  17.500   1.5408   0.10742   0.10313  -0.0837  0.0381  1.0000  -6.6046   0.0000   0.0000   0.0000   0.2746
  17.600   1.5360   0.10962   0.10542  -0.0846  0.0379  1.0000  -6.6144   0.0000   0.0000   0.0000   0.2751
  17.700   1.5303   0.11200   0.10788  -0.0856  0.0377  1.0000  -6.6152   0.0000   0.0000   0.0000   0.2758
  17.800   1.5247   0.11436   0.11033  -0.0868  0.0375  1.0000  -6.6152   0.0000   0.0000   0.0000   0.2765
  17.900   1.5191   0.11669   0.11274  -0.0879  0.0373  1.0000  -6.6137   0.0000   0.0000   0.0000   0.2772
  18.000   1.5126   0.11922   0.11536  -0.0893  0.0372  1.0000  -6.6011   0.0000   0.0000   0.0000   0.2781
  18.100   1.5057   0.12185   0.11807  -0.0908  0.0370  1.0000  -6.5828   0.0000   0.0000   0.0000   0.2792
  18.200   1.4989   0.12451   0.12082  -0.0923  0.0369  1.0000  -6.5626   0.0000   0.0000   0.0000   0.2802
  18.300   1.4908   0.12752   0.12392  -0.0941  0.0368  1.0000  -6.5267   0.0000   0.0000   0.0000   0.2815
  18.400   1.4820   0.13074   0.12724  -0.0961  0.0367  1.0000  -6.4804   0.0000   0.0000   0.0000   0.2830
  18.500   1.4728   0.13416   0.13075  -0.0982  0.0367  1.0000  -6.4256   0.0000   0.0000   0.0000   0.2847
  18.600   1.4610   0.13827   0.13496  -0.1009  0.0367  1.0000  -6.3374   0.0000   0.0000   0.0000   0.2868
  18.700   1.4481   0.14275   0.13955  -0.1038  0.0368  1.0000  -6.2320   0.0000   0.0000   0.0000   0.2893
  18.800   1.4304   0.14861   0.14553  -0.1077  0.0371  1.0000  -6.0608   0.0000   0.0000   0.0000   0.2928
  18.900   1.4044   0.15696   0.15403  -0.1133  0.0376  1.0000  -5.7715   0.0000   0.0000   0.0000   0.2982
  19.100   1.2111   0.23045   0.22754  -0.1528  0.0423  1.0000  -3.0760   0.0000   0.0000   0.0000   0.3469
  19.200   1.2077   0.23469   0.23179  -0.1545  0.0423  1.0000  -2.9997   0.0000   0.0000   0.0000   0.3486
  19.300   1.2050   0.23867   0.23576  -0.1561  0.0424  1.0000  -2.9325   0.0000   0.0000   0.0000   0.3501
  19.400   1.2028   0.24246   0.23956  -0.1576  0.0424  1.0000  -2.8792   0.0000   0.0000   0.0000   0.3514
  19.500   1.2010   0.24612   0.24322  -0.1589  0.0425  1.0000  -2.8365   0.0000   0.0000   0.0000   0.3527
  19.600   1.1994   0.24967   0.24677  -0.1602  0.0426  1.0000  -2.7979   0.0000   0.0000   0.0000   0.3538
  19.700   1.1981   0.25313   0.25023  -0.1613  0.0427  1.0000  -2.7635   0.0000   0.0000   0.0000   0.3547
  19.800   1.1969   0.25649   0.25360  -0.1622  0.0430  1.0000  -2.7354   0.0000   0.0000   0.0000   0.3555
  19.900   1.1844   0.27414   0.27126  -0.1642  0.0590  1.0000  -2.3334   0.0000   0.0000   0.0000   0.3592
  20.000   1.1843   0.27697   0.27410  -0.1653  0.0589  1.0000  -2.3154   0.0000   0.0000   0.0000   0.3600
  20.100   1.1842   0.27970   0.27684  -0.1665  0.0588  1.0000  -2.2974   0.0000   0.0000   0.0000   0.3609
  20.200   1.1841   0.28229   0.27942  -0.1678  0.0586  1.0000  -2.2780   0.0000   0.0000   0.0000   0.3618
  20.300   1.1818   0.28493   0.28206  -0.1700  0.0581  1.0000  -2.2247   0.0000   0.0000   0.0000   0.3639
  20.400   1.1738   0.28860   0.28564  -0.1747  0.0546  1.0000  -2.0727   0.0000   0.0000   0.0000   0.3688
  20.500   1.1739   0.29108   0.28819  -0.1758  0.0535  1.0000  -2.0701   0.0000   0.0000   0.0000   0.3696
  20.600   1.1743   0.29345   0.29057  -0.1767  0.0525  1.0000  -2.0707   0.0000   0.0000   0.0000   0.3701
  20.700   1.1749   0.29575   0.29287  -0.1775  0.0517  1.0000  -2.0739   0.0000   0.0000   0.0000   0.3705
  20.800   1.1756   0.29798   0.29512  -0.1782  0.0510  1.0000  -2.0796   0.0000   0.0000   0.0000   0.3708
  20.900   1.1763   0.30017   0.29732  -0.1789  0.0504  1.0000  -2.0871   0.0000   0.0000   0.0000   0.3711
  21.000   1.1771   0.30232   0.29948  -0.1795  0.0498  1.0000  -2.0963   0.0000   0.0000   0.0000   0.3713
  21.100   1.1779   0.30444   0.30160  -0.1801  0.0493  1.0000  -2.1069   0.0000   0.0000   0.0000   0.3715
  21.200   1.1788   0.30653   0.30370  -0.1807  0.0488  1.0000  -2.1188   0.0000   0.0000   0.0000   0.3716
  21.300   1.1796   0.30859   0.30577  -0.1812  0.0484  1.0000  -2.1320   0.0000   0.0000   0.0000   0.3717
  21.400   1.1805   0.31062   0.30781  -0.1817  0.0480  1.0000  -2.1465   0.0000   0.0000   0.0000   0.3718
  21.500   1.1814   0.31263   0.30983  -0.1821  0.0476  1.0000  -2.1623   0.0000   0.0000   0.0000   0.3718
  21.600   1.1823   0.31461   0.31183  -0.1825  0.0473  1.0000  -2.1794   0.0000   0.0000   0.0000   0.3718
  21.700   1.1832   0.31657   0.31380  -0.1829  0.0470  1.0000  -2.1981   0.0000   0.0000   0.0000   0.3717
  21.800   1.1842   0.31850   0.31575  -0.1832  0.0467  1.0000  -2.2183   0.0000   0.0000   0.0000   0.3716
  21.900   1.1852   0.32043   0.31769  -0.1834  0.0464  1.0000  -2.2400   0.0000   0.0000   0.0000   0.3715
  22.000   1.1862   0.32234   0.31962  -0.1836  0.0461  1.0000  -2.2773   0.0000   0.0000   0.0000   0.3713
  22.100   1.1873   0.32425   0.32154  -0.1837  0.0459  1.0000  -2.3170   0.0000   0.0000   0.0000   0.3710
  22.200   1.1884   0.32616   0.32347  -0.1838  0.0456  1.0000  -2.3595   0.0000   0.0000   0.0000   0.3706
  22.300   1.1898   0.32810   0.32543  -0.1837  0.0454  1.0000  -2.4055   0.0000   0.0000   0.0000   0.3701
  22.400   1.1913   0.33010   0.32745  -0.1835  0.0452  1.0000  -2.4560   0.0000   0.0000   0.0000   0.3695
  22.500   1.1927   0.33228   0.32965  -0.1832  0.0449  1.0000  -2.5072   0.0000   0.0000   0.0000   0.3689
  22.600   1.1933   0.33493   0.33233  -0.1828  0.0446  1.0000  -2.5542   0.0000   0.0000   0.0000   0.3682
  22.700   1.1820   0.34309   0.34047  -0.1825  0.0438  1.0000  -2.4666   0.0000   0.0000   0.0000   0.3694
  22.800   1.1793   0.34558   0.34297  -0.1829  0.0438  1.0000  -2.4588   0.0000   0.0000   0.0000   0.3700
  22.900   1.1759   0.34795   0.34536  -0.1834  0.0438  1.0000  -2.4469   0.0000   0.0000   0.0000   0.3706
  23.000   1.1715   0.35015   0.34758  -0.1837  0.0437  1.0000  -2.4297   0.0000   0.0000   0.0000   0.3714
  23.100   1.1653   0.35211   0.34955  -0.1839  0.0437  1.0000  -2.4054   0.0000   0.0000   0.0000   0.3722
  23.300   1.0207   0.32680   0.32447  -0.1646  0.0437  1.0000  -1.9675   0.0000   0.0000   0.0000   0.3775
  23.400   1.0142   0.32654   0.32422  -0.1646  0.0436  1.0000  -1.9415   0.0000   0.0000   0.0000   0.3785
  23.500   1.0069   0.32623   0.32392  -0.1647  0.0434  1.0000  -1.9036   0.0000   0.0000   0.0000   0.3797
  23.600   0.9992   0.32592   0.32363  -0.1650  0.0433  1.0000  -1.8586   0.0000   0.0000   0.0000   0.3812
  23.700   0.9916   0.32579   0.32350  -0.1657  0.0430  1.0000  -1.8016   0.0000   0.0000   0.0000   0.3831
  23.800   0.9852   0.32651   0.32423  -0.1672  0.0422  1.0000  -1.7210   0.0000   0.0000   0.0000   0.3857
  23.900   0.9815   0.32793   0.32566  -0.1685  0.0401  1.0000  -1.6600   0.0000   0.0000   0.0000   0.3875
  24.000   0.9784   0.32846   0.32620  -0.1687  0.0384  1.0000  -1.6431   0.0000   0.0000   0.0000   0.3882
  24.100   0.9757   0.32876   0.32651  -0.1687  0.0369  1.0000  -1.6380   0.0000   0.0000   0.0000   0.3885
  24.200   0.9736   0.32887   0.32664  -0.1686  0.0355  1.0000  -1.6451   0.0000   0.0000   0.0000   0.3886
  24.300   0.9725   0.32873   0.32651  -0.1684  0.0342  1.0000  -1.6717   0.0000   0.0000   0.0000   0.3883
  24.400   0.9730   0.32809   0.32589  -0.1679  0.0329  1.0000  -1.7360   0.0000   0.0000   0.0000   0.3874
  24.500   0.9738   0.32713   0.32495  -0.1639  0.0307  1.0000  -1.9003   0.0000   0.0000   0.0000   0.3828
  24.600   0.9696   0.32751   0.32534  -0.1643  0.0306  1.0000  -1.8551   0.0000   0.0000   0.0000   0.3838
  24.700   0.9658   0.32792   0.32576  -0.1646  0.0305  1.0000  -1.8128   0.0000   0.0000   0.0000   0.3847
  24.800   0.9620   0.32837   0.32622  -0.1650  0.0304  1.0000  -1.7694   0.0000   0.0000   0.0000   0.3857
  24.900   0.9575   0.32886   0.32671  -0.1656  0.0303  1.0000  -1.7157   0.0000   0.0000   0.0000   0.3870
  25.000   0.9531   0.32954   0.32739  -0.1663  0.0301  1.0000  -1.6545   0.0000   0.0000   0.0000   0.3885
  25.100   0.9494   0.33100   0.32885  -0.1678  0.0294  1.0000  -1.5688   0.0000   0.0000   0.0000   0.3907
  25.200   0.9476   0.33293   0.33078  -0.1691  0.0266  1.0000  -1.4984   0.0000   0.0000   0.0000   0.3923
  25.300   0.9464   0.33342   0.33128  -0.1693  0.0247  1.0000  -1.4919   0.0000   0.0000   0.0000   0.3925
  25.400   0.9456   0.33359   0.33146  -0.1693  0.0233  1.0000  -1.5033   0.0000   0.0000   0.0000   0.3925
  25.500   0.9455   0.33346   0.33134  -0.1693  0.0222  1.0000  -1.5336   0.0000   0.0000   0.0000   0.3921
  25.600   0.9462   0.33286   0.33076  -0.1689  0.0213  1.0000  -1.5909   0.0000   0.0000   0.0000   0.3913
  25.700   0.9486   0.33126   0.32919  -0.1675  0.0204  1.0000  -1.7127   0.0000   0.0000   0.0000   0.3888
  25.800   0.9413   0.33209   0.33000  -0.1664  0.0199  1.0000  -1.6303   0.0000   0.0000   0.0000   0.3891
  25.900   0.9389   0.33282   0.33074  -0.1666  0.0199  1.0000  -1.5865   0.0000   0.0000   0.0000   0.3896
  26.000   0.9367   0.33352   0.33145  -0.1668  0.0198  1.0000  -1.5466   0.0000   0.0000   0.0000   0.3901
  26.100   0.9346   0.33422   0.33215  -0.1670  0.0198  1.0000  -1.5104   0.0000   0.0000   0.0000   0.3906
  26.200   0.9327   0.33491   0.33284  -0.1672  0.0198  1.0000  -1.4773   0.0000   0.0000   0.0000   0.3911
  26.300   0.9309   0.33559   0.33353  -0.1675  0.0197  1.0000  -1.4465   0.0000   0.0000   0.0000   0.3915
  26.400   0.9291   0.33626   0.33421  -0.1677  0.0197  1.0000  -1.4175   0.0000   0.0000   0.0000   0.3920
  26.500   0.9272   0.33694   0.33489  -0.1680  0.0197  1.0000  -1.3874   0.0000   0.0000   0.0000   0.3925
  26.600   0.9252   0.33764   0.33560  -0.1684  0.0196  1.0000  -1.3556   0.0000   0.0000   0.0000   0.3932
  26.700   0.9233   0.33837   0.33633  -0.1688  0.0196  1.0000  -1.3248   0.0000   0.0000   0.0000   0.3938
  26.800   0.9215   0.33912   0.33709  -0.1692  0.0195  1.0000  -1.2944   0.0000   0.0000   0.0000   0.3945
  26.900   0.9198   0.33993   0.33790  -0.1697  0.0195  1.0000  -1.2640   0.0000   0.0000   0.0000   0.3952
  27.000   0.9183   0.34083   0.33880  -0.1702  0.0193  1.0000  -1.2326   0.0000   0.0000   0.0000   0.3959
  27.100   0.9170   0.34185   0.33983  -0.1709  0.0192  1.0000  -1.1987   0.0000   0.0000   0.0000   0.3967
  27.200   0.9160   0.34313   0.34111  -0.1716  0.0188  1.0000  -1.1602   0.0000   0.0000   0.0000   0.3975
  27.300   0.9153   0.34446   0.34244  -0.1722  0.0182  1.0000  -1.1239   0.0000   0.0000   0.0000   0.3982
  27.400   0.9145   0.34542   0.34341  -0.1726  0.0175  1.0000  -1.1019   0.0000   0.0000   0.0000   0.3987
  27.500   0.9137   0.34618   0.34418  -0.1729  0.0170  1.0000  -1.0876   0.0000   0.0000   0.0000   0.3990
  27.600   0.9128   0.34687   0.34487  -0.1732  0.0165  1.0000  -1.0768   0.0000   0.0000   0.0000   0.3992
  27.700   0.9119   0.34750   0.34551  -0.1735  0.0161  1.0000  -1.0681   0.0000   0.0000   0.0000   0.3995
  27.800   0.9111   0.34812   0.34614  -0.1737  0.0157  1.0000  -1.0608   0.0000   0.0000   0.0000   0.3997
  27.900   0.9103   0.34872   0.34675  -0.1740  0.0154  1.0000  -1.0547   0.0000   0.0000   0.0000   0.3999
  28.000   0.9096   0.34931   0.34735  -0.1742  0.0151  1.0000  -1.0496   0.0000   0.0000   0.0000   0.4001
  28.100   0.9088   0.34989   0.34793  -0.1744  0.0148  1.0000  -1.0453   0.0000   0.0000   0.0000   0.4003
  28.200   0.9081   0.35046   0.34851  -0.1747  0.0145  1.0000  -1.0419   0.0000   0.0000   0.0000   0.4005
  28.300   0.9074   0.35102   0.34908  -0.1749  0.0143  1.0000  -1.0393   0.0000   0.0000   0.0000   0.4007
  28.400   0.9067   0.35157   0.34963  -0.1752  0.0141  1.0000  -1.0375   0.0000   0.0000   0.0000   0.4009
  28.500   0.9061   0.35212   0.35023  -0.1754  0.0139  1.0000  -1.0389   0.0000   0.0000   0.0000   0.4010
  28.600   0.9054   0.35264   0.35076  -0.1757  0.0137  1.0000  -1.0389   0.0000   0.0000   0.0000   0.4012
  28.700   0.9048   0.35316   0.35129  -0.1759  0.0135  1.0000  -1.0396   0.0000   0.0000   0.0000   0.4013


