xflr5 v6.61

 Calculated polar for: SG6043

 1 1 Reynolds number fixed          Mach number fixed         

 xtrf =   1.000 (top)        1.000 (bottom)
 Mach =   0.000     Re =     0.160 e 6     Ncrit =   9.000

  alpha     CL        CD       CDp       Cm    Top Xtr Bot Xtr   Cpmin    Chinge    XCp    
 ------- -------- --------- --------- -------- ------- ------- -------- --------- ---------
 -10.000  -0.3242   0.13586   0.13187  -0.0286  1.0000  0.0324  -1.2799   0.0000   0.0000   0.0000   0.1508
  -9.900  -0.3268   0.13553   0.13156  -0.0283  1.0000  0.0326  -1.2960   0.0000   0.0000   0.0000   0.1526
  -9.800  -0.3295   0.13523   0.13128  -0.0280  1.0000  0.0328  -1.3126   0.0000   0.0000   0.0000   0.1545
  -9.700  -0.3325   0.13494   0.13101  -0.0277  1.0000  0.0330  -1.3293   0.0000   0.0000   0.0000   0.1563
  -9.600  -0.3355   0.13464   0.13073  -0.0274  1.0000  0.0331  -1.3459   0.0000   0.0000   0.0000   0.1582
  -9.500  -0.3385   0.13432   0.13043  -0.0271  1.0000  0.0332  -1.3622   0.0000   0.0000   0.0000   0.1600
  -9.400  -0.3415   0.13397   0.13010  -0.0269  1.0000  0.0333  -1.3782   0.0000   0.0000   0.0000   0.1617
  -9.300  -0.3444   0.13358   0.12973  -0.0266  1.0000  0.0334  -1.3935   0.0000   0.0000   0.0000   0.1634
  -9.200  -0.3469   0.13314   0.12931  -0.0263  1.0000  0.0335  -1.4076   0.0000   0.0000   0.0000   0.1650
  -9.100  -0.3493   0.13265   0.12884  -0.0260  1.0000  0.0335  -1.4205   0.0000   0.0000   0.0000   0.1666
  -9.000  -0.3504   0.13202   0.12822  -0.0260  0.9998  0.0336  -1.4328   0.0000   0.0000   0.0000   0.1669
  -8.900  -0.3451   0.13076   0.12697  -0.0280  0.9986  0.0337  -1.4462   0.0000   0.0000   0.0000   0.1599
  -8.800  -0.3396   0.12946   0.12567  -0.0298  0.9974  0.0338  -1.4545   0.0000   0.0000   0.0000   0.1533
  -8.700  -0.3343   0.12814   0.12435  -0.0314  0.9961  0.0338  -1.4622   0.0000   0.0000   0.0000   0.1469
  -8.600  -0.3291   0.12680   0.12301  -0.0331  0.9947  0.0339  -1.4699   0.0000   0.0000   0.0000   0.1403
  -8.500  -0.3237   0.12544   0.12165  -0.0348  0.9935  0.0339  -1.4779   0.0000   0.0000   0.0000   0.1332
  -8.400  -0.3185   0.12408   0.12030  -0.0364  0.9923  0.0340  -1.4860   0.0000   0.0000   0.0000   0.1263
  -8.300  -0.3145   0.12279   0.11900  -0.0377  0.9906  0.0340  -1.4944   0.0000   0.0000   0.0000   0.1207
  -8.200  -0.3101   0.12146   0.11768  -0.0391  0.9889  0.0340  -1.5030   0.0000   0.0000   0.0000   0.1144
  -8.100  -0.3053   0.12008   0.11630  -0.0407  0.9873  0.0341  -1.5119   0.0000   0.0000   0.0000   0.1072
  -8.000  -0.2998   0.11865   0.11487  -0.0425  0.9858  0.0341  -1.5211   0.0000   0.0000   0.0000   0.0988
  -7.900  -0.2938   0.11717   0.11339  -0.0444  0.9846  0.0341  -1.5307   0.0000   0.0000   0.0000   0.0892
  -7.800  -0.2914   0.11595   0.11218  -0.0453  0.9820  0.0341  -1.5407   0.0000   0.0000   0.0000   0.0851
  -7.700  -0.2951   0.11082   0.10710  -0.0457  0.9808  0.0349  -1.6110   0.0000   0.0000   0.0000   0.0855
  -7.600  -0.2884   0.10829   0.10456  -0.0453  0.9801  0.0355  -1.5653   0.0000   0.0000   0.0000   0.0831
  -7.500  -0.2808   0.10649   0.10276  -0.0453  0.9790  0.0360  -1.5159   0.0000   0.0000   0.0000   0.0789
  -7.400  -0.2733   0.10493   0.10120  -0.0456  0.9778  0.0364  -1.4747   0.0000   0.0000   0.0000   0.0732
  -7.300  -0.2662   0.10350   0.09976  -0.0462  0.9766  0.0370  -1.4430   0.0000   0.0000   0.0000   0.0661
  -7.200  -0.2593   0.10213   0.09840  -0.0471  0.9754  0.0375  -1.4186   0.0000   0.0000   0.0000   0.0578
  -7.100  -0.2526   0.10080   0.09707  -0.0483  0.9744  0.0380  -1.3998   0.0000   0.0000   0.0000   0.0482
  -7.000  -0.2464   0.09952   0.09579  -0.0495  0.9733  0.0386  -1.3861   0.0000   0.0000   0.0000   0.0384
  -6.900  -0.2479   0.09876   0.09505  -0.0489  0.9699  0.0390  -1.3851   0.0000   0.0000   0.0000   0.0423
  -6.800  -0.2458   0.09775   0.09405  -0.0493  0.9675  0.0395  -1.3813   0.0000   0.0000   0.0000   0.0390
  -6.700  -0.2425   0.09665   0.09295  -0.0501  0.9654  0.0400  -1.3782   0.0000   0.0000   0.0000   0.0330
  -6.600  -0.2383   0.09548   0.09178  -0.0512  0.9636  0.0407  -1.3765   0.0000   0.0000   0.0000   0.0247
  -6.500  -0.2332   0.09423   0.09054  -0.0526  0.9620  0.0414  -1.3766   0.0000   0.0000   0.0000   0.0137
  -6.400  -0.2269   0.09290   0.08921  -0.0545  0.9606  0.0423  -1.3787   0.0000   0.0000   0.0000  -0.0007
  -6.300  -0.2306   0.09225   0.08858  -0.0537  0.9563  0.0427  -1.3872   0.0000   0.0000   0.0000   0.0069
  -6.200  -0.2286   0.09113   0.08747  -0.0545  0.9529  0.0434  -1.3946   0.0000   0.0000   0.0000   0.0015
  -6.100  -0.2229   0.08970   0.08604  -0.0564  0.9502  0.0445  -1.4047   0.0000   0.0000   0.0000  -0.0135
  -6.000  -0.2144   0.08805   0.08439  -0.0595  0.9480  0.0460  -1.4231   0.0000   0.0000   0.0000  -0.0382
  -5.900  -0.1980   0.08609   0.08241  -0.0671  0.9455  0.0484  -1.4861   0.0000   0.0000   0.0000  -0.1000
  -5.800  -0.1945   0.08538   0.08169  -0.0708  0.9403  0.0494  -1.5427   0.0000   0.0000   0.0000  -0.1252
  -5.700  -0.1875   0.08435   0.08065  -0.0747  0.9360  0.0499  -1.5858   0.0000   0.0000   0.0000  -0.1594
  -5.600  -0.1754   0.08271   0.07898  -0.0791  0.9333  0.0502  -1.6198   0.0000   0.0000   0.0000  -0.2130
  -5.500  -0.1618   0.08070   0.07691  -0.0837  0.9313  0.0504  -1.6533   0.0000   0.0000   0.0000  -0.2795
  -5.400  -0.1476   0.07852   0.07467  -0.0881  0.9298  0.0505  -1.6847   0.0000   0.0000   0.0000  -0.3599
  -5.300  -0.1532   0.07297   0.06920  -0.0888  0.9289  0.0520  -1.7395   0.0000   0.0000   0.0000  -0.3425
  -5.200  -0.1500   0.07198   0.06825  -0.0866  0.9282  0.0530  -1.6650   0.0000   0.0000   0.0000  -0.3402
  -5.100  -0.1439   0.07130   0.06759  -0.0851  0.9275  0.0542  -1.5893   0.0000   0.0000   0.0000  -0.3550
  -5.000  -0.1360   0.07075   0.06701  -0.0840  0.9269  0.0562  -1.5199   0.0000   0.0000   0.0000  -0.3818
  -4.900  -0.1380   0.07035   0.06663  -0.0826  0.9229  0.0573  -1.4956   0.0000   0.0000   0.0000  -0.3619
  -4.800  -0.1383   0.06982   0.06610  -0.0816  0.9185  0.0590  -1.4718   0.0000   0.0000   0.0000  -0.3534
  -4.700  -0.1288   0.06869   0.06496  -0.0836  0.9157  0.0626  -1.4438   0.0000   0.0000   0.0000  -0.4131
  -4.600  -0.0787   0.06741   0.06330  -0.1004  0.9121  0.0700  -1.5329   0.0000   0.0000   0.0000  -1.0480
  -4.500  -0.0611   0.06593   0.06169  -0.1041  0.9106  0.0702  -1.5222   0.0000   0.0000   0.0000  -1.4811
  -4.400  -0.0618   0.05956   0.05543  -0.1063  0.9099  0.0723  -1.5554   0.0000   0.0000   0.0000  -1.4966
  -4.300  -0.0529   0.05815   0.05406  -0.1066  0.9090  0.0732  -1.4948   0.0000   0.0000   0.0000  -1.7952
  -4.200  -0.0424   0.05693   0.05285  -0.1073  0.9081  0.0741  -1.4340   0.0000   0.0000   0.0000  -2.3177
  -4.100  -0.0307   0.05582   0.05175  -0.1081  0.9074  0.0751  -1.3724   0.0000   0.0000   0.0000  -3.3224
  -4.000  -0.0174   0.05467   0.05059  -0.1095  0.9067  0.0764  -1.3136   0.0000   0.0000   0.0000  -6.1155
  -3.900  -0.0025   0.05344   0.04933  -0.1114  0.9061  0.0781  -1.2584   0.0000   0.0000   0.0000  -44.8712
  -3.800  -0.0072   0.05314   0.04903  -0.1095  0.9011  0.0786  -1.2524   0.0000   0.0000   0.0000  -15.1886
  -3.700  -0.0040   0.05243   0.04830  -0.1091  0.8972  0.0796  -1.2301   0.0000   0.0000   0.0000  -27.5166
  -3.600   0.0077   0.05129   0.04712  -0.1106  0.8949  0.0816  -1.2110   0.0000   0.0000   0.0000  14.7354
  -3.500   0.0235   0.04997   0.04572  -0.1130  0.8931  0.0845  -1.1987   0.0000   0.0000   0.0000   5.1069
  -3.400   0.0585   0.05123   0.04653  -0.1181  0.8909  0.0925  -1.2101   0.0000   0.0000   0.0000   2.2920
  -3.300   0.0756   0.04583   0.04100  -0.1236  0.8904  0.0954  -1.2497   0.0000   0.0000   0.0000   1.9027
  -3.200   0.0875   0.04426   0.03949  -0.1245  0.8893  0.0969  -1.2114   0.0000   0.0000   0.0000   1.6885
  -3.100   0.1010   0.04309   0.03835  -0.1256  0.8883  0.0984  -1.1713   0.0000   0.0000   0.0000   1.5061
  -3.000   0.1160   0.04206   0.03731  -0.1269  0.8873  0.1003  -1.1333   0.0000   0.0000   0.0000   1.3546
  -2.900   0.1323   0.04107   0.03630  -0.1285  0.8865  0.1027  -1.0985   0.0000   0.0000   0.0000   1.2301
  -2.800   0.1501   0.04009   0.03525  -0.1303  0.8858  0.1059  -1.0688   0.0000   0.0000   0.0000   1.1262
  -2.700   0.1698   0.03918   0.03423  -0.1325  0.8851  0.1105  -1.0461   0.0000   0.0000   0.0000   1.0371
  -2.600   0.1947   0.03780   0.03251  -0.1365  0.8847  0.1227  -1.0414   0.0000   0.0000   0.0000   0.9565
  -2.500   0.2399   0.03057   0.02405  -0.1417  0.8859  0.0525  -1.4522   0.0000   0.0000   0.0000   0.8459
  -2.400   0.2559   0.03099   0.02442  -0.1420  0.8850  0.0510  -1.4013   0.0000   0.0000   0.0000   0.8097
  -2.300   0.2760   0.02882   0.02207  -0.1443  0.8849  0.0481  -1.4199   0.0000   0.0000   0.0000   0.7772
  -2.200   0.2954   0.02762   0.02068  -0.1460  0.8845  0.0467  -1.4167   0.0000   0.0000   0.0000   0.7482
  -2.100   0.3145   0.02664   0.01951  -0.1475  0.8840  0.0456  -1.4089   0.0000   0.0000   0.0000   0.7225
  -2.000   0.3335   0.02578   0.01850  -0.1489  0.8836  0.0447  -1.3977   0.0000   0.0000   0.0000   0.6996
  -1.900   0.3522   0.02502   0.01760  -0.1501  0.8831  0.0442  -1.3830   0.0000   0.0000   0.0000   0.6792
  -1.700   0.3606   0.02476   0.01718  -0.1477  0.8745  0.0441  -1.3741   0.0000   0.0000   0.0000   0.6623
  -1.600   0.3732   0.02434   0.01670  -0.1480  0.8722  0.0442  -1.3574   0.0000   0.0000   0.0000   0.6488
  -1.500   0.3873   0.02392   0.01621  -0.1484  0.8705  0.0445  -1.3373   0.0000   0.0000   0.0000   0.6353
  -1.400   0.4020   0.02351   0.01576  -0.1490  0.8690  0.0452  -1.3152   0.0000   0.0000   0.0000   0.6225
  -1.300   0.4171   0.02313   0.01535  -0.1496  0.8677  0.0464  -1.2927   0.0000   0.0000   0.0000   0.6104
  -1.200   0.4328   0.02277   0.01495  -0.1504  0.8665  0.0482  -1.2711   0.0000   0.0000   0.0000   0.5989
  -1.100   0.4488   0.02248   0.01462  -0.1511  0.8654  0.0506  -1.2500   0.0000   0.0000   0.0000   0.5880
  -1.000   0.4700   0.02151   0.01378  -0.1531  0.8651  0.0852  -1.3217   0.0000   0.0000   0.0000   0.5767
  -0.900   0.4880   0.02104   0.01351  -0.1545  0.8642  0.1437  -1.2952   0.0000   0.0000   0.0000   0.5674
  -0.800   0.5049   0.02070   0.01335  -0.1557  0.8632  0.1888  -1.2284   0.0000   0.0000   0.0000   0.5590
  -0.700   0.5232   0.02007   0.01328  -0.1575  0.8625  0.3321  -1.1517   0.0000   0.0000   0.0000   0.5515
  -0.600   0.5383   0.01927   0.01344  -0.1582  0.8619  0.6198  -1.0794   0.0000   0.0000   0.0000   0.5443
  -0.400   0.5586   0.01852   0.01320  -0.1564  0.8600  0.8152  -0.9608   0.0000   0.0000   0.0000   0.5299
  -0.300   0.5669   0.01814   0.01293  -0.1550  0.8590  0.9044  -0.9064   0.0000   0.0000   0.0000   0.5232
  -0.200   0.5845   0.01791   0.01264  -0.1560  0.8583  1.0000  -0.8281   0.0000   0.0000   0.0000   0.5165
  -0.100   0.6025   0.01780   0.01245  -0.1571  0.8577  1.0000  -0.7500   0.0000   0.0000   0.0000   0.5104
   0.000   0.6207   0.01770   0.01226  -0.1584  0.8571  1.0000  -0.7141   0.0000   0.0000   0.0000   0.5046
   0.300   0.6280   0.01855   0.01301  -0.1540  0.8408  1.0000  -0.7236   0.0000   0.0000   0.0000   0.4943
   0.400   0.6438   0.01842   0.01282  -0.1548  0.8393  1.0000  -0.7350   0.0000   0.0000   0.0000   0.4893
   0.500   0.6601   0.01828   0.01260  -0.1556  0.8381  1.0000  -0.7473   0.0000   0.0000   0.0000   0.4844
   0.600   0.6768   0.01812   0.01239  -0.1564  0.8370  1.0000  -0.7604   0.0000   0.0000   0.0000   0.4798
   0.700   0.6940   0.01796   0.01218  -0.1574  0.8360  1.0000  -0.7737   0.0000   0.0000   0.0000   0.4753
   0.800   0.7115   0.01780   0.01197  -0.1585  0.8350  1.0000  -0.7874   0.0000   0.0000   0.0000   0.4710
   0.900   0.7295   0.01762   0.01175  -0.1596  0.8341  1.0000  -0.8019   0.0000   0.0000   0.0000   0.4670
   1.000   0.7473   0.01745   0.01153  -0.1606  0.8332  1.0000  -0.8169   0.0000   0.0000   0.0000   0.4630
   1.100   0.7651   0.01727   0.01131  -0.1617  0.8323  1.0000  -0.8325   0.0000   0.0000   0.0000   0.4593
   1.200   0.7829   0.01709   0.01109  -0.1627  0.8314  1.0000  -0.8489   0.0000   0.0000   0.0000   0.4557
   1.300   0.8007   0.01693   0.01089  -0.1638  0.8305  1.0000  -0.8654   0.0000   0.0000   0.0000   0.4523
   1.600   0.8116   0.01763   0.01157  -0.1598  0.8147  1.0000  -0.8856   0.0000   0.0000   0.0000   0.4443
   1.700   0.8269   0.01747   0.01138  -0.1604  0.8127  1.0000  -0.9019   0.0000   0.0000   0.0000   0.4412
   1.800   0.8431   0.01728   0.01117  -0.1611  0.8109  1.0000  -0.9189   0.0000   0.0000   0.0000   0.4382
   1.900   0.8596   0.01708   0.01095  -0.1619  0.8092  1.0000  -0.9374   0.0000   0.0000   0.0000   0.4354
   2.000   0.8763   0.01688   0.01073  -0.1627  0.8077  1.0000  -0.9566   0.0000   0.0000   0.0000   0.4326
   2.100   0.8934   0.01667   0.01050  -0.1636  0.8061  1.0000  -0.9764   0.0000   0.0000   0.0000   0.4299
   2.200   0.9113   0.01645   0.01025  -0.1646  0.8047  1.0000  -0.9988   0.0000   0.0000   0.0000   0.4273
   2.300   0.9295   0.01624   0.01002  -0.1657  0.8032  1.0000  -1.0217   0.0000   0.0000   0.0000   0.4248
   2.400   0.9476   0.01606   0.00982  -0.1668  0.8017  1.0000  -1.0447   0.0000   0.0000   0.0000   0.4225
   2.500   0.9447   0.01647   0.01026  -0.1643  0.7949  1.0000  -1.0491   0.0000   0.0000   0.0000   0.4202
   2.600   0.9507   0.01658   0.01038  -0.1633  0.7897  1.0000  -1.0633   0.0000   0.0000   0.0000   0.4180
   2.700   0.9623   0.01651   0.01030  -0.1632  0.7860  1.0000  -1.0829   0.0000   0.0000   0.0000   0.4157
   2.800   0.9762   0.01637   0.01022  -0.1635  0.7830  1.0000  -1.1073   0.0000   0.0000   0.0000   0.4134
   2.900   0.9918   0.01618   0.01001  -0.1641  0.7803  1.0000  -1.1341   0.0000   0.0000   0.0000   0.4113
   3.000   1.0086   0.01595   0.00976  -0.1649  0.7778  1.0000  -1.1624   0.0000   0.0000   0.0000   0.4092
   3.100   1.0260   0.01572   0.00951  -0.1658  0.7754  1.0000  -1.1914   0.0000   0.0000   0.0000   0.4072
   3.200   1.0435   0.01552   0.00928  -0.1668  0.7730  1.0000  -1.2208   0.0000   0.0000   0.0000   0.4053
   3.300   1.0575   0.01546   0.00921  -0.1671  0.7698  1.0000  -1.2464   0.0000   0.0000   0.0000   0.4034
   3.400   1.0580   0.01570   0.00948  -0.1651  0.7634  1.0000  -1.2571   0.0000   0.0000   0.0000   0.4013
   3.500   1.0662   0.01572   0.00952  -0.1644  0.7582  1.0000  -1.2763   0.0000   0.0000   0.0000   0.3993
   3.600   1.0780   0.01564   0.00943  -0.1644  0.7539  1.0000  -1.2998   0.0000   0.0000   0.0000   0.3975
   3.700   1.0919   0.01550   0.00928  -0.1647  0.7500  1.0000  -1.3277   0.0000   0.0000   0.0000   0.3957
   3.800   1.1072   0.01531   0.00907  -0.1652  0.7463  1.0000  -1.3593   0.0000   0.0000   0.0000   0.3939
   3.900   1.1233   0.01513   0.00886  -0.1659  0.7427  1.0000  -1.3922   0.0000   0.0000   0.0000   0.3922
   4.000   1.1404   0.01500   0.00868  -0.1668  0.7391  1.0000  -1.4265   0.0000   0.0000   0.0000   0.3907
   4.100   1.1425   0.01516   0.00890  -0.1650  0.7327  1.0000  -1.4416   0.0000   0.0000   0.0000   0.3888
   4.200   1.1498   0.01519   0.00895  -0.1642  0.7266  1.0000  -1.4635   0.0000   0.0000   0.0000   0.3870
   4.300   1.1605   0.01513   0.00889  -0.1639  0.7209  1.0000  -1.4899   0.0000   0.0000   0.0000   0.3853
   4.400   1.1731   0.01501   0.00876  -0.1639  0.7158  1.0000  -1.5192   0.0000   0.0000   0.0000   0.3837
   4.500   1.1882   0.01487   0.00857  -0.1644  0.7111  1.0000  -1.5561   0.0000   0.0000   0.0000   0.3822
   4.600   1.2036   0.01477   0.00843  -0.1650  0.7061  1.0000  -1.5945   0.0000   0.0000   0.0000   0.3808
   4.700   1.2074   0.01489   0.00861  -0.1635  0.6992  1.0000  -1.6153   0.0000   0.0000   0.0000   0.3790
   4.800   1.2148   0.01492   0.00866  -0.1627  0.6922  1.0000  -1.6440   0.0000   0.0000   0.0000   0.3773
   4.900   1.2250   0.01488   0.00861  -0.1623  0.6855  1.0000  -1.6802   0.0000   0.0000   0.0000   0.3758
   5.000   1.2386   0.01478   0.00845  -0.1625  0.6790  1.0000  -1.7227   0.0000   0.0000   0.0000   0.3744
   5.100   1.2528   0.01471   0.00832  -0.1629  0.6723  1.0000  -1.7665   0.0000   0.0000   0.0000   0.3730
   5.200   1.2573   0.01482   0.00862  -0.1616  0.6644  1.0000  -1.7939   0.0000   0.0000   0.0000   0.3714
   5.300   1.2650   0.01486   0.00867  -0.1608  0.6562  1.0000  -1.8267   0.0000   0.0000   0.0000   0.3698
   5.400   1.2759   0.01484   0.00862  -0.1605  0.6482  1.0000  -1.8654   0.0000   0.0000   0.0000   0.3684
   5.500   1.2893   0.01482   0.00851  -0.1608  0.6406  1.0000  -1.9088   0.0000   0.0000   0.0000   0.3671
   5.600   1.2960   0.01491   0.00864  -0.1599  0.6324  1.0000  -1.9399   0.0000   0.0000   0.0000   0.3656
   5.700   1.3032   0.01500   0.00874  -0.1590  0.6234  1.0000  -1.9719   0.0000   0.0000   0.0000   0.3642
   5.800   1.3126   0.01505   0.00876  -0.1585  0.6146  1.0000  -2.0086   0.0000   0.0000   0.0000   0.3628
   5.900   1.3241   0.01510   0.00873  -0.1584  0.6058  1.0000  -2.0493   0.0000   0.0000   0.0000   0.3615
   6.000   1.3310   0.01522   0.00886  -0.1576  0.5968  1.0000  -2.0812   0.0000   0.0000   0.0000   0.3601
   6.100   1.3380   0.01532   0.00897  -0.1567  0.5864  1.0000  -2.1137   0.0000   0.0000   0.0000   0.3587
   6.200   1.3468   0.01542   0.00900  -0.1561  0.5756  1.0000  -2.1500   0.0000   0.0000   0.0000   0.3574
   6.300   1.3552   0.01556   0.00907  -0.1555  0.5652  1.0000  -2.1856   0.0000   0.0000   0.0000   0.3561
   6.400   1.3611   0.01569   0.00922  -0.1545  0.5537  1.0000  -2.2165   0.0000   0.0000   0.0000   0.3546
   6.500   1.3683   0.01585   0.00931  -0.1536  0.5415  1.0000  -2.2502   0.0000   0.0000   0.0000   0.3533
   6.600   1.3758   0.01603   0.00941  -0.1528  0.5299  1.0000  -2.2847   0.0000   0.0000   0.0000   0.3520
   6.700   1.3815   0.01620   0.00958  -0.1518  0.5178  1.0000  -2.3154   0.0000   0.0000   0.0000   0.3506
   6.800   1.3877   0.01640   0.00971  -0.1508  0.5052  1.0000  -2.3474   0.0000   0.0000   0.0000   0.3492
   6.900   1.3940   0.01663   0.00986  -0.1498  0.4933  1.0000  -2.3798   0.0000   0.0000   0.0000   0.3479
   7.000   1.3993   0.01683   0.01006  -0.1487  0.4803  1.0000  -2.4101   0.0000   0.0000   0.0000   0.3466
   7.100   1.4040   0.01709   0.01023  -0.1475  0.4668  1.0000  -2.4445   0.0000   0.0000   0.0000   0.3452
   7.200   1.4090   0.01735   0.01043  -0.1464  0.4539  1.0000  -2.4807   0.0000   0.0000   0.0000   0.3439
   7.300   1.4128   0.01760   0.01064  -0.1450  0.4398  1.0000  -2.5145   0.0000   0.0000   0.0000   0.3425
   7.400   1.4153   0.01794   0.01085  -0.1434  0.4264  1.0000  -2.5457   0.0000   0.0000   0.0000   0.3410
   7.500   1.4194   0.01819   0.01109  -0.1421  0.4127  1.0000  -2.5844   0.0000   0.0000   0.0000   0.3397
   7.600   1.4218   0.01853   0.01134  -0.1406  0.3985  1.0000  -2.6218   0.0000   0.0000   0.0000   0.3383
   7.700   1.4243   0.01889   0.01161  -0.1390  0.3854  1.0000  -2.6594   0.0000   0.0000   0.0000   0.3369
   7.800   1.4273   0.01921   0.01189  -0.1376  0.3713  1.0000  -2.6986   0.0000   0.0000   0.0000   0.3356
   7.900   1.4285   0.01964   0.01221  -0.1359  0.3582  1.0000  -2.7327   0.0000   0.0000   0.0000   0.3341
   8.000   1.4320   0.01998   0.01251  -0.1347  0.3452  1.0000  -2.7731   0.0000   0.0000   0.0000   0.3329
   8.100   1.4340   0.02039   0.01285  -0.1332  0.3321  1.0000  -2.8098   0.0000   0.0000   0.0000   0.3315
   8.200   1.4348   0.02087   0.01322  -0.1315  0.3203  1.0000  -2.8431   0.0000   0.0000   0.0000   0.3302
   8.300   1.4387   0.02121   0.01355  -0.1304  0.3077  1.0000  -2.8847   0.0000   0.0000   0.0000   0.3290
   8.400   1.4390   0.02174   0.01414  -0.1287  0.2944  1.0000  -2.9152   0.0000   0.0000   0.0000   0.3276
   8.500   1.4411   0.02220   0.01455  -0.1273  0.2832  1.0000  -2.9522   0.0000   0.0000   0.0000   0.3264
   8.600   1.4440   0.02262   0.01494  -0.1261  0.2716  1.0000  -2.9914   0.0000   0.0000   0.0000   0.3252
   8.700   1.4448   0.02317   0.01539  -0.1245  0.2612  1.0000  -3.0247   0.0000   0.0000   0.0000   0.3240
   8.800   1.4475   0.02363   0.01583  -0.1233  0.2514  1.0000  -3.0635   0.0000   0.0000   0.0000   0.3228
   8.900   1.4508   0.02406   0.01625  -0.1222  0.2416  1.0000  -3.1041   0.0000   0.0000   0.0000   0.3217
   9.000   1.4521   0.02462   0.01673  -0.1208  0.2327  1.0000  -3.1389   0.0000   0.0000   0.0000   0.3205
   9.100   1.4535   0.02521   0.01725  -0.1195  0.2243  1.0000  -3.1738   0.0000   0.0000   0.0000   0.3194
   9.200   1.4583   0.02560   0.01767  -0.1187  0.2163  1.0000  -3.2185   0.0000   0.0000   0.0000   0.3183
   9.300   1.4608   0.02612   0.01815  -0.1175  0.2086  1.0000  -3.2572   0.0000   0.0000   0.0000   0.3173
   9.400   1.4618   0.02675   0.01871  -0.1162  0.2015  1.0000  -3.2910   0.0000   0.0000   0.0000   0.3161
   9.500   1.4640   0.02735   0.01926  -0.1150  0.1947  1.0000  -3.3278   0.0000   0.0000   0.0000   0.3151
   9.600   1.4689   0.02774   0.01971  -0.1142  0.1884  1.0000  -3.3733   0.0000   0.0000   0.0000   0.3141
   9.700   1.4720   0.02825   0.02022  -0.1132  0.1823  1.0000  -3.4135   0.0000   0.0000   0.0000   0.3131
   9.800   1.4736   0.02887   0.02078  -0.1121  0.1767  1.0000  -3.4497   0.0000   0.0000   0.0000   0.3121
   9.900   1.4744   0.02962   0.02144  -0.1108  0.1708  1.0000  -3.4820   0.0000   0.0000   0.0000   0.3110
  10.000   1.4786   0.03012   0.02198  -0.1100  0.1660  1.0000  -3.5248   0.0000   0.0000   0.0000   0.3101
  10.100   1.4833   0.03056   0.02248  -0.1092  0.1614  1.0000  -3.5695   0.0000   0.0000   0.0000   0.3091
  10.200   1.4869   0.03108   0.02301  -0.1084  0.1567  1.0000  -3.6115   0.0000   0.0000   0.0000   0.3082
  10.300   1.4893   0.03168   0.02359  -0.1074  0.1523  1.0000  -3.6502   0.0000   0.0000   0.0000   0.3073
  10.400   1.4907   0.03240   0.02425  -0.1063  0.1478  1.0000  -3.6854   0.0000   0.0000   0.0000   0.3063
  10.500   1.4929   0.03323   0.02500  -0.1053  0.1426  1.0000  -3.7204   0.0000   0.0000   0.0000   0.3054
  10.600   1.4975   0.03364   0.02550  -0.1046  0.1395  1.0000  -3.7658   0.0000   0.0000   0.0000   0.3045
  10.700   1.5017   0.03413   0.02604  -0.1039  0.1358  1.0000  -3.8097   0.0000   0.0000   0.0000   0.3036
  10.800   1.5051   0.03466   0.02661  -0.1031  0.1321  1.0000  -3.8519   0.0000   0.0000   0.0000   0.3028
  10.900   1.5078   0.03526   0.02722  -0.1023  0.1286  1.0000  -3.8920   0.0000   0.0000   0.0000   0.3019
  11.000   1.5095   0.03597   0.02789  -0.1014  0.1252  1.0000  -3.9289   0.0000   0.0000   0.0000   0.3011
  11.100   1.5112   0.03683   0.02869  -0.1004  0.1212  1.0000  -3.9629   0.0000   0.0000   0.0000   0.3002
  11.200   1.5155   0.03753   0.02939  -0.0996  0.1179  1.0000  -4.0037   0.0000   0.0000   0.0000   0.2994
  11.300   1.5195   0.03804   0.02998  -0.0989  0.1157  1.0000  -4.0463   0.0000   0.0000   0.0000   0.2985
  11.400   1.5233   0.03859   0.03060  -0.0982  0.1132  1.0000  -4.0877   0.0000   0.0000   0.0000   0.2977
  11.500   1.5267   0.03918   0.03124  -0.0975  0.1106  1.0000  -4.1281   0.0000   0.0000   0.0000   0.2969
  11.600   1.5296   0.03981   0.03190  -0.0967  0.1081  1.0000  -4.1755   0.0000   0.0000   0.0000   0.2961
  11.700   1.5322   0.04047   0.03258  -0.0960  0.1058  1.0000  -4.2244   0.0000   0.0000   0.0000   0.2953
  11.800   1.5344   0.04119   0.03329  -0.0952  0.1035  1.0000  -4.2721   0.0000   0.0000   0.0000   0.2946
  11.900   1.5370   0.04196   0.03412  -0.0945  0.1011  1.0000  -4.3166   0.0000   0.0000   0.0000   0.2938
  12.000   1.5441   0.04296   0.03502  -0.0939  0.0968  1.0000  -4.3738   0.0000   0.0000   0.0000   0.2930
  12.100   1.5466   0.04354   0.03570  -0.0932  0.0957  1.0000  -4.4221   0.0000   0.0000   0.0000   0.2922
  12.200   1.5493   0.04415   0.03641  -0.0925  0.0941  1.0000  -4.4712   0.0000   0.0000   0.0000   0.2915
  12.300   1.5520   0.04479   0.03712  -0.0918  0.0923  1.0000  -4.5207   0.0000   0.0000   0.0000   0.2908
  12.400   1.5545   0.04547   0.03785  -0.0912  0.0904  1.0000  -4.5696   0.0000   0.0000   0.0000   0.2901
  12.500   1.5566   0.04617   0.03860  -0.0905  0.0885  1.0000  -4.6179   0.0000   0.0000   0.0000   0.2894
  12.600   1.5586   0.04688   0.03935  -0.0899  0.0866  1.0000  -4.6662   0.0000   0.0000   0.0000   0.2887
  12.700   1.5603   0.04763   0.04012  -0.0892  0.0849  1.0000  -4.7143   0.0000   0.0000   0.0000   0.2880
  12.800   1.5620   0.04840   0.04092  -0.0886  0.0833  1.0000  -4.7621   0.0000   0.0000   0.0000   0.2874
  12.900   1.5642   0.04922   0.04173  -0.0880  0.0815  1.0000  -4.8104   0.0000   0.0000   0.0000   0.2867
  13.000   1.5684   0.05012   0.04260  -0.0874  0.0793  1.0000  -4.8630   0.0000   0.0000   0.0000   0.2860
  13.100   1.5763   0.05116   0.04364  -0.0869  0.0767  1.0000  -4.9213   0.0000   0.0000   0.0000   0.2852
  13.200   1.5782   0.05188   0.04445  -0.0863  0.0759  1.0000  -4.9670   0.0000   0.0000   0.0000   0.2846
  13.300   1.5801   0.05264   0.04530  -0.0857  0.0750  1.0000  -5.0119   0.0000   0.0000   0.0000   0.2839
  13.400   1.5818   0.05345   0.04621  -0.0851  0.0739  1.0000  -5.0549   0.0000   0.0000   0.0000   0.2833
  13.500   1.5833   0.05430   0.04715  -0.0844  0.0728  1.0000  -5.0969   0.0000   0.0000   0.0000   0.2826
  13.600   1.5847   0.05517   0.04809  -0.0839  0.0715  1.0000  -5.1386   0.0000   0.0000   0.0000   0.2820
  13.700   1.5861   0.05605   0.04904  -0.0833  0.0703  1.0000  -5.1804   0.0000   0.0000   0.0000   0.2814
  13.800   1.5873   0.05693   0.04998  -0.0827  0.0691  1.0000  -5.2223   0.0000   0.0000   0.0000   0.2808
  13.900   1.5884   0.05781   0.05091  -0.0822  0.0678  1.0000  -5.2646   0.0000   0.0000   0.0000   0.2802
  14.000   1.5893   0.05869   0.05183  -0.0817  0.0667  1.0000  -5.3067   0.0000   0.0000   0.0000   0.2797
  14.100   1.5897   0.05960   0.05277  -0.0812  0.0656  1.0000  -5.3479   0.0000   0.0000   0.0000   0.2791
  14.200   1.5901   0.06054   0.05373  -0.0807  0.0645  1.0000  -5.3890   0.0000   0.0000   0.0000   0.2786
  14.300   1.5904   0.06152   0.05473  -0.0802  0.0634  1.0000  -5.4297   0.0000   0.0000   0.0000   0.2781
  14.400   1.5919   0.06256   0.05578  -0.0797  0.0620  1.0000  -5.4723   0.0000   0.0000   0.0000   0.2775
  14.500   1.5964   0.06454   0.05781  -0.0790  0.0593  1.0000  -5.4983   0.0000   0.0000   0.0000   0.2768
  14.600   1.5948   0.06554   0.05890  -0.0786  0.0589  1.0000  -5.5290   0.0000   0.0000   0.0000   0.2764
  14.700   1.5936   0.06658   0.06002  -0.0782  0.0584  1.0000  -5.5600   0.0000   0.0000   0.0000   0.2759
  14.800   1.5925   0.06765   0.06119  -0.0778  0.0578  1.0000  -5.5910   0.0000   0.0000   0.0000   0.2755
  14.900   1.5912   0.06880   0.06242  -0.0774  0.0571  1.0000  -5.6203   0.0000   0.0000   0.0000   0.2751
  15.000   1.5897   0.07000   0.06371  -0.0771  0.0564  1.0000  -5.6481   0.0000   0.0000   0.0000   0.2748
  15.100   1.5883   0.07123   0.06503  -0.0768  0.0556  1.0000  -5.6756   0.0000   0.0000   0.0000   0.2744
  15.200   1.5867   0.07251   0.06639  -0.0766  0.0548  1.0000  -5.7016   0.0000   0.0000   0.0000   0.2741
  15.300   1.5852   0.07380   0.06777  -0.0764  0.0540  1.0000  -5.7280   0.0000   0.0000   0.0000   0.2738
  15.400   1.5834   0.07514   0.06918  -0.0762  0.0532  1.0000  -5.7530   0.0000   0.0000   0.0000   0.2735
  15.500   1.5817   0.07649   0.07060  -0.0761  0.0525  1.0000  -5.7778   0.0000   0.0000   0.0000   0.2732
  15.600   1.5801   0.07784   0.07202  -0.0760  0.0518  1.0000  -5.8033   0.0000   0.0000   0.0000   0.2730
  15.700   1.5787   0.07919   0.07343  -0.0759  0.0511  1.0000  -5.8293   0.0000   0.0000   0.0000   0.2728
  15.800   1.5774   0.08054   0.07484  -0.0759  0.0504  1.0000  -5.8656   0.0000   0.0000   0.0000   0.2725
  15.900   1.5759   0.08193   0.07630  -0.0758  0.0498  1.0000  -5.9029   0.0000   0.0000   0.0000   0.2724
  16.000   1.5742   0.08335   0.07776  -0.0759  0.0493  1.0000  -5.9396   0.0000   0.0000   0.0000   0.2722
  16.100   1.5727   0.08476   0.07923  -0.0759  0.0487  1.0000  -5.9772   0.0000   0.0000   0.0000   0.2720
  16.200   1.5710   0.08621   0.08072  -0.0760  0.0482  1.0000  -6.0135   0.0000   0.0000   0.0000   0.2719
  16.300   1.5693   0.08767   0.08224  -0.0761  0.0477  1.0000  -6.0490   0.0000   0.0000   0.0000   0.2718
  16.400   1.5670   0.08923   0.08392  -0.0762  0.0472  1.0000  -6.0882   0.0000   0.0000   0.0000   0.2717
  16.500   1.5640   0.09092   0.08567  -0.0764  0.0467  1.0000  -6.1262   0.0000   0.0000   0.0000   0.2717
  16.600   1.5604   0.09273   0.08755  -0.0767  0.0463  1.0000  -6.1552   0.0000   0.0000   0.0000   0.2717
  16.700   1.5561   0.09468   0.08958  -0.0770  0.0458  1.0000  -6.1745   0.0000   0.0000   0.0000   0.2719
  16.800   1.5507   0.09682   0.09181  -0.0773  0.0454  1.0000  -6.1822   0.0000   0.0000   0.0000   0.2721
  16.900   1.5441   0.09916   0.09425  -0.0779  0.0451  1.0000  -6.1766   0.0000   0.0000   0.0000   0.2724
  17.000   1.5363   0.10173   0.09693  -0.0786  0.0448  1.0000  -6.1583   0.0000   0.0000   0.0000   0.2729
  17.100   1.5277   0.10443   0.09974  -0.0794  0.0446  1.0000  -6.1316   0.0000   0.0000   0.0000   0.2735
  17.200   1.5186   0.10724   0.10267  -0.0804  0.0444  1.0000  -6.0980   0.0000   0.0000   0.0000   0.2743
  17.300   1.5090   0.11016   0.10570  -0.0816  0.0443  1.0000  -6.0581   0.0000   0.0000   0.0000   0.2752
  17.400   1.4992   0.11307   0.10872  -0.0830  0.0442  1.0000  -6.0147   0.0000   0.0000   0.0000   0.2762
  17.500   1.4893   0.11604   0.11180  -0.0845  0.0441  1.0000  -5.9680   0.0000   0.0000   0.0000   0.2774
  17.600   1.4793   0.11913   0.11499  -0.0862  0.0441  1.0000  -5.9180   0.0000   0.0000   0.0000   0.2787
  18.200   1.1908   0.21852   0.21510  -0.1458  0.0547  1.0000  -2.8226   0.0000   0.0000   0.0000   0.3454
  18.300   1.1880   0.22236   0.21894  -0.1475  0.0546  1.0000  -2.7636   0.0000   0.0000   0.0000   0.3471
  18.400   1.1856   0.22606   0.22264  -0.1491  0.0547  1.0000  -2.7090   0.0000   0.0000   0.0000   0.3486
  18.500   1.1838   0.22954   0.22612  -0.1506  0.0551  1.0000  -2.6616   0.0000   0.0000   0.0000   0.3499
  18.600   1.1826   0.23277   0.22936  -0.1518  0.0555  1.0000  -2.6231   0.0000   0.0000   0.0000   0.3509
  18.700   1.1820   0.23578   0.23237  -0.1529  0.0560  1.0000  -2.5925   0.0000   0.0000   0.0000   0.3518
  18.800   1.1820   0.23858   0.23518  -0.1538  0.0565  1.0000  -2.5698   0.0000   0.0000   0.0000   0.3524
  18.900   1.1825   0.24117   0.23777  -0.1545  0.0570  1.0000  -2.5556   0.0000   0.0000   0.0000   0.3528
  19.000   1.1834   0.24364   0.24025  -0.1549  0.0577  1.0000  -2.5492   0.0000   0.0000   0.0000   0.3528
  19.100   1.1778   0.25895   0.25561  -0.1558  0.0767  1.0000  -2.2758   0.0000   0.0000   0.0000   0.3546
  19.200   1.1777   0.26160   0.25827  -0.1570  0.0766  1.0000  -2.2479   0.0000   0.0000   0.0000   0.3556
  19.300   1.1773   0.26413   0.26079  -0.1584  0.0764  1.0000  -2.2276   0.0000   0.0000   0.0000   0.3566
  19.400   1.1749   0.26661   0.26327  -0.1606  0.0760  1.0000  -2.1846   0.0000   0.0000   0.0000   0.3586
  19.500   1.1629   0.26939   0.26601  -0.1663  0.0728  1.0000  -2.0254   0.0000   0.0000   0.0000   0.3649
  19.600   1.1619   0.27187   0.26850  -0.1679  0.0706  1.0000  -2.0028   0.0000   0.0000   0.0000   0.3663
  19.700   1.1624   0.27407   0.27070  -0.1689  0.0690  1.0000  -2.0019   0.0000   0.0000   0.0000   0.3669
  19.800   1.1635   0.27610   0.27274  -0.1696  0.0676  1.0000  -2.0094   0.0000   0.0000   0.0000   0.3672
  19.900   1.1650   0.27801   0.27466  -0.1702  0.0664  1.0000  -2.0228   0.0000   0.0000   0.0000   0.3673
  20.000   1.1668   0.27981   0.27647  -0.1707  0.0654  1.0000  -2.0412   0.0000   0.0000   0.0000   0.3672
  20.100   1.1688   0.28153   0.27820  -0.1711  0.0645  1.0000  -2.0642   0.0000   0.0000   0.0000   0.3670
  20.200   1.1712   0.28318   0.27987  -0.1713  0.0637  1.0000  -2.0915   0.0000   0.0000   0.0000   0.3667
  20.300   1.1738   0.28478   0.28149  -0.1714  0.0630  1.0000  -2.1230   0.0000   0.0000   0.0000   0.3663
  20.400   1.1766   0.28639   0.28317  -0.1715  0.0625  1.0000  -2.1671   0.0000   0.0000   0.0000   0.3657
  20.500   1.1799   0.28796   0.28477  -0.1714  0.0620  1.0000  -2.2097   0.0000   0.0000   0.0000   0.3650
  20.600   1.1838   0.28958   0.28641  -0.1711  0.0615  1.0000  -2.2575   0.0000   0.0000   0.0000   0.3640
  20.700   1.1881   0.29131   0.28816  -0.1707  0.0610  1.0000  -2.3104   0.0000   0.0000   0.0000   0.3628
  20.800   1.1918   0.29331   0.29018  -0.1702  0.0606  1.0000  -2.3599   0.0000   0.0000   0.0000   0.3618
  20.900   1.1951   0.29600   0.29290  -0.1696  0.0601  1.0000  -2.4080   0.0000   0.0000   0.0000   0.3606
  21.000   1.1890   0.30398   0.30085  -0.1701  0.0593  1.0000  -2.3461   0.0000   0.0000   0.0000   0.3617
  21.100   1.1889   0.30670   0.30358  -0.1710  0.0593  1.0000  -2.3355   0.0000   0.0000   0.0000   0.3623
  21.200   1.1887   0.30938   0.30627  -0.1719  0.0592  1.0000  -2.3250   0.0000   0.0000   0.0000   0.3629
  21.300   1.1884   0.31201   0.30891  -0.1727  0.0592  1.0000  -2.3145   0.0000   0.0000   0.0000   0.3635
  21.400   1.1881   0.31460   0.31151  -0.1736  0.0591  1.0000  -2.3040   0.0000   0.0000   0.0000   0.3641
  21.500   1.1877   0.31714   0.31406  -0.1745  0.0591  1.0000  -2.2933   0.0000   0.0000   0.0000   0.3647
  21.600   1.1872   0.31963   0.31656  -0.1754  0.0590  1.0000  -2.2823   0.0000   0.0000   0.0000   0.3653
  21.700   1.1866   0.32206   0.31900  -0.1763  0.0590  1.0000  -2.2708   0.0000   0.0000   0.0000   0.3660
  21.800   1.1855   0.32446   0.32140  -0.1773  0.0589  1.0000  -2.2543   0.0000   0.0000   0.0000   0.3668
  21.900   1.1835   0.32681   0.32375  -0.1784  0.0588  1.0000  -2.2302   0.0000   0.0000   0.0000   0.3678
  22.000   1.1811   0.32904   0.32599  -0.1797  0.0586  1.0000  -2.2023   0.0000   0.0000   0.0000   0.3690
  22.100   1.1770   0.33114   0.32809  -0.1812  0.0583  1.0000  -2.1595   0.0000   0.0000   0.0000   0.3706
  22.200   1.1717   0.33318   0.33012  -0.1832  0.0578  1.0000  -2.1003   0.0000   0.0000   0.0000   0.3729
  22.300   1.1672   0.33550   0.33244  -0.1854  0.0567  1.0000  -2.0366   0.0000   0.0000   0.0000   0.3752
  22.400   1.1648   0.33800   0.33495  -0.1866  0.0556  1.0000  -2.0120   0.0000   0.0000   0.0000   0.3764
  22.500   1.1629   0.34041   0.33738  -0.1873  0.0547  1.0000  -2.0052   0.0000   0.0000   0.0000   0.3771
  22.600   1.1609   0.34274   0.33972  -0.1878  0.0538  1.0000  -2.0041   0.0000   0.0000   0.0000   0.3776
  22.700   1.1585   0.34498   0.34198  -0.1881  0.0531  1.0000  -2.0051   0.0000   0.0000   0.0000   0.3781
  22.800   1.1555   0.34714   0.34415  -0.1883  0.0524  1.0000  -2.0064   0.0000   0.0000   0.0000   0.3785
  22.900   1.1516   0.34918   0.34621  -0.1883  0.0518  1.0000  -2.0065   0.0000   0.0000   0.0000   0.3789
  23.000   1.1460   0.35102   0.34807  -0.1880  0.0512  1.0000  -2.0025   0.0000   0.0000   0.0000   0.3793
  23.100   1.0141   0.32792   0.32520  -0.1692  0.0518  1.0000  -1.6368   0.0000   0.0000   0.0000   0.3839
  23.200   1.0084   0.32774   0.32504  -0.1688  0.0511  1.0000  -1.6325   0.0000   0.0000   0.0000   0.3844
  23.300   1.0033   0.32762   0.32495  -0.1684  0.0505  1.0000  -1.6309   0.0000   0.0000   0.0000   0.3847
  23.400   0.9991   0.32754   0.32488  -0.1681  0.0498  1.0000  -1.6353   0.0000   0.0000   0.0000   0.3850
  23.500   0.9957   0.32740   0.32476  -0.1678  0.0488  1.0000  -1.6487   0.0000   0.0000   0.0000   0.3851
  23.600   0.9934   0.32712   0.32451  -0.1674  0.0477  1.0000  -1.6758   0.0000   0.0000   0.0000   0.3849
  23.700   0.9922   0.32665   0.32406  -0.1668  0.0467  1.0000  -1.7221   0.0000   0.0000   0.0000   0.3842
  23.800   0.9922   0.32608   0.32352  -0.1658  0.0457  1.0000  -1.7860   0.0000   0.0000   0.0000   0.3829
  23.900   0.9924   0.32589   0.32336  -0.1647  0.0451  1.0000  -1.8471   0.0000   0.0000   0.0000   0.3816
  24.000   0.9956   0.33014   0.32763  -0.1618  0.0438  1.0000  -1.9336   0.0000   0.0000   0.0000   0.3779
  24.100   0.9905   0.33017   0.32768  -0.1619  0.0438  1.0000  -1.9007   0.0000   0.0000   0.0000   0.3788
  24.200   0.9854   0.33015   0.32767  -0.1620  0.0437  1.0000  -1.8645   0.0000   0.0000   0.0000   0.3797
  24.300   0.9794   0.32990   0.32743  -0.1623  0.0436  1.0000  -1.8185   0.0000   0.0000   0.0000   0.3809
  24.400   0.9725   0.32945   0.32699  -0.1627  0.0435  1.0000  -1.7631   0.0000   0.0000   0.0000   0.3824
  24.500   0.9653   0.32899   0.32653  -0.1633  0.0433  1.0000  -1.7013   0.0000   0.0000   0.0000   0.3843
  24.600   0.9589   0.32888   0.32643  -0.1643  0.0430  1.0000  -1.6343   0.0000   0.0000   0.0000   0.3863
  24.700   0.9541   0.32978   0.32731  -0.1660  0.0421  1.0000  -1.5528   0.0000   0.0000   0.0000   0.3889
  24.800   0.9519   0.33113   0.32867  -0.1671  0.0400  1.0000  -1.5019   0.0000   0.0000   0.0000   0.3903
  24.900   0.9501   0.33175   0.32930  -0.1674  0.0379  1.0000  -1.4899   0.0000   0.0000   0.0000   0.3908
  25.000   0.9489   0.33200   0.32957  -0.1675  0.0359  1.0000  -1.4985   0.0000   0.0000   0.0000   0.3909
  25.100   0.9489   0.33180   0.32939  -0.1673  0.0340  1.0000  -1.5362   0.0000   0.0000   0.0000   0.3905
  25.200   0.9511   0.33062   0.32823  -0.1664  0.0322  1.0000  -1.6385   0.0000   0.0000   0.0000   0.3886
  25.300   0.9532   0.33159   0.32922  -0.1632  0.0307  1.0000  -1.7471   0.0000   0.0000   0.0000   0.3846
  25.400   0.9502   0.33206   0.32969  -0.1634  0.0306  1.0000  -1.7088   0.0000   0.0000   0.0000   0.3853
  25.500   0.9471   0.33249   0.33013  -0.1637  0.0306  1.0000  -1.6678   0.0000   0.0000   0.0000   0.3861
  25.600   0.9433   0.33281   0.33045  -0.1642  0.0305  1.0000  -1.6170   0.0000   0.0000   0.0000   0.3871
  25.700   0.9391   0.33312   0.33076  -0.1648  0.0304  1.0000  -1.5598   0.0000   0.0000   0.0000   0.3885
  25.800   0.9352   0.33360   0.33124  -0.1656  0.0302  1.0000  -1.4995   0.0000   0.0000   0.0000   0.3899
  25.900   0.9318   0.33445   0.33209  -0.1666  0.0299  1.0000  -1.4324   0.0000   0.0000   0.0000   0.3915
  26.000   0.9296   0.33620   0.33384  -0.1681  0.0288  1.0000  -1.3495   0.0000   0.0000   0.0000   0.3935
  26.100   0.9284   0.33748   0.33512  -0.1687  0.0270  1.0000  -1.3054   0.0000   0.0000   0.0000   0.3943
  26.200   0.9272   0.33815   0.33580  -0.1690  0.0257  1.0000  -1.2859   0.0000   0.0000   0.0000   0.3947
  26.300   0.9260   0.33867   0.33633  -0.1692  0.0247  1.0000  -1.2738   0.0000   0.0000   0.0000   0.3949
  26.400   0.9250   0.33912   0.33679  -0.1693  0.0239  1.0000  -1.2661   0.0000   0.0000   0.0000   0.3950
  26.500   0.9241   0.33951   0.33719  -0.1695  0.0232  1.0000  -1.2622   0.0000   0.0000   0.0000   0.3951
  26.600   0.9232   0.33985   0.33754  -0.1696  0.0226  1.0000  -1.2616   0.0000   0.0000   0.0000   0.3952
  26.700   0.9224   0.34013   0.33783  -0.1696  0.0222  1.0000  -1.2643   0.0000   0.0000   0.0000   0.3952
  26.800   0.9217   0.34035   0.33806  -0.1697  0.0217  1.0000  -1.2706   0.0000   0.0000   0.0000   0.3951
  26.900   0.9211   0.34049   0.33822  -0.1697  0.0214  1.0000  -1.2807   0.0000   0.0000   0.0000   0.3950
  27.000   0.9205   0.34056   0.33830  -0.1696  0.0211  1.0000  -1.2950   0.0000   0.0000   0.0000   0.3947
  27.100   0.9200   0.34056   0.33832  -0.1693  0.0208  1.0000  -1.3142   0.0000   0.0000   0.0000   0.3943
  27.200   0.9198   0.34055   0.33832  -0.1688  0.0205  1.0000  -1.3407   0.0000   0.0000   0.0000   0.3935
  27.300   0.9188   0.34202   0.33978  -0.1672  0.0199  1.0000  -1.3555   0.0000   0.0000   0.0000   0.3918
  27.400   0.9175   0.34268   0.34044  -0.1675  0.0199  1.0000  -1.3357   0.0000   0.0000   0.0000   0.3922
  27.500   0.9162   0.34332   0.34110  -0.1678  0.0199  1.0000  -1.3168   0.0000   0.0000   0.0000   0.3926
  27.600   0.9150   0.34396   0.34174  -0.1681  0.0199  1.0000  -1.2985   0.0000   0.0000   0.0000   0.3929
  27.700   0.9137   0.34459   0.34238  -0.1684  0.0199  1.0000  -1.2805   0.0000   0.0000   0.0000   0.3933
  27.800   0.9124   0.34521   0.34300  -0.1687  0.0198  1.0000  -1.2628   0.0000   0.0000   0.0000   0.3937
  27.900   0.9110   0.34580   0.34360  -0.1690  0.0198  1.0000  -1.2435   0.0000   0.0000   0.0000   0.3942
  28.000   0.9095   0.34637   0.34418  -0.1694  0.0198  1.0000  -1.2222   0.0000   0.0000   0.0000   0.3947
  28.100   0.9081   0.34696   0.34482  -0.1698  0.0198  1.0000  -1.2067   0.0000   0.0000   0.0000   0.3952
  28.200   0.9066   0.34755   0.34542  -0.1702  0.0197  1.0000  -1.1872   0.0000   0.0000   0.0000   0.3958
  28.300   0.9053   0.34816   0.34603  -0.1706  0.0197  1.0000  -1.1675   0.0000   0.0000   0.0000   0.3963
  28.400   0.9040   0.34879   0.34667  -0.1710  0.0197  1.0000  -1.1479   0.0000   0.0000   0.0000   0.3969
  28.500   0.9027   0.34944   0.34733  -0.1715  0.0196  1.0000  -1.1283   0.0000   0.0000   0.0000   0.3974
  28.600   0.9015   0.35013   0.34802  -0.1719  0.0196  1.0000  -1.1087   0.0000   0.0000   0.0000   0.3980
  28.700   0.9005   0.35085   0.34875  -0.1724  0.0195  1.0000  -1.0889   0.0000   0.0000   0.0000   0.3986
  28.800   0.8995   0.35163   0.34953  -0.1729  0.0194  1.0000  -1.0688   0.0000   0.0000   0.0000   0.3991
  28.900   0.8986   0.35248   0.35038  -0.1735  0.0194  1.0000  -1.0483   0.0000   0.0000   0.0000   0.3997
  29.000   0.8979   0.35340   0.35131  -0.1740  0.0192  1.0000  -1.0271   0.0000   0.0000   0.0000   0.4003
  29.100   0.8973   0.35441   0.35233  -0.1746  0.0190  1.0000  -1.0055   0.0000   0.0000   0.0000   0.4008
  29.200   0.8969   0.35547   0.35339  -0.1752  0.0188  1.0000  -0.9845   0.0000   0.0000   0.0000   0.4013
  29.300   0.8966   0.35650   0.35443  -0.1757  0.0185  1.0000  -0.9661   0.0000   0.0000   0.0000   0.4018
  29.400   0.8962   0.35742   0.35536  -0.1761  0.0181  1.0000  -0.9515   0.0000   0.0000   0.0000   0.4021
  29.500   0.8957   0.35825   0.35619  -0.1765  0.0177  1.0000  -0.9402   0.0000   0.0000   0.0000   0.4024
  29.600   0.8952   0.35901   0.35696  -0.1768  0.0173  1.0000  -0.9312   0.0000   0.0000   0.0000   0.4026


