xflr5 v6.61

 Calculated polar for: SG6043

 1 1 Reynolds number fixed          Mach number fixed         

 xtrf =   1.000 (top)        1.000 (bottom)
 Mach =   0.000     Re =     0.130 e 6     Ncrit =   9.000

  alpha     CL        CD       CDp       Cm    Top Xtr Bot Xtr   Cpmin    Chinge    XCp    
 ------- -------- --------- --------- -------- ------- ------- -------- --------- ---------
 -10.000  -0.3270   0.13534   0.13092  -0.0311  1.0000  0.0360  -1.3594   0.0000   0.0000   0.0000   0.1439
  -9.900  -0.3261   0.13425   0.12985  -0.0303  1.0000  0.0362  -1.3424   0.0000   0.0000   0.0000   0.1460
  -9.800  -0.3258   0.13327   0.12889  -0.0297  1.0000  0.0365  -1.3290   0.0000   0.0000   0.0000   0.1481
  -9.700  -0.3258   0.13237   0.12801  -0.0290  1.0000  0.0368  -1.3182   0.0000   0.0000   0.0000   0.1502
  -9.600  -0.3261   0.13153   0.12718  -0.0284  1.0000  0.0370  -1.3094   0.0000   0.0000   0.0000   0.1523
  -9.500  -0.3266   0.13072   0.12639  -0.0278  1.0000  0.0373  -1.3022   0.0000   0.0000   0.0000   0.1544
  -9.400  -0.3273   0.12994   0.12563  -0.0272  1.0000  0.0376  -1.2964   0.0000   0.0000   0.0000   0.1565
  -9.300  -0.3281   0.12917   0.12488  -0.0267  1.0000  0.0378  -1.2917   0.0000   0.0000   0.0000   0.1586
  -9.200  -0.3290   0.12842   0.12415  -0.0261  1.0000  0.0381  -1.2880   0.0000   0.0000   0.0000   0.1607
  -9.100  -0.3300   0.12769   0.12343  -0.0256  1.0000  0.0384  -1.2853   0.0000   0.0000   0.0000   0.1628
  -9.000  -0.3311   0.12696   0.12273  -0.0250  1.0000  0.0387  -1.2833   0.0000   0.0000   0.0000   0.1648
  -8.900  -0.3323   0.12624   0.12202  -0.0245  1.0000  0.0390  -1.2821   0.0000   0.0000   0.0000   0.1668
  -8.800  -0.3336   0.12552   0.12132  -0.0240  1.0000  0.0393  -1.2816   0.0000   0.0000   0.0000   0.1688
  -8.700  -0.3349   0.12481   0.12063  -0.0235  1.0000  0.0396  -1.2816   0.0000   0.0000   0.0000   0.1708
  -8.600  -0.3364   0.12410   0.11994  -0.0230  1.0000  0.0399  -1.2822   0.0000   0.0000   0.0000   0.1727
  -8.500  -0.3378   0.12339   0.11925  -0.0225  1.0000  0.0402  -1.2834   0.0000   0.0000   0.0000   0.1746
  -8.400  -0.3394   0.12268   0.11856  -0.0220  1.0000  0.0405  -1.2852   0.0000   0.0000   0.0000   0.1765
  -8.300  -0.3410   0.12198   0.11788  -0.0216  1.0000  0.0408  -1.2874   0.0000   0.0000   0.0000   0.1784
  -8.200  -0.3427   0.12128   0.11719  -0.0211  1.0000  0.0412  -1.2902   0.0000   0.0000   0.0000   0.1803
  -8.100  -0.3445   0.12057   0.11651  -0.0206  1.0000  0.0415  -1.2934   0.0000   0.0000   0.0000   0.1821
  -8.000  -0.3463   0.11987   0.11582  -0.0202  1.0000  0.0418  -1.2971   0.0000   0.0000   0.0000   0.1839
  -7.900  -0.3482   0.11917   0.11514  -0.0197  1.0000  0.0422  -1.3013   0.0000   0.0000   0.0000   0.1857
  -7.800  -0.3502   0.11847   0.11446  -0.0193  1.0000  0.0425  -1.3061   0.0000   0.0000   0.0000   0.1875
  -7.700  -0.3505   0.11762   0.11363  -0.0193  0.9997  0.0429  -1.3104   0.0000   0.0000   0.0000   0.1877
  -7.600  -0.3451   0.11625   0.11226  -0.0209  0.9984  0.0436  -1.3129   0.0000   0.0000   0.0000   0.1820
  -7.500  -0.3400   0.11491   0.11092  -0.0225  0.9969  0.0444  -1.3173   0.0000   0.0000   0.0000   0.1764
  -7.400  -0.3353   0.11363   0.10964  -0.0240  0.9953  0.0451  -1.3240   0.0000   0.0000   0.0000   0.1708
  -7.300  -0.3307   0.11240   0.10842  -0.0257  0.9938  0.0459  -1.3337   0.0000   0.0000   0.0000   0.1647
  -7.200  -0.3265   0.11127   0.10729  -0.0275  0.9921  0.0467  -1.3476   0.0000   0.0000   0.0000   0.1582
  -7.100  -0.3242   0.11035   0.10638  -0.0290  0.9899  0.0474  -1.3667   0.0000   0.0000   0.0000   0.1529
  -7.000  -0.3224   0.10964   0.10568  -0.0309  0.9876  0.0482  -1.3936   0.0000   0.0000   0.0000   0.1466
  -6.900  -0.3207   0.10915   0.10519  -0.0334  0.9852  0.0488  -1.4287   0.0000   0.0000   0.0000   0.1383
  -6.800  -0.3216   0.10878   0.10483  -0.0350  0.9820  0.0492  -1.4600   0.0000   0.0000   0.0000   0.1340
  -6.700  -0.3206   0.10823   0.10429  -0.0371  0.9785  0.0495  -1.4913   0.0000   0.0000   0.0000   0.1270
  -6.600  -0.3131   0.10715   0.10322  -0.0413  0.9756  0.0499  -1.5247   0.0000   0.0000   0.0000   0.1110
  -6.400  -0.2999   0.10457   0.10063  -0.0472  0.9696  0.0502  -1.5676   0.0000   0.0000   0.0000   0.0854
  -6.300  -0.2935   0.10313   0.09919  -0.0497  0.9666  0.0503  -1.5856   0.0000   0.0000   0.0000   0.0731
  -6.200  -0.2850   0.10145   0.09751  -0.0529  0.9642  0.0504  -1.6050   0.0000   0.0000   0.0000   0.0569
  -6.100  -0.2746   0.09956   0.09560  -0.0566  0.9623  0.0505  -1.6263   0.0000   0.0000   0.0000   0.0362
  -6.000  -0.2697   0.09583   0.09190  -0.0597  0.9609  0.0509  -1.6794   0.0000   0.0000   0.0000   0.0209
  -5.900  -0.2729   0.09241   0.08851  -0.0572  0.9605  0.0519  -1.6660   0.0000   0.0000   0.0000   0.0326
  -5.800  -0.2717   0.09105   0.08717  -0.0550  0.9592  0.0526  -1.6216   0.0000   0.0000   0.0000   0.0399
  -5.700  -0.2726   0.09015   0.08628  -0.0531  0.9567  0.0532  -1.5923   0.0000   0.0000   0.0000   0.0477
  -5.600  -0.2700   0.08917   0.08531  -0.0518  0.9546  0.0539  -1.5559   0.0000   0.0000   0.0000   0.0507
  -5.500  -0.2657   0.08813   0.08428  -0.0513  0.9527  0.0549  -1.5235   0.0000   0.0000   0.0000   0.0495
  -5.400  -0.2597   0.08698   0.08313  -0.0517  0.9507  0.0561  -1.4968   0.0000   0.0000   0.0000   0.0436
  -5.300  -0.2516   0.08566   0.08181  -0.0529  0.9488  0.0575  -1.4761   0.0000   0.0000   0.0000   0.0322
  -5.200  -0.2414   0.08415   0.08029  -0.0551  0.9471  0.0594  -1.4622   0.0000   0.0000   0.0000   0.0138
  -5.100  -0.2284   0.08239   0.07852  -0.0586  0.9455  0.0618  -1.4567   0.0000   0.0000   0.0000  -0.0146
  -5.000  -0.2205   0.08092   0.07704  -0.0612  0.9425  0.0639  -1.4647   0.0000   0.0000   0.0000  -0.0360
  -4.900  -0.2175   0.07974   0.07585  -0.0630  0.9379  0.0655  -1.4836   0.0000   0.0000   0.0000  -0.0480
  -4.800  -0.1723   0.07833   0.07415  -0.0818  0.9324  0.0700  -1.6196   0.0000   0.0000   0.0000  -0.2346
  -4.600  -0.1754   0.07197   0.06796  -0.0795  0.9303  0.0734  -1.5677   0.0000   0.0000   0.0000  -0.2125
  -4.500  -0.1761   0.07225   0.06827  -0.0744  0.9294  0.0763  -1.4649   0.0000   0.0000   0.0000  -0.1819
  -4.400  -0.1657   0.07124   0.06725  -0.0752  0.9283  0.0787  -1.4120   0.0000   0.0000   0.0000  -0.2136
  -4.300  -0.1512   0.06972   0.06570  -0.0780  0.9272  0.0809  -1.3778   0.0000   0.0000   0.0000  -0.2762
  -4.200  -0.1337   0.06796   0.06390  -0.0819  0.9263  0.0834  -1.3502   0.0000   0.0000   0.0000  -0.3741
  -4.100  -0.1396   0.06744   0.06339  -0.0803  0.9213  0.0839  -1.3552   0.0000   0.0000   0.0000  -0.3361
  -4.000  -0.1296   0.06607   0.06198  -0.0828  0.9183  0.0862  -1.3476   0.0000   0.0000   0.0000  -0.4001
  -3.900  -0.0820   0.06615   0.06158  -0.0959  0.9147  0.0927  -1.3874   0.0000   0.0000   0.0000  -0.9375
  -3.800  -0.0722   0.06054   0.05593  -0.1004  0.9136  0.0946  -1.4182   0.0000   0.0000   0.0000  -1.1593
  -3.700  -0.0649   0.05857   0.05405  -0.1005  0.9122  0.0958  -1.3656   0.0000   0.0000   0.0000  -1.3189
  -3.600  -0.0552   0.05718   0.05270  -0.1009  0.9109  0.0970  -1.3062   0.0000   0.0000   0.0000  -1.6008
  -3.500  -0.0436   0.05602   0.05156  -0.1015  0.9096  0.0985  -1.2440   0.0000   0.0000   0.0000  -2.1083
  -3.400  -0.0301   0.05493   0.05047  -0.1026  0.9084  0.1003  -1.1988   0.0000   0.0000   0.0000  -3.2069
  -3.300  -0.0140   0.05377   0.04930  -0.1045  0.9074  0.1028  -1.1647   0.0000   0.0000   0.0000  -7.2899
  -3.200   0.0050   0.05251   0.04798  -0.1072  0.9065  0.1064  -1.1373   0.0000   0.0000   0.0000  21.7525
  -3.000   0.0466   0.05005   0.04497  -0.1156  0.9013  0.1211  -1.1702   0.0000   0.0000   0.0000   2.7581
  -2.900   0.0502   0.04871   0.04370  -0.1151  0.8984  0.1223  -1.1499   0.0000   0.0000   0.0000   2.5665
  -2.800   0.0579   0.04761   0.04265  -0.1151  0.8962  0.1238  -1.1220   0.0000   0.0000   0.0000   2.2592
  -2.700   0.0681   0.04667   0.04174  -0.1156  0.8943  0.1257  -1.0916   0.0000   0.0000   0.0000   1.9643
  -2.600   0.0804   0.04582   0.04088  -0.1163  0.8925  0.1282  -1.0608   0.0000   0.0000   0.0000   1.7107
  -2.500   0.0952   0.04497   0.04001  -0.1176  0.8909  0.1318  -1.0316   0.0000   0.0000   0.0000   1.4959
  -2.400   0.1247   0.04458   0.03920  -0.1224  0.8894  0.1499  -1.0229   0.0000   0.0000   0.0000   1.2401
  -2.300   0.1385   0.04270   0.03741  -0.1238  0.8885  0.1525  -0.9927   0.0000   0.0000   0.0000   1.1502
  -2.200   0.1953   0.03565   0.02918  -0.1315  0.8909  0.0650  -1.3300   0.0000   0.0000   0.0000   0.9290
  -2.100   0.2191   0.03361   0.02682  -0.1341  0.8905  0.0590  -1.3692   0.0000   0.0000   0.0000   0.8672
  -2.000   0.2440   0.03196   0.02459  -0.1361  0.8900  0.0528  -1.4531   0.0000   0.0000   0.0000   0.8124
  -1.900   0.2614   0.03165   0.02414  -0.1370  0.8885  0.0516  -1.4288   0.0000   0.0000   0.0000   0.7781
  -1.800   0.2787   0.03133   0.02373  -0.1379  0.8872  0.0510  -1.3946   0.0000   0.0000   0.0000   0.7485
  -1.700   0.2969   0.03076   0.02302  -0.1392  0.8862  0.0505  -1.3670   0.0000   0.0000   0.0000   0.7218
  -1.600   0.3164   0.02977   0.02188  -0.1407  0.8855  0.0502  -1.3571   0.0000   0.0000   0.0000   0.6975
  -1.500   0.3353   0.02906   0.02100  -0.1421  0.8848  0.0503  -1.3467   0.0000   0.0000   0.0000   0.6762
  -1.400   0.3538   0.02845   0.02029  -0.1433  0.8841  0.0505  -1.3261   0.0000   0.0000   0.0000   0.6573
  -1.300   0.3727   0.02758   0.01935  -0.1447  0.8837  0.0513  -1.3204   0.0000   0.0000   0.0000   0.6402
  -1.200   0.3916   0.02674   0.01848  -0.1461  0.8832  0.0534  -1.3135   0.0000   0.0000   0.0000   0.6249
  -1.100   0.4102   0.02626   0.01801  -0.1475  0.8827  0.0570  -1.2895   0.0000   0.0000   0.0000   0.6111
  -1.000   0.4016   0.02663   0.01840  -0.1443  0.8756  0.0573  -1.2902   0.0000   0.0000   0.0000   0.6108
  -0.900   0.4117   0.02648   0.01826  -0.1442  0.8723  0.0617  -1.2777   0.0000   0.0000   0.0000   0.6015
  -0.800   0.4277   0.02596   0.01776  -0.1451  0.8704  0.0773  -1.3094   0.0000   0.0000   0.0000   0.5902
  -0.700   0.4458   0.02533   0.01735  -0.1465  0.8688  0.1412  -1.3359   0.0000   0.0000   0.0000   0.5793
  -0.600   0.4616   0.02501   0.01726  -0.1475  0.8670  0.1924  -1.2761   0.0000   0.0000   0.0000   0.5702
  -0.500   0.4806   0.02421   0.01728  -0.1496  0.8660  0.3791  -1.2044   0.0000   0.0000   0.0000   0.5617
  -0.400   0.4922   0.02343   0.01749  -0.1492  0.8649  0.6946  -1.1448   0.0000   0.0000   0.0000   0.5533
  -0.200   0.5061   0.02262   0.01708  -0.1458  0.8613  1.0000  -1.0461   0.0000   0.0000   0.0000   0.5380
  -0.100   0.5236   0.02259   0.01693  -0.1469  0.8602  1.0000  -0.9688   0.0000   0.0000   0.0000   0.5303
   0.000   0.5410   0.02257   0.01680  -0.1479  0.8592  1.0000  -0.8916   0.0000   0.0000   0.0000   0.5231
   0.100   0.5588   0.02253   0.01666  -0.1490  0.8582  1.0000  -0.8135   0.0000   0.0000   0.0000   0.5162
   0.200   0.5770   0.02247   0.01651  -0.1502  0.8573  1.0000  -0.7347   0.0000   0.0000   0.0000   0.5096
   0.600   0.6020   0.02324   0.01709  -0.1473  0.8393  1.0000  -0.7077   0.0000   0.0000   0.0000   0.4934
   0.700   0.6182   0.02316   0.01695  -0.1481  0.8377  1.0000  -0.7202   0.0000   0.0000   0.0000   0.4881
   0.800   0.6350   0.02307   0.01678  -0.1490  0.8363  1.0000  -0.7332   0.0000   0.0000   0.0000   0.4830
   0.900   0.6520   0.02295   0.01661  -0.1499  0.8350  1.0000  -0.7463   0.0000   0.0000   0.0000   0.4782
   1.000   0.6693   0.02281   0.01641  -0.1508  0.8339  1.0000  -0.7600   0.0000   0.0000   0.0000   0.4735
   1.100   0.6872   0.02265   0.01620  -0.1518  0.8328  1.0000  -0.7750   0.0000   0.0000   0.0000   0.4689
   1.200   0.7054   0.02246   0.01596  -0.1528  0.8319  1.0000  -0.7902   0.0000   0.0000   0.0000   0.4646
   1.300   0.7240   0.02225   0.01571  -0.1539  0.8311  1.0000  -0.8067   0.0000   0.0000   0.0000   0.4604
   1.400   0.7429   0.02203   0.01546  -0.1551  0.8304  1.0000  -0.8239   0.0000   0.0000   0.0000   0.4564
   1.700   0.7483   0.02315   0.01653  -0.1507  0.8121  1.0000  -0.8381   0.0000   0.0000   0.0000   0.4488
   1.800   0.7646   0.02296   0.01632  -0.1514  0.8105  1.0000  -0.8542   0.0000   0.0000   0.0000   0.4452
   1.900   0.7815   0.02272   0.01605  -0.1522  0.8090  1.0000  -0.8717   0.0000   0.0000   0.0000   0.4418
   2.000   0.7994   0.02244   0.01575  -0.1530  0.8077  1.0000  -0.8900   0.0000   0.0000   0.0000   0.4384
   2.100   0.8178   0.02215   0.01543  -0.1540  0.8066  1.0000  -0.9097   0.0000   0.0000   0.0000   0.4352
   2.200   0.8367   0.02185   0.01512  -0.1551  0.8056  1.0000  -0.9308   0.0000   0.0000   0.0000   0.4321
   2.300   0.8560   0.02156   0.01481  -0.1563  0.8046  1.0000  -0.9522   0.0000   0.0000   0.0000   0.4292
   2.400   0.8760   0.02126   0.01450  -0.1576  0.8036  1.0000  -0.9761   0.0000   0.0000   0.0000   0.4264
   2.500   0.8958   0.02094   0.01416  -0.1588  0.8027  1.0000  -1.0006   0.0000   0.0000   0.0000   0.4237
   2.600   0.9156   0.02064   0.01385  -0.1601  0.8016  1.0000  -1.0251   0.0000   0.0000   0.0000   0.4210
   3.000   0.9386   0.02123   0.01446  -0.1560  0.7809  1.0000  -1.0797   0.0000   0.0000   0.0000   0.4120
   3.100   0.9573   0.02088   0.01418  -0.1570  0.7792  1.0000  -1.1098   0.0000   0.0000   0.0000   0.4097
   3.200   0.9761   0.02052   0.01381  -0.1580  0.7775  1.0000  -1.1402   0.0000   0.0000   0.0000   0.4074
   3.300   0.9954   0.02014   0.01342  -0.1591  0.7758  1.0000  -1.1714   0.0000   0.0000   0.0000   0.4052
   3.400   1.0155   0.01974   0.01301  -0.1603  0.7742  1.0000  -1.2037   0.0000   0.0000   0.0000   0.4031
   3.500   1.0362   0.01935   0.01261  -0.1617  0.7725  1.0000  -1.2369   0.0000   0.0000   0.0000   0.4012
   3.600   1.0497   0.01926   0.01252  -0.1619  0.7692  1.0000  -1.2620   0.0000   0.0000   0.0000   0.3992
   3.700   1.0400   0.01993   0.01322  -0.1583  0.7597  1.0000  -1.2608   0.0000   0.0000   0.0000   0.3972
   3.800   1.0512   0.01982   0.01312  -0.1581  0.7552  1.0000  -1.2836   0.0000   0.0000   0.0000   0.3952
   3.900   1.0661   0.01957   0.01287  -0.1585  0.7516  1.0000  -1.3124   0.0000   0.0000   0.0000   0.3933
   4.000   1.0831   0.01925   0.01255  -0.1592  0.7486  1.0000  -1.3462   0.0000   0.0000   0.0000   0.3915
   4.100   1.1020   0.01887   0.01217  -0.1601  0.7458  1.0000  -1.3827   0.0000   0.0000   0.0000   0.3897
   4.200   1.1219   0.01848   0.01175  -0.1613  0.7430  1.0000  -1.4208   0.0000   0.0000   0.0000   0.3881
   4.300   1.1422   0.01813   0.01138  -0.1626  0.7401  1.0000  -1.4597   0.0000   0.0000   0.0000   0.3865
   4.400   1.1416   0.01844   0.01174  -0.1605  0.7330  1.0000  -1.4711   0.0000   0.0000   0.0000   0.3846
   4.500   1.1469   0.01852   0.01184  -0.1593  0.7264  1.0000  -1.4905   0.0000   0.0000   0.0000   0.3827
   4.600   1.1592   0.01835   0.01168  -0.1592  0.7209  1.0000  -1.5209   0.0000   0.0000   0.0000   0.3811
   4.700   1.1748   0.01807   0.01140  -0.1596  0.7162  1.0000  -1.5595   0.0000   0.0000   0.0000   0.3795
   4.800   1.1920   0.01777   0.01107  -0.1603  0.7118  1.0000  -1.6007   0.0000   0.0000   0.0000   0.3780
   4.900   1.2119   0.01745   0.01071  -0.1615  0.7076  1.0000  -1.6485   0.0000   0.0000   0.0000   0.3766
   5.000   1.2145   0.01763   0.01094  -0.1599  0.7004  1.0000  -1.6710   0.0000   0.0000   0.0000   0.3749
   5.100   1.2205   0.01769   0.01102  -0.1588  0.6930  1.0000  -1.6998   0.0000   0.0000   0.0000   0.3732
   5.200   1.2315   0.01757   0.01091  -0.1585  0.6863  1.0000  -1.7378   0.0000   0.0000   0.0000   0.3716
   5.300   1.2462   0.01736   0.01082  -0.1588  0.6801  1.0000  -1.7834   0.0000   0.0000   0.0000   0.3702
   5.400   1.2654   0.01708   0.01047  -0.1599  0.6740  1.0000  -1.8373   0.0000   0.0000   0.0000   0.3690
   5.500   1.2686   0.01723   0.01068  -0.1583  0.6660  1.0000  -1.8618   0.0000   0.0000   0.0000   0.3673
   5.600   1.2748   0.01728   0.01076  -0.1572  0.6574  1.0000  -1.8918   0.0000   0.0000   0.0000   0.3657
   5.700   1.2858   0.01720   0.01065  -0.1569  0.6493  1.0000  -1.9311   0.0000   0.0000   0.0000   0.3643
   5.800   1.3018   0.01704   0.01041  -0.1575  0.6416  1.0000  -1.9798   0.0000   0.0000   0.0000   0.3631
   5.900   1.3092   0.01712   0.01051  -0.1567  0.6331  1.0000  -2.0124   0.0000   0.0000   0.0000   0.3616
   6.000   1.3146   0.01722   0.01065  -0.1555  0.6237  1.0000  -2.0416   0.0000   0.0000   0.0000   0.3601
   6.100   1.3248   0.01722   0.01061  -0.1551  0.6143  1.0000  -2.0802   0.0000   0.0000   0.0000   0.3588
   6.200   1.3389   0.01717   0.01047  -0.1554  0.6053  1.0000  -2.1263   0.0000   0.0000   0.0000   0.3576
   6.300   1.3440   0.01732   0.01066  -0.1542  0.5957  1.0000  -2.1550   0.0000   0.0000   0.0000   0.3561
   6.400   1.3508   0.01742   0.01076  -0.1533  0.5850  1.0000  -2.1875   0.0000   0.0000   0.0000   0.3547
   6.500   1.3610   0.01746   0.01072  -0.1529  0.5740  1.0000  -2.2269   0.0000   0.0000   0.0000   0.3534
   6.600   1.3689   0.01758   0.01081  -0.1521  0.5631  1.0000  -2.2618   0.0000   0.0000   0.0000   0.3521
   6.700   1.3744   0.01773   0.01097  -0.1510  0.5511  1.0000  -2.2920   0.0000   0.0000   0.0000   0.3506
   6.800   1.3825   0.01786   0.01100  -0.1503  0.5385  1.0000  -2.3280   0.0000   0.0000   0.0000   0.3493
   6.900   1.3891   0.01803   0.01113  -0.1493  0.5265  1.0000  -2.3608   0.0000   0.0000   0.0000   0.3480
   7.000   1.3942   0.01822   0.01131  -0.1481  0.5134  1.0000  -2.3907   0.0000   0.0000   0.0000   0.3466
   7.100   1.4011   0.01842   0.01139  -0.1472  0.5002  1.0000  -2.4282   0.0000   0.0000   0.0000   0.3453
   7.200   1.4062   0.01864   0.01160  -0.1461  0.4876  1.0000  -2.4644   0.0000   0.0000   0.0000   0.3439
   7.300   1.4109   0.01888   0.01179  -0.1448  0.4739  1.0000  -2.5002   0.0000   0.0000   0.0000   0.3426
   7.400   1.4164   0.01917   0.01194  -0.1437  0.4603  1.0000  -2.5382   0.0000   0.0000   0.0000   0.3412
   7.500   1.4199   0.01941   0.01220  -0.1423  0.4467  1.0000  -2.5747   0.0000   0.0000   0.0000   0.3398
   7.600   1.4229   0.01972   0.01241  -0.1408  0.4325  1.0000  -2.6136   0.0000   0.0000   0.0000   0.3384
   7.700   1.4261   0.02003   0.01265  -0.1394  0.4191  1.0000  -2.6531   0.0000   0.0000   0.0000   0.3370
   7.800   1.4286   0.02035   0.01292  -0.1378  0.4047  1.0000  -2.6906   0.0000   0.0000   0.0000   0.3356
   7.900   1.4306   0.02077   0.01319  -0.1362  0.3911  1.0000  -2.7271   0.0000   0.0000   0.0000   0.3342
   8.000   1.4335   0.02109   0.01351  -0.1348  0.3773  1.0000  -2.7654   0.0000   0.0000   0.0000   0.3329
   8.100   1.4349   0.02150   0.01382  -0.1332  0.3636  1.0000  -2.8003   0.0000   0.0000   0.0000   0.3315
   8.200   1.4367   0.02194   0.01417  -0.1316  0.3508  1.0000  -2.8363   0.0000   0.0000   0.0000   0.3302
   8.300   1.4390   0.02233   0.01453  -0.1302  0.3372  1.0000  -2.8734   0.0000   0.0000   0.0000   0.3289
   8.400   1.4387   0.02289   0.01512  -0.1283  0.3238  1.0000  -2.9021   0.0000   0.0000   0.0000   0.3274
   8.500   1.4415   0.02330   0.01553  -0.1270  0.3114  1.0000  -2.9402   0.0000   0.0000   0.0000   0.3262
   8.600   1.4430   0.02378   0.01594  -0.1255  0.2992  1.0000  -2.9752   0.0000   0.0000   0.0000   0.3249
   8.700   1.4430   0.02439   0.01640  -0.1239  0.2883  1.0000  -3.0061   0.0000   0.0000   0.0000   0.3236
   8.800   1.4465   0.02478   0.01683  -0.1228  0.2771  1.0000  -3.0465   0.0000   0.0000   0.0000   0.3225
   8.900   1.4479   0.02530   0.01728  -0.1213  0.2664  1.0000  -3.0813   0.0000   0.0000   0.0000   0.3213
   9.000   1.4478   0.02597   0.01781  -0.1198  0.2567  1.0000  -3.1120   0.0000   0.0000   0.0000   0.3200
   9.100   1.4518   0.02637   0.01826  -0.1188  0.2470  1.0000  -3.1537   0.0000   0.0000   0.0000   0.3190
   9.200   1.4538   0.02689   0.01875  -0.1175  0.2378  1.0000  -3.1904   0.0000   0.0000   0.0000   0.3178
   9.300   1.4544   0.02755   0.01929  -0.1161  0.2296  1.0000  -3.2228   0.0000   0.0000   0.0000   0.3167
   9.400   1.4574   0.02810   0.01982  -0.1150  0.2216  1.0000  -3.2614   0.0000   0.0000   0.0000   0.3156
   9.500   1.4610   0.02857   0.02033  -0.1140  0.2139  1.0000  -3.3022   0.0000   0.0000   0.0000   0.3146
   9.600   1.4631   0.02914   0.02086  -0.1129  0.2069  1.0000  -3.3390   0.0000   0.0000   0.0000   0.3135
   9.700   1.4642   0.02983   0.02145  -0.1116  0.2003  1.0000  -3.3728   0.0000   0.0000   0.0000   0.3124
   9.800   1.4677   0.03045   0.02203  -0.1107  0.1938  1.0000  -3.4122   0.0000   0.0000   0.0000   0.3114
   9.900   1.4717   0.03091   0.02256  -0.1098  0.1880  1.0000  -3.4540   0.0000   0.0000   0.0000   0.3105
  10.000   1.4749   0.03144   0.02311  -0.1088  0.1823  1.0000  -3.4937   0.0000   0.0000   0.0000   0.3095
  10.100   1.4772   0.03207   0.02369  -0.1078  0.1771  1.0000  -3.5311   0.0000   0.0000   0.0000   0.3085
  10.200   1.4794   0.03284   0.02435  -0.1068  0.1715  1.0000  -3.5675   0.0000   0.0000   0.0000   0.3075
  10.300   1.4842   0.03345   0.02497  -0.1060  0.1665  1.0000  -3.6098   0.0000   0.0000   0.0000   0.3066
  10.400   1.4883   0.03394   0.02554  -0.1052  0.1622  1.0000  -3.6515   0.0000   0.0000   0.0000   0.3057
  10.500   1.4919   0.03448   0.02612  -0.1043  0.1578  1.0000  -3.6921   0.0000   0.0000   0.0000   0.3048
  10.600   1.4948   0.03506   0.02672  -0.1034  0.1537  1.0000  -3.7315   0.0000   0.0000   0.0000   0.3039
  10.700   1.4973   0.03573   0.02734  -0.1025  0.1496  1.0000  -3.7697   0.0000   0.0000   0.0000   0.3030
  10.800   1.5026   0.03664   0.02810  -0.1019  0.1436  1.0000  -3.8134   0.0000   0.0000   0.0000   0.3022
  10.900   1.5063   0.03717   0.02872  -0.1011  0.1406  1.0000  -3.8533   0.0000   0.0000   0.0000   0.3013
  11.000   1.5095   0.03771   0.02934  -0.1002  0.1373  1.0000  -3.8924   0.0000   0.0000   0.0000   0.3004
  11.100   1.5126   0.03827   0.02996  -0.0994  0.1338  1.0000  -3.9318   0.0000   0.0000   0.0000   0.2996
  11.200   1.5152   0.03887   0.03058  -0.0986  0.1304  1.0000  -3.9707   0.0000   0.0000   0.0000   0.2987
  11.300   1.5175   0.03951   0.03122  -0.0977  0.1273  1.0000  -4.0089   0.0000   0.0000   0.0000   0.2979
  11.400   1.5200   0.04023   0.03191  -0.0969  0.1241  1.0000  -4.0473   0.0000   0.0000   0.0000   0.2971
  11.500   1.5302   0.04120   0.03273  -0.0967  0.1187  1.0000  -4.1014   0.0000   0.0000   0.0000   0.2964
  11.600   1.5328   0.04177   0.03342  -0.0959  0.1171  1.0000  -4.1374   0.0000   0.0000   0.0000   0.2955
  11.700   1.5360   0.04238   0.03412  -0.0951  0.1149  1.0000  -4.1851   0.0000   0.0000   0.0000   0.2947
  11.800   1.5394   0.04302   0.03483  -0.0943  0.1125  1.0000  -4.2340   0.0000   0.0000   0.0000   0.2939
  11.900   1.5430   0.04365   0.03561  -0.0936  0.1103  1.0000  -4.2801   0.0000   0.0000   0.0000   0.2931
  12.000   1.5464   0.04430   0.03631  -0.0929  0.1080  1.0000  -4.3291   0.0000   0.0000   0.0000   0.2923
  12.100   1.5494   0.04497   0.03700  -0.0922  0.1058  1.0000  -4.3783   0.0000   0.0000   0.0000   0.2916
  12.200   1.5521   0.04567   0.03771  -0.0915  0.1036  1.0000  -4.4273   0.0000   0.0000   0.0000   0.2908
  12.300   1.5556   0.04644   0.03846  -0.0909  0.1013  1.0000  -4.4797   0.0000   0.0000   0.0000   0.2901
  12.400   1.5695   0.04761   0.03953  -0.0911  0.0966  1.0000  -4.5610   0.0000   0.0000   0.0000   0.2896
  12.500   1.5702   0.04825   0.04027  -0.0902  0.0955  1.0000  -4.6016   0.0000   0.0000   0.0000   0.2888
  12.600   1.5708   0.04895   0.04108  -0.0893  0.0941  1.0000  -4.6412   0.0000   0.0000   0.0000   0.2880
  12.700   1.5716   0.04970   0.04192  -0.0885  0.0925  1.0000  -4.6812   0.0000   0.0000   0.0000   0.2873
  12.800   1.5726   0.05045   0.04276  -0.0877  0.0907  1.0000  -4.7228   0.0000   0.0000   0.0000   0.2865
  12.900   1.5740   0.05121   0.04358  -0.0870  0.0889  1.0000  -4.7660   0.0000   0.0000   0.0000   0.2858
  13.000   1.5755   0.05197   0.04439  -0.0863  0.0872  1.0000  -4.8104   0.0000   0.0000   0.0000   0.2852
  13.100   1.5771   0.05275   0.04521  -0.0856  0.0856  1.0000  -4.8555   0.0000   0.0000   0.0000   0.2845
  13.200   1.5792   0.05354   0.04602  -0.0850  0.0840  1.0000  -4.9019   0.0000   0.0000   0.0000   0.2838
  13.300   1.5815   0.05435   0.04685  -0.0844  0.0826  1.0000  -4.9497   0.0000   0.0000   0.0000   0.2832
  13.400   1.5847   0.05521   0.04771  -0.0839  0.0809  1.0000  -5.0001   0.0000   0.0000   0.0000   0.2826
  13.500   1.5995   0.05707   0.04954  -0.0841  0.0771  1.0000  -5.0719   0.0000   0.0000   0.0000   0.2820
  13.600   1.5990   0.05791   0.05050  -0.0832  0.0765  1.0000  -5.1041   0.0000   0.0000   0.0000   0.2813
  13.700   1.5984   0.05883   0.05152  -0.0825  0.0758  1.0000  -5.1348   0.0000   0.0000   0.0000   0.2807
  13.800   1.5979   0.05980   0.05261  -0.0817  0.0750  1.0000  -5.1650   0.0000   0.0000   0.0000   0.2800
  13.900   1.5976   0.06082   0.05373  -0.0810  0.0741  1.0000  -5.1947   0.0000   0.0000   0.0000   0.2794
  14.000   1.5972   0.06187   0.05489  -0.0804  0.0732  1.0000  -5.2238   0.0000   0.0000   0.0000   0.2788
  14.100   1.5967   0.06295   0.05607  -0.0797  0.0722  1.0000  -5.2518   0.0000   0.0000   0.0000   0.2782
  14.200   1.5954   0.06409   0.05731  -0.0790  0.0713  1.0000  -5.2764   0.0000   0.0000   0.0000   0.2776
  14.300   1.5941   0.06526   0.05857  -0.0784  0.0703  1.0000  -5.3010   0.0000   0.0000   0.0000   0.2771
  14.400   1.5929   0.06642   0.05982  -0.0778  0.0694  1.0000  -5.3262   0.0000   0.0000   0.0000   0.2765
  14.500   1.5917   0.06758   0.06106  -0.0773  0.0684  1.0000  -5.3526   0.0000   0.0000   0.0000   0.2760
  14.600   1.5905   0.06872   0.06228  -0.0768  0.0675  1.0000  -5.3798   0.0000   0.0000   0.0000   0.2755
  14.700   1.5893   0.06987   0.06348  -0.0763  0.0666  1.0000  -5.4079   0.0000   0.0000   0.0000   0.2751
  14.800   1.5883   0.07098   0.06464  -0.0759  0.0656  1.0000  -5.4386   0.0000   0.0000   0.0000   0.2746
  14.900   1.5878   0.07205   0.06574  -0.0755  0.0647  1.0000  -5.4728   0.0000   0.0000   0.0000   0.2742
  15.000   1.5880   0.07308   0.06679  -0.0752  0.0637  1.0000  -5.5107   0.0000   0.0000   0.0000   0.2738
  15.100   1.5884   0.07418   0.06790  -0.0749  0.0627  1.0000  -5.5491   0.0000   0.0000   0.0000   0.2734
  15.200   1.5877   0.07558   0.06933  -0.0746  0.0617  1.0000  -5.5775   0.0000   0.0000   0.0000   0.2730
  15.300   1.5845   0.07759   0.07142  -0.0743  0.0606  1.0000  -5.5839   0.0000   0.0000   0.0000   0.2727
  15.400   1.5770   0.08036   0.07433  -0.0740  0.0597  1.0000  -5.5586   0.0000   0.0000   0.0000   0.2726
  15.500   1.5678   0.08299   0.07709  -0.0738  0.0592  1.0000  -5.5291   0.0000   0.0000   0.0000   0.2725
  15.600   1.5623   0.08450   0.07871  -0.0737  0.0590  1.0000  -5.5408   0.0000   0.0000   0.0000   0.2724
  15.700   1.5567   0.08611   0.08042  -0.0737  0.0587  1.0000  -5.5508   0.0000   0.0000   0.0000   0.2724
  15.800   1.5507   0.08784   0.08226  -0.0738  0.0584  1.0000  -5.5571   0.0000   0.0000   0.0000   0.2724
  15.900   1.5447   0.08964   0.08416  -0.0740  0.0581  1.0000  -5.5621   0.0000   0.0000   0.0000   0.2724
  16.000   1.5383   0.09154   0.08617  -0.0742  0.0578  1.0000  -5.5637   0.0000   0.0000   0.0000   0.2726
  16.100   1.5315   0.09357   0.08831  -0.0746  0.0575  1.0000  -5.5603   0.0000   0.0000   0.0000   0.2728
  16.200   1.5245   0.09566   0.09051  -0.0751  0.0572  1.0000  -5.5549   0.0000   0.0000   0.0000   0.2731
  16.300   1.5172   0.09788   0.09284  -0.0757  0.0569  1.0000  -5.5452   0.0000   0.0000   0.0000   0.2735
  16.400   1.5092   0.10025   0.09531  -0.0764  0.0566  1.0000  -5.5298   0.0000   0.0000   0.0000   0.2740
  16.500   1.5011   0.10270   0.09787  -0.0772  0.0564  1.0000  -5.5118   0.0000   0.0000   0.0000   0.2746
  16.600   1.4922   0.10533   0.10061  -0.0782  0.0562  1.0000  -5.4865   0.0000   0.0000   0.0000   0.2754
  16.700   1.4828   0.10812   0.10350  -0.0794  0.0560  1.0000  -5.4555   0.0000   0.0000   0.0000   0.2763
  16.800   1.4730   0.11105   0.10654  -0.0807  0.0559  1.0000  -5.4189   0.0000   0.0000   0.0000   0.2773
  16.900   1.4620   0.11421   0.10981  -0.0823  0.0559  1.0000  -5.3716   0.0000   0.0000   0.0000   0.2786
  17.000   1.4506   0.11750   0.11320  -0.0841  0.0559  1.0000  -5.3180   0.0000   0.0000   0.0000   0.2801
  17.100   1.4376   0.12118   0.11699  -0.0862  0.0560  1.0000  -5.2487   0.0000   0.0000   0.0000   0.2819
  17.200   1.4236   0.12524   0.12115  -0.0887  0.0562  1.0000  -5.1667   0.0000   0.0000   0.0000   0.2841
  17.300   1.4073   0.12996   0.12598  -0.0917  0.0565  1.0000  -5.0610   0.0000   0.0000   0.0000   0.2867
  17.400   1.3881   0.13556   0.13168  -0.0953  0.0571  1.0000  -4.9242   0.0000   0.0000   0.0000   0.2901
  17.500   1.3648   0.14251   0.13873  -0.0999  0.0578  1.0000  -4.7407   0.0000   0.0000   0.0000   0.2945
  17.600   1.3341   0.15186   0.14816  -0.1058  0.0588  1.0000  -4.4919   0.0000   0.0000   0.0000   0.3007
  17.700   1.1755   0.21499   0.21115  -0.1412  0.0746  1.0000  -2.6113   0.0000   0.0000   0.0000   0.3445
  17.800   1.1758   0.21776   0.21393  -0.1418  0.0753  1.0000  -2.5967   0.0000   0.0000   0.0000   0.3448
  17.900   1.1772   0.22033   0.21651  -0.1419  0.0762  1.0000  -2.5989   0.0000   0.0000   0.0000   0.3445
  18.400   1.1708   0.24799   0.24422  -0.1490  0.0966  1.0000  -2.2478   0.0000   0.0000   0.0000   0.3512
  18.500   1.1698   0.25026   0.24650  -0.1506  0.0964  1.0000  -2.2195   0.0000   0.0000   0.0000   0.3526
  18.600   1.1658   0.25256   0.24878  -0.1530  0.0960  1.0000  -2.1677   0.0000   0.0000   0.0000   0.3550
  18.700   1.1542   0.25449   0.25068  -0.1579  0.0941  1.0000  -2.0502   0.0000   0.0000   0.0000   0.3605
  18.800   1.1486   0.25675   0.25292  -0.1609  0.0910  1.0000  -1.9863   0.0000   0.0000   0.0000   0.3636
  18.900   1.1485   0.25885   0.25503  -0.1622  0.0890  1.0000  -1.9721   0.0000   0.0000   0.0000   0.3645
  19.000   1.1494   0.26091   0.25709  -0.1630  0.0876  1.0000  -1.9658   0.0000   0.0000   0.0000   0.3650
  19.100   1.1506   0.26287   0.25907  -0.1638  0.0864  1.0000  -1.9637   0.0000   0.0000   0.0000   0.3653
  19.200   1.1522   0.26476   0.26097  -0.1644  0.0852  1.0000  -1.9652   0.0000   0.0000   0.0000   0.3654
  19.300   1.1541   0.26656   0.26278  -0.1649  0.0842  1.0000  -1.9703   0.0000   0.0000   0.0000   0.3654
  19.400   1.1564   0.26828   0.26451  -0.1653  0.0831  1.0000  -1.9794   0.0000   0.0000   0.0000   0.3652
  19.500   1.1592   0.26990   0.26615  -0.1655  0.0822  1.0000  -1.9963   0.0000   0.0000   0.0000   0.3648
  19.600   1.1627   0.27143   0.26770  -0.1655  0.0813  1.0000  -2.0336   0.0000   0.0000   0.0000   0.3642
  19.700   1.1670   0.27290   0.26919  -0.1652  0.0804  1.0000  -2.0808   0.0000   0.0000   0.0000   0.3631
  19.800   1.1728   0.27436   0.27068  -0.1645  0.0796  1.0000  -2.1436   0.0000   0.0000   0.0000   0.3616
  19.900   1.1807   0.27602   0.27238  -0.1632  0.0788  1.0000  -2.2265   0.0000   0.0000   0.0000   0.3592
  20.000   1.1874   0.27850   0.27498  -0.1617  0.0780  1.0000  -2.3165   0.0000   0.0000   0.0000   0.3570
  20.200   1.1849   0.28884   0.28530  -0.1627  0.0769  1.0000  -2.2823   0.0000   0.0000   0.0000   0.3578
  20.300   1.1846   0.29140   0.28786  -0.1639  0.0769  1.0000  -2.2666   0.0000   0.0000   0.0000   0.3587
  20.400   1.1842   0.29387   0.29034  -0.1650  0.0768  1.0000  -2.2505   0.0000   0.0000   0.0000   0.3595
  20.500   1.1836   0.29623   0.29271  -0.1662  0.0767  1.0000  -2.2327   0.0000   0.0000   0.0000   0.3605
  20.600   1.1816   0.29853   0.29500  -0.1678  0.0765  1.0000  -2.2015   0.0000   0.0000   0.0000   0.3619
  20.700   1.1791   0.30063   0.29710  -0.1695  0.0763  1.0000  -2.1650   0.0000   0.0000   0.0000   0.3635
  20.800   1.1743   0.30238   0.29884  -0.1718  0.0758  1.0000  -2.1081   0.0000   0.0000   0.0000   0.3659
  20.900   1.1667   0.30396   0.30039  -0.1753  0.0746  1.0000  -2.0147   0.0000   0.0000   0.0000   0.3696
  21.000   1.1638   0.30627   0.30271  -0.1775  0.0726  1.0000  -1.9654   0.0000   0.0000   0.0000   0.3717
  21.100   1.1633   0.30863   0.30507  -0.1786  0.0711  1.0000  -1.9538   0.0000   0.0000   0.0000   0.3725
  21.200   1.1634   0.31093   0.30738  -0.1794  0.0699  1.0000  -1.9513   0.0000   0.0000   0.0000   0.3731
  21.300   1.1636   0.31317   0.30963  -0.1801  0.0689  1.0000  -1.9529   0.0000   0.0000   0.0000   0.3734
  21.400   1.1639   0.31536   0.31183  -0.1807  0.0679  1.0000  -1.9572   0.0000   0.0000   0.0000   0.3737
  21.500   1.1643   0.31751   0.31400  -0.1812  0.0671  1.0000  -1.9637   0.0000   0.0000   0.0000   0.3739
  21.600   1.1648   0.31961   0.31612  -0.1817  0.0663  1.0000  -1.9720   0.0000   0.0000   0.0000   0.3740
  21.700   1.1652   0.32168   0.31820  -0.1821  0.0655  1.0000  -1.9822   0.0000   0.0000   0.0000   0.3741
  21.800   1.1657   0.32371   0.32024  -0.1825  0.0648  1.0000  -1.9942   0.0000   0.0000   0.0000   0.3741
  21.900   1.1663   0.32570   0.32225  -0.1828  0.0642  1.0000  -2.0080   0.0000   0.0000   0.0000   0.3741
  22.000   1.1668   0.32767   0.32424  -0.1830  0.0636  1.0000  -2.0237   0.0000   0.0000   0.0000   0.3740
  22.100   1.1674   0.32961   0.32619  -0.1832  0.0631  1.0000  -2.0416   0.0000   0.0000   0.0000   0.3738
  22.200   1.1681   0.33153   0.32814  -0.1832  0.0626  1.0000  -2.0617   0.0000   0.0000   0.0000   0.3735
  22.300   1.1688   0.33346   0.33009  -0.1832  0.0621  1.0000  -2.0845   0.0000   0.0000   0.0000   0.3731
  22.400   1.1697   0.33542   0.33207  -0.1830  0.0617  1.0000  -2.1106   0.0000   0.0000   0.0000   0.3726
  22.500   1.1710   0.33744   0.33411  -0.1826  0.0612  1.0000  -2.1555   0.0000   0.0000   0.0000   0.3719
  22.600   1.1728   0.33963   0.33634  -0.1821  0.0608  1.0000  -2.2091   0.0000   0.0000   0.0000   0.3710
  22.700   1.1759   0.34223   0.33897  -0.1813  0.0604  1.0000  -2.2757   0.0000   0.0000   0.0000   0.3697
  22.800   1.1815   0.34616   0.34294  -0.1801  0.0599  1.0000  -2.3635   0.0000   0.0000   0.0000   0.3677
  22.900   1.1787   0.35365   0.35043  -0.1793  0.0593  1.0000  -2.3600   0.0000   0.0000   0.0000   0.3673
  23.000   1.1753   0.35587   0.35266  -0.1797  0.0592  1.0000  -2.3487   0.0000   0.0000   0.0000   0.3679
  23.100   1.1709   0.35794   0.35475  -0.1800  0.0592  1.0000  -2.3338   0.0000   0.0000   0.0000   0.3686
  23.200   1.1647   0.35972   0.35654  -0.1801  0.0592  1.0000  -2.3114   0.0000   0.0000   0.0000   0.3694
  23.600   1.0067   0.33189   0.32900  -0.1618  0.0590  1.0000  -1.8169   0.0000   0.0000   0.0000   0.3771
  23.700   0.9950   0.32998   0.32710  -0.1619  0.0588  1.0000  -1.7577   0.0000   0.0000   0.0000   0.3791
  23.800   0.9843   0.32830   0.32543  -0.1625  0.0585  1.0000  -1.6926   0.0000   0.0000   0.0000   0.3814
  23.900   0.9752   0.32744   0.32457  -0.1639  0.0578  1.0000  -1.6163   0.0000   0.0000   0.0000   0.3843
  24.000   0.9707   0.32823   0.32537  -0.1655  0.0556  1.0000  -1.5551   0.0000   0.0000   0.0000   0.3866
  24.100   0.9678   0.32876   0.32592  -0.1658  0.0535  1.0000  -1.5408   0.0000   0.0000   0.0000   0.3874
  24.200   0.9652   0.32910   0.32627  -0.1659  0.0521  1.0000  -1.5353   0.0000   0.0000   0.0000   0.3878
  24.300   0.9628   0.32936   0.32655  -0.1659  0.0508  1.0000  -1.5339   0.0000   0.0000   0.0000   0.3880
  24.400   0.9607   0.32954   0.32675  -0.1658  0.0495  1.0000  -1.5367   0.0000   0.0000   0.0000   0.3881
  24.500   0.9589   0.32964   0.32687  -0.1657  0.0484  1.0000  -1.5446   0.0000   0.0000   0.0000   0.3881
  24.600   0.9575   0.32964   0.32689  -0.1654  0.0474  1.0000  -1.5590   0.0000   0.0000   0.0000   0.3879
  24.700   0.9565   0.32954   0.32681  -0.1650  0.0465  1.0000  -1.5817   0.0000   0.0000   0.0000   0.3874
  24.800   0.9562   0.32941   0.32670  -0.1643  0.0457  1.0000  -1.6158   0.0000   0.0000   0.0000   0.3865
  24.900   0.9576   0.32962   0.32693  -0.1631  0.0449  1.0000  -1.6723   0.0000   0.0000   0.0000   0.3847
  25.000   0.9661   0.33585   0.33317  -0.1609  0.0438  1.0000  -1.7544   0.0000   0.0000   0.0000   0.3807
  25.100   0.9603   0.33525   0.33258  -0.1612  0.0437  1.0000  -1.7088   0.0000   0.0000   0.0000   0.3820
  25.200   0.9537   0.33435   0.33169  -0.1617  0.0436  1.0000  -1.6569   0.0000   0.0000   0.0000   0.3836
  25.300   0.9468   0.33343   0.33077  -0.1624  0.0435  1.0000  -1.5998   0.0000   0.0000   0.0000   0.3854
  25.400   0.9406   0.33282   0.33016  -0.1633  0.0432  1.0000  -1.5386   0.0000   0.0000   0.0000   0.3874
  25.500   0.9356   0.33299   0.33032  -0.1648  0.0427  1.0000  -1.4669   0.0000   0.0000   0.0000   0.3899
  25.600   0.9335   0.33450   0.33183  -0.1665  0.0404  1.0000  -1.3990   0.0000   0.0000   0.0000   0.3920
  25.700   0.9324   0.33524   0.33259  -0.1669  0.0376  1.0000  -1.3857   0.0000   0.0000   0.0000   0.3925
  25.800   0.9318   0.33547   0.33283  -0.1670  0.0353  1.0000  -1.3952   0.0000   0.0000   0.0000   0.3924
  25.900   0.9312   0.33557   0.33294  -0.1669  0.0340  1.0000  -1.4070   0.0000   0.0000   0.0000   0.3922
  26.000   0.9307   0.33554   0.33293  -0.1668  0.0331  1.0000  -1.4235   0.0000   0.0000   0.0000   0.3919
  26.100   0.9307   0.33525   0.33266  -0.1663  0.0322  1.0000  -1.4552   0.0000   0.0000   0.0000   0.3910
  26.200   0.9327   0.33501   0.33244  -0.1647  0.0313  1.0000  -1.5277   0.0000   0.0000   0.0000   0.3887
  26.300   0.9345   0.33822   0.33565  -0.1632  0.0307  1.0000  -1.5367   0.0000   0.0000   0.0000   0.3866
  26.400   0.9314   0.33848   0.33591  -0.1636  0.0306  1.0000  -1.4957   0.0000   0.0000   0.0000   0.3874
  26.500   0.9280   0.33864   0.33608  -0.1640  0.0306  1.0000  -1.4528   0.0000   0.0000   0.0000   0.3884
  26.600   0.9247   0.33884   0.33628  -0.1645  0.0305  1.0000  -1.4103   0.0000   0.0000   0.0000   0.3894
  26.700   0.9217   0.33911   0.33655  -0.1651  0.0304  1.0000  -1.3693   0.0000   0.0000   0.0000   0.3905
  26.800   0.9189   0.33947   0.33692  -0.1656  0.0303  1.0000  -1.3292   0.0000   0.0000   0.0000   0.3915
  26.900   0.9165   0.33996   0.33741  -0.1663  0.0302  1.0000  -1.2894   0.0000   0.0000   0.0000   0.3925
  27.000   0.9143   0.34061   0.33807  -0.1670  0.0300  1.0000  -1.2493   0.0000   0.0000   0.0000   0.3936
  27.100   0.9126   0.34150   0.33896  -0.1678  0.0297  1.0000  -1.2079   0.0000   0.0000   0.0000   0.3946
  27.200   0.9114   0.34266   0.34012  -0.1687  0.0292  1.0000  -1.1668   0.0000   0.0000   0.0000   0.3957
  27.300   0.9106   0.34381   0.34128  -0.1693  0.0285  1.0000  -1.1340   0.0000   0.0000   0.0000   0.3964
  27.400   0.9097   0.34471   0.34218  -0.1698  0.0276  1.0000  -1.1122   0.0000   0.0000   0.0000   0.3969
  27.500   0.9089   0.34546   0.34294  -0.1701  0.0269  1.0000  -1.0965   0.0000   0.0000   0.0000   0.3972
  27.600   0.9080   0.34613   0.34363  -0.1704  0.0263  1.0000  -1.0840   0.0000   0.0000   0.0000   0.3975
  27.700   0.9072   0.34676   0.34426  -0.1706  0.0257  1.0000  -1.0738   0.0000   0.0000   0.0000   0.3977
  27.800   0.9064   0.34736   0.34488  -0.1709  0.0252  1.0000  -1.0652   0.0000   0.0000   0.0000   0.3979
  27.900   0.9056   0.34795   0.34547  -0.1711  0.0247  1.0000  -1.0580   0.0000   0.0000   0.0000   0.3981
  28.000   0.9048   0.34851   0.34605  -0.1713  0.0242  1.0000  -1.0521   0.0000   0.0000   0.0000   0.3983
  28.100   0.9041   0.34906   0.34660  -0.1715  0.0238  1.0000  -1.0475   0.0000   0.0000   0.0000   0.3985
  28.200   0.9035   0.34958   0.34713  -0.1718  0.0234  1.0000  -1.0442   0.0000   0.0000   0.0000   0.3986
  28.300   0.9028   0.35008   0.34764  -0.1720  0.0230  1.0000  -1.0421   0.0000   0.0000   0.0000   0.3988
  28.400   0.9022   0.35057   0.34814  -0.1722  0.0227  1.0000  -1.0415   0.0000   0.0000   0.0000   0.3989
  28.500   0.9016   0.35102   0.34860  -0.1724  0.0223  1.0000  -1.0423   0.0000   0.0000   0.0000   0.3989
  28.600   0.9011   0.35146   0.34911  -0.1725  0.0220  1.0000  -1.0472   0.0000   0.0000   0.0000   0.3990
  28.700   0.9005   0.35186   0.34952  -0.1727  0.0218  1.0000  -1.0514   0.0000   0.0000   0.0000   0.3990
  28.800   0.9000   0.35221   0.34988  -0.1728  0.0215  1.0000  -1.0572   0.0000   0.0000   0.0000   0.3990
  28.900   0.8995   0.35252   0.35020  -0.1729  0.0212  1.0000  -1.0650   0.0000   0.0000   0.0000   0.3990
  29.000   0.8990   0.35279   0.35048  -0.1729  0.0210  1.0000  -1.0752   0.0000   0.0000   0.0000   0.3988
  29.100   0.8985   0.35302   0.35072  -0.1729  0.0208  1.0000  -1.0883   0.0000   0.0000   0.0000   0.3986
  29.200   0.8982   0.35325   0.35097  -0.1727  0.0205  1.0000  -1.1053   0.0000   0.0000   0.0000   0.3982
  29.300   0.8981   0.35369   0.35143  -0.1722  0.0203  1.0000  -1.1288   0.0000   0.0000   0.0000   0.3974
  29.400   0.9005   0.35669   0.35442  -0.1710  0.0199  1.0000  -1.1641   0.0000   0.0000   0.0000   0.3953
  29.500   0.8992   0.35715   0.35489  -0.1713  0.0199  1.0000  -1.1477   0.0000   0.0000   0.0000   0.3958
  29.600   0.8978   0.35760   0.35534  -0.1717  0.0199  1.0000  -1.1309   0.0000   0.0000   0.0000   0.3963
  29.700   0.8965   0.35807   0.35582  -0.1721  0.0199  1.0000  -1.1146   0.0000   0.0000   0.0000   0.3968
  29.800   0.8952   0.35854   0.35630  -0.1725  0.0199  1.0000  -1.0985   0.0000   0.0000   0.0000   0.3973
  29.900   0.8939   0.35902   0.35678  -0.1730  0.0198  1.0000  -1.0827   0.0000   0.0000   0.0000   0.3978
  30.000   0.8927   0.35952   0.35729  -0.1734  0.0198  1.0000  -1.0672   0.0000   0.0000   0.0000   0.3983


