xflr5 v6.61

 Calculated polar for: SG6041

 1 1 Reynolds number fixed          Mach number fixed         

 xtrf =   1.000 (top)        1.000 (bottom)
 Mach =   0.000     Re =     0.300 e 6     Ncrit =   9.000

  alpha     CL        CD       CDp       Cm    Top Xtr Bot Xtr   Cpmin    Chinge    XCp    
 ------- -------- --------- --------- -------- ------- ------- -------- --------- ---------
 -10.000  -0.4242   0.10376   0.10058  -0.0332  1.0000  0.0228  -1.8807   0.0000   0.0000   0.0000   0.1635
  -9.900  -0.4228   0.10251   0.09934  -0.0334  1.0000  0.0229  -1.8665   0.0000   0.0000   0.0000   0.1629
  -9.800  -0.4214   0.10126   0.09809  -0.0336  1.0000  0.0231  -1.8542   0.0000   0.0000   0.0000   0.1622
  -9.700  -0.4202   0.10000   0.09684  -0.0339  1.0000  0.0233  -1.8438   0.0000   0.0000   0.0000   0.1615
  -9.600  -0.4192   0.09873   0.09558  -0.0341  1.0000  0.0235  -1.8358   0.0000   0.0000   0.0000   0.1608
  -9.500  -0.4184   0.09744   0.09431  -0.0344  1.0000  0.0237  -1.8301   0.0000   0.0000   0.0000   0.1600
  -9.400  -0.4178   0.09615   0.09303  -0.0347  1.0000  0.0238  -1.8264   0.0000   0.0000   0.0000   0.1593
  -9.300  -0.4174   0.09485   0.09174  -0.0350  1.0000  0.0240  -1.8247   0.0000   0.0000   0.0000   0.1586
  -9.200  -0.4172   0.09354   0.09044  -0.0354  1.0000  0.0242  -1.8249   0.0000   0.0000   0.0000   0.1578
  -9.100  -0.4173   0.09222   0.08914  -0.0357  1.0000  0.0244  -1.8268   0.0000   0.0000   0.0000   0.1572
  -9.000  -0.4176   0.09089   0.08783  -0.0360  1.0000  0.0246  -1.8305   0.0000   0.0000   0.0000   0.1566
  -8.900  -0.4181   0.08956   0.08651  -0.0364  1.0000  0.0248  -1.8357   0.0000   0.0000   0.0000   0.1560
  -8.800  -0.4188   0.08821   0.08518  -0.0367  1.0000  0.0250  -1.8426   0.0000   0.0000   0.0000   0.1554
  -8.700  -0.4199   0.08686   0.08385  -0.0370  1.0000  0.0251  -1.8511   0.0000   0.0000   0.0000   0.1550
  -8.600  -0.4214   0.08551   0.08251  -0.0374  1.0000  0.0253  -1.8614   0.0000   0.0000   0.0000   0.1547
  -8.500  -0.4232   0.08415   0.08118  -0.0377  1.0000  0.0255  -1.8734   0.0000   0.0000   0.0000   0.1545
  -8.400  -0.4255   0.08281   0.07985  -0.0379  1.0000  0.0256  -1.8873   0.0000   0.0000   0.0000   0.1544
  -8.300  -0.4284   0.08148   0.07855  -0.0382  1.0000  0.0258  -1.9031   0.0000   0.0000   0.0000   0.1547
  -8.200  -0.4321   0.08018   0.07727  -0.0383  1.0000  0.0259  -1.9213   0.0000   0.0000   0.0000   0.1553
  -8.100  -0.4370   0.07892   0.07604  -0.0383  1.0000  0.0260  -1.9422   0.0000   0.0000   0.0000   0.1564
  -8.000  -0.4433   0.07775   0.07490  -0.0381  1.0000  0.0260  -1.9665   0.0000   0.0000   0.0000   0.1583
  -7.900  -0.4517   0.07671   0.07390  -0.0376  1.0000  0.0260  -1.9950   0.0000   0.0000   0.0000   0.1612
  -7.800  -0.4629   0.07586   0.07308  -0.0367  1.0000  0.0259  -2.0295   0.0000   0.0000   0.0000   0.1654
  -7.700  -0.4768   0.07514   0.07240  -0.0355  1.0000  0.0257  -2.0702   0.0000   0.0000   0.0000   0.1705
  -7.600  -0.4882   0.07420   0.07147  -0.0348  1.0000  0.0256  -2.1070   0.0000   0.0000   0.0000   0.1740
  -7.500  -0.4966   0.07316   0.07043  -0.0340  1.0000  0.0255  -2.1351   0.0000   0.0000   0.0000   0.1769
  -7.400  -0.5042   0.07209   0.06936  -0.0333  1.0000  0.0256  -2.1609   0.0000   0.0000   0.0000   0.1794
  -7.300  -0.5111   0.07098   0.06825  -0.0326  1.0000  0.0256  -2.1845   0.0000   0.0000   0.0000   0.1817
  -7.200  -0.5171   0.06983   0.06709  -0.0321  1.0000  0.0256  -2.2062   0.0000   0.0000   0.0000   0.1837
  -7.100  -0.5224   0.06864   0.06589  -0.0315  1.0000  0.0257  -2.2257   0.0000   0.0000   0.0000   0.1854
  -7.000  -0.5202   0.06672   0.06393  -0.0330  0.9991  0.0260  -2.2385   0.0000   0.0000   0.0000   0.1825
  -6.900  -0.5127   0.06431   0.06147  -0.0357  0.9975  0.0264  -2.2468   0.0000   0.0000   0.0000   0.1762
  -6.800  -0.5052   0.06199   0.05908  -0.0381  0.9957  0.0269  -2.2550   0.0000   0.0000   0.0000   0.1704
  -6.700  -0.4970   0.05968   0.05670  -0.0405  0.9940  0.0275  -2.2630   0.0000   0.0000   0.0000   0.1644
  -6.600  -0.4879   0.05738   0.05433  -0.0427  0.9925  0.0281  -2.2708   0.0000   0.0000   0.0000   0.1582
  -6.500  -0.4801   0.05531   0.05216  -0.0443  0.9906  0.0288  -2.2801   0.0000   0.0000   0.0000   0.1534
  -6.400  -0.4717   0.05328   0.05004  -0.0458  0.9885  0.0296  -2.2918   0.0000   0.0000   0.0000   0.1487
  -6.300  -0.4616   0.05135   0.04799  -0.0472  0.9868  0.0307  -2.3094   0.0000   0.0000   0.0000   0.1434
  -6.200  -0.4429   0.05154   0.04798  -0.0481  0.9855  0.0330  -2.2967   0.0000   0.0000   0.0000   0.1370
  -6.100  -0.4305   0.05072   0.04700  -0.0492  0.9843  0.0334  -2.2795   0.0000   0.0000   0.0000   0.1313
  -6.000  -0.4196   0.04926   0.04541  -0.0504  0.9833  0.0335  -2.2703   0.0000   0.0000   0.0000   0.1255
  -5.900  -0.4133   0.04797   0.04401  -0.0504  0.9807  0.0336  -2.2642   0.0000   0.0000   0.0000   0.1235
  -5.800  -0.4052   0.04654   0.04246  -0.0508  0.9785  0.0337  -2.2559   0.0000   0.0000   0.0000   0.1201
  -5.700  -0.3960   0.04499   0.04074  -0.0514  0.9767  0.0337  -2.2453   0.0000   0.0000   0.0000   0.1157
  -5.200  -0.3527   0.02783   0.02247  -0.0541  0.9710  0.0191  -2.7486   0.0000   0.0000   0.0000   0.0914
  -5.100  -0.3488   0.02611   0.02056  -0.0530  0.9679  0.0181  -2.7929   0.0000   0.0000   0.0000   0.0929
  -5.000  -0.3406   0.02437   0.01859  -0.0525  0.9660  0.0169  -2.8397   0.0000   0.0000   0.0000   0.0906
  -4.900  -0.3304   0.02262   0.01658  -0.0521  0.9646  0.0158  -2.8984   0.0000   0.0000   0.0000   0.0868
  -4.800  -0.3192   0.02094   0.01463  -0.0518  0.9635  0.0147  -2.9634   0.0000   0.0000   0.0000   0.0821
  -4.700  -0.3072   0.01965   0.01312  -0.0517  0.9626  0.0141  -2.9884   0.0000   0.0000   0.0000   0.0759
  -4.600  -0.2946   0.01865   0.01196  -0.0518  0.9617  0.0136  -2.9801   0.0000   0.0000   0.0000   0.0683
  -4.500  -0.2814   0.01787   0.01107  -0.0521  0.9608  0.0134  -2.9438   0.0000   0.0000   0.0000   0.0592
  -4.400  -0.2680   0.01722   0.01032  -0.0524  0.9599  0.0133  -2.8911   0.0000   0.0000   0.0000   0.0484
  -4.300  -0.2543   0.01665   0.00968  -0.0529  0.9590  0.0133  -2.8341   0.0000   0.0000   0.0000   0.0360
  -4.200  -0.2403   0.01612   0.00909  -0.0534  0.9582  0.0134  -2.7711   0.0000   0.0000   0.0000   0.0216
  -4.100  -0.2260   0.01564   0.00856  -0.0540  0.9575  0.0136  -2.7034   0.0000   0.0000   0.0000   0.0048
  -4.000  -0.2116   0.01520   0.00809  -0.0546  0.9568  0.0140  -2.6319   0.0000   0.0000   0.0000  -0.0148
  -3.900  -0.1970   0.01482   0.00768  -0.0553  0.9562  0.0146  -2.5569   0.0000   0.0000   0.0000  -0.0378
  -3.800  -0.1879   0.01455   0.00738  -0.0549  0.9540  0.0153  -2.4978   0.0000   0.0000   0.0000  -0.0491
  -3.700  -0.1805   0.01432   0.00712  -0.0541  0.9510  0.0161  -2.4440   0.0000   0.0000   0.0000  -0.0569
  -3.600  -0.1692   0.01407   0.00684  -0.0541  0.9490  0.0175  -2.3803   0.0000   0.0000   0.0000  -0.0770
  -3.500  -0.1565   0.01384   0.00658  -0.0544  0.9474  0.0194  -2.3085   0.0000   0.0000   0.0000  -0.1051
  -3.400  -0.1434   0.01353   0.00624  -0.0547  0.9459  0.0226  -2.2457   0.0000   0.0000   0.0000  -0.1397
  -3.300  -0.1299   0.01318   0.00594  -0.0552  0.9446  0.0334  -2.1866   0.0000   0.0000   0.0000  -0.1835
  -3.200  -0.1161   0.01283   0.00573  -0.0558  0.9434  0.0570  -2.1054   0.0000   0.0000   0.0000  -0.2395
  -3.100  -0.1015   0.01270   0.00562  -0.0566  0.9424  0.0678  -1.9897   0.0000   0.0000   0.0000  -0.3174
  -3.000  -0.0868   0.01252   0.00552  -0.0574  0.9416  0.0806  -1.8738   0.0000   0.0000   0.0000  -0.4223
  -2.900  -0.0720   0.01232   0.00542  -0.0583  0.9408  0.1012  -1.7779   0.0000   0.0000   0.0000  -0.5731
  -2.800  -0.0571   0.01203   0.00532  -0.0593  0.9401  0.1367  -1.6950   0.0000   0.0000   0.0000  -0.8032
  -2.700  -0.0431   0.01152   0.00519  -0.0603  0.9394  0.2155  -1.6187   0.0000   0.0000   0.0000  -1.1665
  -2.600  -0.0286   0.01117   0.00499  -0.0612  0.9387  0.2781  -1.5554   0.0000   0.0000   0.0000  -1.9186
  -2.500  -0.0199   0.01034   0.00488  -0.0613  0.9373  0.4576  -1.4948   0.0000   0.0000   0.0000  -2.8725
  -2.400  -0.0213   0.00996   0.00495  -0.0588  0.9320  0.5655  -1.4648   0.0000   0.0000   0.0000  -2.5408
  -2.300  -0.0140   0.00971   0.00507  -0.0578  0.9294  0.6607  -1.4068   0.0000   0.0000   0.0000  -3.9427
  -2.200  -0.0032   0.00963   0.00511  -0.0575  0.9275  0.7042  -1.3396   0.0000   0.0000   0.0000  -18.1488
  -2.100   0.0096   0.00959   0.00507  -0.0577  0.9258  0.7261  -1.2677   0.0000   0.0000   0.0000   6.3030
  -2.000   0.0225   0.00952   0.00506  -0.0578  0.9244  0.7428  -1.1964   0.0000   0.0000   0.0000   2.8457
  -1.900   0.0363   0.00948   0.00500  -0.0581  0.9230  0.7573  -1.1237   0.0000   0.0000   0.0000   1.8674
  -1.800   0.0498   0.00941   0.00496  -0.0584  0.9217  0.7702  -1.0527   0.0000   0.0000   0.0000   1.4320
  -1.700   0.0633   0.00937   0.00493  -0.0586  0.9205  0.7838  -0.9827   0.0000   0.0000   0.0000   1.1826
  -1.600   0.0771   0.00934   0.00488  -0.0589  0.9194  0.7953  -0.9134   0.0000   0.0000   0.0000   1.0197
  -1.500   0.0905   0.00928   0.00485  -0.0591  0.9183  0.8049  -0.8462   0.0000   0.0000   0.0000   0.9073
  -1.400   0.1036   0.00925   0.00483  -0.0593  0.9169  0.8137  -0.7811   0.0000   0.0000   0.0000   0.8255
  -1.300   0.1077   0.00929   0.00486  -0.0577  0.9121  0.8213  -0.7408   0.0000   0.0000   0.0000   0.7888
  -1.200   0.1172   0.00928   0.00484  -0.0572  0.9090  0.8288  -0.6872   0.0000   0.0000   0.0000   0.7409
  -1.100   0.1277   0.00923   0.00482  -0.0568  0.9065  0.8362  -0.6312   0.0000   0.0000   0.0000   0.6970
  -1.000   0.1391   0.00918   0.00478  -0.0566  0.9042  0.8438  -0.5740   0.0000   0.0000   0.0000   0.6586
  -0.900   0.1509   0.00914   0.00473  -0.0565  0.9021  0.8517  -0.5169   0.0000   0.0000   0.0000   0.6256
  -0.800   0.1627   0.00909   0.00467  -0.0564  0.9001  0.8602  -0.4606   0.0000   0.0000   0.0000   0.5971
  -0.700   0.1739   0.00903   0.00465  -0.0559  0.8984  0.8704  -0.4062   0.0000   0.0000   0.0000   0.5719
  -0.600   0.1849   0.00900   0.00462  -0.0554  0.8965  0.8821  -0.4106   0.0000   0.0000   0.0000   0.5501
  -0.500   0.1961   0.00896   0.00459  -0.0550  0.8948  0.8917  -0.4206   0.0000   0.0000   0.0000   0.5303
  -0.400   0.2025   0.00897   0.00462  -0.0537  0.8912  0.9005  -0.4286   0.0000   0.0000   0.0000   0.5149
  -0.300   0.2087   0.00897   0.00463  -0.0524  0.8870  0.9088  -0.4372   0.0000   0.0000   0.0000   0.5009
  -0.200   0.2181   0.00892   0.00458  -0.0518  0.8837  0.9149  -0.4481   0.0000   0.0000   0.0000   0.4869
  -0.100   0.2292   0.00888   0.00453  -0.0515  0.8807  0.9204  -0.4600   0.0000   0.0000   0.0000   0.4739
   0.000   0.2409   0.00882   0.00446  -0.0513  0.8780  0.9255  -0.4724   0.0000   0.0000   0.0000   0.4623
   0.100   0.2530   0.00875   0.00437  -0.0513  0.8753  0.9304  -0.4850   0.0000   0.0000   0.0000   0.4519
   0.200   0.2657   0.00868   0.00428  -0.0514  0.8728  0.9342  -0.4989   0.0000   0.0000   0.0000   0.4425
   0.300   0.2804   0.00863   0.00420  -0.0520  0.8705  0.9366  -0.5149   0.0000   0.0000   0.0000   0.4342
   0.400   0.2938   0.00860   0.00416  -0.0523  0.8677  0.9395  -0.5301   0.0000   0.0000   0.0000   0.4267
   0.500   0.3043   0.00858   0.00415  -0.0521  0.8634  0.9436  -0.5444   0.0000   0.0000   0.0000   0.4197
   0.600   0.3158   0.00854   0.00411  -0.0520  0.8593  0.9477  -0.5601   0.0000   0.0000   0.0000   0.4133
   0.700   0.3272   0.00850   0.00405  -0.0520  0.8554  0.9519  -0.5759   0.0000   0.0000   0.0000   0.4073
   0.800   0.3415   0.00844   0.00398  -0.0525  0.8517  0.9544  -0.5941   0.0000   0.0000   0.0000   0.4021
   0.900   0.3569   0.00838   0.00390  -0.0533  0.8482  0.9562  -0.6132   0.0000   0.0000   0.0000   0.3975
   1.000   0.3724   0.00832   0.00381  -0.0540  0.8448  0.9581  -0.6350   0.0000   0.0000   0.0000   0.3933
   1.100   0.3882   0.00828   0.00374  -0.0548  0.8412  0.9599  -0.6573   0.0000   0.0000   0.0000   0.3894
   1.200   0.4008   0.00825   0.00373  -0.0551  0.8361  0.9633  -0.6768   0.0000   0.0000   0.0000   0.3856
   1.300   0.4134   0.00822   0.00370  -0.0554  0.8309  0.9671  -0.6964   0.0000   0.0000   0.0000   0.3820
   1.400   0.4273   0.00818   0.00365  -0.0559  0.8259  0.9702  -0.7173   0.0000   0.0000   0.0000   0.3788
   1.500   0.4435   0.00814   0.00359  -0.0569  0.8213  0.9719  -0.7405   0.0000   0.0000   0.0000   0.3761
   1.600   0.4599   0.00809   0.00352  -0.0579  0.8168  0.9736  -0.7639   0.0000   0.0000   0.0000   0.3736
   1.700   0.4763   0.00806   0.00345  -0.0589  0.8122  0.9751  -0.7876   0.0000   0.0000   0.0000   0.3713
   1.800   0.4907   0.00804   0.00345  -0.0596  0.8059  0.9780  -0.8122   0.0000   0.0000   0.0000   0.3691
   1.900   0.5046   0.00801   0.00343  -0.0602  0.7988  0.9811  -0.8394   0.0000   0.0000   0.0000   0.3668
   2.000   0.5195   0.00797   0.00337  -0.0610  0.7918  0.9833  -0.8700   0.0000   0.0000   0.0000   0.3648
   2.100   0.5356   0.00793   0.00333  -0.0619  0.7851  0.9847  -0.9023   0.0000   0.0000   0.0000   0.3630
   2.200   0.5511   0.00790   0.00328  -0.0628  0.7780  0.9867  -0.9340   0.0000   0.0000   0.0000   0.3613
   2.300   0.5659   0.00788   0.00327  -0.0637  0.7693  0.9896  -0.9649   0.0000   0.0000   0.0000   0.3597
   2.400   0.5806   0.00786   0.00322  -0.0644  0.7602  0.9923  -0.9960   0.0000   0.0000   0.0000   0.3580
   2.500   0.5964   0.00784   0.00314  -0.0653  0.7508  0.9941  -1.0289   0.0000   0.0000   0.0000   0.3566
   2.600   0.6120   0.00783   0.00313  -0.0663  0.7404  0.9968  -1.0615   0.0000   0.0000   0.0000   0.3553
   2.700   0.6277   0.00783   0.00309  -0.0673  0.7284  0.9994  -1.0945   0.0000   0.0000   0.0000   0.3541
   2.800   0.6373   0.00784   0.00304  -0.0670  0.7178  1.0000  -1.1200   0.0000   0.0000   0.0000   0.3519
   2.900   0.6442   0.00786   0.00304  -0.0662  0.7080  1.0000  -1.1420   0.0000   0.0000   0.0000   0.3496
   3.000   0.6510   0.00788   0.00304  -0.0654  0.6964  1.0000  -1.1640   0.0000   0.0000   0.0000   0.3472
   3.100   0.6580   0.00793   0.00301  -0.0646  0.6844  1.0000  -1.1865   0.0000   0.0000   0.0000   0.3448
   3.200   0.6649   0.00797   0.00302  -0.0638  0.6725  1.0000  -1.2089   0.0000   0.0000   0.0000   0.3425
   3.300   0.6717   0.00803   0.00303  -0.0630  0.6579  1.0000  -1.2344   0.0000   0.0000   0.0000   0.3401
   3.400   0.6784   0.00812   0.00302  -0.0621  0.6432  1.0000  -1.2614   0.0000   0.0000   0.0000   0.3378
   3.500   0.6854   0.00819   0.00305  -0.0613  0.6266  1.0000  -1.2889   0.0000   0.0000   0.0000   0.3356
   3.600   0.6917   0.00833   0.00306  -0.0603  0.6085  1.0000  -1.3155   0.0000   0.0000   0.0000   0.3333
   3.700   0.6988   0.00843   0.00310  -0.0595  0.5896  1.0000  -1.3435   0.0000   0.0000   0.0000   0.3312
   3.800   0.7050   0.00859   0.00314  -0.0585  0.5700  1.0000  -1.3702   0.0000   0.0000   0.0000   0.3289
   3.900   0.7122   0.00872   0.00319  -0.0577  0.5499  1.0000  -1.3986   0.0000   0.0000   0.0000   0.3269
   4.000   0.7187   0.00889   0.00325  -0.0568  0.5303  1.0000  -1.4260   0.0000   0.0000   0.0000   0.3248
   4.100   0.7260   0.00904   0.00331  -0.0561  0.5094  1.0000  -1.4547   0.0000   0.0000   0.0000   0.3229
   4.200   0.7329   0.00922   0.00339  -0.0553  0.4900  1.0000  -1.4830   0.0000   0.0000   0.0000   0.3210
   4.300   0.7402   0.00939   0.00347  -0.0546  0.4697  1.0000  -1.5121   0.0000   0.0000   0.0000   0.3192
   4.400   0.7476   0.00958   0.00356  -0.0539  0.4518  1.0000  -1.5413   0.0000   0.0000   0.0000   0.3175
   4.500   0.7552   0.00975   0.00365  -0.0533  0.4324  1.0000  -1.5710   0.0000   0.0000   0.0000   0.3158
   4.600   0.7627   0.00994   0.00375  -0.0526  0.4148  1.0000  -1.6007   0.0000   0.0000   0.0000   0.3142
   4.700   0.7704   0.01013   0.00385  -0.0520  0.3957  1.0000  -1.6310   0.0000   0.0000   0.0000   0.3127
   4.800   0.7781   0.01033   0.00396  -0.0514  0.3785  1.0000  -1.6611   0.0000   0.0000   0.0000   0.3111
   4.900   0.7859   0.01053   0.00421  -0.0509  0.3591  1.0000  -1.7075   0.0000   0.0000   0.0000   0.3097
   5.000   0.7936   0.01074   0.00433  -0.0503  0.3422  1.0000  -1.7552   0.0000   0.0000   0.0000   0.3082
   5.100   0.8016   0.01094   0.00445  -0.0498  0.3242  1.0000  -1.8032   0.0000   0.0000   0.0000   0.3069
   5.200   0.8094   0.01115   0.00458  -0.0493  0.3077  1.0000  -1.8509   0.0000   0.0000   0.0000   0.3055
   5.300   0.8176   0.01136   0.00471  -0.0488  0.2909  1.0000  -1.8995   0.0000   0.0000   0.0000   0.3042
   5.400   0.8255   0.01158   0.00485  -0.0483  0.2754  1.0000  -1.9478   0.0000   0.0000   0.0000   0.3030
   5.500   0.8339   0.01177   0.00498  -0.0479  0.2609  1.0000  -1.9978   0.0000   0.0000   0.0000   0.3018
   5.600   0.8416   0.01202   0.00513  -0.0474  0.2462  1.0000  -2.0460   0.0000   0.0000   0.0000   0.3005
   5.700   0.8507   0.01218   0.00526  -0.0470  0.2351  1.0000  -2.0980   0.0000   0.0000   0.0000   0.2995
   5.800   0.8588   0.01241   0.00541  -0.0466  0.2228  1.0000  -2.1480   0.0000   0.0000   0.0000   0.2983
   5.900   0.8673   0.01261   0.00557  -0.0462  0.2120  1.0000  -2.1990   0.0000   0.0000   0.0000   0.2972
   6.000   0.8762   0.01278   0.00571  -0.0459  0.2024  1.0000  -2.2516   0.0000   0.0000   0.0000   0.2962
   6.100   0.8843   0.01302   0.00588  -0.0454  0.1921  1.0000  -2.3022   0.0000   0.0000   0.0000   0.2951
   6.200   0.8928   0.01323   0.00605  -0.0450  0.1831  1.0000  -2.3540   0.0000   0.0000   0.0000   0.2941
   6.300   0.9019   0.01339   0.00621  -0.0447  0.1758  1.0000  -2.4080   0.0000   0.0000   0.0000   0.2931
   6.400   0.9103   0.01362   0.00638  -0.0443  0.1678  1.0000  -2.4601   0.0000   0.0000   0.0000   0.2921
   6.500   0.9177   0.01393   0.00661  -0.0438  0.1583  1.0000  -2.5089   0.0000   0.0000   0.0000   0.2910
   6.600   0.9272   0.01405   0.00676  -0.0435  0.1537  1.0000  -2.5650   0.0000   0.0000   0.0000   0.2902
   6.700   0.9362   0.01423   0.00694  -0.0432  0.1479  1.0000  -2.6198   0.0000   0.0000   0.0000   0.2893
   6.800   0.9445   0.01446   0.00712  -0.0428  0.1416  1.0000  -2.6729   0.0000   0.0000   0.0000   0.2883
   6.900   0.9517   0.01480   0.00738  -0.0422  0.1338  1.0000  -2.7216   0.0000   0.0000   0.0000   0.2873
   7.000   0.9607   0.01497   0.00757  -0.0419  0.1293  1.0000  -2.7770   0.0000   0.0000   0.0000   0.2864
   7.100   0.9701   0.01510   0.00772  -0.0417  0.1248  1.0000  -2.8349   0.0000   0.0000   0.0000   0.2856
   7.200   0.9788   0.01529   0.00789  -0.0414  0.1196  1.0000  -2.8911   0.0000   0.0000   0.0000   0.2848
   7.300   0.9867   0.01556   0.00809  -0.0409  0.1140  1.0000  -2.9448   0.0000   0.0000   0.0000   0.2839
   7.400   0.9932   0.01596   0.00845  -0.0402  0.1077  1.0000  -2.9910   0.0000   0.0000   0.0000   0.2828
   7.500   1.0031   0.01605   0.00867  -0.0401  0.1047  1.0000  -3.0513   0.0000   0.0000   0.0000   0.2821
   7.600   1.0122   0.01620   0.00885  -0.0398  0.1014  1.0000  -3.1099   0.0000   0.0000   0.0000   0.2814
   7.700   1.0208   0.01639   0.00904  -0.0395  0.0980  1.0000  -3.1668   0.0000   0.0000   0.0000   0.2806
   7.800   1.0290   0.01663   0.00926  -0.0391  0.0947  1.0000  -3.2225   0.0000   0.0000   0.0000   0.2798
   7.900   1.0365   0.01694   0.00953  -0.0385  0.0910  1.0000  -3.2746   0.0000   0.0000   0.0000   0.2789
   8.000   1.0419   0.01747   0.01005  -0.0377  0.0865  1.0000  -3.3156   0.0000   0.0000   0.0000   0.2778
   8.100   1.0511   0.01760   0.01021  -0.0374  0.0851  1.0000  -3.3751   0.0000   0.0000   0.0000   0.2771
   8.200   1.0603   0.01774   0.01039  -0.0372  0.0834  1.0000  -3.4346   0.0000   0.0000   0.0000   0.2764
   8.300   1.0691   0.01791   0.01060  -0.0368  0.0812  1.0000  -3.4961   0.0000   0.0000   0.0000   0.2757
   8.400   1.0777   0.01810   0.01081  -0.0365  0.0789  1.0000  -3.5694   0.0000   0.0000   0.0000   0.2749
   8.500   1.0860   0.01830   0.01103  -0.0361  0.0765  1.0000  -3.6425   0.0000   0.0000   0.0000   0.2742
   8.600   1.0937   0.01856   0.01127  -0.0357  0.0740  1.0000  -3.7136   0.0000   0.0000   0.0000   0.2734
   8.700   1.1004   0.01892   0.01160  -0.0351  0.0711  1.0000  -3.7788   0.0000   0.0000   0.0000   0.2726
   8.800   1.1044   0.01962   0.01231  -0.0340  0.0674  1.0000  -3.8252   0.0000   0.0000   0.0000   0.2714
   8.900   1.1129   0.01981   0.01254  -0.0337  0.0662  1.0000  -3.9048   0.0000   0.0000   0.0000   0.2707
   9.000   1.1217   0.01994   0.01272  -0.0333  0.0647  1.0000  -4.0077   0.0000   0.0000   0.0000   0.2700
   9.100   1.1301   0.02012   0.01293  -0.0330  0.0628  1.0000  -4.1088   0.0000   0.0000   0.0000   0.2694
   9.200   1.1382   0.02031   0.01315  -0.0326  0.0606  1.0000  -4.2091   0.0000   0.0000   0.0000   0.2687
   9.300   1.1460   0.02052   0.01337  -0.0322  0.0583  1.0000  -4.3099   0.0000   0.0000   0.0000   0.2680
   9.400   1.1531   0.02079   0.01362  -0.0316  0.0560  1.0000  -4.4070   0.0000   0.0000   0.0000   0.2672
   9.500   1.1579   0.02127   0.01407  -0.0308  0.0532  1.0000  -4.4875   0.0000   0.0000   0.0000   0.2662
   9.600   1.1596   0.02222   0.01505  -0.0295  0.0500  1.0000  -4.5373   0.0000   0.0000   0.0000   0.2649
   9.700   1.1679   0.02230   0.01517  -0.0291  0.0491  1.0000  -4.6446   0.0000   0.0000   0.0000   0.2643
   9.800   1.1756   0.02246   0.01537  -0.0286  0.0478  1.0000  -4.7472   0.0000   0.0000   0.0000   0.2636
   9.900   1.1826   0.02269   0.01565  -0.0280  0.0464  1.0000  -4.8455   0.0000   0.0000   0.0000   0.2628
  10.000   1.1892   0.02297   0.01596  -0.0274  0.0449  1.0000  -4.9409   0.0000   0.0000   0.0000   0.2620
  10.100   1.1954   0.02329   0.01631  -0.0267  0.0436  1.0000  -5.0342   0.0000   0.0000   0.0000   0.2612
  10.200   1.2013   0.02362   0.01666  -0.0261  0.0424  1.0000  -5.1274   0.0000   0.0000   0.0000   0.2604
  10.300   1.2078   0.02386   0.01698  -0.0255  0.0414  1.0000  -5.2419   0.0000   0.0000   0.0000   0.2596
  10.400   1.2135   0.02413   0.01725  -0.0248  0.0400  1.0000  -5.3451   0.0000   0.0000   0.0000   0.2588
  10.500   1.2177   0.02459   0.01770  -0.0240  0.0384  1.0000  -5.4333   0.0000   0.0000   0.0000   0.2579
  10.600   1.2192   0.02546   0.01860  -0.0228  0.0367  1.0000  -5.4917   0.0000   0.0000   0.0000   0.2568
  10.700   1.2223   0.02626   0.01945  -0.0219  0.0355  1.0000  -5.5613   0.0000   0.0000   0.0000   0.2559
  10.800   1.2307   0.02611   0.01932  -0.0216  0.0349  1.0000  -5.6941   0.0000   0.0000   0.0000   0.2554
  10.900   1.2390   0.02605   0.01929  -0.0214  0.0340  1.0000  -5.8249   0.0000   0.0000   0.0000   0.2549
  11.000   1.2470   0.02607   0.01934  -0.0211  0.0329  1.0000  -5.9528   0.0000   0.0000   0.0000   0.2544
  11.100   1.2547   0.02614   0.01942  -0.0208  0.0317  1.0000  -6.0792   0.0000   0.0000   0.0000   0.2539
  11.200   1.2622   0.02623   0.01953  -0.0204  0.0305  1.0000  -6.2055   0.0000   0.0000   0.0000   0.2533
  11.300   1.2695   0.02635   0.01965  -0.0201  0.0294  1.0000  -6.3321   0.0000   0.0000   0.0000   0.2528
  11.400   1.2761   0.02654   0.01984  -0.0197  0.0283  1.0000  -6.4530   0.0000   0.0000   0.0000   0.2523
  11.500   1.2815   0.02684   0.02013  -0.0192  0.0272  1.0000  -6.5636   0.0000   0.0000   0.0000   0.2516
  11.600   1.2856   0.02726   0.02056  -0.0185  0.0263  1.0000  -6.6610   0.0000   0.0000   0.0000   0.2509
  11.700   1.2882   0.02782   0.02115  -0.0176  0.0254  1.0000  -6.7434   0.0000   0.0000   0.0000   0.2500
  11.800   1.2895   0.02851   0.02188  -0.0166  0.0246  1.0000  -6.8128   0.0000   0.0000   0.0000   0.2491
  11.900   1.2899   0.02929   0.02273  -0.0155  0.0240  1.0000  -6.8725   0.0000   0.0000   0.0000   0.2481
  12.000   1.2924   0.02990   0.02338  -0.0147  0.0236  1.0000  -6.9520   0.0000   0.0000   0.0000   0.2472
  12.100   1.2972   0.03029   0.02381  -0.0142  0.0235  1.0000  -7.0554   0.0000   0.0000   0.0000   0.2466
  12.200   1.3019   0.03069   0.02427  -0.0136  0.0233  1.0000  -7.1578   0.0000   0.0000   0.0000   0.2460
  12.300   1.3064   0.03111   0.02475  -0.0130  0.0231  1.0000  -7.2596   0.0000   0.0000   0.0000   0.2453
  12.400   1.3107   0.03155   0.02525  -0.0125  0.0229  1.0000  -7.3597   0.0000   0.0000   0.0000   0.2447
  12.500   1.3147   0.03202   0.02577  -0.0119  0.0226  1.0000  -7.4581   0.0000   0.0000   0.0000   0.2441
  12.600   1.3185   0.03251   0.02632  -0.0114  0.0224  1.0000  -7.5552   0.0000   0.0000   0.0000   0.2435
  12.700   1.3222   0.03302   0.02688  -0.0108  0.0221  1.0000  -7.6514   0.0000   0.0000   0.0000   0.2428
  12.800   1.3256   0.03355   0.02746  -0.0102  0.0218  1.0000  -7.7468   0.0000   0.0000   0.0000   0.2422
  12.900   1.3287   0.03410   0.02807  -0.0097  0.0215  1.0000  -7.8395   0.0000   0.0000   0.0000   0.2416
  13.000   1.3316   0.03467   0.02870  -0.0091  0.0211  1.0000  -7.9306   0.0000   0.0000   0.0000   0.2410
  13.100   1.3343   0.03526   0.02934  -0.0086  0.0208  1.0000  -8.0214   0.0000   0.0000   0.0000   0.2404
  13.200   1.3370   0.03586   0.02999  -0.0081  0.0205  1.0000  -8.1123   0.0000   0.0000   0.0000   0.2398
  13.300   1.3395   0.03649   0.03067  -0.0076  0.0202  1.0000  -8.2014   0.0000   0.0000   0.0000   0.2393
  13.400   1.3417   0.03714   0.03138  -0.0071  0.0198  1.0000  -8.2891   0.0000   0.0000   0.0000   0.2387
  13.500   1.3438   0.03781   0.03210  -0.0066  0.0195  1.0000  -8.3770   0.0000   0.0000   0.0000   0.2382
  13.600   1.3460   0.03849   0.03283  -0.0062  0.0192  1.0000  -8.4654   0.0000   0.0000   0.0000   0.2377
  13.700   1.3458   0.03944   0.03391  -0.0057  0.0190  1.0000  -8.5130   0.0000   0.0000   0.0000   0.2371
  13.800   1.3468   0.04025   0.03477  -0.0053  0.0188  1.0000  -8.5872   0.0000   0.0000   0.0000   0.2366
  13.900   1.3481   0.04105   0.03563  -0.0049  0.0185  1.0000  -8.6656   0.0000   0.0000   0.0000   0.2361
  14.000   1.3493   0.04186   0.03649  -0.0046  0.0182  1.0000  -8.7454   0.0000   0.0000   0.0000   0.2357
  14.100   1.3501   0.04273   0.03741  -0.0043  0.0179  1.0000  -8.8217   0.0000   0.0000   0.0000   0.2353
  14.200   1.3505   0.04364   0.03837  -0.0041  0.0176  1.0000  -8.8946   0.0000   0.0000   0.0000   0.2349
  14.300   1.3507   0.04460   0.03938  -0.0039  0.0173  1.0000  -8.9656   0.0000   0.0000   0.0000   0.2346
  14.400   1.3504   0.04563   0.04045  -0.0037  0.0170  1.0000  -9.0324   0.0000   0.0000   0.0000   0.2342
  14.500   1.3493   0.04674   0.04161  -0.0036  0.0168  1.0000  -9.0906   0.0000   0.0000   0.0000   0.2339
  14.600   1.3477   0.04792   0.04284  -0.0035  0.0165  1.0000  -9.1443   0.0000   0.0000   0.0000   0.2337
  14.700   1.3455   0.04921   0.04418  -0.0035  0.0162  1.0000  -9.1993   0.0000   0.0000   0.0000   0.2334
  14.800   1.3424   0.05065   0.04568  -0.0035  0.0159  1.0000  -9.2450   0.0000   0.0000   0.0000   0.2333
  14.900   1.3387   0.05219   0.04729  -0.0036  0.0156  1.0000  -9.2829   0.0000   0.0000   0.0000   0.2331
  15.000   1.3340   0.05392   0.04908  -0.0038  0.0153  1.0000  -9.3064   0.0000   0.0000   0.0000   0.2331
  15.100   1.3287   0.05578   0.05101  -0.0041  0.0151  1.0000  -9.3202   0.0000   0.0000   0.0000   0.2331
  15.200   1.3227   0.05778   0.05308  -0.0045  0.0149  1.0000  -9.3230   0.0000   0.0000   0.0000   0.2332
  15.300   1.3161   0.05993   0.05531  -0.0050  0.0147  1.0000  -9.3158   0.0000   0.0000   0.0000   0.2334
  15.400   1.3091   0.06219   0.05766  -0.0057  0.0145  1.0000  -9.3007   0.0000   0.0000   0.0000   0.2337
  15.500   1.3015   0.06459   0.06015  -0.0064  0.0143  1.0000  -9.2772   0.0000   0.0000   0.0000   0.2341
  15.600   1.2958   0.06679   0.06241  -0.0072  0.0142  1.0000  -9.2759   0.0000   0.0000   0.0000   0.2345
  15.700   1.2935   0.06856   0.06424  -0.0080  0.0142  1.0000  -9.3219   0.0000   0.0000   0.0000   0.2349
  15.800   1.2914   0.07033   0.06608  -0.0088  0.0141  1.0000  -9.3690   0.0000   0.0000   0.0000   0.2353
  15.900   1.2886   0.07225   0.06806  -0.0097  0.0140  1.0000  -9.4061   0.0000   0.0000   0.0000   0.2358
  16.000   1.2851   0.07430   0.07018  -0.0107  0.0140  1.0000  -9.4328   0.0000   0.0000   0.0000   0.2364
  16.100   1.2819   0.07635   0.07229  -0.0117  0.0139  1.0000  -9.4606   0.0000   0.0000   0.0000   0.2370
  16.200   1.2772   0.07868   0.07470  -0.0130  0.0139  1.0000  -9.4668   0.0000   0.0000   0.0000   0.2378
  16.300   1.2727   0.08099   0.07708  -0.0142  0.0138  1.0000  -9.4747   0.0000   0.0000   0.0000   0.2385
  16.400   1.2669   0.08354   0.07970  -0.0155  0.0138  1.0000  -9.4616   0.0000   0.0000   0.0000   0.2394
  16.500   1.2607   0.08617   0.08240  -0.0169  0.0137  1.0000  -9.4418   0.0000   0.0000   0.0000   0.2404
  16.600   1.2541   0.08893   0.08523  -0.0184  0.0137  1.0000  -9.4124   0.0000   0.0000   0.0000   0.2415
  16.700   1.2466   0.09192   0.08830  -0.0201  0.0137  1.0000  -9.3674   0.0000   0.0000   0.0000   0.2427
  16.800   1.2390   0.09497   0.09141  -0.0218  0.0137  1.0000  -9.3189   0.0000   0.0000   0.0000   0.2439
  16.900   1.2301   0.09837   0.09489  -0.0237  0.0137  1.0000  -9.2444   0.0000   0.0000   0.0000   0.2454
  17.000   1.2214   0.10173   0.09832  -0.0256  0.0137  1.0000  -9.1717   0.0000   0.0000   0.0000   0.2470
  17.100   1.2109   0.10556   0.10222  -0.0278  0.0137  1.0000  -9.0648   0.0000   0.0000   0.0000   0.2488
  17.200   1.2009   0.10931   0.10604  -0.0299  0.0138  1.0000  -8.9611   0.0000   0.0000   0.0000   0.2506
  17.300   1.1885   0.11361   0.11042  -0.0324  0.0138  1.0000  -8.8139   0.0000   0.0000   0.0000   0.2528
  17.400   1.1762   0.11795   0.11482  -0.0349  0.0139  1.0000  -8.6615   0.0000   0.0000   0.0000   0.2551
  17.500   1.1609   0.12304   0.11999  -0.0379  0.0140  1.0000  -8.4486   0.0000   0.0000   0.0000   0.2580
  17.600   1.1398   0.12952   0.12657  -0.0417  0.0141  1.0000  -8.1230   0.0000   0.0000   0.0000   0.2619
  17.900   0.8996   0.21686   0.21405  -0.0787  0.0356  1.0000  -2.6656   0.0000   0.0000   0.0000   0.3179
  18.000   0.9008   0.21900   0.21620  -0.0798  0.0356  1.0000  -2.6325   0.0000   0.0000   0.0000   0.3189
  18.100   0.9019   0.22118   0.21838  -0.0810  0.0355  1.0000  -2.5842   0.0000   0.0000   0.0000   0.3200
  18.200   0.9026   0.22343   0.22063  -0.0823  0.0353  1.0000  -2.5043   0.0000   0.0000   0.0000   0.3214
  18.900   0.9297   0.22350   0.22079  -0.0887  0.0162  1.0000  -3.1714   0.0000   0.0000   0.0000   0.3237
  19.000   0.9348   0.22321   0.22052  -0.0890  0.0157  1.0000  -3.3196   0.0000   0.0000   0.0000   0.3231
  19.100   0.9391   0.22322   0.22053  -0.0893  0.0152  1.0000  -3.4501   0.0000   0.0000   0.0000   0.3227
  19.200   0.9350   0.22683   0.22412  -0.0908  0.0142  1.0000  -3.3139   0.0000   0.0000   0.0000   0.3246
  19.300   0.9363   0.22976   0.22704  -0.0921  0.0135  1.0000  -3.2176   0.0000   0.0000   0.0000   0.3259
  19.400   0.9348   0.23423   0.23149  -0.0937  0.0127  1.0000  -2.9999   0.0000   0.0000   0.0000   0.3279
  19.500   0.9344   0.23782   0.23508  -0.0951  0.0121  1.0000  -2.8641   0.0000   0.0000   0.0000   0.3293
  19.600   0.9346   0.24090   0.23815  -0.0962  0.0116  1.0000  -2.7849   0.0000   0.0000   0.0000   0.3305
  19.700   0.9351   0.24379   0.24103  -0.0974  0.0112  1.0000  -2.7205   0.0000   0.0000   0.0000   0.3316
  19.800   0.9361   0.24637   0.24361  -0.0984  0.0108  1.0000  -2.6780   0.0000   0.0000   0.0000   0.3325
  19.900   0.9375   0.24868   0.24591  -0.0993  0.0104  1.0000  -2.6548   0.0000   0.0000   0.0000   0.3332
  20.000   0.9392   0.25070   0.24794  -0.1002  0.0099  1.0000  -2.6518   0.0000   0.0000   0.0000   0.3338
  20.100   0.9414   0.25238   0.24961  -0.1010  0.0095  1.0000  -2.6735   0.0000   0.0000   0.0000   0.3342
  20.200   0.9442   0.25356   0.25081  -0.1017  0.0090  1.0000  -2.7308   0.0000   0.0000   0.0000   0.3343
  20.300   0.9477   0.25416   0.25141  -0.1022  0.0086  1.0000  -2.8320   0.0000   0.0000   0.0000   0.3342
  20.400   0.9515   0.25450   0.25176  -0.1027  0.0082  1.0000  -2.9552   0.0000   0.0000   0.0000   0.3340
  20.500   0.9548   0.25502   0.25229  -0.1033  0.0079  1.0000  -3.0683   0.0000   0.0000   0.0000   0.3340
  20.600   0.9577   0.25570   0.25299  -0.1039  0.0076  1.0000  -3.1716   0.0000   0.0000   0.0000   0.3340
  20.700   0.9566   0.25879   0.25607  -0.1051  0.0072  1.0000  -3.0945   0.0000   0.0000   0.0000   0.3352
  20.800   0.9560   0.26246   0.25971  -0.1063  0.0070  1.0000  -2.9726   0.0000   0.0000   0.0000   0.3365
  20.900   0.9574   0.26511   0.26235  -0.1072  0.0068  1.0000  -2.9227   0.0000   0.0000   0.0000   0.3372
  21.000   0.9584   0.26808   0.26532  -0.1082  0.0066  1.0000  -2.8457   0.0000   0.0000   0.0000   0.3380
  21.100   0.9592   0.27117   0.26840  -0.1091  0.0065  1.0000  -2.7595   0.0000   0.0000   0.0000   0.3389
  21.200   0.9600   0.27420   0.27142  -0.1101  0.0064  1.0000  -2.6786   0.0000   0.0000   0.0000   0.3397
  21.300   0.9609   0.27712   0.27434  -0.1110  0.0063  1.0000  -2.6073   0.0000   0.0000   0.0000   0.3404
  21.400   0.9618   0.27993   0.27715  -0.1119  0.0063  1.0000  -2.5458   0.0000   0.0000   0.0000   0.3411
  21.500   0.9629   0.28265   0.27986  -0.1127  0.0063  1.0000  -2.4995   0.0000   0.0000   0.0000   0.3418
  21.600   0.9640   0.28529   0.28250  -0.1135  0.0063  1.0000  -2.4599   0.0000   0.0000   0.0000   0.3424
  21.700   0.9651   0.28786   0.28507  -0.1144  0.0064  1.0000  -2.4252   0.0000   0.0000   0.0000   0.3429
  21.800   0.9663   0.29039   0.28760  -0.1151  0.0064  1.0000  -2.3947   0.0000   0.0000   0.0000   0.3434
  21.900   0.9674   0.29289   0.29010  -0.1159  0.0065  1.0000  -2.3674   0.0000   0.0000   0.0000   0.3439
  22.000   0.9683   0.29540   0.29261  -0.1166  0.0067  1.0000  -2.3416   0.0000   0.0000   0.0000   0.3444
  22.200   0.9666   0.30659   0.30380  -0.1172  0.0138  1.0000  -1.9211   0.0000   0.0000   0.0000   0.3453
  22.300   0.9679   0.30889   0.30610  -0.1180  0.0137  1.0000  -1.9023   0.0000   0.0000   0.0000   0.3460
  22.400   0.9691   0.31119   0.30840  -0.1190  0.0137  1.0000  -1.8820   0.0000   0.0000   0.0000   0.3466
  22.500   0.9704   0.31347   0.31068  -0.1199  0.0136  1.0000  -1.8591   0.0000   0.0000   0.0000   0.3473
  22.600   0.9717   0.31577   0.31298  -0.1210  0.0134  1.0000  -1.8293   0.0000   0.0000   0.0000   0.3481
  22.700   0.9734   0.31822   0.31543  -0.1223  0.0128  1.0000  -1.7825   0.0000   0.0000   0.0000   0.3491
  22.800   0.9750   0.32064   0.31785  -0.1232  0.0123  1.0000  -1.7576   0.0000   0.0000   0.0000   0.3497
  22.900   0.9763   0.32297   0.32018  -0.1239  0.0119  1.0000  -1.7443   0.0000   0.0000   0.0000   0.3502
  23.000   0.9776   0.32526   0.32248  -0.1247  0.0116  1.0000  -1.7346   0.0000   0.0000   0.0000   0.3506
  23.100   0.9788   0.32753   0.32475  -0.1254  0.0114  1.0000  -1.7269   0.0000   0.0000   0.0000   0.3510
  23.200   0.9800   0.32978   0.32700  -0.1261  0.0111  1.0000  -1.7206   0.0000   0.0000   0.0000   0.3514
  23.300   0.9811   0.33202   0.32925  -0.1268  0.0109  1.0000  -1.7154   0.0000   0.0000   0.0000   0.3518
  23.400   0.9821   0.33424   0.33148  -0.1274  0.0107  1.0000  -1.7109   0.0000   0.0000   0.0000   0.3522
  23.500   0.9831   0.33646   0.33370  -0.1281  0.0105  1.0000  -1.7072   0.0000   0.0000   0.0000   0.3526
  23.600   0.9840   0.33867   0.33591  -0.1288  0.0103  1.0000  -1.7041   0.0000   0.0000   0.0000   0.3529
  23.700   0.9849   0.34086   0.33810  -0.1294  0.0101  1.0000  -1.7016   0.0000   0.0000   0.0000   0.3533
  23.800   0.9856   0.34304   0.34029  -0.1300  0.0100  1.0000  -1.6996   0.0000   0.0000   0.0000   0.3536
  23.900   0.9863   0.34522   0.34247  -0.1306  0.0098  1.0000  -1.6981   0.0000   0.0000   0.0000   0.3540
  24.000   0.9869   0.34738   0.34464  -0.1312  0.0097  1.0000  -1.6970   0.0000   0.0000   0.0000   0.3544
  24.100   0.9875   0.34952   0.34679  -0.1318  0.0095  1.0000  -1.6963   0.0000   0.0000   0.0000   0.3547
  24.200   0.9879   0.35166   0.34893  -0.1324  0.0094  1.0000  -1.6960   0.0000   0.0000   0.0000   0.3550
  24.300   0.9882   0.35377   0.35105  -0.1329  0.0092  1.0000  -1.6960   0.0000   0.0000   0.0000   0.3554
  24.400   0.9883   0.35587   0.35316  -0.1334  0.0091  1.0000  -1.6964   0.0000   0.0000   0.0000   0.3557
  24.500   0.9883   0.35795   0.35524  -0.1339  0.0090  1.0000  -1.6970   0.0000   0.0000   0.0000   0.3561
  24.600   0.9882   0.36000   0.35730  -0.1344  0.0089  1.0000  -1.6977   0.0000   0.0000   0.0000   0.3564
  24.700   0.9878   0.36203   0.35933  -0.1349  0.0088  1.0000  -1.6986   0.0000   0.0000   0.0000   0.3567
  24.800   0.9872   0.36402   0.36133  -0.1353  0.0087  1.0000  -1.6995   0.0000   0.0000   0.0000   0.3571
  24.900   0.9863   0.36597   0.36329  -0.1356  0.0086  1.0000  -1.7003   0.0000   0.0000   0.0000   0.3574
  25.000   0.9850   0.36786   0.36519  -0.1360  0.0085  1.0000  -1.7006   0.0000   0.0000   0.0000   0.3578
  25.100   0.9832   0.36968   0.36702  -0.1362  0.0084  1.0000  -1.7001   0.0000   0.0000   0.0000   0.3581
  25.200   0.9806   0.37139   0.36875  -0.1363  0.0083  1.0000  -1.6980   0.0000   0.0000   0.0000   0.3585
  25.300   0.9767   0.37291   0.37028  -0.1363  0.0082  1.0000  -1.6926   0.0000   0.0000   0.0000   0.3589
  25.500   0.8562   0.34578   0.34337  -0.1207  0.0085  1.0000  -1.3426   0.0000   0.0000   0.0000   0.3631
  25.600   0.8526   0.34555   0.34316  -0.1206  0.0084  1.0000  -1.3364   0.0000   0.0000   0.0000   0.3635
  25.700   0.8493   0.34538   0.34300  -0.1206  0.0083  1.0000  -1.3317   0.0000   0.0000   0.0000   0.3639
  25.800   0.8463   0.34526   0.34289  -0.1205  0.0082  1.0000  -1.3284   0.0000   0.0000   0.0000   0.3643
  25.900   0.8435   0.34517   0.34281  -0.1205  0.0081  1.0000  -1.3265   0.0000   0.0000   0.0000   0.3647
  26.000   0.8410   0.34510   0.34276  -0.1206  0.0081  1.0000  -1.3259   0.0000   0.0000   0.0000   0.3651
  26.100   0.8386   0.34506   0.34273  -0.1206  0.0080  1.0000  -1.3266   0.0000   0.0000   0.0000   0.3654
  26.200   0.8363   0.34503   0.34271  -0.1206  0.0079  1.0000  -1.3286   0.0000   0.0000   0.0000   0.3658
  26.300   0.8342   0.34500   0.34270  -0.1207  0.0078  1.0000  -1.3318   0.0000   0.0000   0.0000   0.3661
  26.400   0.8322   0.34498   0.34269  -0.1207  0.0078  1.0000  -1.3361   0.0000   0.0000   0.0000   0.3664
  26.500   0.8302   0.34496   0.34268  -0.1208  0.0077  1.0000  -1.3416   0.0000   0.0000   0.0000   0.3666
  26.600   0.8283   0.34494   0.34266  -0.1208  0.0076  1.0000  -1.3481   0.0000   0.0000   0.0000   0.3669
  26.700   0.8265   0.34493   0.34270  -0.1208  0.0076  1.0000  -1.3537   0.0000   0.0000   0.0000   0.3671
  26.800   0.8246   0.34490   0.34269  -0.1208  0.0075  1.0000  -1.3612   0.0000   0.0000   0.0000   0.3672
  26.900   0.8225   0.34489   0.34268  -0.1206  0.0074  1.0000  -1.3682   0.0000   0.0000   0.0000   0.3673
  27.000   0.8152   0.34540   0.34318  -0.1197  0.0071  1.0000  -1.2847   0.0000   0.0000   0.0000   0.3677
  27.100   0.8138   0.34573   0.34352  -0.1199  0.0071  1.0000  -1.2731   0.0000   0.0000   0.0000   0.3681
  27.200   0.8125   0.34608   0.34388  -0.1202  0.0071  1.0000  -1.2618   0.0000   0.0000   0.0000   0.3686
  27.300   0.8113   0.34643   0.34424  -0.1205  0.0071  1.0000  -1.2507   0.0000   0.0000   0.0000   0.3690
  27.400   0.8101   0.34679   0.34461  -0.1207  0.0071  1.0000  -1.2399   0.0000   0.0000   0.0000   0.3695
  27.500   0.8090   0.34716   0.34499  -0.1210  0.0071  1.0000  -1.2293   0.0000   0.0000   0.0000   0.3699
  27.600   0.8079   0.34754   0.34538  -0.1213  0.0071  1.0000  -1.2189   0.0000   0.0000   0.0000   0.3703
  27.700   0.8069   0.34794   0.34578  -0.1216  0.0071  1.0000  -1.2087   0.0000   0.0000   0.0000   0.3708
  27.800   0.8059   0.34833   0.34618  -0.1219  0.0071  1.0000  -1.1987   0.0000   0.0000   0.0000   0.3712
  27.900   0.8049   0.34873   0.34659  -0.1222  0.0071  1.0000  -1.1889   0.0000   0.0000   0.0000   0.3716
  28.000   0.8040   0.34914   0.34700  -0.1225  0.0071  1.0000  -1.1792   0.0000   0.0000   0.0000   0.3721
  28.100   0.8032   0.34955   0.34742  -0.1229  0.0071  1.0000  -1.1698   0.0000   0.0000   0.0000   0.3725
  28.200   0.8023   0.34996   0.34785  -0.1232  0.0071  1.0000  -1.1605   0.0000   0.0000   0.0000   0.3729
  28.300   0.8015   0.35039   0.34828  -0.1235  0.0071  1.0000  -1.1514   0.0000   0.0000   0.0000   0.3734
  28.400   0.8008   0.35081   0.34871  -0.1239  0.0071  1.0000  -1.1421   0.0000   0.0000   0.0000   0.3738
  28.500   0.8000   0.35125   0.34915  -0.1242  0.0071  1.0000  -1.1329   0.0000   0.0000   0.0000   0.3742
  28.600   0.7993   0.35168   0.34960  -0.1245  0.0071  1.0000  -1.1238   0.0000   0.0000   0.0000   0.3747
  28.700   0.7986   0.35213   0.35005  -0.1249  0.0071  1.0000  -1.1148   0.0000   0.0000   0.0000   0.3751
  28.800   0.7979   0.35258   0.35050  -0.1253  0.0070  1.0000  -1.1060   0.0000   0.0000   0.0000   0.3755
  28.900   0.7973   0.35303   0.35096  -0.1256  0.0070  1.0000  -1.0974   0.0000   0.0000   0.0000   0.3759
  29.000   0.7967   0.35349   0.35143  -0.1260  0.0070  1.0000  -1.0889   0.0000   0.0000   0.0000   0.3764
  29.100   0.7961   0.35395   0.35190  -0.1264  0.0070  1.0000  -1.0805   0.0000   0.0000   0.0000   0.3768
  29.200   0.7956   0.35442   0.35238  -0.1268  0.0070  1.0000  -1.0720   0.0000   0.0000   0.0000   0.3772
  29.300   0.7950   0.35490   0.35286  -0.1272  0.0070  1.0000  -1.0623   0.0000   0.0000   0.0000   0.3777
  29.400   0.7945   0.35539   0.35336  -0.1276  0.0070  1.0000  -1.0527   0.0000   0.0000   0.0000   0.3781
  29.500   0.7939   0.35588   0.35386  -0.1280  0.0070  1.0000  -1.0433   0.0000   0.0000   0.0000   0.3786
  29.600   0.7934   0.35638   0.35437  -0.1284  0.0070  1.0000  -1.0341   0.0000   0.0000   0.0000   0.3790
  29.700   0.7930   0.35689   0.35488  -0.1288  0.0070  1.0000  -1.0250   0.0000   0.0000   0.0000   0.3795
  29.800   0.7926   0.35741   0.35540  -0.1292  0.0070  1.0000  -1.0160   0.0000   0.0000   0.0000   0.3799
  29.900   0.7922   0.35793   0.35593  -0.1296  0.0069  1.0000  -1.0071   0.0000   0.0000   0.0000   0.3804
  30.000   0.7918   0.35847   0.35648  -0.1301  0.0069  1.0000  -0.9983   0.0000   0.0000   0.0000   0.3808


