xflr5 v6.61

 Calculated polar for: SG6041

 1 1 Reynolds number fixed          Mach number fixed         

 xtrf =   1.000 (top)        1.000 (bottom)
 Mach =   0.000     Re =     0.625 e 6     Ncrit =   9.000

  alpha     CL        CD       CDp       Cm    Top Xtr Bot Xtr   Cpmin    Chinge    XCp    
 ------- -------- --------- --------- -------- ------- ------- -------- --------- ---------
 -10.000  -0.4250   0.10077   0.09853  -0.0326  1.0000  0.0128  -2.0760   0.0000   0.0000   0.0000   0.1648
  -9.900  -0.4243   0.09940   0.09717  -0.0330  1.0000  0.0129  -2.0756   0.0000   0.0000   0.0000   0.1638
  -9.800  -0.4237   0.09803   0.09580  -0.0335  1.0000  0.0129  -2.0763   0.0000   0.0000   0.0000   0.1628
  -9.700  -0.4233   0.09665   0.09443  -0.0339  1.0000  0.0130  -2.0783   0.0000   0.0000   0.0000   0.1619
  -9.600  -0.4230   0.09526   0.09306  -0.0343  1.0000  0.0131  -2.0816   0.0000   0.0000   0.0000   0.1609
  -9.500  -0.4229   0.09387   0.09168  -0.0347  1.0000  0.0132  -2.0863   0.0000   0.0000   0.0000   0.1600
  -9.400  -0.4230   0.09248   0.09029  -0.0351  1.0000  0.0133  -2.0923   0.0000   0.0000   0.0000   0.1592
  -9.300  -0.4233   0.09108   0.08890  -0.0356  1.0000  0.0133  -2.0996   0.0000   0.0000   0.0000   0.1584
  -9.200  -0.4238   0.08968   0.08751  -0.0360  1.0000  0.0134  -2.1084   0.0000   0.0000   0.0000   0.1576
  -9.100  -0.4245   0.08827   0.08611  -0.0364  1.0000  0.0135  -2.1185   0.0000   0.0000   0.0000   0.1569
  -9.000  -0.4254   0.08684   0.08469  -0.0368  1.0000  0.0136  -2.1299   0.0000   0.0000   0.0000   0.1562
  -8.900  -0.4265   0.08540   0.08327  -0.0372  1.0000  0.0136  -2.1429   0.0000   0.0000   0.0000   0.1556
  -8.800  -0.4281   0.08396   0.08184  -0.0376  1.0000  0.0137  -2.1576   0.0000   0.0000   0.0000   0.1551
  -8.700  -0.4300   0.08253   0.08042  -0.0380  1.0000  0.0138  -2.1741   0.0000   0.0000   0.0000   0.1548
  -8.600  -0.4325   0.08111   0.07902  -0.0383  1.0000  0.0138  -2.1928   0.0000   0.0000   0.0000   0.1547
  -8.500  -0.4357   0.07970   0.07763  -0.0386  1.0000  0.0139  -2.2138   0.0000   0.0000   0.0000   0.1549
  -8.400  -0.4398   0.07834   0.07629  -0.0387  1.0000  0.0139  -2.2375   0.0000   0.0000   0.0000   0.1557
  -8.300  -0.4453   0.07706   0.07503  -0.0386  1.0000  0.0139  -2.2646   0.0000   0.0000   0.0000   0.1572
  -8.200  -0.4528   0.07593   0.07392  -0.0381  1.0000  0.0139  -2.2958   0.0000   0.0000   0.0000   0.1598
  -8.100  -0.4633   0.07506   0.07309  -0.0370  1.0000  0.0139  -2.3322   0.0000   0.0000   0.0000   0.1643
  -8.000  -0.4775   0.07454   0.07260  -0.0352  1.0000  0.0138  -2.3750   0.0000   0.0000   0.0000   0.1708
  -7.900  -0.4763   0.07099   0.06903  -0.0416  0.9977  0.0138  -2.4422   0.0000   0.0000   0.0000   0.1573
  -7.800  -0.4695   0.06758   0.06558  -0.0468  0.9955  0.0139  -2.4818   0.0000   0.0000   0.0000   0.1451
  -7.700  -0.4632   0.06456   0.06252  -0.0509  0.9938  0.0141  -2.5142   0.0000   0.0000   0.0000   0.1349
  -7.600  -0.4564   0.06172   0.05962  -0.0545  0.9925  0.0142  -2.5418   0.0000   0.0000   0.0000   0.1253
  -7.500  -0.4512   0.05921   0.05706  -0.0572  0.9902  0.0144  -2.5652   0.0000   0.0000   0.0000   0.1181
  -7.400  -0.4451   0.05676   0.05456  -0.0596  0.9882  0.0145  -2.5849   0.0000   0.0000   0.0000   0.1109
  -7.300  -0.4381   0.05435   0.05208  -0.0619  0.9865  0.0147  -2.6015   0.0000   0.0000   0.0000   0.1034
  -7.200  -0.4305   0.05201   0.04966  -0.0641  0.9852  0.0149  -2.6153   0.0000   0.0000   0.0000   0.0958
  -7.100  -0.4222   0.04971   0.04728  -0.0661  0.9842  0.0152  -2.6271   0.0000   0.0000   0.0000   0.0881
  -7.000  -0.4133   0.04746   0.04495  -0.0680  0.9834  0.0155  -2.6374   0.0000   0.0000   0.0000   0.0802
  -6.900  -0.4078   0.04562   0.04302  -0.0686  0.9807  0.0157  -2.6477   0.0000   0.0000   0.0000   0.0764
  -6.800  -0.4008   0.04371   0.04103  -0.0695  0.9784  0.0160  -2.6565   0.0000   0.0000   0.0000   0.0712
  -6.700  -0.3923   0.04175   0.03897  -0.0705  0.9768  0.0164  -2.6648   0.0000   0.0000   0.0000   0.0648
  -6.600  -0.3829   0.03982   0.03692  -0.0715  0.9755  0.0168  -2.6722   0.0000   0.0000   0.0000   0.0577
  -6.500  -0.3727   0.03791   0.03490  -0.0725  0.9744  0.0172  -2.6796   0.0000   0.0000   0.0000   0.0498
  -6.400  -0.3618   0.03613   0.03300  -0.0734  0.9735  0.0177  -2.6813   0.0000   0.0000   0.0000   0.0413
  -6.300  -0.3502   0.03452   0.03126  -0.0742  0.9728  0.0183  -2.6760   0.0000   0.0000   0.0000   0.0322
  -6.200  -0.3382   0.03315   0.02978  -0.0749  0.9721  0.0188  -2.6598   0.0000   0.0000   0.0000   0.0224
  -6.100  -0.3254   0.03216   0.02870  -0.0755  0.9715  0.0194  -2.6255   0.0000   0.0000   0.0000   0.0119
  -6.000  -0.3095   0.03259   0.02906  -0.0758  0.9711  0.0204  -2.5187   0.0000   0.0000   0.0000  -0.0013
  -5.500  -0.2794   0.01859   0.01361  -0.0730  0.9586  0.0119  -3.2090   0.0000   0.0000   0.0000  -0.0184
  -5.300  -0.2556   0.01669   0.01152  -0.0731  0.9567  0.0099  -3.1878   0.0000   0.0000   0.0000  -0.0434
  -5.200  -0.2446   0.01546   0.01013  -0.0731  0.9557  0.0095  -3.1965   0.0000   0.0000   0.0000  -0.0561
  -5.100  -0.2381   0.01470   0.00927  -0.0720  0.9528  0.0093  -3.1849   0.0000   0.0000   0.0000  -0.0599
  -5.000  -0.2295   0.01397   0.00845  -0.0714  0.9505  0.0091  -3.1599   0.0000   0.0000   0.0000  -0.0687
  -4.900  -0.2199   0.01332   0.00771  -0.0710  0.9485  0.0089  -3.1240   0.0000   0.0000   0.0000  -0.0806
  -4.800  -0.2098   0.01273   0.00705  -0.0707  0.9467  0.0088  -3.0783   0.0000   0.0000   0.0000  -0.0947
  -4.700  -0.1995   0.01221   0.00646  -0.0704  0.9450  0.0087  -3.0241   0.0000   0.0000   0.0000  -0.1111
  -4.600  -0.1890   0.01175   0.00593  -0.0702  0.9434  0.0086  -2.9623   0.0000   0.0000   0.0000  -0.1300
  -4.500  -0.1783   0.01135   0.00547  -0.0701  0.9419  0.0086  -2.8937   0.0000   0.0000   0.0000  -0.1515
  -4.400  -0.1675   0.01099   0.00506  -0.0699  0.9404  0.0086  -2.8183   0.0000   0.0000   0.0000  -0.1762
  -4.300  -0.1564   0.01068   0.00469  -0.0698  0.9390  0.0086  -2.7364   0.0000   0.0000   0.0000  -0.2056
  -4.200  -0.1457   0.01042   0.00438  -0.0697  0.9373  0.0087  -2.6569   0.0000   0.0000   0.0000  -0.2377
  -4.100  -0.1370   0.01022   0.00414  -0.0691  0.9349  0.0089  -2.5889   0.0000   0.0000   0.0000  -0.2642
  -4.000  -0.1275   0.01003   0.00391  -0.0687  0.9325  0.0092  -2.5168   0.0000   0.0000   0.0000  -0.2991
  -3.900  -0.1174   0.00985   0.00369  -0.0684  0.9303  0.0096  -2.4412   0.0000   0.0000   0.0000  -0.3434
  -3.800  -0.1068   0.00970   0.00351  -0.0682  0.9282  0.0101  -2.3587   0.0000   0.0000   0.0000  -0.3997
  -3.700  -0.0959   0.00960   0.00339  -0.0681  0.9263  0.0106  -2.2615   0.0000   0.0000   0.0000  -0.4721
  -3.600  -0.0853   0.00941   0.00316  -0.0679  0.9244  0.0129  -2.1939   0.0000   0.0000   0.0000  -0.5598
  -3.500  -0.0747   0.00920   0.00299  -0.0677  0.9226  0.0198  -2.1233   0.0000   0.0000   0.0000  -0.6707
  -3.400  -0.0640   0.00902   0.00289  -0.0677  0.9209  0.0329  -2.0261   0.0000   0.0000   0.0000  -0.8238
  -3.300  -0.0528   0.00889   0.00281  -0.0677  0.9191  0.0428  -1.9221   0.0000   0.0000   0.0000  -1.0514
  -3.100  -0.0315   0.00874   0.00270  -0.0675  0.9152  0.0553  -1.7183   0.0000   0.0000   0.0000  -1.9236
  -3.000  -0.0216   0.00865   0.00265  -0.0672  0.9129  0.0620  -1.6471   0.0000   0.0000   0.0000  -2.9098
  -2.900  -0.0112   0.00859   0.00259  -0.0671  0.9106  0.0672  -1.5795   0.0000   0.0000   0.0000  -5.8109
  -2.800  -0.0005   0.00853   0.00248  -0.0669  0.9082  0.0691  -1.5227   0.0000   0.0000   0.0000  -125.8747
  -2.700   0.0098   0.00841   0.00242  -0.0667  0.9057  0.0820  -1.4550   0.0000   0.0000   0.0000   7.1479
  -2.600   0.0205   0.00833   0.00236  -0.0666  0.9034  0.0918  -1.3872   0.0000   0.0000   0.0000   3.5412
  -2.500   0.0309   0.00820   0.00229  -0.0665  0.9011  0.1079  -1.3213   0.0000   0.0000   0.0000   2.4215
  -2.400   0.0417   0.00807   0.00223  -0.0664  0.8989  0.1267  -1.2556   0.0000   0.0000   0.0000   1.8587
  -2.300   0.0525   0.00795   0.00217  -0.0664  0.8966  0.1494  -1.1908   0.0000   0.0000   0.0000   1.5250
  -2.200   0.0631   0.00776   0.00212  -0.0664  0.8941  0.1895  -1.1282   0.0000   0.0000   0.0000   1.3116
  -2.100   0.0713   0.00744   0.00206  -0.0660  0.8919  0.2610  -1.0735   0.0000   0.0000   0.0000   1.1832
  -2.000   0.0785   0.00696   0.00199  -0.0655  0.8892  0.3722  -1.0227   0.0000   0.0000   0.0000   1.0912
  -1.900   0.0843   0.00638   0.00193  -0.0647  0.8862  0.5159  -0.9759   0.0000   0.0000   0.0000   1.0234
  -1.800   0.0910   0.00602   0.00196  -0.0638  0.8832  0.6258  -0.9264   0.0000   0.0000   0.0000   0.9566
  -1.700   0.0999   0.00589   0.00199  -0.0633  0.8804  0.6785  -0.8711   0.0000   0.0000   0.0000   0.8873
  -1.600   0.1098   0.00582   0.00199  -0.0629  0.8778  0.7039  -0.8142   0.0000   0.0000   0.0000   0.8260
  -1.500   0.1206   0.00580   0.00198  -0.0627  0.8752  0.7184  -0.7559   0.0000   0.0000   0.0000   0.7725
  -1.400   0.1320   0.00580   0.00195  -0.0626  0.8725  0.7259  -0.6973   0.0000   0.0000   0.0000   0.7268
  -1.300   0.1429   0.00578   0.00196  -0.0625  0.8696  0.7368  -0.6407   0.0000   0.0000   0.0000   0.6891
  -1.200   0.1532   0.00576   0.00196  -0.0622  0.8671  0.7471  -0.5866   0.0000   0.0000   0.0000   0.6575
  -1.100   0.1635   0.00575   0.00196  -0.0620  0.8645  0.7552  -0.5333   0.0000   0.0000   0.0000   0.6300
  -1.000   0.1742   0.00575   0.00194  -0.0618  0.8616  0.7604  -0.4800   0.0000   0.0000   0.0000   0.6055
  -0.900   0.1846   0.00571   0.00193  -0.0616  0.8586  0.7671  -0.4284   0.0000   0.0000   0.0000   0.5840
  -0.800   0.1950   0.00569   0.00192  -0.0613  0.8554  0.7741  -0.4103   0.0000   0.0000   0.0000   0.5646
  -0.700   0.2056   0.00567   0.00191  -0.0611  0.8521  0.7810  -0.4196   0.0000   0.0000   0.0000   0.5471
  -0.600   0.2166   0.00566   0.00189  -0.0609  0.8488  0.7869  -0.4292   0.0000   0.0000   0.0000   0.5312
  -0.500   0.2278   0.00567   0.00187  -0.0608  0.8455  0.7919  -0.4402   0.0000   0.0000   0.0000   0.5168
  -0.400   0.2389   0.00568   0.00186  -0.0607  0.8419  0.7986  -0.4520   0.0000   0.0000   0.0000   0.5038
  -0.300   0.2487   0.00565   0.00187  -0.0603  0.8391  0.8079  -0.4632   0.0000   0.0000   0.0000   0.4920
  -0.200   0.2586   0.00564   0.00189  -0.0599  0.8360  0.8172  -0.4743   0.0000   0.0000   0.0000   0.4811
  -0.100   0.2688   0.00565   0.00189  -0.0596  0.8324  0.8246  -0.4858   0.0000   0.0000   0.0000   0.4710
   0.000   0.2791   0.00562   0.00188  -0.0593  0.8285  0.8311  -0.4973   0.0000   0.0000   0.0000   0.4617
   0.100   0.2892   0.00560   0.00188  -0.0590  0.8245  0.8376  -0.5099   0.0000   0.0000   0.0000   0.4529
   0.200   0.2996   0.00559   0.00186  -0.0587  0.8203  0.8435  -0.5230   0.0000   0.0000   0.0000   0.4448
   0.300   0.3103   0.00560   0.00185  -0.0585  0.8158  0.8488  -0.5363   0.0000   0.0000   0.0000   0.4372
   0.400   0.3210   0.00562   0.00184  -0.0583  0.8112  0.8535  -0.5511   0.0000   0.0000   0.0000   0.4303
   0.600   0.3417   0.00558   0.00183  -0.0578  0.8027  0.8622  -0.5811   0.0000   0.0000   0.0000   0.4177
   0.700   0.3521   0.00556   0.00182  -0.0576  0.7980  0.8662  -0.5962   0.0000   0.0000   0.0000   0.4119
   0.800   0.3626   0.00555   0.00181  -0.0574  0.7932  0.8700  -0.6117   0.0000   0.0000   0.0000   0.4065
   0.900   0.3732   0.00555   0.00179  -0.0572  0.7881  0.8737  -0.6293   0.0000   0.0000   0.0000   0.4014
   1.000   0.3838   0.00557   0.00177  -0.0570  0.7825  0.8774  -0.6470   0.0000   0.0000   0.0000   0.3966
   1.100   0.3944   0.00557   0.00177  -0.0568  0.7775  0.8810  -0.6647   0.0000   0.0000   0.0000   0.3921
   1.200   0.4049   0.00557   0.00177  -0.0567  0.7713  0.8843  -0.6825   0.0000   0.0000   0.0000   0.3879
   1.300   0.4154   0.00556   0.00176  -0.0564  0.7641  0.8879  -0.7003   0.0000   0.0000   0.0000   0.3838
   1.400   0.4255   0.00556   0.00174  -0.0561  0.7565  0.8916  -0.7180   0.0000   0.0000   0.0000   0.3797
   1.500   0.4356   0.00558   0.00172  -0.0558  0.7486  0.8953  -0.7357   0.0000   0.0000   0.0000   0.3759
   1.600   0.4460   0.00558   0.00173  -0.0556  0.7416  0.8993  -0.7536   0.0000   0.0000   0.0000   0.3723
   1.700   0.4561   0.00560   0.00173  -0.0553  0.7327  0.9034  -0.7715   0.0000   0.0000   0.0000   0.3689
   1.800   0.4661   0.00563   0.00172  -0.0550  0.7232  0.9077  -0.7893   0.0000   0.0000   0.0000   0.3656
   1.900   0.4759   0.00567   0.00172  -0.0547  0.7138  0.9120  -0.8088   0.0000   0.0000   0.0000   0.3623
   2.000   0.4859   0.00568   0.00173  -0.0544  0.7042  0.9166  -0.8329   0.0000   0.0000   0.0000   0.3593
   2.100   0.4956   0.00571   0.00174  -0.0540  0.6924  0.9217  -0.8571   0.0000   0.0000   0.0000   0.3562
   2.200   0.5047   0.00578   0.00177  -0.0535  0.6807  0.9272  -0.8810   0.0000   0.0000   0.0000   0.3532
   2.300   0.5149   0.00580   0.00178  -0.0532  0.6715  0.9327  -0.9061   0.0000   0.0000   0.0000   0.3505
   2.400   0.5252   0.00584   0.00180  -0.0530  0.6598  0.9375  -0.9315   0.0000   0.0000   0.0000   0.3480
   2.500   0.5351   0.00592   0.00182  -0.0527  0.6470  0.9429  -0.9566   0.0000   0.0000   0.0000   0.3454
   2.600   0.5460   0.00596   0.00184  -0.0526  0.6363  0.9485  -0.9829   0.0000   0.0000   0.0000   0.3433
   2.700   0.5568   0.00603   0.00187  -0.0525  0.6227  0.9541  -1.0094   0.0000   0.0000   0.0000   0.3412
   2.800   0.5686   0.00614   0.00190  -0.0527  0.6078  0.9588  -1.0372   0.0000   0.0000   0.0000   0.3394
   2.900   0.5813   0.00620   0.00193  -0.0530  0.5930  0.9638  -1.0662   0.0000   0.0000   0.0000   0.3379
   3.100   0.6061   0.00647   0.00201  -0.0537  0.5506  0.9737  -1.1243   0.0000   0.0000   0.0000   0.3351
   3.200   0.6188   0.00664   0.00207  -0.0542  0.5265  0.9788  -1.1540   0.0000   0.0000   0.0000   0.3339
   3.300   0.6315   0.00682   0.00213  -0.0546  0.5014  0.9836  -1.1837   0.0000   0.0000   0.0000   0.3328
   3.400   0.6456   0.00695   0.00218  -0.0554  0.4803  0.9871  -1.2192   0.0000   0.0000   0.0000   0.3321
   3.500   0.6589   0.00714   0.00226  -0.0560  0.4584  0.9914  -1.2561   0.0000   0.0000   0.0000   0.3312
   3.600   0.6734   0.00726   0.00231  -0.0569  0.4403  0.9941  -1.2953   0.0000   0.0000   0.0000   0.3306
   3.700   0.6874   0.00744   0.00239  -0.0577  0.4197  0.9973  -1.3337   0.0000   0.0000   0.0000   0.3299
   3.800   0.7005   0.00757   0.00245  -0.0583  0.4022  1.0000  -1.3712   0.0000   0.0000   0.0000   0.3291
   4.000   0.7146   0.00783   0.00257  -0.0568  0.3723  1.0000  -1.4275   0.0000   0.0000   0.0000   0.3253
   4.100   0.7217   0.00800   0.00264  -0.0561  0.3548  1.0000  -1.4561   0.0000   0.0000   0.0000   0.3235
   4.200   0.7299   0.00813   0.00271  -0.0556  0.3401  1.0000  -1.4865   0.0000   0.0000   0.0000   0.3218
   4.300   0.7378   0.00829   0.00279  -0.0551  0.3230  1.0000  -1.5165   0.0000   0.0000   0.0000   0.3201
   4.400   0.7462   0.00844   0.00287  -0.0546  0.3078  1.0000  -1.5474   0.0000   0.0000   0.0000   0.3186
   4.500   0.7546   0.00860   0.00294  -0.0542  0.2926  1.0000  -1.5788   0.0000   0.0000   0.0000   0.3171
   4.600   0.7630   0.00876   0.00304  -0.0537  0.2775  1.0000  -1.6101   0.0000   0.0000   0.0000   0.3156
   4.700   0.7722   0.00888   0.00311  -0.0534  0.2664  1.0000  -1.6429   0.0000   0.0000   0.0000   0.3143
   4.800   0.7807   0.00906   0.00329  -0.0530  0.2524  1.0000  -1.6762   0.0000   0.0000   0.0000   0.3129
   4.900   0.7900   0.00918   0.00338  -0.0527  0.2421  1.0000  -1.7269   0.0000   0.0000   0.0000   0.3116
   5.000   0.7992   0.00931   0.00347  -0.0524  0.2321  1.0000  -1.7783   0.0000   0.0000   0.0000   0.3104
   5.100   0.8079   0.00948   0.00356  -0.0520  0.2201  1.0000  -1.8284   0.0000   0.0000   0.0000   0.3091
   5.200   0.8174   0.00960   0.00366  -0.0518  0.2113  1.0000  -1.8807   0.0000   0.0000   0.0000   0.3080
   5.300   0.8268   0.00973   0.00375  -0.0515  0.2028  1.0000  -1.9331   0.0000   0.0000   0.0000   0.3068
   5.400   0.8357   0.00990   0.00385  -0.0511  0.1927  1.0000  -1.9845   0.0000   0.0000   0.0000   0.3057
   5.500   0.8450   0.01003   0.00395  -0.0509  0.1839  1.0000  -2.0375   0.0000   0.0000   0.0000   0.3046
   5.600   0.8547   0.01014   0.00405  -0.0507  0.1775  1.0000  -2.0917   0.0000   0.0000   0.0000   0.3035
   5.700   0.8638   0.01029   0.00415  -0.0504  0.1698  1.0000  -2.1450   0.0000   0.0000   0.0000   0.3025
   5.800   0.8728   0.01047   0.00426  -0.0500  0.1605  1.0000  -2.1981   0.0000   0.0000   0.0000   0.3014
   5.900   0.8825   0.01057   0.00436  -0.0498  0.1551  1.0000  -2.2536   0.0000   0.0000   0.0000   0.3004
   6.000   0.8922   0.01069   0.00447  -0.0496  0.1497  1.0000  -2.3094   0.0000   0.0000   0.0000   0.2995
   6.100   0.9013   0.01085   0.00458  -0.0493  0.1433  1.0000  -2.3643   0.0000   0.0000   0.0000   0.2985
   6.200   0.9103   0.01103   0.00471  -0.0490  0.1353  1.0000  -2.4187   0.0000   0.0000   0.0000   0.2975
   6.300   0.9199   0.01115   0.00482  -0.0488  0.1300  1.0000  -2.4754   0.0000   0.0000   0.0000   0.2966
   6.400   0.9295   0.01127   0.00493  -0.0486  0.1251  1.0000  -2.5330   0.0000   0.0000   0.0000   0.2957
   6.500   0.9385   0.01144   0.00505  -0.0483  0.1186  1.0000  -2.5892   0.0000   0.0000   0.0000   0.2947
   6.600   0.9472   0.01164   0.00519  -0.0479  0.1103  1.0000  -2.6445   0.0000   0.0000   0.0000   0.2938
   6.700   0.9568   0.01176   0.00530  -0.0477  0.1064  1.0000  -2.7032   0.0000   0.0000   0.0000   0.2930
   6.800   0.9665   0.01187   0.00542  -0.0475  0.1034  1.0000  -2.7626   0.0000   0.0000   0.0000   0.2921
   6.900   0.9759   0.01201   0.00554  -0.0473  0.0997  1.0000  -2.8213   0.0000   0.0000   0.0000   0.2913
   7.000   0.9849   0.01218   0.00568  -0.0470  0.0954  1.0000  -2.8792   0.0000   0.0000   0.0000   0.2904
   7.100   0.9937   0.01238   0.00583  -0.0466  0.0900  1.0000  -2.9360   0.0000   0.0000   0.0000   0.2896
   7.200   1.0028   0.01255   0.00600  -0.0463  0.0859  1.0000  -2.9935   0.0000   0.0000   0.0000   0.2887
   7.300   1.0126   0.01265   0.00618  -0.0461  0.0842  1.0000  -3.0546   0.0000   0.0000   0.0000   0.2880
   7.400   1.0221   0.01277   0.00631  -0.0459  0.0819  1.0000  -3.1157   0.0000   0.0000   0.0000   0.2872
   7.500   1.0314   0.01291   0.00645  -0.0457  0.0792  1.0000  -3.1765   0.0000   0.0000   0.0000   0.2864
   7.600   1.0404   0.01308   0.00660  -0.0454  0.0762  1.0000  -3.2369   0.0000   0.0000   0.0000   0.2857
   7.700   1.0491   0.01328   0.00676  -0.0450  0.0727  1.0000  -3.2960   0.0000   0.0000   0.0000   0.2848
   7.800   1.0573   0.01352   0.00699  -0.0446  0.0684  1.0000  -3.3520   0.0000   0.0000   0.0000   0.2840
   7.900   1.0666   0.01367   0.00714  -0.0443  0.0666  1.0000  -3.4135   0.0000   0.0000   0.0000   0.2832
   8.000   1.0764   0.01376   0.00725  -0.0442  0.0656  1.0000  -3.4787   0.0000   0.0000   0.0000   0.2826
   8.100   1.0859   0.01386   0.00738  -0.0440  0.0641  1.0000  -3.5587   0.0000   0.0000   0.0000   0.2819
   8.200   1.0952   0.01399   0.00752  -0.0437  0.0623  1.0000  -3.6382   0.0000   0.0000   0.0000   0.2812
   8.300   1.1043   0.01415   0.00766  -0.0435  0.0602  1.0000  -3.7174   0.0000   0.0000   0.0000   0.2805
   8.400   1.1130   0.01433   0.00782  -0.0432  0.0577  1.0000  -3.7960   0.0000   0.0000   0.0000   0.2798
   8.500   1.1213   0.01455   0.00801  -0.0428  0.0545  1.0000  -3.8725   0.0000   0.0000   0.0000   0.2791
   8.600   1.1289   0.01484   0.00829  -0.0422  0.0506  1.0000  -3.9435   0.0000   0.0000   0.0000   0.2782
   8.700   1.1386   0.01492   0.00838  -0.0421  0.0495  1.0000  -4.0301   0.0000   0.0000   0.0000   0.2776
   8.800   1.1484   0.01499   0.00847  -0.0420  0.0482  1.0000  -4.1179   0.0000   0.0000   0.0000   0.2771
   8.900   1.1577   0.01511   0.00858  -0.0418  0.0462  1.0000  -4.2108   0.0000   0.0000   0.0000   0.2764
   9.000   1.1664   0.01528   0.00872  -0.0415  0.0435  1.0000  -4.3195   0.0000   0.0000   0.0000   0.2758
   9.100   1.1745   0.01550   0.00890  -0.0411  0.0402  1.0000  -4.4252   0.0000   0.0000   0.0000   0.2751
   9.200   1.1822   0.01577   0.00914  -0.0406  0.0363  1.0000  -4.5271   0.0000   0.0000   0.0000   0.2743
   9.300   1.1911   0.01591   0.00929  -0.0404  0.0349  1.0000  -4.6398   0.0000   0.0000   0.0000   0.2737
   9.400   1.1999   0.01606   0.00944  -0.0401  0.0335  1.0000  -4.7531   0.0000   0.0000   0.0000   0.2731
   9.500   1.2082   0.01624   0.00962  -0.0397  0.0315  1.0000  -4.8644   0.0000   0.0000   0.0000   0.2724
   9.600   1.2163   0.01645   0.00981  -0.0394  0.0294  1.0000  -4.9746   0.0000   0.0000   0.0000   0.2718
   9.700   1.2241   0.01669   0.01002  -0.0389  0.0275  1.0000  -5.0838   0.0000   0.0000   0.0000   0.2711
   9.800   1.2318   0.01693   0.01025  -0.0385  0.0255  1.0000  -5.1918   0.0000   0.0000   0.0000   0.2703
   9.900   1.2397   0.01714   0.01051  -0.0381  0.0235  1.0000  -5.3146   0.0000   0.0000   0.0000   0.2697
  10.000   1.2480   0.01732   0.01071  -0.0377  0.0230  1.0000  -5.4335   0.0000   0.0000   0.0000   0.2690
  10.100   1.2561   0.01750   0.01091  -0.0373  0.0224  1.0000  -5.5509   0.0000   0.0000   0.0000   0.2684
  10.200   1.2640   0.01770   0.01112  -0.0369  0.0218  1.0000  -5.6677   0.0000   0.0000   0.0000   0.2677
  10.300   1.2718   0.01790   0.01134  -0.0364  0.0211  1.0000  -5.7842   0.0000   0.0000   0.0000   0.2670
  10.400   1.2794   0.01812   0.01156  -0.0360  0.0205  1.0000  -5.9003   0.0000   0.0000   0.0000   0.2664
  10.500   1.2866   0.01833   0.01179  -0.0355  0.0198  1.0000  -6.0150   0.0000   0.0000   0.0000   0.2656
  10.600   1.2936   0.01855   0.01202  -0.0349  0.0192  1.0000  -6.1291   0.0000   0.0000   0.0000   0.2649
  10.700   1.3004   0.01878   0.01225  -0.0343  0.0186  1.0000  -6.2428   0.0000   0.0000   0.0000   0.2642
  10.800   1.3071   0.01902   0.01250  -0.0337  0.0180  1.0000  -6.3564   0.0000   0.0000   0.0000   0.2634
  10.900   1.3137   0.01926   0.01275  -0.0331  0.0174  1.0000  -6.4699   0.0000   0.0000   0.0000   0.2626
  11.000   1.3202   0.01951   0.01301  -0.0324  0.0167  1.0000  -6.5829   0.0000   0.0000   0.0000   0.2619
  11.100   1.3265   0.01977   0.01329  -0.0318  0.0161  1.0000  -6.6950   0.0000   0.0000   0.0000   0.2611
  11.200   1.3326   0.02004   0.01359  -0.0311  0.0156  1.0000  -6.8059   0.0000   0.0000   0.0000   0.2603
  11.300   1.3385   0.02033   0.01391  -0.0304  0.0151  1.0000  -6.9159   0.0000   0.0000   0.0000   0.2595
  11.400   1.3441   0.02063   0.01424  -0.0296  0.0146  1.0000  -7.0245   0.0000   0.0000   0.0000   0.2587
  11.500   1.3494   0.02095   0.01461  -0.0288  0.0142  1.0000  -7.1308   0.0000   0.0000   0.0000   0.2579
  11.600   1.3561   0.02115   0.01483  -0.0283  0.0142  1.0000  -7.2538   0.0000   0.0000   0.0000   0.2573
  11.700   1.3628   0.02137   0.01507  -0.0278  0.0141  1.0000  -7.3773   0.0000   0.0000   0.0000   0.2566
  11.800   1.3693   0.02159   0.01531  -0.0272  0.0140  1.0000  -7.5011   0.0000   0.0000   0.0000   0.2559
  11.900   1.3757   0.02181   0.01557  -0.0266  0.0139  1.0000  -7.6247   0.0000   0.0000   0.0000   0.2553
  12.000   1.3820   0.02205   0.01583  -0.0261  0.0138  1.0000  -7.7483   0.0000   0.0000   0.0000   0.2546
  12.100   1.3882   0.02229   0.01610  -0.0255  0.0137  1.0000  -7.8721   0.0000   0.0000   0.0000   0.2539
  12.200   1.3943   0.02254   0.01638  -0.0249  0.0135  1.0000  -7.9958   0.0000   0.0000   0.0000   0.2533
  12.300   1.4002   0.02280   0.01667  -0.0243  0.0133  1.0000  -8.1195   0.0000   0.0000   0.0000   0.2526
  12.400   1.4060   0.02307   0.01697  -0.0237  0.0131  1.0000  -8.2426   0.0000   0.0000   0.0000   0.2519
  12.500   1.4116   0.02334   0.01728  -0.0231  0.0129  1.0000  -8.3658   0.0000   0.0000   0.0000   0.2513
  12.600   1.4172   0.02363   0.01760  -0.0225  0.0126  1.0000  -8.4893   0.0000   0.0000   0.0000   0.2506
  12.700   1.4226   0.02393   0.01792  -0.0219  0.0124  1.0000  -8.6129   0.0000   0.0000   0.0000   0.2499
  12.800   1.4272   0.02429   0.01837  -0.0212  0.0123  1.0000  -8.7125   0.0000   0.0000   0.0000   0.2492
  12.900   1.4322   0.02462   0.01873  -0.0206  0.0121  1.0000  -8.8298   0.0000   0.0000   0.0000   0.2485
  13.000   1.4371   0.02496   0.01910  -0.0199  0.0118  1.0000  -8.9611   0.0000   0.0000   0.0000   0.2479
  13.100   1.4419   0.02531   0.01947  -0.0193  0.0114  1.0000  -9.1060   0.0000   0.0000   0.0000   0.2472
  13.200   1.4465   0.02567   0.01986  -0.0187  0.0110  1.0000  -9.2503   0.0000   0.0000   0.0000   0.2466
  13.300   1.4508   0.02605   0.02026  -0.0180  0.0105  1.0000  -9.3924   0.0000   0.0000   0.0000   0.2459
  13.400   1.4549   0.02646   0.02068  -0.0174  0.0099  1.0000  -9.5326   0.0000   0.0000   0.0000   0.2452
  13.500   1.4587   0.02689   0.02112  -0.0167  0.0093  1.0000  -9.6711   0.0000   0.0000   0.0000   0.2446
  13.600   1.4624   0.02734   0.02159  -0.0161  0.0088  1.0000  -9.8080   0.0000   0.0000   0.0000   0.2439
  13.700   1.4657   0.02783   0.02209  -0.0154  0.0082  1.0000  -9.9413   0.0000   0.0000   0.0000   0.2433
  13.800   1.4688   0.02833   0.02261  -0.0148  0.0076  1.0000  -10.0721   0.0000   0.0000   0.0000   0.2426
  13.900   1.4720   0.02883   0.02314  -0.0141  0.0071  1.0000  -10.2041   0.0000   0.0000   0.0000   0.2420
  14.000   1.4754   0.02932   0.02366  -0.0135  0.0068  1.0000  -10.3387   0.0000   0.0000   0.0000   0.2414
  14.100   1.4784   0.02985   0.02422  -0.0129  0.0065  1.0000  -10.4697   0.0000   0.0000   0.0000   0.2407
  14.200   1.4807   0.03043   0.02483  -0.0123  0.0060  1.0000  -10.5934   0.0000   0.0000   0.0000   0.2401
  14.300   1.4824   0.03105   0.02548  -0.0116  0.0055  1.0000  -10.7106   0.0000   0.0000   0.0000   0.2395
  14.400   1.4836   0.03173   0.02618  -0.0110  0.0049  1.0000  -10.8222   0.0000   0.0000   0.0000   0.2388
  14.500   1.4841   0.03248   0.02695  -0.0103  0.0042  1.0000  -10.9260   0.0000   0.0000   0.0000   0.2382
  14.600   1.4837   0.03333   0.02782  -0.0096  0.0037  1.0000  -11.0189   0.0000   0.0000   0.0000   0.2375
  14.700   1.4832   0.03420   0.02871  -0.0090  0.0031  1.0000  -11.1106   0.0000   0.0000   0.0000   0.2369
  14.800   1.4839   0.03499   0.02953  -0.0084  0.0026  1.0000  -11.2125   0.0000   0.0000   0.0000   0.2363
  14.900   1.4848   0.03577   0.03035  -0.0079  0.0024  1.0000  -11.3175   0.0000   0.0000   0.0000   0.2358
  15.000   1.4853   0.03660   0.03123  -0.0074  0.0023  1.0000  -11.4173   0.0000   0.0000   0.0000   0.2352
  15.100   1.4857   0.03745   0.03213  -0.0070  0.0022  1.0000  -11.5169   0.0000   0.0000   0.0000   0.2347
  15.200   1.4861   0.03833   0.03306  -0.0066  0.0021  1.0000  -11.6152   0.0000   0.0000   0.0000   0.2343
  15.300   1.4857   0.03930   0.03407  -0.0062  0.0021  1.0000  -11.7041   0.0000   0.0000   0.0000   0.2338
  15.400   1.4851   0.04030   0.03513  -0.0059  0.0020  1.0000  -11.7898   0.0000   0.0000   0.0000   0.2334
  15.500   1.4845   0.04133   0.03620  -0.0056  0.0019  1.0000  -11.8757   0.0000   0.0000   0.0000   0.2329
  15.600   1.4833   0.04243   0.03736  -0.0054  0.0018  1.0000  -11.9540   0.0000   0.0000   0.0000   0.2326
  15.700   1.4816   0.04361   0.03859  -0.0052  0.0018  1.0000  -12.0259   0.0000   0.0000   0.0000   0.2322
  15.800   1.4800   0.04479   0.03982  -0.0051  0.0017  1.0000  -12.0975   0.0000   0.0000   0.0000   0.2319
  15.900   1.4776   0.04605   0.04114  -0.0050  0.0017  1.0000  -12.1603   0.0000   0.0000   0.0000   0.2316
  16.000   1.4748   0.04741   0.04256  -0.0049  0.0017  1.0000  -12.2165   0.0000   0.0000   0.0000   0.2314
  16.100   1.4724   0.04878   0.04399  -0.0050  0.0016  1.0000  -12.2756   0.0000   0.0000   0.0000   0.2312
  16.200   1.4691   0.05030   0.04557  -0.0051  0.0016  1.0000  -12.3237   0.0000   0.0000   0.0000   0.2311
  16.300   1.4657   0.05188   0.04721  -0.0054  0.0015  1.0000  -12.3698   0.0000   0.0000   0.0000   0.2310
  16.400   1.4625   0.05349   0.04888  -0.0057  0.0015  1.0000  -12.4157   0.0000   0.0000   0.0000   0.2310
  16.500   1.4582   0.05530   0.05076  -0.0061  0.0015  1.0000  -12.4477   0.0000   0.0000   0.0000   0.2311
  16.600   1.4543   0.05709   0.05261  -0.0066  0.0015  1.0000  -12.4838   0.0000   0.0000   0.0000   0.2312
  16.700   1.4496   0.05908   0.05466  -0.0072  0.0015  1.0000  -12.5068   0.0000   0.0000   0.0000   0.2314
  16.800   1.4448   0.06111   0.05676  -0.0080  0.0014  1.0000  -12.5279   0.0000   0.0000   0.0000   0.2317
  16.900   1.4397   0.06326   0.05897  -0.0088  0.0014  1.0000  -12.5422   0.0000   0.0000   0.0000   0.2320
  17.000   1.4339   0.06556   0.06134  -0.0097  0.0014  1.0000  -12.5465   0.0000   0.0000   0.0000   0.2325
  17.100   1.4281   0.06791   0.06376  -0.0108  0.0014  1.0000  -12.5486   0.0000   0.0000   0.0000   0.2330
  17.200   1.4214   0.07049   0.06641  -0.0120  0.0014  1.0000  -12.5352   0.0000   0.0000   0.0000   0.2336
  17.300   1.4147   0.07308   0.06907  -0.0132  0.0014  1.0000  -12.5210   0.0000   0.0000   0.0000   0.2343
  17.400   1.4070   0.07593   0.07199  -0.0147  0.0014  1.0000  -12.4894   0.0000   0.0000   0.0000   0.2351
  17.500   1.3992   0.07884   0.07497  -0.0162  0.0014  1.0000  -12.4537   0.0000   0.0000   0.0000   0.2360
  17.600   1.3906   0.08192   0.07813  -0.0178  0.0014  1.0000  -12.4048   0.0000   0.0000   0.0000   0.2370
  17.700   1.3814   0.08519   0.08147  -0.0196  0.0014  1.0000  -12.3418   0.0000   0.0000   0.0000   0.2382
  17.800   1.3719   0.08843   0.08477  -0.0213  0.0014  1.0000  -12.2745   0.0000   0.0000   0.0000   0.2393
  17.900   1.3608   0.09205   0.08847  -0.0233  0.0014  1.0000  -12.1797   0.0000   0.0000   0.0000   0.2407
  18.000   1.3507   0.09552   0.09201  -0.0252  0.0014  1.0000  -12.0957   0.0000   0.0000   0.0000   0.2420
  18.100   1.3387   0.09948   0.09604  -0.0274  0.0014  1.0000  -11.9779   0.0000   0.0000   0.0000   0.2436
  18.200   1.3273   0.10335   0.09999  -0.0295  0.0015  1.0000  -11.8651   0.0000   0.0000   0.0000   0.2452
  18.300   1.3152   0.10743   0.10413  -0.0318  0.0015  1.0000  -11.7367   0.0000   0.0000   0.0000   0.2470
  18.400   1.3025   0.11171   0.10848  -0.0341  0.0015  1.0000  -11.5917   0.0000   0.0000   0.0000   0.2488
  18.500   1.2906   0.11579   0.11263  -0.0364  0.0016  1.0000  -11.4574   0.0000   0.0000   0.0000   0.2507
  18.600   1.2770   0.12033   0.11724  -0.0390  0.0016  1.0000  -11.2874   0.0000   0.0000   0.0000   0.2528
  18.700   1.2652   0.12445   0.12142  -0.0413  0.0016  1.0000  -11.1443   0.0000   0.0000   0.0000   0.2548
  18.800   1.2512   0.12914   0.12618  -0.0439  0.0017  1.0000  -10.9562   0.0000   0.0000   0.0000   0.2572
  18.900   1.2396   0.13330   0.13039  -0.0463  0.0017  1.0000  -10.8045   0.0000   0.0000   0.0000   0.2593
  19.000   1.2260   0.13800   0.13517  -0.0490  0.0018  1.0000  -10.6073   0.0000   0.0000   0.0000   0.2618
  19.100   1.2146   0.14222   0.13944  -0.0515  0.0018  1.0000  -10.4453   0.0000   0.0000   0.0000   0.2641
  19.200   1.2034   0.14642   0.14369  -0.0539  0.0019  1.0000  -10.2819   0.0000   0.0000   0.0000   0.2664
  19.300   1.1903   0.15115   0.14849  -0.0567  0.0019  1.0000  -10.0722   0.0000   0.0000   0.0000   0.2691
  19.400   1.1807   0.15511   0.15249  -0.0591  0.0020  1.0000  -9.9236   0.0000   0.0000   0.0000   0.2714
  19.500   1.1687   0.15972   0.15716  -0.0618  0.0021  1.0000  -9.7176   0.0000   0.0000   0.0000   0.2742
  19.600   1.1582   0.16399   0.16148  -0.0643  0.0021  1.0000  -9.5364   0.0000   0.0000   0.0000   0.2768
  19.700   1.1501   0.16757   0.16510  -0.0666  0.0022  1.0000  -9.3955   0.0000   0.0000   0.0000   0.2790
  19.800   1.1402   0.17156   0.16915  -0.0692  0.0022  1.0000  -9.2054   0.0000   0.0000   0.0000   0.2818
  19.900   1.1299   0.17578   0.17341  -0.0719  0.0023  1.0000  -8.9971   0.0000   0.0000   0.0000   0.2847
  20.000   1.1233   0.17919   0.17686  -0.0740  0.0023  1.0000  -8.8668   0.0000   0.0000   0.0000   0.2868
  20.100   1.1164   0.18277   0.18047  -0.0762  0.0024  1.0000  -8.7255   0.0000   0.0000   0.0000   0.2892
  20.500   1.0877   0.19868   0.19654  -0.0853  0.0027  1.0000  -8.0568   0.0000   0.0000   0.0000   0.2992
  20.600   1.0795   0.20330   0.20122  -0.0878  0.0030  1.0000  -7.8435   0.0000   0.0000   0.0000   0.3022
  20.700   1.0741   0.20717   0.20512  -0.0899  0.0030  1.0000  -7.6950   0.0000   0.0000   0.0000   0.3044
  20.800   1.0700   0.21069   0.20866  -0.0917  0.0030  1.0000  -7.5768   0.0000   0.0000   0.0000   0.3064
  20.900   1.0659   0.21426   0.21225  -0.0936  0.0029  1.0000  -7.4548   0.0000   0.0000   0.0000   0.3084
  21.000   1.0613   0.21815   0.21616  -0.0955  0.0029  1.0000  -7.3075   0.0000   0.0000   0.0000   0.3106
  21.100   1.0541   0.22310   0.22116  -0.0978  0.0030  1.0000  -7.0728   0.0000   0.0000   0.0000   0.3135
  21.200   1.0490   0.22741   0.22549  -0.0998  0.0030  1.0000  -6.8927   0.0000   0.0000   0.0000   0.3159
  21.300   1.0459   0.23108   0.22917  -0.1015  0.0027  1.0000  -6.7617   0.0000   0.0000   0.0000   0.3178
  21.400   1.0442   0.23418   0.23226  -0.1030  0.0025  1.0000  -6.6754   0.0000   0.0000   0.0000   0.3193
  21.500   1.0425   0.23729   0.23539  -0.1044  0.0024  1.0000  -6.5957   0.0000   0.0000   0.0000   0.3207
  21.600   1.0404   0.24070   0.23883  -0.1060  0.0024  1.0000  -6.4898   0.0000   0.0000   0.0000   0.3223
  21.700   1.0348   0.24580   0.24395  -0.1080  0.0023  1.0000  -6.2418   0.0000   0.0000   0.0000   0.3250
  21.800   0.9957   0.27073   0.26888  -0.1150  0.0021  1.0000  -4.2815   0.0000   0.0000   0.0000   0.3381
  21.900   0.9922   0.27643   0.27456  -0.1166  0.0020  1.0000  -3.9850   0.0000   0.0000   0.0000   0.3402
  22.000   0.9899   0.28149   0.27962  -0.1179  0.0020  1.0000  -3.7303   0.0000   0.0000   0.0000   0.3419
  22.100   0.9885   0.28603   0.28414  -0.1191  0.0020  1.0000  -3.5170   0.0000   0.0000   0.0000   0.3433
  22.200   0.9877   0.29018   0.28828  -0.1201  0.0020  1.0000  -3.3374   0.0000   0.0000   0.0000   0.3444
  22.300   0.9874   0.29397   0.29207  -0.1211  0.0020  1.0000  -3.1902   0.0000   0.0000   0.0000   0.3454
  22.400   0.9874   0.29753   0.29562  -0.1220  0.0021  1.0000  -3.0644   0.0000   0.0000   0.0000   0.3463
  22.500   0.9875   0.30098   0.29907  -0.1229  0.0022  1.0000  -2.9490   0.0000   0.0000   0.0000   0.3472
  22.600   0.9874   0.30452   0.30260  -0.1238  0.0023  1.0000  -2.8272   0.0000   0.0000   0.0000   0.3480
  25.000   0.9429   0.36349   0.36170  -0.1327  0.0053  1.0000  -1.5787   0.0000   0.0000   0.0000   0.3615
  25.100   0.9523   0.36716   0.36536  -0.1345  0.0051  1.0000  -1.5954   0.0000   0.0000   0.0000   0.3616
  25.200   0.9599   0.37044   0.36864  -0.1360  0.0049  1.0000  -1.6094   0.0000   0.0000   0.0000   0.3617
  25.300   0.9668   0.37353   0.37173  -0.1374  0.0047  1.0000  -1.6226   0.0000   0.0000   0.0000   0.3619
  25.400   0.9737   0.37655   0.37474  -0.1388  0.0046  1.0000  -1.6367   0.0000   0.0000   0.0000   0.3620
  25.500   0.8604   0.34725   0.34560  -0.1241  0.0049  1.0000  -1.3378   0.0000   0.0000   0.0000   0.3663
  25.600   0.8568   0.34712   0.34548  -0.1241  0.0048  1.0000  -1.3241   0.0000   0.0000   0.0000   0.3669
  25.700   0.8535   0.34707   0.34543  -0.1241  0.0047  1.0000  -1.3119   0.0000   0.0000   0.0000   0.3674
  25.800   0.8505   0.34706   0.34543  -0.1241  0.0046  1.0000  -1.3011   0.0000   0.0000   0.0000   0.3679
  25.900   0.8478   0.34709   0.34548  -0.1242  0.0045  1.0000  -1.2914   0.0000   0.0000   0.0000   0.3683
  26.000   0.8453   0.34716   0.34556  -0.1243  0.0044  1.0000  -1.2827   0.0000   0.0000   0.0000   0.3688
  26.100   0.8429   0.34726   0.34566  -0.1244  0.0043  1.0000  -1.2751   0.0000   0.0000   0.0000   0.3693
  26.200   0.8408   0.34739   0.34580  -0.1245  0.0042  1.0000  -1.2683   0.0000   0.0000   0.0000   0.3697
  26.300   0.8387   0.34754   0.34595  -0.1247  0.0041  1.0000  -1.2624   0.0000   0.0000   0.0000   0.3702
  26.400   0.8368   0.34771   0.34613  -0.1248  0.0040  1.0000  -1.2574   0.0000   0.0000   0.0000   0.3706
  26.500   0.8351   0.34790   0.34632  -0.1250  0.0039  1.0000  -1.2531   0.0000   0.0000   0.0000   0.3710
  26.600   0.8334   0.34810   0.34653  -0.1252  0.0038  1.0000  -1.2496   0.0000   0.0000   0.0000   0.3714
  26.700   0.8318   0.34831   0.34675  -0.1254  0.0038  1.0000  -1.2468   0.0000   0.0000   0.0000   0.3719
  26.800   0.8304   0.34854   0.34701  -0.1256  0.0037  1.0000  -1.2448   0.0000   0.0000   0.0000   0.3723
  26.900   0.8290   0.34877   0.34725  -0.1259  0.0036  1.0000  -1.2436   0.0000   0.0000   0.0000   0.3727
  27.000   0.8276   0.34902   0.34750  -0.1261  0.0036  1.0000  -1.2431   0.0000   0.0000   0.0000   0.3731
  27.100   0.8264   0.34927   0.34776  -0.1263  0.0035  1.0000  -1.2433   0.0000   0.0000   0.0000   0.3735
  27.200   0.8252   0.34952   0.34802  -0.1266  0.0034  1.0000  -1.2443   0.0000   0.0000   0.0000   0.3739
  27.300   0.8241   0.34978   0.34829  -0.1269  0.0034  1.0000  -1.2461   0.0000   0.0000   0.0000   0.3742
  27.400   0.8230   0.35005   0.34856  -0.1271  0.0033  1.0000  -1.2485   0.0000   0.0000   0.0000   0.3746
  27.500   0.8220   0.35031   0.34883  -0.1274  0.0033  1.0000  -1.2517   0.0000   0.0000   0.0000   0.3750
  27.600   0.8210   0.35058   0.34910  -0.1277  0.0032  1.0000  -1.2557   0.0000   0.0000   0.0000   0.3754
  27.700   0.8201   0.35085   0.34938  -0.1280  0.0032  1.0000  -1.2603   0.0000   0.0000   0.0000   0.3757
  27.800   0.8192   0.35112   0.34965  -0.1282  0.0031  1.0000  -1.2657   0.0000   0.0000   0.0000   0.3761
  27.900   0.8183   0.35138   0.34993  -0.1285  0.0031  1.0000  -1.2718   0.0000   0.0000   0.0000   0.3764
  28.000   0.8175   0.35165   0.35019  -0.1288  0.0030  1.0000  -1.2787   0.0000   0.0000   0.0000   0.3768
  28.100   0.8167   0.35190   0.35046  -0.1291  0.0030  1.0000  -1.2862   0.0000   0.0000   0.0000   0.3771
  28.200   0.8159   0.35216   0.35072  -0.1294  0.0030  1.0000  -1.2943   0.0000   0.0000   0.0000   0.3774
  28.300   0.8151   0.35240   0.35097  -0.1297  0.0029  1.0000  -1.3030   0.0000   0.0000   0.0000   0.3777
  28.400   0.8144   0.35264   0.35122  -0.1300  0.0029  1.0000  -1.3123   0.0000   0.0000   0.0000   0.3781
  28.500   0.8136   0.35287   0.35145  -0.1302  0.0029  1.0000  -1.3219   0.0000   0.0000   0.0000   0.3784
  28.600   0.8128   0.35308   0.35167  -0.1305  0.0028  1.0000  -1.3317   0.0000   0.0000   0.0000   0.3786
  28.700   0.8120   0.35328   0.35187  -0.1308  0.0028  1.0000  -1.3412   0.0000   0.0000   0.0000   0.3789
  28.800   0.8111   0.35345   0.35205  -0.1310  0.0027  1.0000  -1.3497   0.0000   0.0000   0.0000   0.3792
  28.900   0.8097   0.35365   0.35225  -0.1311  0.0027  1.0000  -1.3456   0.0000   0.0000   0.0000   0.3795


