xflr5 v6.61

 Calculated polar for: SG6041

 1 1 Reynolds number fixed          Mach number fixed         

 xtrf =   1.000 (top)        1.000 (bottom)
 Mach =   0.000     Re =     0.563 e 6     Ncrit =   9.000

  alpha     CL        CD       CDp       Cm    Top Xtr Bot Xtr   Cpmin    Chinge    XCp    
 ------- -------- --------- --------- -------- ------- ------- -------- --------- ---------
 -10.000  -0.4197   0.10267   0.10031  -0.0314  1.0000  0.0138  -1.8951   0.0000   0.0000   0.0000   0.1668
  -9.900  -0.4191   0.10126   0.09891  -0.0319  1.0000  0.0139  -1.9003   0.0000   0.0000   0.0000   0.1656
  -9.800  -0.4186   0.09985   0.09750  -0.0324  1.0000  0.0140  -1.9065   0.0000   0.0000   0.0000   0.1645
  -9.700  -0.4182   0.09842   0.09609  -0.0328  1.0000  0.0141  -1.9137   0.0000   0.0000   0.0000   0.1634
  -9.600  -0.4180   0.09700   0.09467  -0.0333  1.0000  0.0142  -1.9218   0.0000   0.0000   0.0000   0.1624
  -9.500  -0.4179   0.09557   0.09325  -0.0338  1.0000  0.0143  -1.9309   0.0000   0.0000   0.0000   0.1614
  -9.400  -0.4180   0.09414   0.09183  -0.0342  1.0000  0.0144  -1.9410   0.0000   0.0000   0.0000   0.1604
  -9.300  -0.4183   0.09270   0.09040  -0.0347  1.0000  0.0145  -1.9522   0.0000   0.0000   0.0000   0.1595
  -9.200  -0.4188   0.09127   0.08898  -0.0351  1.0000  0.0146  -1.9646   0.0000   0.0000   0.0000   0.1586
  -9.100  -0.4196   0.08983   0.08755  -0.0356  1.0000  0.0147  -1.9781   0.0000   0.0000   0.0000   0.1579
  -9.000  -0.4205   0.08838   0.08612  -0.0360  1.0000  0.0148  -1.9927   0.0000   0.0000   0.0000   0.1571
  -8.900  -0.4216   0.08692   0.08467  -0.0365  1.0000  0.0149  -2.0083   0.0000   0.0000   0.0000   0.1564
  -8.800  -0.4230   0.08546   0.08322  -0.0369  1.0000  0.0150  -2.0252   0.0000   0.0000   0.0000   0.1558
  -8.700  -0.4248   0.08400   0.08178  -0.0373  1.0000  0.0151  -2.0434   0.0000   0.0000   0.0000   0.1554
  -8.600  -0.4270   0.08256   0.08035  -0.0377  1.0000  0.0152  -2.0632   0.0000   0.0000   0.0000   0.1551
  -8.500  -0.4298   0.08113   0.07894  -0.0380  1.0000  0.0152  -2.0846   0.0000   0.0000   0.0000   0.1552
  -8.400  -0.4334   0.07974   0.07757  -0.0382  1.0000  0.0153  -2.1078   0.0000   0.0000   0.0000   0.1556
  -8.300  -0.4380   0.07841   0.07626  -0.0382  1.0000  0.0153  -2.1330   0.0000   0.0000   0.0000   0.1566
  -8.200  -0.4440   0.07720   0.07507  -0.0380  1.0000  0.0154  -2.1604   0.0000   0.0000   0.0000   0.1585
  -8.100  -0.4521   0.07617   0.07407  -0.0373  1.0000  0.0153  -2.1900   0.0000   0.0000   0.0000   0.1617
  -8.000  -0.4630   0.07543   0.07337  -0.0360  1.0000  0.0153  -2.2220   0.0000   0.0000   0.0000   0.1666
  -7.900  -0.4771   0.07501   0.07298  -0.0341  1.0000  0.0152  -2.2569   0.0000   0.0000   0.0000   0.1732
  -7.800  -0.4783   0.07205   0.07001  -0.0391  0.9981  0.0152  -2.3148   0.0000   0.0000   0.0000   0.1631
  -7.700  -0.4712   0.06851   0.06642  -0.0445  0.9958  0.0153  -2.3594   0.0000   0.0000   0.0000   0.1504
  -7.600  -0.4647   0.06539   0.06325  -0.0488  0.9939  0.0155  -2.3982   0.0000   0.0000   0.0000   0.1399
  -7.500  -0.4579   0.06242   0.06023  -0.0526  0.9925  0.0157  -2.4335   0.0000   0.0000   0.0000   0.1300
  -7.400  -0.4524   0.05979   0.05755  -0.0554  0.9904  0.0159  -2.4647   0.0000   0.0000   0.0000   0.1226
  -7.300  -0.4464   0.05725   0.05494  -0.0578  0.9882  0.0161  -2.4929   0.0000   0.0000   0.0000   0.1153
  -7.200  -0.4394   0.05475   0.05237  -0.0602  0.9865  0.0164  -2.5184   0.0000   0.0000   0.0000   0.1079
  -7.100  -0.4316   0.05230   0.04985  -0.0624  0.9852  0.0167  -2.5419   0.0000   0.0000   0.0000   0.1003
  -7.000  -0.4230   0.04991   0.04736  -0.0644  0.9841  0.0170  -2.5644   0.0000   0.0000   0.0000   0.0926
  -6.900  -0.4138   0.04757   0.04493  -0.0662  0.9833  0.0174  -2.5861   0.0000   0.0000   0.0000   0.0846
  -6.800  -0.4085   0.04575   0.04302  -0.0667  0.9803  0.0178  -2.6052   0.0000   0.0000   0.0000   0.0815
  -6.700  -0.4006   0.04382   0.04099  -0.0675  0.9781  0.0182  -2.6244   0.0000   0.0000   0.0000   0.0762
  -5.500  -0.2902   0.01913   0.01401  -0.0710  0.9601  0.0120  -3.2484   0.0000   0.0000   0.0000  -0.0016
  -5.400  -0.2760   0.01930   0.01418  -0.0715  0.9593  0.0115  -3.1226   0.0000   0.0000   0.0000  -0.0160
  -5.300  -0.2638   0.01831   0.01313  -0.0717  0.9585  0.0103  -3.1082   0.0000   0.0000   0.0000  -0.0287
  -5.200  -0.2529   0.01663   0.01123  -0.0716  0.9576  0.0099  -3.1549   0.0000   0.0000   0.0000  -0.0404
  -5.100  -0.2411   0.01553   0.00999  -0.0717  0.9568  0.0097  -3.1454   0.0000   0.0000   0.0000  -0.0548
  -5.000  -0.2292   0.01465   0.00900  -0.0718  0.9560  0.0094  -3.1162   0.0000   0.0000   0.0000  -0.0708
  -4.900  -0.2212   0.01403   0.00830  -0.0711  0.9538  0.0093  -3.0830   0.0000   0.0000   0.0000  -0.0791
  -4.800  -0.2132   0.01349   0.00769  -0.0703  0.9512  0.0092  -3.0428   0.0000   0.0000   0.0000  -0.0876
  -4.700  -0.2039   0.01297   0.00710  -0.0699  0.9491  0.0091  -2.9925   0.0000   0.0000   0.0000  -0.1007
  -4.600  -0.1938   0.01249   0.00656  -0.0696  0.9473  0.0091  -2.9341   0.0000   0.0000   0.0000  -0.1173
  -4.500  -0.1831   0.01206   0.00607  -0.0694  0.9456  0.0091  -2.8677   0.0000   0.0000   0.0000  -0.1376
  -4.400  -0.1721   0.01167   0.00562  -0.0694  0.9441  0.0091  -2.7943   0.0000   0.0000   0.0000  -0.1617
  -4.300  -0.1608   0.01131   0.00521  -0.0693  0.9427  0.0091  -2.7146   0.0000   0.0000   0.0000  -0.1901
  -4.200  -0.1493   0.01100   0.00485  -0.0693  0.9413  0.0093  -2.6396   0.0000   0.0000   0.0000  -0.2235
  -4.100  -0.1378   0.01073   0.00453  -0.0693  0.9400  0.0095  -2.5635   0.0000   0.0000   0.0000  -0.2630
  -4.000  -0.1261   0.01050   0.00426  -0.0694  0.9388  0.0098  -2.4847   0.0000   0.0000   0.0000  -0.3102
  -3.900  -0.1152   0.01033   0.00404  -0.0693  0.9372  0.0102  -2.4041   0.0000   0.0000   0.0000  -0.3621
  -3.800  -0.1064   0.01021   0.00391  -0.0687  0.9346  0.0106  -2.3229   0.0000   0.0000   0.0000  -0.4074
  -3.700  -0.0964   0.01014   0.00383  -0.0685  0.9323  0.0109  -2.2245   0.0000   0.0000   0.0000  -0.4723
  -3.600  -0.0870   0.00979   0.00342  -0.0679  0.9300  0.0158  -2.2058   0.0000   0.0000   0.0000  -0.5439
  -3.500  -0.0767   0.00958   0.00328  -0.0678  0.9279  0.0244  -2.1265   0.0000   0.0000   0.0000  -0.6477
  -3.400  -0.0660   0.00941   0.00318  -0.0677  0.9260  0.0376  -2.0299   0.0000   0.0000   0.0000  -0.7909
  -3.300  -0.0550   0.00928   0.00310  -0.0677  0.9242  0.0468  -1.9264   0.0000   0.0000   0.0000  -0.9984
  -3.200  -0.0437   0.00919   0.00301  -0.0677  0.9225  0.0530  -1.8215   0.0000   0.0000   0.0000  -1.3215
  -3.100  -0.0325   0.00907   0.00294  -0.0677  0.9209  0.0609  -1.7196   0.0000   0.0000   0.0000  -1.8612
  -3.000  -0.0208   0.00899   0.00287  -0.0677  0.9192  0.0669  -1.6459   0.0000   0.0000   0.0000  -3.0430
  -2.900  -0.0092   0.00890   0.00280  -0.0679  0.9174  0.0762  -1.5750   0.0000   0.0000   0.0000  -7.2199
  -2.800   0.0005   0.00883   0.00270  -0.0675  0.9152  0.0809  -1.5213   0.0000   0.0000   0.0000  131.3458
  -2.700   0.0103   0.00875   0.00265  -0.0673  0.9127  0.0907  -1.4555   0.0000   0.0000   0.0000   6.8719
  -2.600   0.0201   0.00862   0.00259  -0.0670  0.9101  0.1063  -1.3907   0.0000   0.0000   0.0000   3.6213
  -2.500   0.0303   0.00850   0.00254  -0.0668  0.9076  0.1238  -1.3257   0.0000   0.0000   0.0000   2.4793
  -2.400   0.0406   0.00836   0.00247  -0.0667  0.9051  0.1454  -1.2614   0.0000   0.0000   0.0000   1.9073
  -2.300   0.0505   0.00813   0.00240  -0.0665  0.9027  0.1862  -1.1996   0.0000   0.0000   0.0000   1.5798
  -2.200   0.0595   0.00777   0.00231  -0.0663  0.9004  0.2623  -1.1416   0.0000   0.0000   0.0000   1.3741
  -2.100   0.0674   0.00725   0.00221  -0.0659  0.8979  0.3820  -1.0879   0.0000   0.0000   0.0000   1.2369
  -2.000   0.0739   0.00665   0.00215  -0.0653  0.8953  0.5352  -1.0381   0.0000   0.0000   0.0000   1.1403
  -1.900   0.0807   0.00634   0.00222  -0.0644  0.8928  0.6373  -0.9874   0.0000   0.0000   0.0000   1.0542
  -1.800   0.0892   0.00624   0.00226  -0.0637  0.8903  0.6830  -0.9325   0.0000   0.0000   0.0000   0.9698
  -1.700   0.0984   0.00617   0.00228  -0.0632  0.8875  0.7073  -0.8763   0.0000   0.0000   0.0000   0.8963
  -1.600   0.1088   0.00616   0.00226  -0.0630  0.8847  0.7207  -0.8181   0.0000   0.0000   0.0000   0.8318
  -1.500   0.1195   0.00613   0.00224  -0.0628  0.8819  0.7290  -0.7602   0.0000   0.0000   0.0000   0.7779
  -1.400   0.1299   0.00609   0.00223  -0.0625  0.8792  0.7396  -0.7039   0.0000   0.0000   0.0000   0.7332
  -1.300   0.1405   0.00606   0.00221  -0.0622  0.8765  0.7500  -0.6478   0.0000   0.0000   0.0000   0.6946
  -1.200   0.1517   0.00606   0.00218  -0.0621  0.8739  0.7582  -0.5912   0.0000   0.0000   0.0000   0.6608
  -1.100   0.1630   0.00605   0.00217  -0.0620  0.8712  0.7653  -0.5356   0.0000   0.0000   0.0000   0.6317
  -1.000   0.1740   0.00604   0.00217  -0.0619  0.8683  0.7720  -0.4815   0.0000   0.0000   0.0000   0.6065
  -0.900   0.1839   0.00602   0.00217  -0.0615  0.8658  0.7789  -0.4308   0.0000   0.0000   0.0000   0.5852
  -0.800   0.1942   0.00601   0.00217  -0.0613  0.8628  0.7858  -0.4097   0.0000   0.0000   0.0000   0.5659
  -0.700   0.2047   0.00601   0.00215  -0.0610  0.8595  0.7914  -0.4189   0.0000   0.0000   0.0000   0.5484
  -0.600   0.2153   0.00600   0.00213  -0.0608  0.8561  0.7963  -0.4283   0.0000   0.0000   0.0000   0.5325
  -0.500   0.2256   0.00596   0.00212  -0.0605  0.8528  0.8034  -0.4387   0.0000   0.0000   0.0000   0.5181
  -0.400   0.2359   0.00594   0.00212  -0.0602  0.8495  0.8120  -0.4501   0.0000   0.0000   0.0000   0.5047
  -0.300   0.2464   0.00594   0.00210  -0.0599  0.8462  0.8214  -0.4617   0.0000   0.0000   0.0000   0.4924
  -0.200   0.2573   0.00596   0.00210  -0.0597  0.8427  0.8294  -0.4735   0.0000   0.0000   0.0000   0.4813
  -0.100   0.2672   0.00594   0.00211  -0.0592  0.8396  0.8371  -0.4847   0.0000   0.0000   0.0000   0.4710
   0.000   0.2769   0.00592   0.00212  -0.0588  0.8364  0.8438  -0.4959   0.0000   0.0000   0.0000   0.4616
   0.100   0.2869   0.00591   0.00212  -0.0585  0.8325  0.8498  -0.5082   0.0000   0.0000   0.0000   0.4528
   0.200   0.2971   0.00591   0.00211  -0.0582  0.8285  0.8549  -0.5212   0.0000   0.0000   0.0000   0.4447
   0.300   0.3076   0.00589   0.00208  -0.0579  0.8242  0.8598  -0.5344   0.0000   0.0000   0.0000   0.4371
   0.400   0.3180   0.00587   0.00205  -0.0576  0.8198  0.8647  -0.5488   0.0000   0.0000   0.0000   0.4299
   0.500   0.3286   0.00586   0.00203  -0.0574  0.8152  0.8691  -0.5640   0.0000   0.0000   0.0000   0.4232
   0.600   0.3392   0.00586   0.00202  -0.0572  0.8108  0.8732  -0.5792   0.0000   0.0000   0.0000   0.4170
   0.700   0.3494   0.00585   0.00202  -0.0569  0.8067  0.8771  -0.5941   0.0000   0.0000   0.0000   0.4113
   0.800   0.3598   0.00584   0.00201  -0.0567  0.8022  0.8808  -0.6093   0.0000   0.0000   0.0000   0.4059
   0.900   0.3704   0.00584   0.00200  -0.0565  0.7973  0.8842  -0.6267   0.0000   0.0000   0.0000   0.4009
   1.000   0.3810   0.00582   0.00198  -0.0564  0.7922  0.8878  -0.6444   0.0000   0.0000   0.0000   0.3961
   1.100   0.3915   0.00581   0.00195  -0.0561  0.7868  0.8915  -0.6621   0.0000   0.0000   0.0000   0.3914
   1.200   0.4020   0.00582   0.00193  -0.0559  0.7811  0.8952  -0.6798   0.0000   0.0000   0.0000   0.3870
   1.300   0.4122   0.00580   0.00194  -0.0556  0.7757  0.8991  -0.6974   0.0000   0.0000   0.0000   0.3828
   1.400   0.4224   0.00580   0.00193  -0.0553  0.7690  0.9031  -0.7150   0.0000   0.0000   0.0000   0.3789
   1.500   0.4327   0.00580   0.00192  -0.0551  0.7616  0.9070  -0.7329   0.0000   0.0000   0.0000   0.3751
   1.700   0.4532   0.00582   0.00188  -0.0546  0.7465  0.9148  -0.7687   0.0000   0.0000   0.0000   0.3680
   1.800   0.4633   0.00582   0.00189  -0.0543  0.7386  0.9192  -0.7866   0.0000   0.0000   0.0000   0.3646
   1.900   0.4733   0.00584   0.00189  -0.0539  0.7295  0.9242  -0.8061   0.0000   0.0000   0.0000   0.3614
   2.000   0.4830   0.00587   0.00188  -0.0535  0.7197  0.9295  -0.8292   0.0000   0.0000   0.0000   0.3582
   2.100   0.4930   0.00590   0.00188  -0.0532  0.7105  0.9345  -0.8538   0.0000   0.0000   0.0000   0.3552
   2.200   0.5037   0.00592   0.00192  -0.0531  0.6995  0.9391  -0.8796   0.0000   0.0000   0.0000   0.3526
   2.300   0.5142   0.00597   0.00192  -0.0529  0.6875  0.9441  -0.9052   0.0000   0.0000   0.0000   0.3499
   2.400   0.5248   0.00602   0.00193  -0.0527  0.6773  0.9495  -0.9309   0.0000   0.0000   0.0000   0.3475
   2.500   0.5363   0.00606   0.00195  -0.0527  0.6665  0.9544  -0.9578   0.0000   0.0000   0.0000   0.3453
   2.600   0.5487   0.00613   0.00196  -0.0530  0.6533  0.9584  -0.9861   0.0000   0.0000   0.0000   0.3435
   2.700   0.5611   0.00621   0.00199  -0.0533  0.6410  0.9629  -1.0145   0.0000   0.0000   0.0000   0.3418
   2.800   0.5734   0.00627   0.00201  -0.0535  0.6278  0.9679  -1.0429   0.0000   0.0000   0.0000   0.3401
   2.900   0.5863   0.00638   0.00204  -0.0540  0.6113  0.9719  -1.0723   0.0000   0.0000   0.0000   0.3387
   3.000   0.6002   0.00647   0.00207  -0.0546  0.5949  0.9757  -1.1032   0.0000   0.0000   0.0000   0.3376
   3.200   0.6262   0.00675   0.00216  -0.0556  0.5492  0.9844  -1.1631   0.0000   0.0000   0.0000   0.3352
   3.300   0.6398   0.00693   0.00221  -0.0562  0.5250  0.9880  -1.1942   0.0000   0.0000   0.0000   0.3343
   3.400   0.6529   0.00711   0.00228  -0.0568  0.5000  0.9920  -1.2295   0.0000   0.0000   0.0000   0.3333
   3.500   0.6675   0.00725   0.00233  -0.0577  0.4788  0.9945  -1.2686   0.0000   0.0000   0.0000   0.3326
   3.600   0.6813   0.00743   0.00240  -0.0585  0.4573  0.9978  -1.3068   0.0000   0.0000   0.0000   0.3319
   3.700   0.6937   0.00755   0.00246  -0.0589  0.4393  1.0000  -1.3429   0.0000   0.0000   0.0000   0.3309
   3.900   0.7070   0.00781   0.00257  -0.0573  0.4087  1.0000  -1.3976   0.0000   0.0000   0.0000   0.3269
   4.000   0.7140   0.00797   0.00264  -0.0566  0.3917  1.0000  -1.4257   0.0000   0.0000   0.0000   0.3250
   4.100   0.7219   0.00810   0.00271  -0.0560  0.3772  1.0000  -1.4554   0.0000   0.0000   0.0000   0.3233
   4.200   0.7297   0.00825   0.00278  -0.0554  0.3603  1.0000  -1.4852   0.0000   0.0000   0.0000   0.3216
   4.300   0.7376   0.00841   0.00286  -0.0549  0.3440  1.0000  -1.5153   0.0000   0.0000   0.0000   0.3199
   4.400   0.7459   0.00856   0.00294  -0.0544  0.3276  1.0000  -1.5461   0.0000   0.0000   0.0000   0.3184
   4.500   0.7540   0.00874   0.00303  -0.0539  0.3108  1.0000  -1.5767   0.0000   0.0000   0.0000   0.3168
   4.600   0.7627   0.00889   0.00311  -0.0535  0.2961  1.0000  -1.6086   0.0000   0.0000   0.0000   0.3154
   4.700   0.7708   0.00908   0.00321  -0.0530  0.2794  1.0000  -1.6395   0.0000   0.0000   0.0000   0.3139
   4.800   0.7800   0.00921   0.00338  -0.0527  0.2678  1.0000  -1.6740   0.0000   0.0000   0.0000   0.3126
   4.900   0.7886   0.00938   0.00348  -0.0523  0.2548  1.0000  -1.7227   0.0000   0.0000   0.0000   0.3113
   5.000   0.7977   0.00952   0.00358  -0.0520  0.2434  1.0000  -1.7737   0.0000   0.0000   0.0000   0.3100
   5.100   0.8070   0.00965   0.00367  -0.0517  0.2334  1.0000  -1.8252   0.0000   0.0000   0.0000   0.3088
   5.200   0.8157   0.00982   0.00377  -0.0513  0.2216  1.0000  -1.8754   0.0000   0.0000   0.0000   0.3076
   5.300   0.8250   0.00996   0.00387  -0.0510  0.2120  1.0000  -1.9275   0.0000   0.0000   0.0000   0.3064
   5.400   0.8344   0.01008   0.00397  -0.0508  0.2034  1.0000  -1.9802   0.0000   0.0000   0.0000   0.3053
   5.500   0.8432   0.01026   0.00407  -0.0504  0.1934  1.0000  -2.0318   0.0000   0.0000   0.0000   0.3042
   5.600   0.8525   0.01041   0.00418  -0.0502  0.1841  1.0000  -2.0846   0.0000   0.0000   0.0000   0.3031
   5.700   0.8621   0.01052   0.00428  -0.0499  0.1777  1.0000  -2.1390   0.0000   0.0000   0.0000   0.3021
   5.800   0.8712   0.01068   0.00439  -0.0496  0.1699  1.0000  -2.1925   0.0000   0.0000   0.0000   0.3010
   5.900   0.8800   0.01086   0.00451  -0.0493  0.1605  1.0000  -2.2454   0.0000   0.0000   0.0000   0.3000
   6.000   0.8897   0.01098   0.00462  -0.0491  0.1550  1.0000  -2.3010   0.0000   0.0000   0.0000   0.2990
   6.100   0.8992   0.01110   0.00473  -0.0488  0.1495  1.0000  -2.3569   0.0000   0.0000   0.0000   0.2981
   6.200   0.9083   0.01126   0.00486  -0.0485  0.1430  1.0000  -2.4118   0.0000   0.0000   0.0000   0.2971
   6.300   0.9171   0.01146   0.00499  -0.0482  0.1349  1.0000  -2.4658   0.0000   0.0000   0.0000   0.2961
   6.400   0.9267   0.01158   0.00511  -0.0480  0.1297  1.0000  -2.5228   0.0000   0.0000   0.0000   0.2952
   6.500   0.9362   0.01170   0.00522  -0.0477  0.1247  1.0000  -2.5804   0.0000   0.0000   0.0000   0.2943
   6.600   0.9451   0.01188   0.00535  -0.0474  0.1183  1.0000  -2.6366   0.0000   0.0000   0.0000   0.2934
   6.700   0.9537   0.01210   0.00551  -0.0471  0.1102  1.0000  -2.6915   0.0000   0.0000   0.0000   0.2925
   6.800   0.9633   0.01222   0.00563  -0.0469  0.1064  1.0000  -2.7502   0.0000   0.0000   0.0000   0.2916
   6.900   0.9730   0.01233   0.00574  -0.0467  0.1034  1.0000  -2.8098   0.0000   0.0000   0.0000   0.2908
   7.000   0.9823   0.01248   0.00587  -0.0464  0.0997  1.0000  -2.8684   0.0000   0.0000   0.0000   0.2900
   7.100   0.9912   0.01265   0.00602  -0.0461  0.0955  1.0000  -2.9262   0.0000   0.0000   0.0000   0.2891
   7.200   0.9998   0.01287   0.00619  -0.0457  0.0903  1.0000  -2.9825   0.0000   0.0000   0.0000   0.2883
   7.300   1.0084   0.01308   0.00646  -0.0453  0.0858  1.0000  -3.0378   0.0000   0.0000   0.0000   0.2874
   7.400   1.0182   0.01317   0.00658  -0.0452  0.0843  1.0000  -3.0996   0.0000   0.0000   0.0000   0.2866
   7.500   1.0278   0.01329   0.00671  -0.0449  0.0822  1.0000  -3.1609   0.0000   0.0000   0.0000   0.2859
   7.600   1.0370   0.01344   0.00686  -0.0447  0.0797  1.0000  -3.2217   0.0000   0.0000   0.0000   0.2851
   7.700   1.0460   0.01360   0.00701  -0.0444  0.0769  1.0000  -3.2820   0.0000   0.0000   0.0000   0.2844
   7.800   1.0547   0.01380   0.00718  -0.0441  0.0738  1.0000  -3.3414   0.0000   0.0000   0.0000   0.2836
   7.900   1.0629   0.01405   0.00740  -0.0436  0.0698  1.0000  -3.3976   0.0000   0.0000   0.0000   0.2827
   8.000   1.0710   0.01429   0.00765  -0.0432  0.0668  1.0000  -3.4535   0.0000   0.0000   0.0000   0.2819
   8.100   1.0809   0.01437   0.00775  -0.0430  0.0659  1.0000  -3.5283   0.0000   0.0000   0.0000   0.2812
   8.200   1.0905   0.01447   0.00787  -0.0428  0.0646  1.0000  -3.6091   0.0000   0.0000   0.0000   0.2806
   8.300   1.0999   0.01459   0.00801  -0.0426  0.0629  1.0000  -3.6894   0.0000   0.0000   0.0000   0.2799
   8.400   1.1089   0.01474   0.00816  -0.0423  0.0609  1.0000  -3.7689   0.0000   0.0000   0.0000   0.2792
   8.500   1.1177   0.01492   0.00832  -0.0420  0.0587  1.0000  -3.8475   0.0000   0.0000   0.0000   0.2785
   8.600   1.1260   0.01513   0.00850  -0.0417  0.0561  1.0000  -3.9250   0.0000   0.0000   0.0000   0.2778
   8.700   1.1336   0.01541   0.00876  -0.0412  0.0526  1.0000  -3.9973   0.0000   0.0000   0.0000   0.2770
   8.800   1.1414   0.01567   0.00903  -0.0407  0.0499  1.0000  -4.0704   0.0000   0.0000   0.0000   0.2762
   8.900   1.1514   0.01571   0.00910  -0.0406  0.0490  1.0000  -4.1674   0.0000   0.0000   0.0000   0.2756
   9.000   1.1611   0.01579   0.00919  -0.0404  0.0475  1.0000  -4.2816   0.0000   0.0000   0.0000   0.2751
   9.100   1.1702   0.01592   0.00931  -0.0402  0.0452  1.0000  -4.3937   0.0000   0.0000   0.0000   0.2745
   9.200   1.1787   0.01610   0.00946  -0.0399  0.0425  1.0000  -4.5033   0.0000   0.0000   0.0000   0.2738
   9.300   1.1865   0.01635   0.00966  -0.0395  0.0391  1.0000  -4.6085   0.0000   0.0000   0.0000   0.2731
   9.400   1.1936   0.01665   0.00995  -0.0390  0.0356  1.0000  -4.7077   0.0000   0.0000   0.0000   0.2723
   9.500   1.2029   0.01675   0.01006  -0.0388  0.0346  1.0000  -4.8260   0.0000   0.0000   0.0000   0.2718
   9.600   1.2116   0.01690   0.01022  -0.0385  0.0330  1.0000  -4.9408   0.0000   0.0000   0.0000   0.2712
   9.700   1.2197   0.01709   0.01040  -0.0381  0.0311  1.0000  -5.0530   0.0000   0.0000   0.0000   0.2705
   9.800   1.2275   0.01732   0.01060  -0.0377  0.0290  1.0000  -5.1633   0.0000   0.0000   0.0000   0.2698
   9.900   1.2350   0.01757   0.01085  -0.0372  0.0264  1.0000  -5.2845   0.0000   0.0000   0.0000   0.2691
  10.000   1.2423   0.01783   0.01112  -0.0367  0.0244  1.0000  -5.3945   0.0000   0.0000   0.0000   0.2684
  10.100   1.2500   0.01805   0.01135  -0.0363  0.0235  1.0000  -5.5079   0.0000   0.0000   0.0000   0.2677
  10.200   1.2580   0.01823   0.01156  -0.0359  0.0231  1.0000  -5.6251   0.0000   0.0000   0.0000   0.2671
  10.300   1.2657   0.01843   0.01178  -0.0354  0.0226  1.0000  -5.7412   0.0000   0.0000   0.0000   0.2664
  10.400   1.2731   0.01862   0.01200  -0.0349  0.0220  1.0000  -5.8558   0.0000   0.0000   0.0000   0.2657
  10.500   1.2803   0.01883   0.01223  -0.0344  0.0215  1.0000  -5.9696   0.0000   0.0000   0.0000   0.2649
  10.600   1.2873   0.01905   0.01246  -0.0338  0.0209  1.0000  -6.0832   0.0000   0.0000   0.0000   0.2642
  10.700   1.2941   0.01928   0.01270  -0.0332  0.0204  1.0000  -6.1966   0.0000   0.0000   0.0000   0.2635
  10.800   1.3008   0.01951   0.01295  -0.0326  0.0198  1.0000  -6.3100   0.0000   0.0000   0.0000   0.2627
  10.900   1.3074   0.01975   0.01320  -0.0320  0.0193  1.0000  -6.4233   0.0000   0.0000   0.0000   0.2620
  11.000   1.3138   0.02000   0.01346  -0.0314  0.0187  1.0000  -6.5365   0.0000   0.0000   0.0000   0.2612
  11.100   1.3201   0.02026   0.01373  -0.0307  0.0182  1.0000  -6.6495   0.0000   0.0000   0.0000   0.2605
  11.200   1.3262   0.02053   0.01401  -0.0301  0.0177  1.0000  -6.7623   0.0000   0.0000   0.0000   0.2597
  11.300   1.3323   0.02080   0.01431  -0.0294  0.0171  1.0000  -6.8746   0.0000   0.0000   0.0000   0.2589
  11.400   1.3381   0.02109   0.01461  -0.0287  0.0166  1.0000  -6.9860   0.0000   0.0000   0.0000   0.2582
  11.500   1.3438   0.02138   0.01494  -0.0280  0.0161  1.0000  -7.0963   0.0000   0.0000   0.0000   0.2574
  11.600   1.3492   0.02170   0.01529  -0.0273  0.0156  1.0000  -7.2049   0.0000   0.0000   0.0000   0.2566
  11.700   1.3543   0.02204   0.01566  -0.0265  0.0151  1.0000  -7.3114   0.0000   0.0000   0.0000   0.2558
  11.800   1.3590   0.02239   0.01606  -0.0257  0.0147  1.0000  -7.4154   0.0000   0.0000   0.0000   0.2550
  11.900   1.3634   0.02278   0.01649  -0.0249  0.0143  1.0000  -7.5166   0.0000   0.0000   0.0000   0.2542
  12.000   1.3692   0.02305   0.01678  -0.0243  0.0142  1.0000  -7.6346   0.0000   0.0000   0.0000   0.2535
  12.100   1.3755   0.02329   0.01705  -0.0237  0.0141  1.0000  -7.7586   0.0000   0.0000   0.0000   0.2528
  12.200   1.3816   0.02354   0.01733  -0.0232  0.0140  1.0000  -7.8822   0.0000   0.0000   0.0000   0.2522
  12.300   1.3876   0.02379   0.01761  -0.0226  0.0139  1.0000  -8.0055   0.0000   0.0000   0.0000   0.2516
  12.400   1.3934   0.02406   0.01791  -0.0221  0.0138  1.0000  -8.1288   0.0000   0.0000   0.0000   0.2509
  12.500   1.3992   0.02434   0.01822  -0.0215  0.0137  1.0000  -8.2524   0.0000   0.0000   0.0000   0.2503
  12.600   1.4048   0.02463   0.01855  -0.0209  0.0135  1.0000  -8.3754   0.0000   0.0000   0.0000   0.2496
  12.700   1.4102   0.02493   0.01888  -0.0204  0.0133  1.0000  -8.4978   0.0000   0.0000   0.0000   0.2490
  12.800   1.4155   0.02524   0.01923  -0.0198  0.0131  1.0000  -8.6200   0.0000   0.0000   0.0000   0.2483
  12.900   1.4194   0.02566   0.01974  -0.0190  0.0131  1.0000  -8.7119   0.0000   0.0000   0.0000   0.2476
  13.000   1.4243   0.02600   0.02012  -0.0184  0.0129  1.0000  -8.8283   0.0000   0.0000   0.0000   0.2470
  13.100   1.4290   0.02636   0.02051  -0.0178  0.0127  1.0000  -8.9460   0.0000   0.0000   0.0000   0.2463
  13.200   1.4336   0.02672   0.02091  -0.0172  0.0125  1.0000  -9.0862   0.0000   0.0000   0.0000   0.2457
  13.300   1.4383   0.02708   0.02131  -0.0166  0.0122  1.0000  -9.2302   0.0000   0.0000   0.0000   0.2451
  13.400   1.4429   0.02746   0.02171  -0.0161  0.0118  1.0000  -9.3747   0.0000   0.0000   0.0000   0.2444
  13.500   1.4472   0.02786   0.02214  -0.0155  0.0114  1.0000  -9.5177   0.0000   0.0000   0.0000   0.2438
  13.600   1.4513   0.02829   0.02259  -0.0149  0.0109  1.0000  -9.6576   0.0000   0.0000   0.0000   0.2432
  13.700   1.4550   0.02874   0.02307  -0.0143  0.0104  1.0000  -9.7952   0.0000   0.0000   0.0000   0.2426
  13.800   1.4586   0.02922   0.02356  -0.0137  0.0099  1.0000  -9.9316   0.0000   0.0000   0.0000   0.2420
  13.900   1.4620   0.02971   0.02407  -0.0132  0.0094  1.0000  -10.0666   0.0000   0.0000   0.0000   0.2414
  14.000   1.4650   0.03025   0.02463  -0.0126  0.0088  1.0000  -10.1972   0.0000   0.0000   0.0000   0.2408
  14.100   1.4674   0.03083   0.02522  -0.0120  0.0083  1.0000  -10.3218   0.0000   0.0000   0.0000   0.2402
  14.200   1.4695   0.03143   0.02584  -0.0114  0.0077  1.0000  -10.4428   0.0000   0.0000   0.0000   0.2395
  14.300   1.4717   0.03204   0.02648  -0.0108  0.0071  1.0000  -10.5632   0.0000   0.0000   0.0000   0.2389
  14.400   1.4742   0.03263   0.02711  -0.0102  0.0069  1.0000  -10.6884   0.0000   0.0000   0.0000   0.2383
  14.500   1.4760   0.03327   0.02779  -0.0097  0.0066  1.0000  -10.8067   0.0000   0.0000   0.0000   0.2378
  14.600   1.4775   0.03396   0.02851  -0.0091  0.0061  1.0000  -10.9212   0.0000   0.0000   0.0000   0.2372
  14.700   1.4788   0.03469   0.02927  -0.0086  0.0056  1.0000  -11.0328   0.0000   0.0000   0.0000   0.2366
  14.800   1.4795   0.03549   0.03010  -0.0081  0.0051  1.0000  -11.1381   0.0000   0.0000   0.0000   0.2361
  14.900   1.4791   0.03639   0.03103  -0.0076  0.0045  1.0000  -11.2305   0.0000   0.0000   0.0000   0.2355
  15.000   1.4783   0.03736   0.03203  -0.0071  0.0040  1.0000  -11.3166   0.0000   0.0000   0.0000   0.2350
  15.100   1.4772   0.03838   0.03307  -0.0066  0.0035  1.0000  -11.3992   0.0000   0.0000   0.0000   0.2345
  15.200   1.4757   0.03946   0.03418  -0.0062  0.0031  1.0000  -11.4757   0.0000   0.0000   0.0000   0.2340
  15.300   1.4747   0.04050   0.03526  -0.0059  0.0027  1.0000  -11.5545   0.0000   0.0000   0.0000   0.2336
  15.400   1.4744   0.04151   0.03632  -0.0056  0.0025  1.0000  -11.6397   0.0000   0.0000   0.0000   0.2332
  15.500   1.4735   0.04258   0.03744  -0.0054  0.0024  1.0000  -11.7213   0.0000   0.0000   0.0000   0.2328
  15.600   1.4721   0.04373   0.03865  -0.0052  0.0023  1.0000  -11.7956   0.0000   0.0000   0.0000   0.2325
  15.700   1.4707   0.04489   0.03986  -0.0050  0.0022  1.0000  -11.8691   0.0000   0.0000   0.0000   0.2321
  15.800   1.4687   0.04611   0.04115  -0.0049  0.0022  1.0000  -11.9359   0.0000   0.0000   0.0000   0.2318
  15.900   1.4660   0.04745   0.04255  -0.0049  0.0021  1.0000  -11.9940   0.0000   0.0000   0.0000   0.2316
  16.000   1.4637   0.04881   0.04396  -0.0049  0.0021  1.0000  -12.0543   0.0000   0.0000   0.0000   0.2314
  16.100   1.4607   0.05028   0.04550  -0.0051  0.0020  1.0000  -12.1063   0.0000   0.0000   0.0000   0.2313
  16.200   1.4574   0.05185   0.04713  -0.0053  0.0020  1.0000  -12.1525   0.0000   0.0000   0.0000   0.2312
  16.300   1.4543   0.05343   0.04877  -0.0056  0.0019  1.0000  -12.2002   0.0000   0.0000   0.0000   0.2312
  16.400   1.4501   0.05522   0.05063  -0.0060  0.0019  1.0000  -12.2333   0.0000   0.0000   0.0000   0.2313
  16.500   1.4462   0.05701   0.05248  -0.0065  0.0019  1.0000  -12.2684   0.0000   0.0000   0.0000   0.2314
  16.600   1.4417   0.05895   0.05448  -0.0071  0.0018  1.0000  -12.2944   0.0000   0.0000   0.0000   0.2316
  16.700   1.4368   0.06099   0.05659  -0.0078  0.0018  1.0000  -12.3136   0.0000   0.0000   0.0000   0.2318
  16.800   1.4319   0.06310   0.05876  -0.0086  0.0018  1.0000  -12.3302   0.0000   0.0000   0.0000   0.2322
  16.900   1.4261   0.06541   0.06115  -0.0096  0.0018  1.0000  -12.3330   0.0000   0.0000   0.0000   0.2326
  17.000   1.4204   0.06772   0.06352  -0.0106  0.0017  1.0000  -12.3369   0.0000   0.0000   0.0000   0.2331
  17.100   1.4136   0.07030   0.06618  -0.0118  0.0017  1.0000  -12.3225   0.0000   0.0000   0.0000   0.2338
  17.200   1.4071   0.07286   0.06880  -0.0130  0.0017  1.0000  -12.3102   0.0000   0.0000   0.0000   0.2344
  17.300   1.3994   0.07572   0.07173  -0.0145  0.0017  1.0000  -12.2778   0.0000   0.0000   0.0000   0.2353
  17.400   1.3918   0.07856   0.07465  -0.0159  0.0017  1.0000  -12.2455   0.0000   0.0000   0.0000   0.2362
  17.500   1.3832   0.08167   0.07783  -0.0176  0.0017  1.0000  -12.1950   0.0000   0.0000   0.0000   0.2372
  17.600   1.3743   0.08487   0.08110  -0.0193  0.0017  1.0000  -12.1375   0.0000   0.0000   0.0000   0.2383
  17.700   1.3647   0.08813   0.08444  -0.0210  0.0017  1.0000  -12.0685   0.0000   0.0000   0.0000   0.2395
  17.800   1.3540   0.09168   0.08806  -0.0230  0.0018  1.0000  -11.9796   0.0000   0.0000   0.0000   0.2408
  17.900   1.3439   0.09513   0.09158  -0.0248  0.0018  1.0000  -11.8971   0.0000   0.0000   0.0000   0.2421
  18.000   1.3322   0.09905   0.09558  -0.0270  0.0018  1.0000  -11.7828   0.0000   0.0000   0.0000   0.2437
  18.100   1.3213   0.10281   0.09940  -0.0291  0.0018  1.0000  -11.6789   0.0000   0.0000   0.0000   0.2452
  18.200   1.3090   0.10694   0.10361  -0.0314  0.0019  1.0000  -11.5476   0.0000   0.0000   0.0000   0.2470
  18.300   1.2968   0.11109   0.10783  -0.0337  0.0019  1.0000  -11.4125   0.0000   0.0000   0.0000   0.2489
  18.400   1.2846   0.11525   0.11206  -0.0360  0.0019  1.0000  -11.2735   0.0000   0.0000   0.0000   0.2507
  18.500   1.2714   0.11969   0.11656  -0.0385  0.0020  1.0000  -11.1114   0.0000   0.0000   0.0000   0.2528
  18.600   1.2593   0.12390   0.12083  -0.0409  0.0020  1.0000  -10.9631   0.0000   0.0000   0.0000   0.2549
  18.700   1.2454   0.12857   0.12557  -0.0435  0.0021  1.0000  -10.7765   0.0000   0.0000   0.0000   0.2572
  18.800   1.2332   0.13286   0.12993  -0.0460  0.0021  1.0000  -10.6147   0.0000   0.0000   0.0000   0.2594
  18.900   1.2194   0.13761   0.13473  -0.0487  0.0022  1.0000  -10.4149   0.0000   0.0000   0.0000   0.2620
  19.000   1.2073   0.14199   0.13918  -0.0512  0.0023  1.0000  -10.2398   0.0000   0.0000   0.0000   0.2644
  19.100   1.1955   0.14636   0.14360  -0.0538  0.0024  1.0000  -10.0631   0.0000   0.0000   0.0000   0.2668
  19.200   1.1820   0.15121   0.14851  -0.0566  0.0025  1.0000  -9.8451   0.0000   0.0000   0.0000   0.2697
  19.300   1.1719   0.15530   0.15265  -0.0590  0.0025  1.0000  -9.6850   0.0000   0.0000   0.0000   0.2721
  19.500   1.1533   0.16326   0.16072  -0.0637  0.0030  1.0000  -9.3877   0.0000   0.0000   0.0000   0.2768
  19.600   1.1461   0.16664   0.16414  -0.0659  0.0031  1.0000  -9.2702   0.0000   0.0000   0.0000   0.2789
  19.700   1.1393   0.16988   0.16743  -0.0680  0.0033  1.0000  -9.1524   0.0000   0.0000   0.0000   0.2809
  19.800   1.1312   0.17353   0.17113  -0.0703  0.0035  1.0000  -8.9963   0.0000   0.0000   0.0000   0.2834
  19.900   1.1247   0.17684   0.17449  -0.0724  0.0036  1.0000  -8.8733   0.0000   0.0000   0.0000   0.2855
  20.000   1.1191   0.18004   0.17772  -0.0744  0.0037  1.0000  -8.7643   0.0000   0.0000   0.0000   0.2875
  20.100   1.1134   0.18333   0.18105  -0.0764  0.0037  1.0000  -8.6493   0.0000   0.0000   0.0000   0.2895
  20.200   1.1066   0.18703   0.18480  -0.0786  0.0039  1.0000  -8.5014   0.0000   0.0000   0.0000   0.2919
  20.300   1.0995   0.19096   0.18878  -0.0808  0.0041  1.0000  -8.3362   0.0000   0.0000   0.0000   0.2944
  20.400   1.0940   0.19450   0.19236  -0.0829  0.0041  1.0000  -8.2076   0.0000   0.0000   0.0000   0.2965
  20.500   1.0889   0.19802   0.19592  -0.0848  0.0041  1.0000  -8.0831   0.0000   0.0000   0.0000   0.2986
  20.600   1.0829   0.20192   0.19986  -0.0870  0.0042  1.0000  -7.9276   0.0000   0.0000   0.0000   0.3010
  20.700   1.0730   0.20727   0.20528  -0.0897  0.0046  1.0000  -7.6484   0.0000   0.0000   0.0000   0.3044
  20.800   1.0673   0.21134   0.20937  -0.0918  0.0046  1.0000  -7.4833   0.0000   0.0000   0.0000   0.3068
  20.900   1.0620   0.21539   0.21344  -0.0939  0.0045  1.0000  -7.3216   0.0000   0.0000   0.0000   0.3091
  21.000   1.0538   0.22066   0.21876  -0.0964  0.0046  1.0000  -7.0561   0.0000   0.0000   0.0000   0.3123
  21.100   1.0278   0.23374   0.23192  -0.1017  0.0049  1.0000  -6.1303   0.0000   0.0000   0.0000   0.3207
  21.200   1.0282   0.23598   0.23415  -0.1028  0.0045  1.0000  -6.1268   0.0000   0.0000   0.0000   0.3216
  21.300   1.0315   0.23698   0.23513  -0.1035  0.0042  1.0000  -6.2299   0.0000   0.0000   0.0000   0.3216
  21.400   1.0347   0.23800   0.23612  -0.1042  0.0038  1.0000  -6.3314   0.0000   0.0000   0.0000   0.3217
  21.500   1.0351   0.24026   0.23836  -0.1053  0.0034  1.0000  -6.3245   0.0000   0.0000   0.0000   0.3225
  21.600   1.0296   0.24539   0.24348  -0.1074  0.0029  1.0000  -6.0647   0.0000   0.0000   0.0000   0.3252
  21.800   0.9851   0.27784   0.27585  -0.1161  0.0022  1.0000  -3.6358   0.0000   0.0000   0.0000   0.3411
  21.900   0.9845   0.28162   0.27963  -0.1172  0.0022  1.0000  -3.4941   0.0000   0.0000   0.0000   0.3422
  22.000   0.9841   0.28535   0.28335  -0.1182  0.0022  1.0000  -3.3553   0.0000   0.0000   0.0000   0.3432
  22.100   0.9839   0.28900   0.28700  -0.1192  0.0022  1.0000  -3.2225   0.0000   0.0000   0.0000   0.3442
  22.200   0.9838   0.29259   0.29058  -0.1202  0.0023  1.0000  -3.0952   0.0000   0.0000   0.0000   0.3452
  22.300   0.9836   0.29622   0.29420  -0.1211  0.0023  1.0000  -2.9651   0.0000   0.0000   0.0000   0.3461
  24.800   0.9187   0.35466   0.35280  -0.1278  0.0068  1.0000  -1.6071   0.0000   0.0000   0.0000   0.3605
  24.900   0.9360   0.36025   0.35837  -0.1307  0.0068  1.0000  -1.6349   0.0000   0.0000   0.0000   0.3605
  25.000   0.9456   0.36403   0.36214  -0.1326  0.0067  1.0000  -1.6422   0.0000   0.0000   0.0000   0.3607
  25.100   0.9533   0.36734   0.36544  -0.1342  0.0066  1.0000  -1.6421   0.0000   0.0000   0.0000   0.3610
  25.200   0.9602   0.37047   0.36856  -0.1357  0.0064  1.0000  -1.6350   0.0000   0.0000   0.0000   0.3613
  25.300   0.9670   0.37361   0.37170  -0.1372  0.0062  1.0000  -1.6248   0.0000   0.0000   0.0000   0.3615
  25.400   0.9744   0.37684   0.37492  -0.1387  0.0059  1.0000  -1.6227   0.0000   0.0000   0.0000   0.3617
  27.500   0.8198   0.35073   0.34916  -0.1268  0.0038  1.0000  -1.1541   0.0000   0.0000   0.0000   0.3748
  27.600   0.8188   0.35104   0.34948  -0.1270  0.0038  1.0000  -1.1529   0.0000   0.0000   0.0000   0.3752
  27.700   0.8179   0.35137   0.34981  -0.1273  0.0037  1.0000  -1.1522   0.0000   0.0000   0.0000   0.3756
  27.800   0.8170   0.35170   0.35015  -0.1276  0.0036  1.0000  -1.1521   0.0000   0.0000   0.0000   0.3760
  27.900   0.8161   0.35203   0.35049  -0.1279  0.0036  1.0000  -1.1526   0.0000   0.0000   0.0000   0.3763
  28.000   0.8153   0.35237   0.35083  -0.1282  0.0035  1.0000  -1.1537   0.0000   0.0000   0.0000   0.3767
  28.100   0.8145   0.35270   0.35117  -0.1285  0.0034  1.0000  -1.1553   0.0000   0.0000   0.0000   0.3771
  28.200   0.8138   0.35304   0.35151  -0.1288  0.0034  1.0000  -1.1576   0.0000   0.0000   0.0000   0.3774
  28.300   0.8130   0.35337   0.35185  -0.1291  0.0033  1.0000  -1.1605   0.0000   0.0000   0.0000   0.3778
  28.400   0.8123   0.35371   0.35219  -0.1294  0.0033  1.0000  -1.1640   0.0000   0.0000   0.0000   0.3782
  28.500   0.8117   0.35404   0.35253  -0.1298  0.0032  1.0000  -1.1682   0.0000   0.0000   0.0000   0.3785
  28.600   0.8110   0.35437   0.35287  -0.1301  0.0032  1.0000  -1.1729   0.0000   0.0000   0.0000   0.3789
  28.700   0.8104   0.35470   0.35321  -0.1304  0.0031  1.0000  -1.1783   0.0000   0.0000   0.0000   0.3792
  28.800   0.8098   0.35503   0.35354  -0.1307  0.0031  1.0000  -1.1843   0.0000   0.0000   0.0000   0.3795
  28.900   0.8092   0.35534   0.35386  -0.1311  0.0030  1.0000  -1.1910   0.0000   0.0000   0.0000   0.3799
  29.000   0.8086   0.35566   0.35418  -0.1314  0.0030  1.0000  -1.1982   0.0000   0.0000   0.0000   0.3802
  29.100   0.8081   0.35596   0.35449  -0.1317  0.0030  1.0000  -1.2061   0.0000   0.0000   0.0000   0.3805
  29.200   0.8075   0.35626   0.35479  -0.1320  0.0029  1.0000  -1.2145   0.0000   0.0000   0.0000   0.3808
  29.300   0.8070   0.35655   0.35509  -0.1323  0.0029  1.0000  -1.2234   0.0000   0.0000   0.0000   0.3811
  29.400   0.8064   0.35682   0.35537  -0.1326  0.0029  1.0000  -1.2327   0.0000   0.0000   0.0000   0.3814
  29.500   0.8058   0.35708   0.35563  -0.1329  0.0028  1.0000  -1.2423   0.0000   0.0000   0.0000   0.3817
  29.600   0.8051   0.35732   0.35588  -0.1332  0.0028  1.0000  -1.2518   0.0000   0.0000   0.0000   0.3820
  29.700   0.8044   0.35755   0.35611  -0.1335  0.0027  1.0000  -1.2607   0.0000   0.0000   0.0000   0.3822
  29.800   0.8036   0.35774   0.35631  -0.1337  0.0027  1.0000  -1.2679   0.0000   0.0000   0.0000   0.3825
  29.900   0.8018   0.35797   0.35655  -0.1338  0.0026  1.0000  -1.2511   0.0000   0.0000   0.0000   0.3828


