xflr5 v6.61

 Calculated polar for: SG6041

 1 1 Reynolds number fixed          Mach number fixed         

 xtrf =   1.000 (top)        1.000 (bottom)
 Mach =   0.000     Re =     0.130 e 6     Ncrit =   9.000

  alpha     CL        CD       CDp       Cm    Top Xtr Bot Xtr   Cpmin    Chinge    XCp    
 ------- -------- --------- --------- -------- ------- ------- -------- --------- ---------
 -10.000  -0.4271   0.11044   0.10571  -0.0328  1.0000  0.0521  -1.5711   0.0000   0.0000   0.0000   0.1654
  -9.900  -0.4237   0.10910   0.10438  -0.0325  1.0000  0.0527  -1.5446   0.0000   0.0000   0.0000   0.1656
  -9.800  -0.4209   0.10780   0.10309  -0.0323  1.0000  0.0532  -1.5245   0.0000   0.0000   0.0000   0.1656
  -9.700  -0.4185   0.10652   0.10182  -0.0323  1.0000  0.0537  -1.5089   0.0000   0.0000   0.0000   0.1653
  -9.600  -0.4165   0.10525   0.10056  -0.0323  1.0000  0.0542  -1.4971   0.0000   0.0000   0.0000   0.1649
  -9.500  -0.4149   0.10398   0.09931  -0.0324  1.0000  0.0548  -1.4887   0.0000   0.0000   0.0000   0.1644
  -9.400  -0.4136   0.10270   0.09805  -0.0326  1.0000  0.0554  -1.4831   0.0000   0.0000   0.0000   0.1639
  -9.300  -0.4126   0.10143   0.09679  -0.0328  1.0000  0.0559  -1.4798   0.0000   0.0000   0.0000   0.1632
  -9.200  -0.4118   0.10015   0.09553  -0.0331  1.0000  0.0565  -1.4788   0.0000   0.0000   0.0000   0.1626
  -9.100  -0.4114   0.09886   0.09426  -0.0334  1.0000  0.0571  -1.4796   0.0000   0.0000   0.0000   0.1619
  -9.000  -0.4112   0.09758   0.09299  -0.0337  1.0000  0.0577  -1.4823   0.0000   0.0000   0.0000   0.1612
  -8.900  -0.4112   0.09629   0.09172  -0.0340  1.0000  0.0583  -1.4867   0.0000   0.0000   0.0000   0.1605
  -8.800  -0.4116   0.09499   0.09045  -0.0343  1.0000  0.0589  -1.4929   0.0000   0.0000   0.0000   0.1598
  -8.700  -0.4123   0.09369   0.08917  -0.0347  1.0000  0.0596  -1.5008   0.0000   0.0000   0.0000   0.1592
  -8.600  -0.4133   0.09238   0.08789  -0.0351  1.0000  0.0602  -1.5105   0.0000   0.0000   0.0000   0.1586
  -8.500  -0.4147   0.09108   0.08661  -0.0355  1.0000  0.0608  -1.5221   0.0000   0.0000   0.0000   0.1580
  -8.400  -0.4166   0.08978   0.08534  -0.0359  1.0000  0.0615  -1.5359   0.0000   0.0000   0.0000   0.1576
  -8.300  -0.4191   0.08849   0.08409  -0.0363  1.0000  0.0621  -1.5521   0.0000   0.0000   0.0000   0.1572
  -8.200  -0.4221   0.08722   0.08285  -0.0368  1.0000  0.0627  -1.5702   0.0000   0.0000   0.0000   0.1570
  -8.100  -0.4259   0.08596   0.08162  -0.0372  1.0000  0.0632  -1.5912   0.0000   0.0000   0.0000   0.1569
  -8.000  -0.4307   0.08474   0.08043  -0.0376  1.0000  0.0637  -1.6150   0.0000   0.0000   0.0000   0.1572
  -7.900  -0.4367   0.08356   0.07930  -0.0379  1.0000  0.0641  -1.6408   0.0000   0.0000   0.0000   0.1579
  -7.800  -0.4441   0.08246   0.07824  -0.0380  1.0000  0.0643  -1.6675   0.0000   0.0000   0.0000   0.1593
  -7.700  -0.4526   0.08142   0.07725  -0.0378  1.0000  0.0644  -1.6938   0.0000   0.0000   0.0000   0.1615
  -7.600  -0.4608   0.08033   0.07617  -0.0378  1.0000  0.0646  -1.7213   0.0000   0.0000   0.0000   0.1632
  -7.500  -0.4678   0.07921   0.07506  -0.0378  1.0000  0.0649  -1.7508   0.0000   0.0000   0.0000   0.1646
  -7.400  -0.4748   0.07818   0.07404  -0.0377  1.0000  0.0654  -1.7821   0.0000   0.0000   0.0000   0.1661
  -7.300  -0.4822   0.07728   0.07312  -0.0376  1.0000  0.0659  -1.8177   0.0000   0.0000   0.0000   0.1677
  -7.200  -0.4901   0.07659   0.07238  -0.0374  1.0000  0.0665  -1.8594   0.0000   0.0000   0.0000   0.1694
  -7.100  -0.4983   0.07615   0.07189  -0.0371  1.0000  0.0671  -1.9036   0.0000   0.0000   0.0000   0.1714
  -7.000  -0.5028   0.07593   0.07159  -0.0365  1.0000  0.0676  -1.9277   0.0000   0.0000   0.0000   0.1734
  -6.900  -0.5064   0.07542   0.07102  -0.0358  1.0000  0.0679  -1.9444   0.0000   0.0000   0.0000   0.1753
  -6.800  -0.5091   0.07474   0.07027  -0.0351  1.0000  0.0680  -1.9573   0.0000   0.0000   0.0000   0.1771
  -6.700  -0.5111   0.07393   0.06941  -0.0344  1.0000  0.0681  -1.9678   0.0000   0.0000   0.0000   0.1788
  -6.600  -0.5126   0.07303   0.06845  -0.0338  1.0000  0.0682  -1.9762   0.0000   0.0000   0.0000   0.1804
  -6.500  -0.5136   0.07207   0.06743  -0.0331  1.0000  0.0683  -1.9831   0.0000   0.0000   0.0000   0.1819
  -6.400  -0.5224   0.06779   0.06313  -0.0333  1.0000  0.0691  -2.0483   0.0000   0.0000   0.0000   0.1827
  -6.300  -0.5263   0.06416   0.05954  -0.0332  1.0000  0.0701  -2.0628   0.0000   0.0000   0.0000   0.1834
  -6.200  -0.5240   0.06233   0.05778  -0.0326  1.0000  0.0708  -2.0342   0.0000   0.0000   0.0000   0.1843
  -6.100  -0.5218   0.06089   0.05637  -0.0319  1.0000  0.0714  -2.0067   0.0000   0.0000   0.0000   0.1854
  -6.000  -0.5198   0.05962   0.05511  -0.0313  1.0000  0.0720  -1.9817   0.0000   0.0000   0.0000   0.1864
  -5.900  -0.5178   0.05842   0.05392  -0.0306  1.0000  0.0726  -1.9590   0.0000   0.0000   0.0000   0.1875
  -5.800  -0.5156   0.05727   0.05276  -0.0300  1.0000  0.0733  -1.9382   0.0000   0.0000   0.0000   0.1884
  -5.700  -0.5131   0.05614   0.05162  -0.0295  1.0000  0.0741  -1.9179   0.0000   0.0000   0.0000   0.1893
  -5.600  -0.5104   0.05503   0.05048  -0.0289  1.0000  0.0749  -1.8991   0.0000   0.0000   0.0000   0.1901
  -5.500  -0.5075   0.05390   0.04933  -0.0285  1.0000  0.0758  -1.8834   0.0000   0.0000   0.0000   0.1907
  -5.400  -0.5043   0.05275   0.04806  -0.0280  1.0000  0.0769  -1.8778   0.0000   0.0000   0.0000   0.1913
  -5.300  -0.5007   0.05161   0.04687  -0.0276  1.0000  0.0780  -1.8661   0.0000   0.0000   0.0000   0.1917
  -5.200  -0.4968   0.05046   0.04565  -0.0273  1.0000  0.0793  -1.8561   0.0000   0.0000   0.0000   0.1920
  -5.100  -0.4924   0.04932   0.04443  -0.0270  1.0000  0.0807  -1.8481   0.0000   0.0000   0.0000   0.1922
  -5.000  -0.4875   0.04820   0.04322  -0.0267  1.0000  0.0822  -1.8422   0.0000   0.0000   0.0000   0.1922
  -4.900  -0.4820   0.04717   0.04206  -0.0264  1.0000  0.0840  -1.8391   0.0000   0.0000   0.0000   0.1922
  -4.700  -0.4577   0.03644   0.02976  -0.0250  1.0000  0.0345  -2.5159   0.0000   0.0000   0.0000   0.1918
  -4.600  -0.4495   0.03559   0.02891  -0.0245  1.0000  0.0328  -2.4813   0.0000   0.0000   0.0000   0.1917
  -4.500  -0.4425   0.03351   0.02668  -0.0244  1.0000  0.0318  -2.4993   0.0000   0.0000   0.0000   0.1911
  -4.400  -0.4343   0.03195   0.02495  -0.0242  1.0000  0.0310  -2.5062   0.0000   0.0000   0.0000   0.1905
  -4.300  -0.4254   0.03057   0.02338  -0.0240  1.0000  0.0303  -2.5112   0.0000   0.0000   0.0000   0.1899
  -4.200  -0.4162   0.02929   0.02191  -0.0237  1.0000  0.0297  -2.5151   0.0000   0.0000   0.0000   0.1893
  -4.100  -0.4065   0.02811   0.02054  -0.0234  1.0000  0.0292  -2.5175   0.0000   0.0000   0.0000   0.1886
  -4.000  -0.3967   0.02703   0.01926  -0.0231  1.0000  0.0288  -2.5174   0.0000   0.0000   0.0000   0.1880
  -3.900  -0.3868   0.02603   0.01808  -0.0228  1.0000  0.0286  -2.5136   0.0000   0.0000   0.0000   0.1873
  -3.800  -0.3768   0.02512   0.01701  -0.0225  1.0000  0.0285  -2.5057   0.0000   0.0000   0.0000   0.1866
  -3.700  -0.3667   0.02430   0.01604  -0.0221  1.0000  0.0286  -2.4936   0.0000   0.0000   0.0000   0.1859
  -3.600  -0.3567   0.02355   0.01516  -0.0218  1.0000  0.0288  -2.4778   0.0000   0.0000   0.0000   0.1851
  -3.500  -0.3468   0.02287   0.01437  -0.0214  1.0000  0.0292  -2.4589   0.0000   0.0000   0.0000   0.1844
  -3.400  -0.3369   0.02226   0.01366  -0.0211  1.0000  0.0298  -2.4373   0.0000   0.0000   0.0000   0.1836
  -3.300  -0.3271   0.02170   0.01303  -0.0207  1.0000  0.0306  -2.4139   0.0000   0.0000   0.0000   0.1828
  -3.200  -0.3174   0.02123   0.01248  -0.0204  1.0000  0.0317  -2.3875   0.0000   0.0000   0.0000   0.1820
  -3.100  -0.3078   0.02088   0.01207  -0.0200  1.0000  0.0329  -2.3550   0.0000   0.0000   0.0000   0.1812
  -3.000  -0.2979   0.02023   0.01138  -0.0197  1.0000  0.0345  -2.3359   0.0000   0.0000   0.0000   0.1800
  -2.900  -0.2882   0.01945   0.01063  -0.0196  1.0000  0.0378  -2.3069   0.0000   0.0000   0.0000   0.1782
  -2.800  -0.2791   0.01922   0.01043  -0.0194  1.0000  0.0413  -2.2512   0.0000   0.0000   0.0000   0.1768
  -2.700  -0.2648   0.01918   0.01038  -0.0201  0.9986  0.0478  -2.1748   0.0000   0.0000   0.0000   0.1703
  -2.600  -0.2500   0.01894   0.01028  -0.0213  0.9970  0.0605  -2.0751   0.0000   0.0000   0.0000   0.1611
  -2.500  -0.2350   0.01845   0.00991  -0.0222  0.9954  0.0812  -2.0303   0.0000   0.0000   0.0000   0.1517
  -2.400  -0.2195   0.01788   0.00941  -0.0230  0.9939  0.1129  -1.9956   0.0000   0.0000   0.0000   0.1410
  -2.300  -0.2037   0.01749   0.00918  -0.0242  0.9925  0.1435  -1.9230   0.0000   0.0000   0.0000   0.1270
  -2.200  -0.1894   0.01694   0.00890  -0.0251  0.9906  0.1832  -1.8702   0.0000   0.0000   0.0000   0.1131
  -2.100  -0.1781   0.01542   0.00866  -0.0259  0.9899  0.4207  -1.8260   0.0000   0.0000   0.0000   0.1002
  -2.000  -0.1743   0.01470   0.00915  -0.0235  0.9882  0.7096  -1.7830   0.0000   0.0000   0.0000   0.1107
  -1.900  -0.1647   0.01477   0.00936  -0.0225  0.9857  0.7760  -1.7213   0.0000   0.0000   0.0000   0.1093
  -1.800  -0.1535   0.01491   0.00954  -0.0218  0.9835  0.8162  -1.6539   0.0000   0.0000   0.0000   0.1033
  -1.700  -0.1455   0.01496   0.00962  -0.0207  0.9806  0.8462  -1.5969   0.0000   0.0000   0.0000   0.1032
  -1.600  -0.1371   0.01503   0.00961  -0.0195  0.9775  0.8768  -1.5505   0.0000   0.0000   0.0000   0.1030
  -1.500  -0.1253   0.01512   0.00970  -0.0191  0.9749  0.9046  -1.4797   0.0000   0.0000   0.0000   0.0929
  -1.400  -0.1078   0.01525   0.00980  -0.0199  0.9730  0.9312  -1.3925   0.0000   0.0000   0.0000   0.0607
  -1.300  -0.0825   0.01541   0.00990  -0.0224  0.9720  0.9544  -1.2834   0.0000   0.0000   0.0000  -0.0270
  -1.200  -0.0506   0.01558   0.00998  -0.0263  0.9717  0.9757  -1.1570   0.0000   0.0000   0.0000  -0.2789
  -1.100  -0.0168   0.01574   0.01005  -0.0307  0.9717  0.9923  -1.0288   0.0000   0.0000   0.0000  -1.6022
  -1.000   0.0100   0.01588   0.01010  -0.0341  0.9709  1.0000  -0.9242   0.0000   0.0000   0.0000   3.6927
  -0.900   0.0177   0.01583   0.01000  -0.0339  0.9658  1.0000  -0.8751   0.0000   0.0000   0.0000   2.1778
  -0.800   0.0315   0.01586   0.00998  -0.0348  0.9621  1.0000  -0.8098   0.0000   0.0000   0.0000   1.3623
  -0.700   0.0482   0.01592   0.00999  -0.0362  0.9592  1.0000  -0.7375   0.0000   0.0000   0.0000   1.0049
  -0.600   0.0671   0.01601   0.01002  -0.0380  0.9570  1.0000  -0.6609   0.0000   0.0000   0.0000   0.8188
  -0.500   0.0789   0.01604   0.01000  -0.0385  0.9531  1.0000  -0.6038   0.0000   0.0000   0.0000   0.7389
  -0.400   0.0881   0.01603   0.00996  -0.0384  0.9481  1.0000  -0.5544   0.0000   0.0000   0.0000   0.6871
  -0.300   0.1032   0.01607   0.00996  -0.0395  0.9446  1.0000  -0.4909   0.0000   0.0000   0.0000   0.6329
  -0.200   0.1209   0.01612   0.00997  -0.0409  0.9419  1.0000  -0.4217   0.0000   0.0000   0.0000   0.5887
  -0.100   0.1409   0.01619   0.01000  -0.0428  0.9398  1.0000  -0.3959   0.0000   0.0000   0.0000   0.5536
   0.000   0.1627   0.01626   0.01004  -0.0450  0.9380  1.0000  -0.4131   0.0000   0.0000   0.0000   0.5260
   0.100   0.1632   0.01623   0.00998  -0.0433  0.9308  1.0000  -0.4175   0.0000   0.0000   0.0000   0.5144
   0.200   0.1770   0.01625   0.00997  -0.0440  0.9267  1.0000  -0.4306   0.0000   0.0000   0.0000   0.4974
   0.300   0.1947   0.01627   0.00994  -0.0453  0.9236  1.0000  -0.4463   0.0000   0.0000   0.0000   0.4817
   0.400   0.2150   0.01628   0.00992  -0.0471  0.9211  1.0000  -0.4638   0.0000   0.0000   0.0000   0.4680
   0.500   0.2370   0.01628   0.00990  -0.0493  0.9192  1.0000  -0.4841   0.0000   0.0000   0.0000   0.4564
   0.600   0.2599   0.01629   0.00989  -0.0515  0.9175  1.0000  -0.5056   0.0000   0.0000   0.0000   0.4467
   0.700   0.2557   0.01631   0.00989  -0.0488  0.9088  1.0000  -0.5078   0.0000   0.0000   0.0000   0.4394
   0.800   0.2709   0.01629   0.00985  -0.0496  0.9047  1.0000  -0.5250   0.0000   0.0000   0.0000   0.4315
   0.900   0.2900   0.01625   0.00979  -0.0512  0.9016  1.0000  -0.5465   0.0000   0.0000   0.0000   0.4245
   1.000   0.3113   0.01618   0.00972  -0.0530  0.8991  1.0000  -0.5699   0.0000   0.0000   0.0000   0.4184
   1.100   0.3349   0.01608   0.00962  -0.0553  0.8971  1.0000  -0.5953   0.0000   0.0000   0.0000   0.4131
   1.200   0.3607   0.01596   0.00950  -0.0579  0.8956  1.0000  -0.6248   0.0000   0.0000   0.0000   0.4086
   1.300   0.3850   0.01582   0.00937  -0.0603  0.8938  1.0000  -0.6547   0.0000   0.0000   0.0000   0.4045
   1.400   0.3734   0.01596   0.00948  -0.0561  0.8827  1.0000  -0.6519   0.0000   0.0000   0.0000   0.3981
   1.500   0.3920   0.01583   0.00936  -0.0574  0.8790  1.0000  -0.6770   0.0000   0.0000   0.0000   0.3941
   1.600   0.4126   0.01565   0.00919  -0.0590  0.8761  1.0000  -0.7040   0.0000   0.0000   0.0000   0.3905
   1.700   0.4343   0.01545   0.00900  -0.0607  0.8736  1.0000  -0.7325   0.0000   0.0000   0.0000   0.3873
   1.800   0.4570   0.01521   0.00878  -0.0625  0.8713  1.0000  -0.7621   0.0000   0.0000   0.0000   0.3843
   1.900   0.4806   0.01496   0.00854  -0.0645  0.8692  1.0000  -0.7961   0.0000   0.0000   0.0000   0.3816
   2.000   0.4729   0.01513   0.00870  -0.0610  0.8586  1.0000  -0.7976   0.0000   0.0000   0.0000   0.3764
   2.100   0.4866   0.01497   0.00855  -0.0612  0.8533  1.0000  -0.8225   0.0000   0.0000   0.0000   0.3731
   2.200   0.5044   0.01473   0.00833  -0.0621  0.8492  1.0000  -0.8563   0.0000   0.0000   0.0000   0.3703
   2.300   0.5234   0.01448   0.00814  -0.0631  0.8458  1.0000  -0.8926   0.0000   0.0000   0.0000   0.3678
   2.400   0.5433   0.01421   0.00788  -0.0643  0.8427  1.0000  -0.9303   0.0000   0.0000   0.0000   0.3655
   2.500   0.5464   0.01425   0.00792  -0.0627  0.8347  1.0000  -0.9465   0.0000   0.0000   0.0000   0.3618
   2.600   0.5542   0.01418   0.00785  -0.0618  0.8272  1.0000  -0.9689   0.0000   0.0000   0.0000   0.3586
   2.700   0.5678   0.01399   0.00767  -0.0619  0.8216  1.0000  -0.9991   0.0000   0.0000   0.0000   0.3560
   2.800   0.5845   0.01373   0.00742  -0.0625  0.8169  1.0000  -1.0336   0.0000   0.0000   0.0000   0.3538
   2.900   0.6025   0.01346   0.00715  -0.0633  0.8125  1.0000  -1.0702   0.0000   0.0000   0.0000   0.3518
   3.000   0.6037   0.01353   0.00724  -0.0613  0.8024  1.0000  -1.0844   0.0000   0.0000   0.0000   0.3482
   3.100   0.6137   0.01341   0.00712  -0.0608  0.7942  1.0000  -1.1106   0.0000   0.0000   0.0000   0.3456
   3.200   0.6275   0.01321   0.00691  -0.0608  0.7875  1.0000  -1.1423   0.0000   0.0000   0.0000   0.3435
   3.300   0.6440   0.01297   0.00665  -0.0613  0.7815  1.0000  -1.1778   0.0000   0.0000   0.0000   0.3417
   3.400   0.6476   0.01301   0.00673  -0.0598  0.7704  1.0000  -1.1955   0.0000   0.0000   0.0000   0.3387
   3.500   0.6574   0.01290   0.00662  -0.0592  0.7605  1.0000  -1.2229   0.0000   0.0000   0.0000   0.3364
   3.600   0.6717   0.01271   0.00640  -0.0594  0.7521  1.0000  -1.2623   0.0000   0.0000   0.0000   0.3346
   3.700   0.6804   0.01268   0.00637  -0.0586  0.7412  1.0000  -1.2924   0.0000   0.0000   0.0000   0.3323
   3.800   0.6892   0.01263   0.00632  -0.0579  0.7289  1.0000  -1.3231   0.0000   0.0000   0.0000   0.3301
   3.900   0.7030   0.01249   0.00612  -0.0580  0.7177  1.0000  -1.3623   0.0000   0.0000   0.0000   0.3284
   4.000   0.7107   0.01250   0.00614  -0.0572  0.7041  1.0000  -1.3914   0.0000   0.0000   0.0000   0.3263
   4.100   0.7210   0.01247   0.00607  -0.0567  0.6899  1.0000  -1.4250   0.0000   0.0000   0.0000   0.3244
   4.200   0.7317   0.01245   0.00600  -0.0563  0.6759  1.0000  -1.4595   0.0000   0.0000   0.0000   0.3226
   4.300   0.7401   0.01249   0.00601  -0.0556  0.6592  1.0000  -1.4903   0.0000   0.0000   0.0000   0.3207
   4.400   0.7506   0.01251   0.00594  -0.0551  0.6423  1.0000  -1.5249   0.0000   0.0000   0.0000   0.3189
   4.500   0.7587   0.01258   0.00597  -0.0544  0.6227  1.0000  -1.5553   0.0000   0.0000   0.0000   0.3171
   4.600   0.7677   0.01268   0.00595  -0.0537  0.6029  1.0000  -1.5878   0.0000   0.0000   0.0000   0.3153
   4.700   0.7757   0.01280   0.00598  -0.0529  0.5803  1.0000  -1.6184   0.0000   0.0000   0.0000   0.3134
   4.800   0.7835   0.01295   0.00603  -0.0521  0.5578  1.0000  -1.6535   0.0000   0.0000   0.0000   0.3117
   4.900   0.7909   0.01315   0.00626  -0.0512  0.5332  1.0000  -1.6936   0.0000   0.0000   0.0000   0.3098
   5.000   0.7980   0.01334   0.00637  -0.0504  0.5088  1.0000  -1.7398   0.0000   0.0000   0.0000   0.3081
   5.100   0.8050   0.01357   0.00647  -0.0495  0.4854  1.0000  -1.7852   0.0000   0.0000   0.0000   0.3063
   5.200   0.8113   0.01384   0.00658  -0.0486  0.4611  1.0000  -1.8290   0.0000   0.0000   0.0000   0.3046
   5.300   0.8181   0.01408   0.00672  -0.0478  0.4369  1.0000  -1.8735   0.0000   0.0000   0.0000   0.3030
   5.400   0.8245   0.01437   0.00687  -0.0469  0.4140  1.0000  -1.9171   0.0000   0.0000   0.0000   0.3014
   5.500   0.8306   0.01468   0.00703  -0.0460  0.3909  1.0000  -1.9604   0.0000   0.0000   0.0000   0.2998
   5.600   0.8375   0.01496   0.00722  -0.0452  0.3696  1.0000  -2.0050   0.0000   0.0000   0.0000   0.2983
   5.800   0.8507   0.01559   0.00763  -0.0437  0.3307  1.0000  -2.0936   0.0000   0.0000   0.0000   0.2955
   5.900   0.8566   0.01599   0.00786  -0.0429  0.3134  1.0000  -2.1361   0.0000   0.0000   0.0000   0.2941
   6.000   0.8644   0.01625   0.00810  -0.0423  0.2968  1.0000  -2.1832   0.0000   0.0000   0.0000   0.2929
   6.100   0.8703   0.01667   0.00835  -0.0415  0.2816  1.0000  -2.2260   0.0000   0.0000   0.0000   0.2915
   6.200   0.8784   0.01693   0.00861  -0.0410  0.2674  1.0000  -2.2737   0.0000   0.0000   0.0000   0.2904
   6.300   0.8851   0.01730   0.00886  -0.0404  0.2543  1.0000  -2.3188   0.0000   0.0000   0.0000   0.2892
   6.400   0.8923   0.01769   0.00917  -0.0398  0.2421  1.0000  -2.3643   0.0000   0.0000   0.0000   0.2880
   6.500   0.9003   0.01794   0.00943  -0.0393  0.2307  1.0000  -2.4127   0.0000   0.0000   0.0000   0.2870
   6.600   0.9069   0.01836   0.00971  -0.0386  0.2201  1.0000  -2.4580   0.0000   0.0000   0.0000   0.2859
   6.700   0.9149   0.01873   0.01005  -0.0382  0.2104  1.0000  -2.5052   0.0000   0.0000   0.0000   0.2849
   6.800   0.9231   0.01898   0.01032  -0.0377  0.2015  1.0000  -2.5546   0.0000   0.0000   0.0000   0.2839
   6.900   0.9304   0.01934   0.01061  -0.0372  0.1934  1.0000  -2.6021   0.0000   0.0000   0.0000   0.2829
   7.000   0.9379   0.01996   0.01109  -0.0367  0.1849  1.0000  -2.6468   0.0000   0.0000   0.0000   0.2819
   7.100   0.9467   0.02019   0.01140  -0.0363  0.1790  1.0000  -2.6964   0.0000   0.0000   0.0000   0.2811
   7.200   0.9550   0.02048   0.01171  -0.0359  0.1726  1.0000  -2.7454   0.0000   0.0000   0.0000   0.2802
   7.300   0.9629   0.02083   0.01203  -0.0354  0.1667  1.0000  -2.7941   0.0000   0.0000   0.0000   0.2793
   7.400   0.9708   0.02147   0.01255  -0.0350  0.1602  1.0000  -2.8404   0.0000   0.0000   0.0000   0.2785
   7.500   0.9799   0.02197   0.01307  -0.0347  0.1551  1.0000  -2.8879   0.0000   0.0000   0.0000   0.2777
   7.600   0.9885   0.02222   0.01340  -0.0343  0.1505  1.0000  -2.9368   0.0000   0.0000   0.0000   0.2769
   7.700   0.9964   0.02253   0.01387  -0.0338  0.1446  1.0000  -2.9842   0.0000   0.0000   0.0000   0.2760
   7.800   1.0041   0.02285   0.01416  -0.0334  0.1398  1.0000  -3.0345   0.0000   0.0000   0.0000   0.2752
   7.900   1.0122   0.02350   0.01471  -0.0331  0.1343  1.0000  -3.0830   0.0000   0.0000   0.0000   0.2745
   8.000   1.0214   0.02413   0.01536  -0.0329  0.1299  1.0000  -3.1298   0.0000   0.0000   0.0000   0.2739
   8.100   1.0297   0.02440   0.01572  -0.0325  0.1265  1.0000  -3.1773   0.0000   0.0000   0.0000   0.2731
   8.200   1.0380   0.02470   0.01608  -0.0320  0.1226  1.0000  -3.2252   0.0000   0.0000   0.0000   0.2723
   8.300   1.0458   0.02499   0.01639  -0.0316  0.1187  1.0000  -3.2743   0.0000   0.0000   0.0000   0.2715
   8.400   1.0531   0.02530   0.01668  -0.0311  0.1149  1.0000  -3.3245   0.0000   0.0000   0.0000   0.2707
   8.500   1.0611   0.02601   0.01729  -0.0309  0.1103  1.0000  -3.3731   0.0000   0.0000   0.0000   0.2702
   8.600   1.0700   0.02676   0.01808  -0.0307  0.1064  1.0000  -3.4325   0.0000   0.0000   0.0000   0.2696
   8.700   1.0771   0.02694   0.01837  -0.0301  0.1034  1.0000  -3.4942   0.0000   0.0000   0.0000   0.2687
   8.800   1.0846   0.02724   0.01874  -0.0295  0.1001  1.0000  -3.5682   0.0000   0.0000   0.0000   0.2679
   8.900   1.0924   0.02763   0.01917  -0.0291  0.0970  1.0000  -3.6548   0.0000   0.0000   0.0000   0.2672
   9.000   1.0998   0.02801   0.01956  -0.0286  0.0941  1.0000  -3.7427   0.0000   0.0000   0.0000   0.2665
   9.100   1.1072   0.02848   0.02001  -0.0282  0.0913  1.0000  -3.8311   0.0000   0.0000   0.0000   0.2658
   9.200   1.1164   0.02974   0.02123  -0.0282  0.0876  1.0000  -3.9165   0.0000   0.0000   0.0000   0.2655
   9.300   1.1247   0.03074   0.02232  -0.0279  0.0851  1.0000  -3.9925   0.0000   0.0000   0.0000   0.2649
   9.400   1.1318   0.03114   0.02284  -0.0273  0.0832  1.0000  -4.0731   0.0000   0.0000   0.0000   0.2641
   9.500   1.1391   0.03166   0.02347  -0.0267  0.0810  1.0000  -4.1527   0.0000   0.0000   0.0000   0.2633
   9.600   1.1461   0.03224   0.02414  -0.0262  0.0787  1.0000  -4.2315   0.0000   0.0000   0.0000   0.2625
   9.700   1.1530   0.03282   0.02480  -0.0256  0.0766  1.0000  -4.3117   0.0000   0.0000   0.0000   0.2618
   9.800   1.1599   0.03340   0.02542  -0.0251  0.0746  1.0000  -4.3941   0.0000   0.0000   0.0000   0.2611
   9.900   1.1668   0.03399   0.02604  -0.0246  0.0729  1.0000  -4.4788   0.0000   0.0000   0.0000   0.2604
  10.000   1.1738   0.03470   0.02676  -0.0242  0.0713  1.0000  -4.5642   0.0000   0.0000   0.0000   0.2598
  10.100   1.1811   0.03579   0.02787  -0.0239  0.0696  1.0000  -4.6437   0.0000   0.0000   0.0000   0.2593
  10.200   1.1867   0.03789   0.03010  -0.0236  0.0679  1.0000  -4.6911   0.0000   0.0000   0.0000   0.2588
  10.300   1.1894   0.04007   0.03246  -0.0229  0.0668  1.0000  -4.7161   0.0000   0.0000   0.0000   0.2581
  10.400   1.1938   0.04061   0.03313  -0.0220  0.0662  1.0000  -4.7825   0.0000   0.0000   0.0000   0.2571
  10.500   1.1978   0.04121   0.03387  -0.0211  0.0654  1.0000  -4.8467   0.0000   0.0000   0.0000   0.2562
  10.600   1.2015   0.04187   0.03466  -0.0202  0.0645  1.0000  -4.9086   0.0000   0.0000   0.0000   0.2553
  10.700   1.2050   0.04256   0.03558  -0.0193  0.0636  1.0000  -4.9832   0.0000   0.0000   0.0000   0.2543
  10.800   1.2079   0.04329   0.03643  -0.0184  0.0626  1.0000  -5.0468   0.0000   0.0000   0.0000   0.2534
  10.900   1.2106   0.04402   0.03727  -0.0174  0.0615  1.0000  -5.1085   0.0000   0.0000   0.0000   0.2525
  11.000   1.2130   0.04475   0.03811  -0.0165  0.0604  1.0000  -5.1697   0.0000   0.0000   0.0000   0.2516
  11.100   1.2152   0.04551   0.03896  -0.0156  0.0594  1.0000  -5.2301   0.0000   0.0000   0.0000   0.2507
  11.200   1.2170   0.04632   0.03987  -0.0147  0.0586  1.0000  -5.2870   0.0000   0.0000   0.0000   0.2498
  11.300   1.2180   0.04730   0.04094  -0.0137  0.0580  1.0000  -5.3341   0.0000   0.0000   0.0000   0.2488
  11.400   1.2177   0.04833   0.04209  -0.0126  0.0576  1.0000  -5.3714   0.0000   0.0000   0.0000   0.2478
  11.500   1.2163   0.04938   0.04324  -0.0114  0.0572  1.0000  -5.4022   0.0000   0.0000   0.0000   0.2467
  11.600   1.2143   0.05045   0.04442  -0.0101  0.0568  1.0000  -5.4294   0.0000   0.0000   0.0000   0.2455
  11.700   1.2117   0.05154   0.04561  -0.0089  0.0565  1.0000  -5.4530   0.0000   0.0000   0.0000   0.2444
  11.800   1.2086   0.05266   0.04683  -0.0077  0.0562  1.0000  -5.4731   0.0000   0.0000   0.0000   0.2433
  11.900   1.2049   0.05382   0.04809  -0.0065  0.0559  1.0000  -5.4893   0.0000   0.0000   0.0000   0.2422
  12.000   1.2006   0.05501   0.04938  -0.0054  0.0557  1.0000  -5.5015   0.0000   0.0000   0.0000   0.2412
  12.100   1.1957   0.05626   0.05073  -0.0043  0.0555  1.0000  -5.5092   0.0000   0.0000   0.0000   0.2401
  12.200   1.1902   0.05757   0.05213  -0.0033  0.0553  1.0000  -5.5123   0.0000   0.0000   0.0000   0.2392
  12.300   1.1841   0.05895   0.05361  -0.0024  0.0551  1.0000  -5.5103   0.0000   0.0000   0.0000   0.2383
  12.400   1.1772   0.06041   0.05517  -0.0016  0.0550  1.0000  -5.5017   0.0000   0.0000   0.0000   0.2375
  12.500   1.1695   0.06198   0.05683  -0.0009  0.0550  1.0000  -5.4867   0.0000   0.0000   0.0000   0.2367
  12.600   1.1610   0.06368   0.05863  -0.0003  0.0549  1.0000  -5.4639   0.0000   0.0000   0.0000   0.2361
  12.700   1.1515   0.06554   0.06059   0.0000  0.0549  1.0000  -5.4314   0.0000   0.0000   0.0000   0.2356
  12.800   1.1407   0.06759   0.06275   0.0002  0.0550  1.0000  -5.3873   0.0000   0.0000   0.0000   0.2353
  12.900   1.1281   0.06989   0.06515   0.0001  0.0552  1.0000  -5.3278   0.0000   0.0000   0.0000   0.2352
  13.000   1.1136   0.07253   0.06790  -0.0003  0.0555  1.0000  -5.2499   0.0000   0.0000   0.0000   0.2354
  13.100   1.0897   0.07647   0.07200  -0.0017  0.0562  1.0000  -5.0887   0.0000   0.0000   0.0000   0.2366
  13.200   1.0601   0.08171   0.07738  -0.0044  0.0573  1.0000  -4.8695   0.0000   0.0000   0.0000   0.2391
  13.300   1.0266   0.08845   0.08424  -0.0088  0.0586  1.0000  -4.5948   0.0000   0.0000   0.0000   0.2434
  13.400   0.9835   0.09851   0.09429  -0.0161  0.0606  1.0000  -4.1898   0.0000   0.0000   0.0000   0.2512
  13.500   0.9411   0.11070   0.10648  -0.0243  0.0634  1.0000  -3.7398   0.0000   0.0000   0.0000   0.2607
  13.600   0.9218   0.11794   0.11369  -0.0282  0.0648  1.0000  -3.5205   0.0000   0.0000   0.0000   0.2657
  13.700   0.9102   0.12318   0.11891  -0.0308  0.0655  1.0000  -3.3874   0.0000   0.0000   0.0000   0.2689
  13.800   0.9018   0.12754   0.12325  -0.0329  0.0659  1.0000  -3.2917   0.0000   0.0000   0.0000   0.2715
  13.900   0.8954   0.13141   0.12711  -0.0346  0.0662  1.0000  -3.2166   0.0000   0.0000   0.0000   0.2737
  14.000   0.8904   0.13494   0.13062  -0.0361  0.0664  1.0000  -3.1574   0.0000   0.0000   0.0000   0.2755
  14.100   0.8870   0.13809   0.13377  -0.0371  0.0667  1.0000  -3.1180   0.0000   0.0000   0.0000   0.2768
  14.300   0.8523   0.16600   0.16165  -0.0478  0.1072  1.0000  -2.2980   0.0000   0.0000   0.0000   0.2921
  14.400   0.8482   0.16781   0.16344  -0.0499  0.1068  1.0000  -2.2518   0.0000   0.0000   0.0000   0.2948
  14.500   0.8319   0.16910   0.16466  -0.0552  0.1037  1.0000  -2.0861   0.0000   0.0000   0.0000   0.3023
  14.600   0.8286   0.17087   0.16642  -0.0571  0.1017  1.0000  -2.0480   0.0000   0.0000   0.0000   0.3047
  14.700   0.8278   0.17255   0.16810  -0.0583  0.1001  1.0000  -2.0361   0.0000   0.0000   0.0000   0.3061
  14.800   0.8282   0.17417   0.16972  -0.0592  0.0986  1.0000  -2.0344   0.0000   0.0000   0.0000   0.3071
  14.900   0.8292   0.17574   0.17129  -0.0600  0.0972  1.0000  -2.0397   0.0000   0.0000   0.0000   0.3079
  15.000   0.8308   0.17725   0.17280  -0.0607  0.0959  1.0000  -2.0508   0.0000   0.0000   0.0000   0.3084
  15.100   0.8331   0.17870   0.17426  -0.0612  0.0947  1.0000  -2.0678   0.0000   0.0000   0.0000   0.3087
  15.200   0.8360   0.18010   0.17567  -0.0616  0.0934  1.0000  -2.0918   0.0000   0.0000   0.0000   0.3088
  15.300   0.8397   0.18144   0.17703  -0.0618  0.0922  1.0000  -2.1243   0.0000   0.0000   0.0000   0.3085
  15.400   0.8447   0.18276   0.17836  -0.0617  0.0911  1.0000  -2.1692   0.0000   0.0000   0.0000   0.3078
  15.500   0.8515   0.18409   0.17972  -0.0612  0.0900  1.0000  -2.2316   0.0000   0.0000   0.0000   0.3065
  15.600   0.8597   0.18546   0.18112  -0.0602  0.0889  1.0000  -2.3113   0.0000   0.0000   0.0000   0.3045
  15.700   0.8689   0.18727   0.18297  -0.0588  0.0879  1.0000  -2.4042   0.0000   0.0000   0.0000   0.3019
  15.900   0.8715   0.19639   0.19208  -0.0588  0.0862  1.0000  -2.4095   0.0000   0.0000   0.0000   0.3016
  16.000   0.8717   0.19833   0.19402  -0.0600  0.0861  1.0000  -2.3923   0.0000   0.0000   0.0000   0.3028
  16.100   0.8721   0.20014   0.19583  -0.0612  0.0860  1.0000  -2.3753   0.0000   0.0000   0.0000   0.3040
  16.200   0.8725   0.20179   0.19748  -0.0624  0.0859  1.0000  -2.3581   0.0000   0.0000   0.0000   0.3053
  16.300   0.8726   0.20326   0.19894  -0.0638  0.0858  1.0000  -2.3375   0.0000   0.0000   0.0000   0.3067
  16.400   0.8713   0.20444   0.20011  -0.0655  0.0855  1.0000  -2.3030   0.0000   0.0000   0.0000   0.3087
  16.500   0.8692   0.20526   0.20092  -0.0675  0.0851  1.0000  -2.2593   0.0000   0.0000   0.0000   0.3110
  16.600   0.8639   0.20529   0.20092  -0.0703  0.0842  1.0000  -2.1850   0.0000   0.0000   0.0000   0.3146
  16.700   0.8589   0.20549   0.20110  -0.0730  0.0825  1.0000  -2.1132   0.0000   0.0000   0.0000   0.3182
  16.800   0.8585   0.20676   0.20236  -0.0746  0.0808  1.0000  -2.0869   0.0000   0.0000   0.0000   0.3199
  16.900   0.8595   0.20826   0.20386  -0.0757  0.0794  1.0000  -2.0785   0.0000   0.0000   0.0000   0.3210
  17.000   0.8612   0.20980   0.20540  -0.0766  0.0781  1.0000  -2.0775   0.0000   0.0000   0.0000   0.3217
  17.100   0.8631   0.21135   0.20696  -0.0774  0.0770  1.0000  -2.0810   0.0000   0.0000   0.0000   0.3223
  17.200   0.8653   0.21290   0.20851  -0.0782  0.0759  1.0000  -2.0877   0.0000   0.0000   0.0000   0.3228
  17.300   0.8677   0.21443   0.21006  -0.0788  0.0750  1.0000  -2.0972   0.0000   0.0000   0.0000   0.3232
  17.400   0.8702   0.21597   0.21160  -0.0794  0.0740  1.0000  -2.1093   0.0000   0.0000   0.0000   0.3234
  17.500   0.8730   0.21749   0.21314  -0.0800  0.0732  1.0000  -2.1242   0.0000   0.0000   0.0000   0.3236
  17.600   0.8760   0.21902   0.21468  -0.0804  0.0724  1.0000  -2.1421   0.0000   0.0000   0.0000   0.3237
  17.700   0.8792   0.22057   0.21624  -0.0808  0.0716  1.0000  -2.1633   0.0000   0.0000   0.0000   0.3236
  17.800   0.8828   0.22217   0.21785  -0.0811  0.0709  1.0000  -2.1885   0.0000   0.0000   0.0000   0.3233
  17.900   0.8870   0.22385   0.21955  -0.0812  0.0702  1.0000  -2.2188   0.0000   0.0000   0.0000   0.3228
  18.000   0.8920   0.22574   0.22147  -0.0810  0.0696  1.0000  -2.2570   0.0000   0.0000   0.0000   0.3220
  18.100   0.9074   0.23584   0.23162  -0.0766  0.0670  1.0000  -2.4077   0.0000   0.0000   0.0000   0.3156
  18.200   0.9075   0.23692   0.23270  -0.0781  0.0668  1.0000  -2.3715   0.0000   0.0000   0.0000   0.3170
  18.300   0.9066   0.23778   0.23355  -0.0798  0.0666  1.0000  -2.3254   0.0000   0.0000   0.0000   0.3189
  18.400   0.9052   0.23853   0.23429  -0.0817  0.0663  1.0000  -2.2724   0.0000   0.0000   0.0000   0.3209
  18.500   0.9023   0.23884   0.23458  -0.0838  0.0660  1.0000  -2.2102   0.0000   0.0000   0.0000   0.3234
  18.600   0.8984   0.23879   0.23451  -0.0863  0.0653  1.0000  -2.1361   0.0000   0.0000   0.0000   0.3265
  18.700   0.8961   0.23933   0.23503  -0.0889  0.0635  1.0000  -2.0598   0.0000   0.0000   0.0000   0.3295
  18.800   0.8968   0.24088   0.23658  -0.0904  0.0611  1.0000  -2.0170   0.0000   0.0000   0.0000   0.3309
  18.900   0.8986   0.24259   0.23830  -0.0913  0.0590  1.0000  -1.9925   0.0000   0.0000   0.0000   0.3316
  19.000   0.9010   0.24427   0.23998  -0.0920  0.0571  1.0000  -1.9787   0.0000   0.0000   0.0000   0.3319
  19.100   0.9039   0.24587   0.24159  -0.0924  0.0555  1.0000  -1.9756   0.0000   0.0000   0.0000   0.3319
  19.200   0.9073   0.24745   0.24317  -0.0926  0.0541  1.0000  -1.9846   0.0000   0.0000   0.0000   0.3315
  19.300   0.9116   0.24910   0.24484  -0.0924  0.0530  1.0000  -2.0089   0.0000   0.0000   0.0000   0.3306
  19.400   0.9178   0.25123   0.24700  -0.0916  0.0519  1.0000  -2.0584   0.0000   0.0000   0.0000   0.3288
  19.600   0.9299   0.26359   0.25944  -0.0892  0.0501  1.0000  -2.1054   0.0000   0.0000   0.0000   0.3248
  19.700   0.9310   0.26543   0.26128  -0.0903  0.0500  1.0000  -2.0869   0.0000   0.0000   0.0000   0.3257
  19.800   0.9320   0.26706   0.26290  -0.0914  0.0499  1.0000  -2.0670   0.0000   0.0000   0.0000   0.3267
  19.900   0.9318   0.26837   0.26421  -0.0928  0.0498  1.0000  -2.0366   0.0000   0.0000   0.0000   0.3280
  20.000   0.9313   0.26940   0.26523  -0.0943  0.0496  1.0000  -2.0023   0.0000   0.0000   0.0000   0.3296
  20.100   0.9298   0.27009   0.26590  -0.0961  0.0494  1.0000  -1.9599   0.0000   0.0000   0.0000   0.3315
  20.200   0.9282   0.27067   0.26646  -0.0981  0.0491  1.0000  -1.9121   0.0000   0.0000   0.0000   0.3336
  20.300   0.9270   0.27130   0.26708  -0.1002  0.0485  1.0000  -1.8579   0.0000   0.0000   0.0000   0.3359
  20.400   0.9271   0.27245   0.26822  -0.1023  0.0470  1.0000  -1.8078   0.0000   0.0000   0.0000   0.3380
  20.500   0.9285   0.27413   0.26990  -0.1036  0.0445  1.0000  -1.7890   0.0000   0.0000   0.0000   0.3391
  20.600   0.9310   0.27555   0.27132  -0.1043  0.0414  1.0000  -1.8087   0.0000   0.0000   0.0000   0.3393
  21.000   0.9487   0.28747   0.28329  -0.1014  0.0355  1.0000  -2.0524   0.0000   0.0000   0.0000   0.3334
  21.100   0.9494   0.28932   0.28514  -0.1025  0.0354  1.0000  -2.0227   0.0000   0.0000   0.0000   0.3344
  21.200   0.9497   0.29103   0.28684  -0.1037  0.0353  1.0000  -1.9884   0.0000   0.0000   0.0000   0.3355
  21.300   0.9495   0.29258   0.28838  -0.1051  0.0352  1.0000  -1.9495   0.0000   0.0000   0.0000   0.3368
  21.400   0.9492   0.29404   0.28984  -0.1066  0.0350  1.0000  -1.9072   0.0000   0.0000   0.0000   0.3382
  21.500   0.9489   0.29543   0.29122  -0.1082  0.0348  1.0000  -1.8605   0.0000   0.0000   0.0000   0.3398
  21.600   0.9488   0.29681   0.29259  -0.1100  0.0343  1.0000  -1.8054   0.0000   0.0000   0.0000   0.3415
  21.700   0.9495   0.29850   0.29427  -0.1118  0.0333  1.0000  -1.7495   0.0000   0.0000   0.0000   0.3432
  21.800   0.9509   0.30059   0.29636  -0.1130  0.0320  1.0000  -1.7193   0.0000   0.0000   0.0000   0.3442
  21.900   0.9524   0.30271   0.29848  -0.1138  0.0309  1.0000  -1.7037   0.0000   0.0000   0.0000   0.3447
  22.000   0.9540   0.30480   0.30057  -0.1146  0.0300  1.0000  -1.6940   0.0000   0.0000   0.0000   0.3452
  22.100   0.9555   0.30686   0.30264  -0.1153  0.0292  1.0000  -1.6879   0.0000   0.0000   0.0000   0.3455
  22.200   0.9571   0.30890   0.30469  -0.1159  0.0286  1.0000  -1.6846   0.0000   0.0000   0.0000   0.3458
  22.300   0.9587   0.31092   0.30671  -0.1166  0.0280  1.0000  -1.6837   0.0000   0.0000   0.0000   0.3461
  22.400   0.9603   0.31291   0.30871  -0.1172  0.0274  1.0000  -1.6853   0.0000   0.0000   0.0000   0.3464
  22.500   0.9618   0.31489   0.31069  -0.1177  0.0269  1.0000  -1.6892   0.0000   0.0000   0.0000   0.3466
  22.600   0.9634   0.31685   0.31265  -0.1183  0.0265  1.0000  -1.6956   0.0000   0.0000   0.0000   0.3467
  22.700   0.9650   0.31879   0.31461  -0.1187  0.0261  1.0000  -1.7048   0.0000   0.0000   0.0000   0.3468
  22.800   0.9665   0.32074   0.31656  -0.1192  0.0257  1.0000  -1.7172   0.0000   0.0000   0.0000   0.3469
  22.900   0.9681   0.32270   0.31854  -0.1195  0.0254  1.0000  -1.7333   0.0000   0.0000   0.0000   0.3468
  23.000   0.9698   0.32472   0.32056  -0.1197  0.0251  1.0000  -1.7541   0.0000   0.0000   0.0000   0.3467
  23.100   0.9716   0.32686   0.32272  -0.1198  0.0248  1.0000  -1.7809   0.0000   0.0000   0.0000   0.3463
  23.200   0.9737   0.32935   0.32522  -0.1196  0.0245  1.0000  -1.8170   0.0000   0.0000   0.0000   0.3457
  23.300   0.9778   0.33387   0.32977  -0.1184  0.0240  1.0000  -1.8829   0.0000   0.0000   0.0000   0.3437
  23.400   0.9778   0.33964   0.33551  -0.1183  0.0237  1.0000  -1.8566   0.0000   0.0000   0.0000   0.3436
  23.500   0.9783   0.34183   0.33770  -0.1190  0.0237  1.0000  -1.8422   0.0000   0.0000   0.0000   0.3441
  23.600   0.9787   0.34399   0.33987  -0.1197  0.0237  1.0000  -1.8279   0.0000   0.0000   0.0000   0.3446
  23.700   0.9790   0.34614   0.34202  -0.1203  0.0237  1.0000  -1.8136   0.0000   0.0000   0.0000   0.3451
  23.800   0.9791   0.34824   0.34413  -0.1210  0.0236  1.0000  -1.7990   0.0000   0.0000   0.0000   0.3456
  23.900   0.9791   0.35031   0.34621  -0.1217  0.0236  1.0000  -1.7843   0.0000   0.0000   0.0000   0.3461
  24.000   0.9787   0.35231   0.34821  -0.1223  0.0236  1.0000  -1.7665   0.0000   0.0000   0.0000   0.3467
  24.100   0.9780   0.35425   0.35016  -0.1230  0.0236  1.0000  -1.7470   0.0000   0.0000   0.0000   0.3473
  24.200   0.9770   0.35614   0.35205  -0.1237  0.0235  1.0000  -1.7264   0.0000   0.0000   0.0000   0.3480
  24.300   0.9758   0.35798   0.35390  -0.1244  0.0235  1.0000  -1.7058   0.0000   0.0000   0.0000   0.3488
  24.400   0.9744   0.35978   0.35571  -0.1251  0.0235  1.0000  -1.6846   0.0000   0.0000   0.0000   0.3495
  24.500   0.9726   0.36153   0.35747  -0.1257  0.0234  1.0000  -1.6628   0.0000   0.0000   0.0000   0.3502
  24.600   0.9705   0.36322   0.35916  -0.1262  0.0234  1.0000  -1.6401   0.0000   0.0000   0.0000   0.3509
  24.700   0.9679   0.36482   0.36077  -0.1267  0.0234  1.0000  -1.6163   0.0000   0.0000   0.0000   0.3516
  24.800   0.9646   0.36630   0.36227  -0.1271  0.0233  1.0000  -1.5908   0.0000   0.0000   0.0000   0.3524
  24.900   0.9601   0.36758   0.36356  -0.1273  0.0232  1.0000  -1.5628   0.0000   0.0000   0.0000   0.3531
  25.000   0.8597   0.34471   0.34097  -0.1129  0.0234  1.0000  -1.3524   0.0000   0.0000   0.0000   0.3542
  25.100   0.8535   0.34392   0.34020  -0.1127  0.0234  1.0000  -1.3236   0.0000   0.0000   0.0000   0.3549
  25.200   0.8482   0.34334   0.33963  -0.1127  0.0233  1.0000  -1.2965   0.0000   0.0000   0.0000   0.3557
  25.300   0.8436   0.34291   0.33922  -0.1127  0.0233  1.0000  -1.2706   0.0000   0.0000   0.0000   0.3565
  25.400   0.8396   0.34261   0.33893  -0.1129  0.0232  1.0000  -1.2455   0.0000   0.0000   0.0000   0.3573
  25.500   0.8360   0.34244   0.33878  -0.1131  0.0231  1.0000  -1.2211   0.0000   0.0000   0.0000   0.3581
  25.600   0.8329   0.34237   0.33872  -0.1134  0.0230  1.0000  -1.1971   0.0000   0.0000   0.0000   0.3589
  25.700   0.8301   0.34243   0.33879  -0.1137  0.0229  1.0000  -1.1737   0.0000   0.0000   0.0000   0.3597
  25.800   0.8278   0.34261   0.33898  -0.1141  0.0227  1.0000  -1.1509   0.0000   0.0000   0.0000   0.3604
  25.900   0.8258   0.34289   0.33928  -0.1144  0.0225  1.0000  -1.1293   0.0000   0.0000   0.0000   0.3612
  26.000   0.8240   0.34323   0.33963  -0.1148  0.0223  1.0000  -1.1093   0.0000   0.0000   0.0000   0.3618
  26.100   0.8223   0.34359   0.34000  -0.1151  0.0220  1.0000  -1.0917   0.0000   0.0000   0.0000   0.3624
  26.200   0.8205   0.34393   0.34036  -0.1154  0.0217  1.0000  -1.0765   0.0000   0.0000   0.0000   0.3629
  26.300   0.8189   0.34426   0.34070  -0.1156  0.0214  1.0000  -1.0632   0.0000   0.0000   0.0000   0.3634
  26.400   0.8172   0.34457   0.34103  -0.1158  0.0211  1.0000  -1.0515   0.0000   0.0000   0.0000   0.3639
  26.500   0.8156   0.34487   0.34135  -0.1160  0.0208  1.0000  -1.0410   0.0000   0.0000   0.0000   0.3643
  26.600   0.8141   0.34517   0.34166  -0.1162  0.0205  1.0000  -1.0315   0.0000   0.0000   0.0000   0.3648
  26.700   0.8126   0.34548   0.34198  -0.1165  0.0202  1.0000  -1.0228   0.0000   0.0000   0.0000   0.3652
  26.800   0.8112   0.34578   0.34230  -0.1167  0.0199  1.0000  -1.0148   0.0000   0.0000   0.0000   0.3656
  26.900   0.8099   0.34610   0.34262  -0.1169  0.0197  1.0000  -1.0074   0.0000   0.0000   0.0000   0.3660
  27.000   0.8086   0.34641   0.34295  -0.1171  0.0194  1.0000  -1.0006   0.0000   0.0000   0.0000   0.3664
  27.100   0.8074   0.34673   0.34329  -0.1174  0.0192  1.0000  -0.9943   0.0000   0.0000   0.0000   0.3668
  27.200   0.8062   0.34706   0.34362  -0.1176  0.0189  1.0000  -0.9884   0.0000   0.0000   0.0000   0.3672
  27.300   0.8051   0.34739   0.34402  -0.1178  0.0187  1.0000  -0.9828   0.0000   0.0000   0.0000   0.3676
  27.400   0.8041   0.34772   0.34436  -0.1181  0.0185  1.0000  -0.9778   0.0000   0.0000   0.0000   0.3679
  27.500   0.8031   0.34806   0.34471  -0.1183  0.0182  1.0000  -0.9732   0.0000   0.0000   0.0000   0.3683
  27.600   0.8021   0.34840   0.34506  -0.1186  0.0180  1.0000  -0.9691   0.0000   0.0000   0.0000   0.3687
  27.700   0.8012   0.34874   0.34542  -0.1189  0.0178  1.0000  -0.9654   0.0000   0.0000   0.0000   0.3690
  27.800   0.8003   0.34909   0.34578  -0.1191  0.0176  1.0000  -0.9621   0.0000   0.0000   0.0000   0.3694
  27.900   0.7995   0.34944   0.34614  -0.1194  0.0174  1.0000  -0.9593   0.0000   0.0000   0.0000   0.3697
  28.000   0.7987   0.34978   0.34649  -0.1197  0.0172  1.0000  -0.9570   0.0000   0.0000   0.0000   0.3701
  28.100   0.7979   0.35013   0.34685  -0.1199  0.0170  1.0000  -0.9552   0.0000   0.0000   0.0000   0.3704
  28.200   0.7972   0.35047   0.34721  -0.1202  0.0168  1.0000  -0.9538   0.0000   0.0000   0.0000   0.3708
  28.300   0.7965   0.35081   0.34756  -0.1205  0.0166  1.0000  -0.9530   0.0000   0.0000   0.0000   0.3711
  28.400   0.7958   0.35115   0.34791  -0.1208  0.0164  1.0000  -0.9527   0.0000   0.0000   0.0000   0.3714
  28.500   0.7951   0.35148   0.34825  -0.1210  0.0162  1.0000  -0.9530   0.0000   0.0000   0.0000   0.3717
  28.600   0.7945   0.35180   0.34859  -0.1213  0.0160  1.0000  -0.9540   0.0000   0.0000   0.0000   0.3720
  28.700   0.7938   0.35212   0.34892  -0.1216  0.0159  1.0000  -0.9557   0.0000   0.0000   0.0000   0.3723
  28.800   0.7932   0.35244   0.34925  -0.1218  0.0157  1.0000  -0.9582   0.0000   0.0000   0.0000   0.3726
  28.900   0.7926   0.35273   0.34956  -0.1221  0.0156  1.0000  -0.9614   0.0000   0.0000   0.0000   0.3728
  29.000   0.7920   0.35302   0.34985  -0.1223  0.0154  1.0000  -0.9656   0.0000   0.0000   0.0000   0.3731
  29.100   0.7914   0.35329   0.35014  -0.1225  0.0153  1.0000  -0.9709   0.0000   0.0000   0.0000   0.3733
  29.200   0.7908   0.35355   0.35041  -0.1227  0.0151  1.0000  -0.9773   0.0000   0.0000   0.0000   0.3735
  29.300   0.7901   0.35381   0.35068  -0.1229  0.0150  1.0000  -0.9852   0.0000   0.0000   0.0000   0.3736
  29.400   0.7895   0.35408   0.35097  -0.1230  0.0148  1.0000  -0.9947   0.0000   0.0000   0.0000   0.3737
  29.500   0.7889   0.35441   0.35132  -0.1230  0.0147  1.0000  -1.0064   0.0000   0.0000   0.0000   0.3737
  29.600   0.7885   0.35494   0.35186  -0.1229  0.0146  1.0000  -1.0210   0.0000   0.0000   0.0000   0.3735
  29.700   0.7886   0.35629   0.35323  -0.1225  0.0144  1.0000  -1.0420   0.0000   0.0000   0.0000   0.3728


