xflr5 v6.61

 Calculated polar for: SG6041

 1 1 Reynolds number fixed          Mach number fixed         

 xtrf =   1.000 (top)        1.000 (bottom)
 Mach =   0.000     Re =     0.400 e 6     Ncrit =   9.000

  alpha     CL        CD       CDp       Cm    Top Xtr Bot Xtr   Cpmin    Chinge    XCp    
 ------- -------- --------- --------- -------- ------- ------- -------- --------- ---------
 -10.000  -0.4109   0.10547   0.10267  -0.0330  1.0000  0.0203  -1.8065   0.0000   0.0000   0.0000   0.1613
  -9.900  -0.4096   0.10410   0.10131  -0.0336  1.0000  0.0204  -1.8175   0.0000   0.0000   0.0000   0.1596
  -9.800  -0.4085   0.10270   0.09993  -0.0342  1.0000  0.0204  -1.8295   0.0000   0.0000   0.0000   0.1580
  -9.700  -0.4076   0.10128   0.09851  -0.0348  1.0000  0.0205  -1.8423   0.0000   0.0000   0.0000   0.1565
  -9.600  -0.4069   0.09984   0.09708  -0.0354  1.0000  0.0205  -1.8560   0.0000   0.0000   0.0000   0.1550
  -9.500  -0.4064   0.09838   0.09563  -0.0360  1.0000  0.0206  -1.8704   0.0000   0.0000   0.0000   0.1535
  -9.400  -0.4060   0.09691   0.09418  -0.0366  1.0000  0.0206  -1.8856   0.0000   0.0000   0.0000   0.1521
  -9.300  -0.4059   0.09544   0.09272  -0.0371  1.0000  0.0206  -1.9016   0.0000   0.0000   0.0000   0.1508
  -9.200  -0.4059   0.09396   0.09125  -0.0377  1.0000  0.0206  -1.9185   0.0000   0.0000   0.0000   0.1496
  -9.100  -0.4062   0.09247   0.08977  -0.0382  1.0000  0.0206  -1.9362   0.0000   0.0000   0.0000   0.1484
  -9.000  -0.4066   0.09096   0.08828  -0.0388  1.0000  0.0207  -1.9548   0.0000   0.0000   0.0000   0.1472
  -8.900  -0.4073   0.08944   0.08678  -0.0393  1.0000  0.0207  -1.9744   0.0000   0.0000   0.0000   0.1462
  -8.800  -0.4082   0.08792   0.08526  -0.0399  1.0000  0.0207  -1.9951   0.0000   0.0000   0.0000   0.1451
  -8.700  -0.4095   0.08638   0.08374  -0.0404  1.0000  0.0207  -2.0171   0.0000   0.0000   0.0000   0.1442
  -8.600  -0.4111   0.08484   0.08222  -0.0410  1.0000  0.0207  -2.0405   0.0000   0.0000   0.0000   0.1434
  -8.500  -0.4133   0.08331   0.08071  -0.0415  1.0000  0.0207  -2.0656   0.0000   0.0000   0.0000   0.1427
  -8.400  -0.4162   0.08178   0.07920  -0.0421  1.0000  0.0207  -2.0929   0.0000   0.0000   0.0000   0.1423
  -8.300  -0.4201   0.08027   0.07771  -0.0426  1.0000  0.0207  -2.1228   0.0000   0.0000   0.0000   0.1423
  -8.200  -0.4255   0.07881   0.07628  -0.0430  1.0000  0.0207  -2.1563   0.0000   0.0000   0.0000   0.1428
  -8.100  -0.4333   0.07752   0.07500  -0.0431  1.0000  0.0207  -2.1930   0.0000   0.0000   0.0000   0.1445
  -8.000  -0.4436   0.07665   0.07415  -0.0423  1.0000  0.0207  -2.2263   0.0000   0.0000   0.0000   0.1488
  -7.900  -0.4556   0.07619   0.07371  -0.0407  1.0000  0.0207  -2.2543   0.0000   0.0000   0.0000   0.1552
  -7.800  -0.4677   0.07581   0.07335  -0.0387  1.0000  0.0207  -2.2799   0.0000   0.0000   0.0000   0.1619
  -7.700  -0.4769   0.07510   0.07263  -0.0373  1.0000  0.0207  -2.3051   0.0000   0.0000   0.0000   0.1666
  -7.600  -0.4844   0.07419   0.07172  -0.0363  1.0000  0.0207  -2.3302   0.0000   0.0000   0.0000   0.1701
  -7.500  -0.4771   0.07128   0.06875  -0.0399  0.9983  0.0207  -2.3655   0.0000   0.0000   0.0000   0.1614
  -7.400  -0.4712   0.06870   0.06612  -0.0427  0.9966  0.0207  -2.3973   0.0000   0.0000   0.0000   0.1544
  -7.300  -0.4654   0.06625   0.06360  -0.0451  0.9949  0.0208  -2.4261   0.0000   0.0000   0.0000   0.1480
  -7.200  -0.4591   0.06386   0.06114  -0.0475  0.9934  0.0208  -2.4523   0.0000   0.0000   0.0000   0.1416
  -7.100  -0.4524   0.06152   0.05872  -0.0496  0.9921  0.0208  -2.4755   0.0000   0.0000   0.0000   0.1353
  -7.000  -0.4473   0.05947   0.05659  -0.0510  0.9900  0.0208  -2.4950   0.0000   0.0000   0.0000   0.1311
  -6.900  -0.4412   0.05739   0.05443  -0.0524  0.9881  0.0208  -2.5118   0.0000   0.0000   0.0000   0.1262
  -6.800  -0.4548   0.04837   0.04515  -0.0565  0.9848  0.0219  -2.8428   0.0000   0.0000   0.0000   0.1207
  -6.700  -0.4477   0.04616   0.04287  -0.0580  0.9837  0.0223  -2.8261   0.0000   0.0000   0.0000   0.1154
  -6.600  -0.4406   0.04455   0.04118  -0.0588  0.9821  0.0227  -2.7932   0.0000   0.0000   0.0000   0.1115
  -6.500  -0.4341   0.04335   0.03995  -0.0591  0.9798  0.0230  -2.7465   0.0000   0.0000   0.0000   0.1089
  -6.400  -0.4257   0.04217   0.03872  -0.0596  0.9780  0.0233  -2.6917   0.0000   0.0000   0.0000   0.1049
  -6.300  -0.4164   0.04098   0.03747  -0.0604  0.9765  0.0237  -2.6377   0.0000   0.0000   0.0000   0.1000
  -6.200  -0.4065   0.03977   0.03620  -0.0611  0.9752  0.0241  -2.5859   0.0000   0.0000   0.0000   0.0946
  -6.100  -0.3962   0.03854   0.03490  -0.0619  0.9741  0.0245  -2.5370   0.0000   0.0000   0.0000   0.0886
  -6.000  -0.3855   0.03731   0.03359  -0.0627  0.9731  0.0250  -2.4916   0.0000   0.0000   0.0000   0.0822
  -5.900  -0.3743   0.03605   0.03224  -0.0636  0.9723  0.0256  -2.4496   0.0000   0.0000   0.0000   0.0751
  -5.800  -0.3627   0.03473   0.03077  -0.0644  0.9716  0.0263  -2.4112   0.0000   0.0000   0.0000   0.0673
  -5.700  -0.3504   0.03345   0.02939  -0.0652  0.9710  0.0271  -2.3758   0.0000   0.0000   0.0000   0.0587
  -5.600  -0.3463   0.03259   0.02844  -0.0641  0.9673  0.0277  -2.3570   0.0000   0.0000   0.0000   0.0596
  -5.500  -0.3371   0.03151   0.02725  -0.0641  0.9652  0.0284  -2.3329   0.0000   0.0000   0.0000   0.0547
  -5.300  -0.3180   0.02471   0.01967  -0.0627  0.9616  0.0177  -2.7592   0.0000   0.0000   0.0000   0.0469
  -5.200  -0.3091   0.01965   0.01382  -0.0612  0.9604  0.0122  -3.2389   0.0000   0.0000   0.0000   0.0458
  -5.100  -0.2951   0.01923   0.01333  -0.0617  0.9597  0.0118  -3.1619   0.0000   0.0000   0.0000   0.0348
  -5.000  -0.2811   0.01890   0.01294  -0.0622  0.9591  0.0115  -3.0691   0.0000   0.0000   0.0000   0.0224
  -4.900  -0.2672   0.01857   0.01257  -0.0627  0.9585  0.0113  -2.9740   0.0000   0.0000   0.0000   0.0087
  -4.600  -0.2258   0.01669   0.01046  -0.0643  0.9571  0.0108  -2.7719   0.0000   0.0000   0.0000  -0.0418
  -4.500  -0.2122   0.01576   0.00942  -0.0647  0.9567  0.0107  -2.7350   0.0000   0.0000   0.0000  -0.0623
  -4.400  -0.1983   0.01507   0.00865  -0.0653  0.9562  0.0107  -2.6742   0.0000   0.0000   0.0000  -0.0868
  -4.300  -0.1843   0.01451   0.00802  -0.0658  0.9558  0.0107  -2.6043   0.0000   0.0000   0.0000  -0.1152
  -4.200  -0.1829   0.01427   0.00776  -0.0638  0.9509  0.0108  -2.5692   0.0000   0.0000   0.0000  -0.1065
  -4.100  -0.1719   0.01390   0.00735  -0.0637  0.9491  0.0109  -2.5006   0.0000   0.0000   0.0000  -0.1285
  -4.000  -0.1606   0.01338   0.00678  -0.0637  0.9475  0.0110  -2.4505   0.0000   0.0000   0.0000  -0.1550
  -3.900  -0.1497   0.01269   0.00599  -0.0636  0.9460  0.0116  -2.4316   0.0000   0.0000   0.0000  -0.1839
  -3.800  -0.1377   0.01217   0.00537  -0.0637  0.9447  0.0130  -2.4035   0.0000   0.0000   0.0000  -0.2221
  -3.700  -0.1247   0.01185   0.00503  -0.0641  0.9437  0.0154  -2.3414   0.0000   0.0000   0.0000  -0.2735
  -3.600  -0.1111   0.01164   0.00483  -0.0645  0.9427  0.0183  -2.2529   0.0000   0.0000   0.0000  -0.3410
  -3.500  -0.0979   0.01133   0.00456  -0.0649  0.9417  0.0278  -2.1852   0.0000   0.0000   0.0000  -0.4245
  -3.400  -0.0847   0.01107   0.00441  -0.0654  0.9407  0.0466  -2.0905   0.0000   0.0000   0.0000  -0.5347
  -3.300  -0.0711   0.01091   0.00430  -0.0659  0.9399  0.0574  -1.9786   0.0000   0.0000   0.0000  -0.6914
  -3.200  -0.0574   0.01078   0.00420  -0.0665  0.9391  0.0660  -1.8637   0.0000   0.0000   0.0000  -0.9253
  -3.100  -0.0437   0.01066   0.00410  -0.0670  0.9382  0.0750  -1.7592   0.0000   0.0000   0.0000  -1.3052
  -3.000  -0.0353   0.01056   0.00405  -0.0665  0.9357  0.0849  -1.6961   0.0000   0.0000   0.0000  -1.6585
  -2.900  -0.0272   0.01046   0.00400  -0.0659  0.9326  0.0961  -1.6352   0.0000   0.0000   0.0000  -2.2084
  -2.800  -0.0170   0.01031   0.00392  -0.0657  0.9303  0.1135  -1.5704   0.0000   0.0000   0.0000  -3.6566
  -2.700  -0.0058   0.01018   0.00377  -0.0658  0.9282  0.1265  -1.5130   0.0000   0.0000   0.0000  -11.2030
  -2.600   0.0051   0.00992   0.00368  -0.0658  0.9264  0.1659  -1.4447   0.0000   0.0000   0.0000  13.3462
  -2.500   0.0150   0.00949   0.00357  -0.0659  0.9245  0.2451  -1.3807   0.0000   0.0000   0.0000   4.6762
  -2.400   0.0238   0.00886   0.00344  -0.0658  0.9228  0.3776  -1.3216   0.0000   0.0000   0.0000   3.0445
  -2.300   0.0306   0.00813   0.00337  -0.0652  0.9209  0.5446  -1.2679   0.0000   0.0000   0.0000   2.4002
  -2.200   0.0395   0.00781   0.00342  -0.0646  0.9193  0.6505  -1.2076   0.0000   0.0000   0.0000   1.9007
  -2.100   0.0504   0.00770   0.00345  -0.0643  0.9178  0.6946  -1.1424   0.0000   0.0000   0.0000   1.5367
  -2.000   0.0588   0.00767   0.00348  -0.0636  0.9151  0.7165  -1.0859   0.0000   0.0000   0.0000   1.3412
  -1.900   0.0676   0.00766   0.00347  -0.0630  0.9120  0.7277  -1.0291   0.0000   0.0000   0.0000   1.1893
  -1.800   0.0772   0.00762   0.00347  -0.0625  0.9093  0.7390  -0.9707   0.0000   0.0000   0.0000   1.0659
  -1.700   0.0878   0.00759   0.00344  -0.0623  0.9068  0.7503  -0.9104   0.0000   0.0000   0.0000   0.9638
  -1.600   0.0992   0.00758   0.00340  -0.0622  0.9045  0.7604  -0.8491   0.0000   0.0000   0.0000   0.8808
  -1.500   0.1101   0.00751   0.00339  -0.0619  0.9024  0.7708  -0.7895   0.0000   0.0000   0.0000   0.8153
  -1.400   0.1216   0.00747   0.00336  -0.0618  0.9003  0.7807  -0.7298   0.0000   0.0000   0.0000   0.7607
  -1.300   0.1334   0.00744   0.00331  -0.0617  0.8983  0.7888  -0.6701   0.0000   0.0000   0.0000   0.7149
  -1.200   0.1454   0.00743   0.00326  -0.0618  0.8963  0.7952  -0.6112   0.0000   0.0000   0.0000   0.6764
  -1.000   0.1655   0.00738   0.00327  -0.0609  0.8910  0.8097  -0.5055   0.0000   0.0000   0.0000   0.6193
  -0.900   0.1748   0.00737   0.00326  -0.0604  0.8877  0.8164  -0.4558   0.0000   0.0000   0.0000   0.5965
  -0.800   0.1849   0.00736   0.00324  -0.0601  0.8845  0.8228  -0.4050   0.0000   0.0000   0.0000   0.5755
  -0.700   0.1953   0.00734   0.00321  -0.0597  0.8814  0.8297  -0.4132   0.0000   0.0000   0.0000   0.5563
  -0.600   0.2052   0.00729   0.00320  -0.0592  0.8786  0.8386  -0.4222   0.0000   0.0000   0.0000   0.5387
  -0.500   0.2152   0.00727   0.00319  -0.0587  0.8758  0.8488  -0.4321   0.0000   0.0000   0.0000   0.5226
  -0.400   0.2255   0.00727   0.00318  -0.0583  0.8731  0.8580  -0.4432   0.0000   0.0000   0.0000   0.5081
  -0.300   0.2360   0.00723   0.00315  -0.0578  0.8705  0.8661  -0.4548   0.0000   0.0000   0.0000   0.4945
  -0.200   0.2456   0.00723   0.00316  -0.0572  0.8674  0.8732  -0.4659   0.0000   0.0000   0.0000   0.4826
  -0.100   0.2541   0.00722   0.00315  -0.0565  0.8637  0.8798  -0.4762   0.0000   0.0000   0.0000   0.4719
   0.000   0.2634   0.00721   0.00314  -0.0560  0.8599  0.8854  -0.4871   0.0000   0.0000   0.0000   0.4620
   0.100   0.2732   0.00716   0.00310  -0.0556  0.8562  0.8905  -0.4986   0.0000   0.0000   0.0000   0.4524
   0.200   0.2833   0.00712   0.00307  -0.0551  0.8526  0.8952  -0.5115   0.0000   0.0000   0.0000   0.4436
   0.300   0.2937   0.00709   0.00302  -0.0548  0.8492  0.8997  -0.5246   0.0000   0.0000   0.0000   0.4354
   0.400   0.3048   0.00707   0.00298  -0.0546  0.8459  0.9038  -0.5385   0.0000   0.0000   0.0000   0.4280
   0.500   0.3163   0.00706   0.00293  -0.0546  0.8424  0.9077  -0.5543   0.0000   0.0000   0.0000   0.4212
   0.600   0.3261   0.00704   0.00291  -0.0542  0.8386  0.9116  -0.5688   0.0000   0.0000   0.0000   0.4149
   0.700   0.3359   0.00700   0.00289  -0.0538  0.8342  0.9153  -0.5834   0.0000   0.0000   0.0000   0.4087
   0.800   0.3459   0.00697   0.00287  -0.0535  0.8294  0.9192  -0.5983   0.0000   0.0000   0.0000   0.4029
   0.900   0.3563   0.00694   0.00283  -0.0531  0.8246  0.9233  -0.6138   0.0000   0.0000   0.0000   0.3974
   1.000   0.3671   0.00691   0.00278  -0.0529  0.8200  0.9274  -0.6317   0.0000   0.0000   0.0000   0.3924
   1.100   0.3782   0.00689   0.00273  -0.0528  0.8158  0.9314  -0.6499   0.0000   0.0000   0.0000   0.3877
   1.200   0.3900   0.00688   0.00270  -0.0528  0.8116  0.9347  -0.6686   0.0000   0.0000   0.0000   0.3835
   1.300   0.4010   0.00686   0.00270  -0.0528  0.8071  0.9382  -0.6868   0.0000   0.0000   0.0000   0.3795
   1.400   0.4124   0.00684   0.00270  -0.0527  0.8018  0.9420  -0.7054   0.0000   0.0000   0.0000   0.3757
   1.500   0.4237   0.00683   0.00268  -0.0527  0.7960  0.9463  -0.7242   0.0000   0.0000   0.0000   0.3721
   1.600   0.4350   0.00681   0.00264  -0.0526  0.7901  0.9509  -0.7430   0.0000   0.0000   0.0000   0.3686
   1.700   0.4479   0.00680   0.00259  -0.0529  0.7841  0.9544  -0.7633   0.0000   0.0000   0.0000   0.3656
   1.800   0.4618   0.00680   0.00258  -0.0534  0.7780  0.9573  -0.7845   0.0000   0.0000   0.0000   0.3631
   1.900   0.4752   0.00680   0.00259  -0.0538  0.7709  0.9607  -0.8077   0.0000   0.0000   0.0000   0.3608
   2.000   0.4882   0.00679   0.00257  -0.0542  0.7629  0.9644  -0.8344   0.0000   0.0000   0.0000   0.3584
   2.100   0.5008   0.00680   0.00253  -0.0544  0.7548  0.9684  -0.8621   0.0000   0.0000   0.0000   0.3560
   2.200   0.5151   0.00682   0.00254  -0.0551  0.7468  0.9709  -0.8922   0.0000   0.0000   0.0000   0.3541
   2.300   0.5298   0.00682   0.00254  -0.0558  0.7375  0.9733  -0.9228   0.0000   0.0000   0.0000   0.3525
   2.400   0.5441   0.00685   0.00252  -0.0565  0.7264  0.9760  -0.9531   0.0000   0.0000   0.0000   0.3509
   2.500   0.5578   0.00689   0.00249  -0.0570  0.7154  0.9790  -0.9831   0.0000   0.0000   0.0000   0.3492
   2.600   0.5715   0.00691   0.00251  -0.0576  0.7048  0.9826  -1.0130   0.0000   0.0000   0.0000   0.3476
   2.700   0.5871   0.00696   0.00251  -0.0585  0.6924  0.9845  -1.0454   0.0000   0.0000   0.0000   0.3465
   2.800   0.6021   0.00702   0.00250  -0.0594  0.6800  0.9867  -1.0775   0.0000   0.0000   0.0000   0.3454
   2.900   0.6171   0.00706   0.00252  -0.0602  0.6672  0.9895  -1.1098   0.0000   0.0000   0.0000   0.3443
   3.000   0.6313   0.00714   0.00252  -0.0609  0.6515  0.9924  -1.1413   0.0000   0.0000   0.0000   0.3432
   3.100   0.6463   0.00722   0.00254  -0.0618  0.6352  0.9948  -1.1741   0.0000   0.0000   0.0000   0.3422
   3.200   0.6605   0.00734   0.00255  -0.0626  0.6141  0.9977  -1.2060   0.0000   0.0000   0.0000   0.3412
   3.300   0.6733   0.00745   0.00258  -0.0631  0.5930  1.0000  -1.2413   0.0000   0.0000   0.0000   0.3400
   3.400   0.6777   0.00758   0.00260  -0.0618  0.5735  1.0000  -1.2645   0.0000   0.0000   0.0000   0.3375
   3.500   0.6835   0.00768   0.00263  -0.0608  0.5554  1.0000  -1.2901   0.0000   0.0000   0.0000   0.3352
   3.700   0.6952   0.00795   0.00272  -0.0589  0.5177  1.0000  -1.3418   0.0000   0.0000   0.0000   0.3307
   3.900   0.7083   0.00825   0.00284  -0.0572  0.4807  1.0000  -1.3963   0.0000   0.0000   0.0000   0.3266
   4.000   0.7149   0.00843   0.00291  -0.0563  0.4621  1.0000  -1.4237   0.0000   0.0000   0.0000   0.3246
   4.100   0.7228   0.00856   0.00298  -0.0558  0.4459  1.0000  -1.4535   0.0000   0.0000   0.0000   0.3228
   4.200   0.7300   0.00874   0.00306  -0.0550  0.4273  1.0000  -1.4821   0.0000   0.0000   0.0000   0.3210
   4.300   0.7381   0.00888   0.00314  -0.0545  0.4113  1.0000  -1.5125   0.0000   0.0000   0.0000   0.3193
   4.400   0.7457   0.00906   0.00323  -0.0539  0.3931  1.0000  -1.5422   0.0000   0.0000   0.0000   0.3177
   4.500   0.7539   0.00922   0.00332  -0.0534  0.3770  1.0000  -1.5729   0.0000   0.0000   0.0000   0.3161
   4.600   0.7618   0.00940   0.00342  -0.0528  0.3589  1.0000  -1.6033   0.0000   0.0000   0.0000   0.3146
   4.700   0.7699   0.00958   0.00351  -0.0523  0.3422  1.0000  -1.6342   0.0000   0.0000   0.0000   0.3131
   4.800   0.7780   0.00977   0.00362  -0.0519  0.3246  1.0000  -1.6653   0.0000   0.0000   0.0000   0.3117
   4.900   0.7862   0.00997   0.00384  -0.0514  0.3075  1.0000  -1.7128   0.0000   0.0000   0.0000   0.3103
   5.000   0.7946   0.01015   0.00395  -0.0509  0.2914  1.0000  -1.7621   0.0000   0.0000   0.0000   0.3089
   5.100   0.8028   0.01035   0.00406  -0.0505  0.2762  1.0000  -1.8108   0.0000   0.0000   0.0000   0.3076
   5.200   0.8117   0.01050   0.00417  -0.0501  0.2629  1.0000  -1.8614   0.0000   0.0000   0.0000   0.3064
   5.300   0.8198   0.01072   0.00430  -0.0497  0.2487  1.0000  -1.9101   0.0000   0.0000   0.0000   0.3051
   5.400   0.8291   0.01086   0.00440  -0.0494  0.2385  1.0000  -1.9623   0.0000   0.0000   0.0000   0.3040
   5.500   0.8378   0.01103   0.00452  -0.0490  0.2268  1.0000  -2.0133   0.0000   0.0000   0.0000   0.3029
   5.600   0.8463   0.01124   0.00466  -0.0486  0.2147  1.0000  -2.0635   0.0000   0.0000   0.0000   0.3017
   5.700   0.8557   0.01137   0.00477  -0.0484  0.2062  1.0000  -2.1171   0.0000   0.0000   0.0000   0.3007
   5.800   0.8644   0.01156   0.00490  -0.0480  0.1963  1.0000  -2.1691   0.0000   0.0000   0.0000   0.2996
   5.900   0.8728   0.01177   0.00505  -0.0476  0.1854  1.0000  -2.2202   0.0000   0.0000   0.0000   0.2985
   6.000   0.8824   0.01189   0.00517  -0.0474  0.1790  1.0000  -2.2751   0.0000   0.0000   0.0000   0.2975
   6.100   0.8914   0.01206   0.00530  -0.0471  0.1710  1.0000  -2.3289   0.0000   0.0000   0.0000   0.2965
   6.200   0.8997   0.01229   0.00546  -0.0467  0.1620  1.0000  -2.3808   0.0000   0.0000   0.0000   0.2955
   6.300   0.9089   0.01245   0.00561  -0.0464  0.1554  1.0000  -2.4353   0.0000   0.0000   0.0000   0.2945
   6.400   0.9183   0.01258   0.00574  -0.0461  0.1500  1.0000  -2.4912   0.0000   0.0000   0.0000   0.2936
   6.500   0.9272   0.01277   0.00588  -0.0458  0.1436  1.0000  -2.5460   0.0000   0.0000   0.0000   0.2927
   6.600   0.9353   0.01301   0.00607  -0.0454  0.1358  1.0000  -2.5985   0.0000   0.0000   0.0000   0.2917
   6.700   0.9443   0.01319   0.00624  -0.0450  0.1301  1.0000  -2.6535   0.0000   0.0000   0.0000   0.2908
   6.800   0.9538   0.01331   0.00636  -0.0448  0.1256  1.0000  -2.7118   0.0000   0.0000   0.0000   0.2900
   6.900   0.9628   0.01348   0.00650  -0.0445  0.1198  1.0000  -2.7686   0.0000   0.0000   0.0000   0.2891
   7.000   0.9710   0.01373   0.00668  -0.0441  0.1131  1.0000  -2.8230   0.0000   0.0000   0.0000   0.2882
   7.100   0.9792   0.01397   0.00690  -0.0437  0.1073  1.0000  -2.8764   0.0000   0.0000   0.0000   0.2873
   7.200   0.9889   0.01407   0.00702  -0.0435  0.1046  1.0000  -2.9369   0.0000   0.0000   0.0000   0.2865
   7.300   0.9982   0.01421   0.00717  -0.0432  0.1012  1.0000  -2.9958   0.0000   0.0000   0.0000   0.2857
   7.400   1.0068   0.01442   0.00743  -0.0429  0.0968  1.0000  -3.0517   0.0000   0.0000   0.0000   0.2849
   7.500   1.0151   0.01466   0.00763  -0.0425  0.0927  1.0000  -3.1074   0.0000   0.0000   0.0000   0.2840
   7.600   1.0222   0.01500   0.00794  -0.0419  0.0877  1.0000  -3.1573   0.0000   0.0000   0.0000   0.2830
   7.700   1.0310   0.01518   0.00815  -0.0415  0.0855  1.0000  -3.2144   0.0000   0.0000   0.0000   0.2822
   7.800   1.0405   0.01530   0.00829  -0.0413  0.0840  1.0000  -3.2758   0.0000   0.0000   0.0000   0.2815
   7.900   1.0498   0.01543   0.00846  -0.0410  0.0820  1.0000  -3.3364   0.0000   0.0000   0.0000   0.2808
   8.000   1.0588   0.01559   0.00863  -0.0408  0.0797  1.0000  -3.3964   0.0000   0.0000   0.0000   0.2801
   8.100   1.0675   0.01577   0.00881  -0.0404  0.0772  1.0000  -3.4558   0.0000   0.0000   0.0000   0.2793
   8.200   1.0759   0.01598   0.00900  -0.0401  0.0746  1.0000  -3.5201   0.0000   0.0000   0.0000   0.2786
   8.300   1.0835   0.01627   0.00926  -0.0396  0.0715  1.0000  -3.5893   0.0000   0.0000   0.0000   0.2777
   8.400   1.0891   0.01673   0.00973  -0.0387  0.0676  1.0000  -3.6468   0.0000   0.0000   0.0000   0.2766
   8.500   1.0980   0.01689   0.00992  -0.0384  0.0663  1.0000  -3.7230   0.0000   0.0000   0.0000   0.2759
   8.600   1.1074   0.01699   0.01005  -0.0382  0.0651  1.0000  -3.8039   0.0000   0.0000   0.0000   0.2753
   8.700   1.1166   0.01712   0.01021  -0.0380  0.0635  1.0000  -3.8836   0.0000   0.0000   0.0000   0.2747
   8.800   1.1255   0.01727   0.01038  -0.0377  0.0615  1.0000  -3.9630   0.0000   0.0000   0.0000   0.2740
   8.900   1.1341   0.01744   0.01055  -0.0374  0.0593  1.0000  -4.0527   0.0000   0.0000   0.0000   0.2733
   9.000   1.1422   0.01765   0.01074  -0.0370  0.0569  1.0000  -4.1544   0.0000   0.0000   0.0000   0.2726
   9.100   1.1490   0.01798   0.01104  -0.0364  0.0540  1.0000  -4.2476   0.0000   0.0000   0.0000   0.2718
   9.200   1.1521   0.01865   0.01172  -0.0352  0.0501  1.0000  -4.3111   0.0000   0.0000   0.0000   0.2706
   9.300   1.1618   0.01870   0.01181  -0.0350  0.0493  1.0000  -4.4259   0.0000   0.0000   0.0000   0.2700
   9.400   1.1709   0.01882   0.01195  -0.0348  0.0481  1.0000  -4.5370   0.0000   0.0000   0.0000   0.2694
   9.500   1.1794   0.01897   0.01214  -0.0345  0.0464  1.0000  -4.6454   0.0000   0.0000   0.0000   0.2688
   9.600   1.1878   0.01914   0.01232  -0.0341  0.0444  1.0000  -4.7544   0.0000   0.0000   0.0000   0.2682
   9.700   1.1958   0.01933   0.01250  -0.0337  0.0424  1.0000  -4.8633   0.0000   0.0000   0.0000   0.2675
   9.800   1.2028   0.01960   0.01273  -0.0332  0.0401  1.0000  -4.9665   0.0000   0.0000   0.0000   0.2668
   9.900   1.2062   0.02012   0.01325  -0.0321  0.0373  1.0000  -5.0404   0.0000   0.0000   0.0000   0.2656
  10.000   1.2095   0.02065   0.01381  -0.0310  0.0354  1.0000  -5.1133   0.0000   0.0000   0.0000   0.2645
  10.100   1.2251   0.02017   0.01335  -0.0319  0.0341  1.0000  -5.3127   0.0000   0.0000   0.0000   0.2648
  10.200   1.2345   0.02021   0.01339  -0.0317  0.0325  1.0000  -5.4454   0.0000   0.0000   0.0000   0.2643
  10.300   1.2425   0.02035   0.01353  -0.0314  0.0308  1.0000  -5.5675   0.0000   0.0000   0.0000   0.2637
  10.400   1.2497   0.02056   0.01371  -0.0309  0.0292  1.0000  -5.6830   0.0000   0.0000   0.0000   0.2630
  10.500   1.2562   0.02082   0.01395  -0.0304  0.0277  1.0000  -5.7931   0.0000   0.0000   0.0000   0.2623
  10.600   1.2620   0.02114   0.01427  -0.0297  0.0262  1.0000  -5.8960   0.0000   0.0000   0.0000   0.2615
  10.700   1.2667   0.02153   0.01468  -0.0288  0.0249  1.0000  -5.9891   0.0000   0.0000   0.0000   0.2606
  10.800   1.2702   0.02201   0.01520  -0.0277  0.0239  1.0000  -6.0709   0.0000   0.0000   0.0000   0.2595
  10.900   1.2763   0.02228   0.01550  -0.0271  0.0235  1.0000  -6.1779   0.0000   0.0000   0.0000   0.2588
  11.000   1.2829   0.02252   0.01577  -0.0265  0.0233  1.0000  -6.2901   0.0000   0.0000   0.0000   0.2581
  11.100   1.2893   0.02278   0.01606  -0.0260  0.0230  1.0000  -6.4016   0.0000   0.0000   0.0000   0.2574
  11.200   1.2955   0.02304   0.01637  -0.0254  0.0228  1.0000  -6.5121   0.0000   0.0000   0.0000   0.2567
  11.300   1.3015   0.02332   0.01669  -0.0247  0.0224  1.0000  -6.6220   0.0000   0.0000   0.0000   0.2559
  11.400   1.3073   0.02361   0.01702  -0.0241  0.0221  1.0000  -6.7314   0.0000   0.0000   0.0000   0.2552
  11.500   1.3130   0.02391   0.01736  -0.0235  0.0217  1.0000  -6.8406   0.0000   0.0000   0.0000   0.2545
  11.600   1.3185   0.02422   0.01771  -0.0228  0.0214  1.0000  -6.9498   0.0000   0.0000   0.0000   0.2538
  11.700   1.3240   0.02454   0.01806  -0.0222  0.0210  1.0000  -7.0585   0.0000   0.0000   0.0000   0.2531
  11.800   1.3292   0.02487   0.01842  -0.0216  0.0206  1.0000  -7.1672   0.0000   0.0000   0.0000   0.2523
  11.900   1.3344   0.02520   0.01879  -0.0209  0.0203  1.0000  -7.2761   0.0000   0.0000   0.0000   0.2516
  12.000   1.3395   0.02554   0.01917  -0.0203  0.0199  1.0000  -7.3852   0.0000   0.0000   0.0000   0.2509
  12.100   1.3445   0.02589   0.01956  -0.0196  0.0195  1.0000  -7.4941   0.0000   0.0000   0.0000   0.2502
  12.200   1.3493   0.02626   0.01996  -0.0190  0.0191  1.0000  -7.6021   0.0000   0.0000   0.0000   0.2495
  12.300   1.3539   0.02664   0.02037  -0.0184  0.0188  1.0000  -7.7099   0.0000   0.0000   0.0000   0.2489
  12.400   1.3584   0.02703   0.02079  -0.0177  0.0184  1.0000  -7.8172   0.0000   0.0000   0.0000   0.2482
  12.500   1.3627   0.02744   0.02122  -0.0171  0.0180  1.0000  -7.9236   0.0000   0.0000   0.0000   0.2475
  12.600   1.3666   0.02787   0.02168  -0.0164  0.0177  1.0000  -8.0281   0.0000   0.0000   0.0000   0.2468
  12.700   1.3704   0.02832   0.02216  -0.0157  0.0173  1.0000  -8.1309   0.0000   0.0000   0.0000   0.2461
  12.800   1.3739   0.02880   0.02268  -0.0151  0.0169  1.0000  -8.2317   0.0000   0.0000   0.0000   0.2454
  12.900   1.3770   0.02932   0.02323  -0.0144  0.0165  1.0000  -8.3294   0.0000   0.0000   0.0000   0.2447
  13.000   1.3795   0.02989   0.02384  -0.0137  0.0161  1.0000  -8.4214   0.0000   0.0000   0.0000   0.2440
  13.100   1.3815   0.03051   0.02450  -0.0129  0.0157  1.0000  -8.5081   0.0000   0.0000   0.0000   0.2433
  13.200   1.3829   0.03118   0.02529  -0.0122  0.0155  1.0000  -8.5802   0.0000   0.0000   0.0000   0.2425
  13.300   1.3837   0.03191   0.02608  -0.0114  0.0152  1.0000  -8.6489   0.0000   0.0000   0.0000   0.2418
  13.400   1.3836   0.03271   0.02694  -0.0106  0.0149  1.0000  -8.7140   0.0000   0.0000   0.0000   0.2410
  13.500   1.3827   0.03358   0.02788  -0.0098  0.0145  1.0000  -8.7724   0.0000   0.0000   0.0000   0.2402
  13.600   1.3810   0.03455   0.02892  -0.0089  0.0142  1.0000  -8.8221   0.0000   0.0000   0.0000   0.2395
  13.700   1.3846   0.03507   0.02947  -0.0085  0.0142  1.0000  -8.9285   0.0000   0.0000   0.0000   0.2390
  13.800   1.3885   0.03556   0.03001  -0.0081  0.0141  1.0000  -9.0404   0.0000   0.0000   0.0000   0.2385
  13.900   1.3927   0.03605   0.03053  -0.0078  0.0140  1.0000  -9.1671   0.0000   0.0000   0.0000   0.2380
  14.000   1.3970   0.03653   0.03105  -0.0075  0.0138  1.0000  -9.3071   0.0000   0.0000   0.0000   0.2376
  14.100   1.4012   0.03702   0.03159  -0.0072  0.0137  1.0000  -9.4468   0.0000   0.0000   0.0000   0.2372
  14.200   1.4050   0.03754   0.03216  -0.0069  0.0135  1.0000  -9.5834   0.0000   0.0000   0.0000   0.2368
  14.300   1.4086   0.03810   0.03276  -0.0066  0.0133  1.0000  -9.7170   0.0000   0.0000   0.0000   0.2363
  14.400   1.4118   0.03871   0.03342  -0.0063  0.0130  1.0000  -9.8462   0.0000   0.0000   0.0000   0.2359
  14.500   1.4146   0.03936   0.03411  -0.0060  0.0128  1.0000  -9.9713   0.0000   0.0000   0.0000   0.2355
  14.600   1.4171   0.04005   0.03485  -0.0058  0.0125  1.0000  -10.0927   0.0000   0.0000   0.0000   0.2351
  14.700   1.4191   0.04080   0.03565  -0.0055  0.0122  1.0000  -10.2088   0.0000   0.0000   0.0000   0.2347
  14.800   1.4210   0.04156   0.03646  -0.0053  0.0119  1.0000  -10.3242   0.0000   0.0000   0.0000   0.2343
  14.900   1.4230   0.04233   0.03728  -0.0051  0.0115  1.0000  -10.4406   0.0000   0.0000   0.0000   0.2340
  15.000   1.4248   0.04313   0.03812  -0.0049  0.0112  1.0000  -10.5556   0.0000   0.0000   0.0000   0.2337
  15.100   1.4260   0.04400   0.03904  -0.0048  0.0108  1.0000  -10.6639   0.0000   0.0000   0.0000   0.2333
  15.200   1.4270   0.04490   0.03998  -0.0047  0.0104  1.0000  -10.7694   0.0000   0.0000   0.0000   0.2331
  15.300   1.4277   0.04584   0.04095  -0.0046  0.0100  1.0000  -10.8715   0.0000   0.0000   0.0000   0.2328
  15.400   1.4278   0.04685   0.04199  -0.0045  0.0096  1.0000  -10.9672   0.0000   0.0000   0.0000   0.2325
  15.500   1.4271   0.04798   0.04316  -0.0045  0.0092  1.0000  -11.0520   0.0000   0.0000   0.0000   0.2323
  15.600   1.4262   0.04917   0.04437  -0.0046  0.0088  1.0000  -11.1335   0.0000   0.0000   0.0000   0.2321
  15.700   1.4247   0.05046   0.04570  -0.0047  0.0084  1.0000  -11.2065   0.0000   0.0000   0.0000   0.2320
  15.800   1.4218   0.05196   0.04725  -0.0049  0.0081  1.0000  -11.2607   0.0000   0.0000   0.0000   0.2319
  15.900   1.4185   0.05356   0.04890  -0.0052  0.0077  1.0000  -11.3062   0.0000   0.0000   0.0000   0.2319
  16.000   1.4140   0.05537   0.05077  -0.0056  0.0074  1.0000  -11.3347   0.0000   0.0000   0.0000   0.2320
  16.100   1.4090   0.05730   0.05275  -0.0061  0.0071  1.0000  -11.3542   0.0000   0.0000   0.0000   0.2321
  16.200   1.4075   0.05879   0.05430  -0.0065  0.0070  1.0000  -11.4212   0.0000   0.0000   0.0000   0.2322
  16.300   1.4045   0.06053   0.05610  -0.0071  0.0068  1.0000  -11.4684   0.0000   0.0000   0.0000   0.2324
  16.400   1.4017   0.06228   0.05792  -0.0077  0.0067  1.0000  -11.5148   0.0000   0.0000   0.0000   0.2326
  16.500   1.3980   0.06420   0.05990  -0.0085  0.0065  1.0000  -11.5495   0.0000   0.0000   0.0000   0.2329
  16.600   1.3936   0.06628   0.06205  -0.0093  0.0063  1.0000  -11.5719   0.0000   0.0000   0.0000   0.2333
  16.700   1.3890   0.06843   0.06426  -0.0103  0.0061  1.0000  -11.5896   0.0000   0.0000   0.0000   0.2338
  16.800   1.3831   0.07086   0.06676  -0.0114  0.0060  1.0000  -11.5867   0.0000   0.0000   0.0000   0.2344
  16.900   1.3774   0.07326   0.06923  -0.0125  0.0059  1.0000  -11.5856   0.0000   0.0000   0.0000   0.2350
  17.000   1.3703   0.07599   0.07202  -0.0139  0.0058  1.0000  -11.5628   0.0000   0.0000   0.0000   0.2358
  17.100   1.3636   0.07866   0.07476  -0.0153  0.0057  1.0000  -11.5427   0.0000   0.0000   0.0000   0.2366
  17.200   1.3555   0.08167   0.07784  -0.0169  0.0057  1.0000  -11.4995   0.0000   0.0000   0.0000   0.2377
  17.300   1.3477   0.08461   0.08085  -0.0184  0.0056  1.0000  -11.4584   0.0000   0.0000   0.0000   0.2387
  17.400   1.3383   0.08785   0.08417  -0.0202  0.0057  1.0000  -11.3917   0.0000   0.0000   0.0000   0.2398
  17.500   1.3291   0.09109   0.08748  -0.0219  0.0057  1.0000  -11.3249   0.0000   0.0000   0.0000   0.2411
  17.600   1.3190   0.09459   0.09106  -0.0238  0.0058  1.0000  -11.2405   0.0000   0.0000   0.0000   0.2424
  17.700   1.3085   0.09822   0.09476  -0.0258  0.0059  1.0000  -11.1467   0.0000   0.0000   0.0000   0.2439
  17.800   1.2978   0.10194   0.09856  -0.0279  0.0061  1.0000  -11.0453   0.0000   0.0000   0.0000   0.2455
  17.900   1.2853   0.10611   0.10281  -0.0302  0.0063  1.0000  -10.9085   0.0000   0.0000   0.0000   0.2473
  18.000   1.2735   0.11013   0.10690  -0.0324  0.0064  1.0000  -10.7806   0.0000   0.0000   0.0000   0.2491
  18.100   1.2583   0.11497   0.11181  -0.0352  0.0067  1.0000  -10.5875   0.0000   0.0000   0.0000   0.2514
  18.200   1.2436   0.11970   0.11662  -0.0379  0.0069  1.0000  -10.3962   0.0000   0.0000   0.0000   0.2538
  18.300   1.2248   0.12541   0.12239  -0.0411  0.0071  1.0000  -10.1220   0.0000   0.0000   0.0000   0.2568
  18.500   1.2062   0.13283   0.12995  -0.0454  0.0075  1.0000  -9.9010   0.0000   0.0000   0.0000   0.2606
  18.600   1.1975   0.13642   0.13359  -0.0474  0.0076  1.0000  -9.7937   0.0000   0.0000   0.0000   0.2624
  18.700   1.1878   0.14029   0.13752  -0.0497  0.0078  1.0000  -9.6628   0.0000   0.0000   0.0000   0.2645
  18.800   1.1786   0.14410   0.14138  -0.0519  0.0080  1.0000  -9.5338   0.0000   0.0000   0.0000   0.2666
  18.900   1.1699   0.14778   0.14512  -0.0540  0.0081  1.0000  -9.4112   0.0000   0.0000   0.0000   0.2686
  19.000   1.1598   0.15188   0.14928  -0.0564  0.0083  1.0000  -9.2511   0.0000   0.0000   0.0000   0.2710
  19.100   1.1497   0.15601   0.15348  -0.0588  0.0085  1.0000  -9.0844   0.0000   0.0000   0.0000   0.2734
  19.200   1.1402   0.16005   0.15758  -0.0612  0.0086  1.0000  -8.9223   0.0000   0.0000   0.0000   0.2759
  19.300   1.1229   0.16598   0.16361  -0.0648  0.0091  1.0000  -8.5735   0.0000   0.0000   0.0000   0.2799
  20.600   0.9616   0.25486   0.25251  -0.1049  0.0053  1.0000  -3.3234   0.0000   0.0000   0.0000   0.3345
  20.700   0.9610   0.25866   0.25629  -0.1061  0.0049  1.0000  -3.1771   0.0000   0.0000   0.0000   0.3358
  20.800   0.9612   0.26187   0.25949  -0.1071  0.0046  1.0000  -3.0774   0.0000   0.0000   0.0000   0.3368
  20.900   0.9619   0.26481   0.26243  -0.1081  0.0044  1.0000  -2.9997   0.0000   0.0000   0.0000   0.3377
  21.000   0.9627   0.26762   0.26524  -0.1091  0.0042  1.0000  -2.9330   0.0000   0.0000   0.0000   0.3385
  21.100   0.9636   0.27040   0.26802  -0.1100  0.0041  1.0000  -2.8698   0.0000   0.0000   0.0000   0.3392
  21.200   0.9644   0.27322   0.27083  -0.1110  0.0040  1.0000  -2.8143   0.0000   0.0000   0.0000   0.3400
  21.300   0.9653   0.27611   0.27372  -0.1119  0.0040  1.0000  -2.7528   0.0000   0.0000   0.0000   0.3408
  21.400   0.9660   0.27915   0.27675  -0.1128  0.0040  1.0000  -2.6794   0.0000   0.0000   0.0000   0.3416
  21.500   0.9666   0.28228   0.27988  -0.1137  0.0040  1.0000  -2.5982   0.0000   0.0000   0.0000   0.3424
  21.600   0.9673   0.28546   0.28305  -0.1147  0.0041  1.0000  -2.5135   0.0000   0.0000   0.0000   0.3431
  21.700   0.9680   0.28860   0.28619  -0.1156  0.0043  1.0000  -2.4318   0.0000   0.0000   0.0000   0.3439
  21.800   0.9688   0.29165   0.28923  -0.1164  0.0045  1.0000  -2.3580   0.0000   0.0000   0.0000   0.3446
  21.900   0.9697   0.29457   0.29215  -0.1173  0.0047  1.0000  -2.2945   0.0000   0.0000   0.0000   0.3452
  22.000   0.9708   0.29735   0.29493  -0.1181  0.0049  1.0000  -2.2418   0.0000   0.0000   0.0000   0.3458
  22.100   0.9719   0.29999   0.29757  -0.1189  0.0052  1.0000  -2.2000   0.0000   0.0000   0.0000   0.3464
  22.200   0.9731   0.30250   0.30007  -0.1196  0.0054  1.0000  -2.1691   0.0000   0.0000   0.0000   0.3468
  22.300   0.9743   0.30486   0.30243  -0.1203  0.0057  1.0000  -2.1499   0.0000   0.0000   0.0000   0.3473
  22.400   0.9755   0.30705   0.30463  -0.1210  0.0060  1.0000  -2.1437   0.0000   0.0000   0.0000   0.3476
  22.500   0.9766   0.30903   0.30661  -0.1215  0.0064  1.0000  -2.1578   0.0000   0.0000   0.0000   0.3478
  22.600   0.9749   0.31268   0.31026  -0.1214  0.0071  1.0000  -2.1150   0.0000   0.0000   0.0000   0.3477
  22.700   0.9761   0.31512   0.31270  -0.1221  0.0071  1.0000  -2.1007   0.0000   0.0000   0.0000   0.3481
  22.800   0.9772   0.31755   0.31513  -0.1228  0.0071  1.0000  -2.0871   0.0000   0.0000   0.0000   0.3485
  22.900   0.9784   0.31996   0.31755  -0.1235  0.0071  1.0000  -2.0738   0.0000   0.0000   0.0000   0.3489
  23.000   0.9795   0.32238   0.31997  -0.1241  0.0071  1.0000  -2.0609   0.0000   0.0000   0.0000   0.3493
  23.100   0.9806   0.32478   0.32238  -0.1248  0.0071  1.0000  -2.0483   0.0000   0.0000   0.0000   0.3497
  23.200   0.9816   0.32719   0.32478  -0.1255  0.0071  1.0000  -2.0358   0.0000   0.0000   0.0000   0.3501
  23.300   0.9826   0.32959   0.32719  -0.1262  0.0071  1.0000  -2.0236   0.0000   0.0000   0.0000   0.3505
  23.400   0.9835   0.33198   0.32959  -0.1268  0.0071  1.0000  -2.0115   0.0000   0.0000   0.0000   0.3509
  23.500   0.9844   0.33437   0.33198  -0.1275  0.0071  1.0000  -1.9995   0.0000   0.0000   0.0000   0.3512
  23.600   0.9852   0.33676   0.33437  -0.1281  0.0071  1.0000  -1.9876   0.0000   0.0000   0.0000   0.3516
  23.700   0.9859   0.33915   0.33676  -0.1287  0.0071  1.0000  -1.9758   0.0000   0.0000   0.0000   0.3520
  23.800   0.9865   0.34153   0.33914  -0.1294  0.0071  1.0000  -1.9640   0.0000   0.0000   0.0000   0.3524
  23.900   0.9871   0.34390   0.34152  -0.1300  0.0071  1.0000  -1.9523   0.0000   0.0000   0.0000   0.3528
  24.000   0.9875   0.34627   0.34389  -0.1306  0.0071  1.0000  -1.9405   0.0000   0.0000   0.0000   0.3532
  24.100   0.9879   0.34862   0.34625  -0.1312  0.0071  1.0000  -1.9287   0.0000   0.0000   0.0000   0.3536
  24.200   0.9881   0.35097   0.34861  -0.1318  0.0071  1.0000  -1.9168   0.0000   0.0000   0.0000   0.3540
  24.300   0.9882   0.35331   0.35095  -0.1323  0.0071  1.0000  -1.9047   0.0000   0.0000   0.0000   0.3544
  24.400   0.9882   0.35563   0.35327  -0.1329  0.0071  1.0000  -1.8925   0.0000   0.0000   0.0000   0.3548
  24.500   0.9879   0.35793   0.35558  -0.1334  0.0071  1.0000  -1.8800   0.0000   0.0000   0.0000   0.3552
  24.600   0.9875   0.36021   0.35787  -0.1339  0.0071  1.0000  -1.8672   0.0000   0.0000   0.0000   0.3556
  24.700   0.9868   0.36246   0.36013  -0.1343  0.0071  1.0000  -1.8540   0.0000   0.0000   0.0000   0.3560
  24.800   0.9859   0.36468   0.36234  -0.1347  0.0071  1.0000  -1.8402   0.0000   0.0000   0.0000   0.3565
  24.900   0.9845   0.36684   0.36451  -0.1351  0.0071  1.0000  -1.8256   0.0000   0.0000   0.0000   0.3569
  25.000   0.9826   0.36893   0.36661  -0.1354  0.0071  1.0000  -1.8099   0.0000   0.0000   0.0000   0.3573
  25.100   0.9800   0.37090   0.36860  -0.1356  0.0071  1.0000  -1.7924   0.0000   0.0000   0.0000   0.3578
  25.200   0.9761   0.37269   0.37039  -0.1356  0.0071  1.0000  -1.7718   0.0000   0.0000   0.0000   0.3583
  25.500   0.8487   0.34332   0.34125  -0.1197  0.0071  1.0000  -1.4274   0.0000   0.0000   0.0000   0.3632
  25.600   0.8452   0.34326   0.34121  -0.1197  0.0071  1.0000  -1.4095   0.0000   0.0000   0.0000   0.3637
  25.700   0.8421   0.34328   0.34123  -0.1197  0.0071  1.0000  -1.3925   0.0000   0.0000   0.0000   0.3642
  25.800   0.8393   0.34334   0.34130  -0.1198  0.0071  1.0000  -1.3762   0.0000   0.0000   0.0000   0.3647
  25.900   0.8366   0.34344   0.34141  -0.1199  0.0070  1.0000  -1.3607   0.0000   0.0000   0.0000   0.3652
  26.000   0.8342   0.34358   0.34156  -0.1200  0.0070  1.0000  -1.3457   0.0000   0.0000   0.0000   0.3657
  26.100   0.8319   0.34375   0.34174  -0.1201  0.0070  1.0000  -1.3313   0.0000   0.0000   0.0000   0.3662
  26.200   0.8298   0.34394   0.34194  -0.1203  0.0070  1.0000  -1.3174   0.0000   0.0000   0.0000   0.3666
  26.300   0.8278   0.34416   0.34217  -0.1205  0.0070  1.0000  -1.3039   0.0000   0.0000   0.0000   0.3671
  26.400   0.8259   0.34440   0.34241  -0.1207  0.0070  1.0000  -1.2909   0.0000   0.0000   0.0000   0.3676
  26.500   0.8242   0.34466   0.34268  -0.1209  0.0070  1.0000  -1.2780   0.0000   0.0000   0.0000   0.3681
  26.600   0.8225   0.34494   0.34297  -0.1211  0.0070  1.0000  -1.2652   0.0000   0.0000   0.0000   0.3685
  26.700   0.8209   0.34524   0.34328  -0.1213  0.0070  1.0000  -1.2528   0.0000   0.0000   0.0000   0.3690
  26.800   0.8194   0.34555   0.34362  -0.1216  0.0070  1.0000  -1.2406   0.0000   0.0000   0.0000   0.3695
  26.900   0.8180   0.34588   0.34396  -0.1218  0.0070  1.0000  -1.2288   0.0000   0.0000   0.0000   0.3699
  27.000   0.8167   0.34622   0.34430  -0.1221  0.0070  1.0000  -1.2173   0.0000   0.0000   0.0000   0.3704
  27.100   0.8155   0.34657   0.34467  -0.1224  0.0070  1.0000  -1.2061   0.0000   0.0000   0.0000   0.3709
  27.200   0.8143   0.34695   0.34505  -0.1227  0.0069  1.0000  -1.1939   0.0000   0.0000   0.0000   0.3713
  27.300   0.8131   0.34735   0.34546  -0.1230  0.0069  1.0000  -1.1812   0.0000   0.0000   0.0000   0.3718
  27.400   0.8121   0.34777   0.34589  -0.1234  0.0069  1.0000  -1.1686   0.0000   0.0000   0.0000   0.3723
  27.500   0.8111   0.34820   0.34633  -0.1237  0.0069  1.0000  -1.1563   0.0000   0.0000   0.0000   0.3728
  27.600   0.8102   0.34865   0.34678  -0.1241  0.0069  1.0000  -1.1441   0.0000   0.0000   0.0000   0.3733
  27.700   0.8093   0.34912   0.34726  -0.1244  0.0069  1.0000  -1.1319   0.0000   0.0000   0.0000   0.3738
  27.800   0.8085   0.34961   0.34776  -0.1248  0.0068  1.0000  -1.1199   0.0000   0.0000   0.0000   0.3743
  27.900   0.8079   0.35013   0.34828  -0.1252  0.0068  1.0000  -1.1077   0.0000   0.0000   0.0000   0.3748
  28.000   0.8073   0.35067   0.34883  -0.1256  0.0068  1.0000  -1.0954   0.0000   0.0000   0.0000   0.3752
  28.100   0.8068   0.35124   0.34941  -0.1260  0.0067  1.0000  -1.0828   0.0000   0.0000   0.0000   0.3757
  28.200   0.8064   0.35185   0.35002  -0.1264  0.0066  1.0000  -1.0697   0.0000   0.0000   0.0000   0.3762
  28.300   0.8061   0.35250   0.35067  -0.1269  0.0066  1.0000  -1.0559   0.0000   0.0000   0.0000   0.3766
  28.400   0.8060   0.35317   0.35135  -0.1273  0.0064  1.0000  -1.0417   0.0000   0.0000   0.0000   0.3770
  28.500   0.8057   0.35382   0.35201  -0.1277  0.0063  1.0000  -1.0278   0.0000   0.0000   0.0000   0.3775
  28.600   0.8054   0.35443   0.35263  -0.1280  0.0061  1.0000  -1.0154   0.0000   0.0000   0.0000   0.3778
  28.700   0.8050   0.35499   0.35319  -0.1284  0.0060  1.0000  -1.0048   0.0000   0.0000   0.0000   0.3782
  28.800   0.8046   0.35551   0.35372  -0.1287  0.0058  1.0000  -0.9959   0.0000   0.0000   0.0000   0.3786
  28.900   0.8041   0.35601   0.35423  -0.1291  0.0057  1.0000  -0.9882   0.0000   0.0000   0.0000   0.3789
  29.000   0.8036   0.35649   0.35471  -0.1294  0.0055  1.0000  -0.9815   0.0000   0.0000   0.0000   0.3793
  29.100   0.8030   0.35697   0.35519  -0.1297  0.0054  1.0000  -0.9756   0.0000   0.0000   0.0000   0.3797
  29.200   0.8025   0.35744   0.35567  -0.1301  0.0053  1.0000  -0.9704   0.0000   0.0000   0.0000   0.3800
  29.300   0.8021   0.35791   0.35615  -0.1304  0.0051  1.0000  -0.9656   0.0000   0.0000   0.0000   0.3804
  29.400   0.8016   0.35838   0.35663  -0.1308  0.0050  1.0000  -0.9612   0.0000   0.0000   0.0000   0.3808
  29.500   0.8011   0.35885   0.35710  -0.1311  0.0049  1.0000  -0.9572   0.0000   0.0000   0.0000   0.3811
  29.600   0.8007   0.35931   0.35758  -0.1315  0.0048  1.0000  -0.9536   0.0000   0.0000   0.0000   0.3815
  29.700   0.8002   0.35978   0.35805  -0.1318  0.0047  1.0000  -0.9503   0.0000   0.0000   0.0000   0.3818
  29.800   0.7998   0.36025   0.35853  -0.1322  0.0046  1.0000  -0.9473   0.0000   0.0000   0.0000   0.3822
  29.900   0.7994   0.36072   0.35900  -0.1325  0.0045  1.0000  -0.9446   0.0000   0.0000   0.0000   0.3825
  30.000   0.7990   0.36119   0.35948  -0.1329  0.0044  1.0000  -0.9421   0.0000   0.0000   0.0000   0.3829


