xflr5 v6.61

 Calculated polar for: SG6041

 1 1 Reynolds number fixed          Mach number fixed         

 xtrf =   1.000 (top)        1.000 (bottom)
 Mach =   0.000     Re =     0.500 e 6     Ncrit =   9.000

  alpha     CL        CD       CDp       Cm    Top Xtr Bot Xtr   Cpmin    Chinge    XCp    
 ------- -------- --------- --------- -------- ------- ------- -------- --------- ---------
 -10.000  -0.4168   0.10390   0.10140  -0.0309  1.0000  0.0154  -1.7877   0.0000   0.0000   0.0000   0.1675
  -9.900  -0.4162   0.10245   0.09996  -0.0314  1.0000  0.0155  -1.7974   0.0000   0.0000   0.0000   0.1663
  -9.800  -0.4157   0.10100   0.09851  -0.0319  1.0000  0.0157  -1.8080   0.0000   0.0000   0.0000   0.1651
  -9.700  -0.4154   0.09954   0.09706  -0.0324  1.0000  0.0158  -1.8193   0.0000   0.0000   0.0000   0.1639
  -9.600  -0.4152   0.09807   0.09560  -0.0329  1.0000  0.0160  -1.8315   0.0000   0.0000   0.0000   0.1628
  -9.500  -0.4152   0.09661   0.09415  -0.0334  1.0000  0.0161  -1.8446   0.0000   0.0000   0.0000   0.1617
  -9.400  -0.4153   0.09514   0.09269  -0.0339  1.0000  0.0162  -1.8587   0.0000   0.0000   0.0000   0.1606
  -9.300  -0.4156   0.09367   0.09123  -0.0344  1.0000  0.0164  -1.8736   0.0000   0.0000   0.0000   0.1596
  -9.200  -0.4161   0.09219   0.08977  -0.0349  1.0000  0.0165  -1.8895   0.0000   0.0000   0.0000   0.1586
  -9.100  -0.4168   0.09072   0.08831  -0.0354  1.0000  0.0167  -1.9065   0.0000   0.0000   0.0000   0.1577
  -9.000  -0.4178   0.08925   0.08685  -0.0359  1.0000  0.0168  -1.9247   0.0000   0.0000   0.0000   0.1569
  -8.900  -0.4189   0.08776   0.08537  -0.0363  1.0000  0.0169  -1.9437   0.0000   0.0000   0.0000   0.1561
  -8.800  -0.4202   0.08626   0.08389  -0.0368  1.0000  0.0170  -1.9639   0.0000   0.0000   0.0000   0.1554
  -8.700  -0.4219   0.08477   0.08241  -0.0373  1.0000  0.0172  -1.9854   0.0000   0.0000   0.0000   0.1548
  -8.600  -0.4240   0.08329   0.08095  -0.0377  1.0000  0.0173  -2.0082   0.0000   0.0000   0.0000   0.1544
  -8.500  -0.4267   0.08183   0.07951  -0.0381  1.0000  0.0174  -2.0322   0.0000   0.0000   0.0000   0.1542
  -8.400  -0.4300   0.08040   0.07810  -0.0383  1.0000  0.0175  -2.0573   0.0000   0.0000   0.0000   0.1544
  -8.300  -0.4342   0.07903   0.07675  -0.0385  1.0000  0.0175  -2.0836   0.0000   0.0000   0.0000   0.1551
  -8.200  -0.4396   0.07775   0.07550  -0.0384  1.0000  0.0176  -2.1111   0.0000   0.0000   0.0000   0.1566
  -8.100  -0.4469   0.07664   0.07441  -0.0380  1.0000  0.0175  -2.1395   0.0000   0.0000   0.0000   0.1592
  -8.000  -0.4565   0.07578   0.07358  -0.0370  1.0000  0.0175  -2.1684   0.0000   0.0000   0.0000   0.1633
  -7.900  -0.4690   0.07523   0.07306  -0.0354  1.0000  0.0174  -2.1976   0.0000   0.0000   0.0000   0.1691
  -7.800  -0.4840   0.07493   0.07280  -0.0334  1.0000  0.0172  -2.2279   0.0000   0.0000   0.0000   0.1759
  -7.700  -0.4826   0.07179   0.06963  -0.0385  0.9981  0.0173  -2.2818   0.0000   0.0000   0.0000   0.1652
  -7.600  -0.4752   0.06835   0.06614  -0.0434  0.9959  0.0175  -2.3293   0.0000   0.0000   0.0000   0.1536
  -7.500  -0.4686   0.06525   0.06299  -0.0475  0.9941  0.0177  -2.3742   0.0000   0.0000   0.0000   0.1436
  -7.400  -0.4613   0.06229   0.05997  -0.0511  0.9926  0.0180  -2.4159   0.0000   0.0000   0.0000   0.1342
  -7.300  -0.4551   0.05967   0.05728  -0.0538  0.9906  0.0183  -2.4542   0.0000   0.0000   0.0000   0.1268
  -7.200  -0.4482   0.05718   0.05472  -0.0560  0.9884  0.0187  -2.4914   0.0000   0.0000   0.0000   0.1199
  -7.100  -0.4395   0.05492   0.05237  -0.0581  0.9868  0.0192  -2.5209   0.0000   0.0000   0.0000   0.1128
  -7.000  -0.4280   0.05334   0.05071  -0.0596  0.9857  0.0198  -2.5207   0.0000   0.0000   0.0000   0.1056
  -6.900  -0.4145   0.05234   0.04964  -0.0608  0.9848  0.0203  -2.4967   0.0000   0.0000   0.0000   0.0981
  -6.800  -0.4039   0.05073   0.04792  -0.0623  0.9839  0.0205  -2.4940   0.0000   0.0000   0.0000   0.0904
  -6.700  -0.3946   0.04895   0.04604  -0.0637  0.9828  0.0206  -2.4977   0.0000   0.0000   0.0000   0.0832
  -6.600  -0.3895   0.04745   0.04446  -0.0639  0.9797  0.0207  -2.5029   0.0000   0.0000   0.0000   0.0806
  -6.500  -0.3819   0.04578   0.04268  -0.0647  0.9777  0.0207  -2.5058   0.0000   0.0000   0.0000   0.0752
  -6.400  -0.3733   0.04405   0.04084  -0.0656  0.9760  0.0207  -2.5065   0.0000   0.0000   0.0000   0.0688
  -6.300  -0.3640   0.04233   0.03900  -0.0665  0.9747  0.0208  -2.5043   0.0000   0.0000   0.0000   0.0617
  -5.400  -0.2929   0.01956   0.01423  -0.0684  0.9604  0.0118  -3.2174   0.0000   0.0000   0.0000   0.0099
  -5.300  -0.2784   0.01957   0.01424  -0.0689  0.9597  0.0114  -3.0957   0.0000   0.0000   0.0000  -0.0043
  -5.100  -0.2540   0.01723   0.01164  -0.0694  0.9583  0.0102  -3.0817   0.0000   0.0000   0.0000  -0.0302
  -5.000  -0.2419   0.01609   0.01036  -0.0695  0.9576  0.0100  -3.0721   0.0000   0.0000   0.0000  -0.0446
  -4.900  -0.2296   0.01520   0.00935  -0.0697  0.9570  0.0099  -3.0403   0.0000   0.0000   0.0000  -0.0610
  -4.800  -0.2171   0.01445   0.00851  -0.0699  0.9563  0.0097  -2.9950   0.0000   0.0000   0.0000  -0.0797
  -4.700  -0.2045   0.01381   0.00779  -0.0702  0.9557  0.0097  -2.9391   0.0000   0.0000   0.0000  -0.1011
  -4.600  -0.1999   0.01344   0.00737  -0.0688  0.9520  0.0096  -2.8979   0.0000   0.0000   0.0000  -0.1019
  -4.500  -0.1906   0.01300   0.00687  -0.0683  0.9498  0.0096  -2.8390   0.0000   0.0000   0.0000  -0.1164
  -4.400  -0.1802   0.01258   0.00640  -0.0681  0.9479  0.0096  -2.7711   0.0000   0.0000   0.0000  -0.1363
  -4.300  -0.1692   0.01220   0.00597  -0.0680  0.9463  0.0097  -2.6972   0.0000   0.0000   0.0000  -0.1606
  -4.200  -0.1578   0.01185   0.00557  -0.0680  0.9448  0.0098  -2.6270   0.0000   0.0000   0.0000  -0.1900
  -4.100  -0.1460   0.01155   0.00522  -0.0681  0.9435  0.0100  -2.5518   0.0000   0.0000   0.0000  -0.2258
  -4.000  -0.1338   0.01128   0.00491  -0.0683  0.9423  0.0103  -2.4708   0.0000   0.0000   0.0000  -0.2699
  -3.900  -0.1214   0.01107   0.00467  -0.0685  0.9412  0.0106  -2.3820   0.0000   0.0000   0.0000  -0.3244
  -3.800  -0.1088   0.01092   0.00451  -0.0688  0.9401  0.0109  -2.2805   0.0000   0.0000   0.0000  -0.3935
  -3.700  -0.0974   0.01045   0.00392  -0.0687  0.9389  0.0143  -2.2699   0.0000   0.0000   0.0000  -0.4674
  -3.600  -0.0858   0.01024   0.00374  -0.0687  0.9375  0.0186  -2.1917   0.0000   0.0000   0.0000  -0.5639
  -3.500  -0.0785   0.01005   0.00363  -0.0679  0.9346  0.0305  -2.1273   0.0000   0.0000   0.0000  -0.6283
  -3.400  -0.0693   0.00990   0.00355  -0.0675  0.9321  0.0429  -2.0375   0.0000   0.0000   0.0000  -0.7391
  -3.300  -0.0587   0.00981   0.00348  -0.0674  0.9300  0.0495  -1.9364   0.0000   0.0000   0.0000  -0.9145
  -3.200  -0.0479   0.00968   0.00340  -0.0673  0.9280  0.0584  -1.8345   0.0000   0.0000   0.0000  -1.1767
  -3.100  -0.0365   0.00958   0.00332  -0.0674  0.9262  0.0653  -1.7340   0.0000   0.0000   0.0000  -1.6186
  -3.000  -0.0250   0.00948   0.00323  -0.0674  0.9245  0.0725  -1.6607   0.0000   0.0000   0.0000  -2.4883
  -2.900  -0.0135   0.00934   0.00315  -0.0675  0.9228  0.0839  -1.5898   0.0000   0.0000   0.0000  -4.8112
  -2.800  -0.0017   0.00925   0.00301  -0.0676  0.9212  0.0895  -1.5304   0.0000   0.0000   0.0000  -39.9047
  -2.700   0.0096   0.00910   0.00293  -0.0677  0.9196  0.1061  -1.4599   0.0000   0.0000   0.0000   7.3488
  -2.600   0.0212   0.00897   0.00286  -0.0678  0.9179  0.1250  -1.3898   0.0000   0.0000   0.0000   3.4779
  -2.500   0.0308   0.00883   0.00281  -0.0675  0.9156  0.1483  -1.3269   0.0000   0.0000   0.0000   2.4630
  -2.400   0.0390   0.00860   0.00275  -0.0670  0.9127  0.1931  -1.2692   0.0000   0.0000   0.0000   1.9847
  -2.300   0.0469   0.00822   0.00267  -0.0666  0.9097  0.2727  -1.2137   0.0000   0.0000   0.0000   1.6842
  -2.200   0.0537   0.00766   0.00258  -0.0661  0.9069  0.3963  -1.1623   0.0000   0.0000   0.0000   1.4923
  -2.100   0.0593   0.00706   0.00252  -0.0652  0.9041  0.5460  -1.1139   0.0000   0.0000   0.0000   1.3584
  -2.000   0.0668   0.00675   0.00256  -0.0644  0.9016  0.6451  -1.0600   0.0000   0.0000   0.0000   1.2218
  -1.900   0.0766   0.00665   0.00258  -0.0639  0.8994  0.6883  -1.0003   0.0000   0.0000   0.0000   1.0909
  -1.800   0.0869   0.00658   0.00259  -0.0636  0.8974  0.7129  -0.9402   0.0000   0.0000   0.0000   0.9868
  -1.700   0.0986   0.00658   0.00257  -0.0636  0.8953  0.7242  -0.8773   0.0000   0.0000   0.0000   0.8986
  -1.600   0.1089   0.00655   0.00257  -0.0633  0.8928  0.7340  -0.8195   0.0000   0.0000   0.0000   0.8345
  -1.500   0.1184   0.00653   0.00257  -0.0628  0.8901  0.7445  -0.7646   0.0000   0.0000   0.0000   0.7835
  -1.400   0.1284   0.00652   0.00256  -0.0625  0.8872  0.7545  -0.7091   0.0000   0.0000   0.0000   0.7388
  -1.300   0.1389   0.00651   0.00254  -0.0622  0.8842  0.7626  -0.6534   0.0000   0.0000   0.0000   0.6999
  -1.200   0.1492   0.00646   0.00253  -0.0619  0.8813  0.7709  -0.5990   0.0000   0.0000   0.0000   0.6664
  -1.100   0.1598   0.00643   0.00251  -0.0616  0.8785  0.7780  -0.5445   0.0000   0.0000   0.0000   0.6368
  -1.000   0.1707   0.00642   0.00248  -0.0614  0.8759  0.7850  -0.4905   0.0000   0.0000   0.0000   0.6109
  -0.900   0.1820   0.00641   0.00246  -0.0614  0.8733  0.7915  -0.4364   0.0000   0.0000   0.0000   0.5877
  -0.800   0.1934   0.00641   0.00243  -0.0613  0.8706  0.7973  -0.4092   0.0000   0.0000   0.0000   0.5672
  -0.700   0.2040   0.00639   0.00244  -0.0611  0.8677  0.8034  -0.4184   0.0000   0.0000   0.0000   0.5494
  -0.600   0.2136   0.00637   0.00244  -0.0606  0.8647  0.8102  -0.4272   0.0000   0.0000   0.0000   0.5337
  -0.500   0.2234   0.00636   0.00245  -0.0602  0.8613  0.8185  -0.4372   0.0000   0.0000   0.0000   0.5192
  -0.400   0.2333   0.00637   0.00244  -0.0598  0.8577  0.8266  -0.4484   0.0000   0.0000   0.0000   0.5059
  -0.300   0.2429   0.00632   0.00243  -0.0592  0.8543  0.8364  -0.4593   0.0000   0.0000   0.0000   0.4933
  -0.200   0.2527   0.00631   0.00243  -0.0587  0.8509  0.8447  -0.4706   0.0000   0.0000   0.0000   0.4818
  -0.100   0.2632   0.00631   0.00241  -0.0584  0.8476  0.8517  -0.4822   0.0000   0.0000   0.0000   0.4712
   0.000   0.2741   0.00632   0.00239  -0.0582  0.8443  0.8571  -0.4941   0.0000   0.0000   0.0000   0.4616
   0.100   0.2848   0.00630   0.00238  -0.0580  0.8409  0.8629  -0.5068   0.0000   0.0000   0.0000   0.4526
   0.200   0.2942   0.00627   0.00238  -0.0575  0.8375  0.8683  -0.5192   0.0000   0.0000   0.0000   0.4443
   0.300   0.3039   0.00626   0.00237  -0.0571  0.8335  0.8734  -0.5318   0.0000   0.0000   0.0000   0.4366
   0.400   0.3139   0.00624   0.00236  -0.0567  0.8292  0.8781  -0.5456   0.0000   0.0000   0.0000   0.4294
   0.500   0.3243   0.00623   0.00233  -0.0565  0.8248  0.8822  -0.5606   0.0000   0.0000   0.0000   0.4227
   0.600   0.3351   0.00621   0.00229  -0.0563  0.8202  0.8855  -0.5759   0.0000   0.0000   0.0000   0.4165
   0.700   0.3460   0.00619   0.00225  -0.0561  0.8157  0.8892  -0.5915   0.0000   0.0000   0.0000   0.4106
   0.800   0.3568   0.00618   0.00223  -0.0559  0.8113  0.8928  -0.6069   0.0000   0.0000   0.0000   0.4051
   0.900   0.3666   0.00616   0.00223  -0.0556  0.8072  0.8967  -0.6233   0.0000   0.0000   0.0000   0.3998
   1.000   0.3767   0.00615   0.00223  -0.0553  0.8025  0.9008  -0.6404   0.0000   0.0000   0.0000   0.3949
   1.100   0.3870   0.00614   0.00221  -0.0550  0.7975  0.9049  -0.6579   0.0000   0.0000   0.0000   0.3903
   1.200   0.3974   0.00613   0.00219  -0.0548  0.7920  0.9088  -0.6756   0.0000   0.0000   0.0000   0.3859
   1.300   0.4081   0.00612   0.00216  -0.0546  0.7865  0.9123  -0.6936   0.0000   0.0000   0.0000   0.3817
   1.400   0.4188   0.00612   0.00213  -0.0544  0.7808  0.9158  -0.7117   0.0000   0.0000   0.0000   0.3778
   1.500   0.4290   0.00610   0.00214  -0.0541  0.7749  0.9198  -0.7293   0.0000   0.0000   0.0000   0.3739
   1.600   0.4391   0.00609   0.00213  -0.0538  0.7680  0.9243  -0.7471   0.0000   0.0000   0.0000   0.3703
   1.700   0.4492   0.00609   0.00211  -0.0535  0.7605  0.9292  -0.7649   0.0000   0.0000   0.0000   0.3667
   1.800   0.4594   0.00611   0.00208  -0.0532  0.7527  0.9340  -0.7829   0.0000   0.0000   0.0000   0.3633
   1.900   0.4705   0.00611   0.00208  -0.0531  0.7454  0.9381  -0.8032   0.0000   0.0000   0.0000   0.3603
   2.000   0.4817   0.00612   0.00209  -0.0530  0.7370  0.9426  -0.8274   0.0000   0.0000   0.0000   0.3575
   2.100   0.4927   0.00614   0.00208  -0.0529  0.7274  0.9475  -0.8532   0.0000   0.0000   0.0000   0.3547
   2.200   0.5030   0.00619   0.00209  -0.0527  0.7171  0.9529  -0.8785   0.0000   0.0000   0.0000   0.3519
   2.300   0.5160   0.00621   0.00210  -0.0530  0.7073  0.9562  -0.9070   0.0000   0.0000   0.0000   0.3499
   2.400   0.5289   0.00625   0.00211  -0.0534  0.6952  0.9599  -0.9355   0.0000   0.0000   0.0000   0.3480
   2.500   0.5413   0.00632   0.00211  -0.0536  0.6834  0.9641  -0.9637   0.0000   0.0000   0.0000   0.3461
   2.600   0.5535   0.00636   0.00213  -0.0539  0.6732  0.9689  -0.9917   0.0000   0.0000   0.0000   0.3442
   2.700   0.5676   0.00642   0.00214  -0.0545  0.6601  0.9718  -1.0222   0.0000   0.0000   0.0000   0.3429
   2.900   0.5951   0.00657   0.00218  -0.0557  0.6329  0.9791  -1.0830   0.0000   0.0000   0.0000   0.3403
   3.000   0.6081   0.00668   0.00221  -0.0562  0.6155  0.9832  -1.1128   0.0000   0.0000   0.0000   0.3389
   3.100   0.6226   0.00678   0.00224  -0.0570  0.5971  0.9859  -1.1447   0.0000   0.0000   0.0000   0.3380
   3.300   0.6499   0.00708   0.00232  -0.0583  0.5488  0.9926  -1.2076   0.0000   0.0000   0.0000   0.3360
   3.400   0.6640   0.00725   0.00238  -0.0590  0.5248  0.9954  -1.2458   0.0000   0.0000   0.0000   0.3352
   3.500   0.6777   0.00744   0.00244  -0.0598  0.4994  0.9987  -1.2836   0.0000   0.0000   0.0000   0.3344
   3.600   0.6876   0.00756   0.00249  -0.0597  0.4813  1.0000  -1.3156   0.0000   0.0000   0.0000   0.3329
   3.700   0.6931   0.00770   0.00254  -0.0587  0.4639  1.0000  -1.3408   0.0000   0.0000   0.0000   0.3307
   3.800   0.7000   0.00782   0.00260  -0.0579  0.4491  1.0000  -1.3686   0.0000   0.0000   0.0000   0.3287
   3.900   0.7069   0.00796   0.00265  -0.0572  0.4320  1.0000  -1.3963   0.0000   0.0000   0.0000   0.3267
   4.000   0.7141   0.00810   0.00272  -0.0565  0.4163  1.0000  -1.4248   0.0000   0.0000   0.0000   0.3248
   4.100   0.7219   0.00824   0.00279  -0.0559  0.3999  1.0000  -1.4545   0.0000   0.0000   0.0000   0.3231
   4.200   0.7294   0.00841   0.00287  -0.0552  0.3831  1.0000  -1.4835   0.0000   0.0000   0.0000   0.3213
   4.300   0.7378   0.00855   0.00295  -0.0548  0.3675  1.0000  -1.5144   0.0000   0.0000   0.0000   0.3197
   4.400   0.7453   0.00875   0.00304  -0.0541  0.3490  1.0000  -1.5439   0.0000   0.0000   0.0000   0.3180
   4.500   0.7540   0.00888   0.00312  -0.0537  0.3340  1.0000  -1.5756   0.0000   0.0000   0.0000   0.3166
   4.600   0.7617   0.00909   0.00321  -0.0532  0.3155  1.0000  -1.6058   0.0000   0.0000   0.0000   0.3150
   4.700   0.7706   0.00922   0.00330  -0.0528  0.3013  1.0000  -1.6381   0.0000   0.0000   0.0000   0.3137
   4.800   0.7786   0.00943   0.00350  -0.0523  0.2837  1.0000  -1.6702   0.0000   0.0000   0.0000   0.3122
   4.900   0.7877   0.00957   0.00360  -0.0520  0.2713  1.0000  -1.7193   0.0000   0.0000   0.0000   0.3109
   5.000   0.7964   0.00973   0.00370  -0.0516  0.2585  1.0000  -1.7694   0.0000   0.0000   0.0000   0.3096
   5.100   0.8051   0.00991   0.00380  -0.0512  0.2455  1.0000  -1.8193   0.0000   0.0000   0.0000   0.3084
   5.200   0.8145   0.01003   0.00390  -0.0509  0.2359  1.0000  -1.8712   0.0000   0.0000   0.0000   0.3072
   5.300   0.8232   0.01021   0.00400  -0.0506  0.2243  1.0000  -1.9217   0.0000   0.0000   0.0000   0.3060
   5.400   0.8322   0.01037   0.00411  -0.0503  0.2134  1.0000  -1.9732   0.0000   0.0000   0.0000   0.3048
   5.500   0.8416   0.01049   0.00421  -0.0500  0.2050  1.0000  -2.0262   0.0000   0.0000   0.0000   0.3038
   5.600   0.8505   0.01067   0.00433  -0.0497  0.1951  1.0000  -2.0780   0.0000   0.0000   0.0000   0.3026
   5.700   0.8594   0.01084   0.00445  -0.0493  0.1849  1.0000  -2.1303   0.0000   0.0000   0.0000   0.3016
   5.800   0.8690   0.01096   0.00455  -0.0491  0.1785  1.0000  -2.1850   0.0000   0.0000   0.0000   0.3006
   5.900   0.8781   0.01112   0.00468  -0.0488  0.1707  1.0000  -2.2386   0.0000   0.0000   0.0000   0.2995
   6.000   0.8868   0.01132   0.00481  -0.0484  0.1615  1.0000  -2.2912   0.0000   0.0000   0.0000   0.2985
   6.100   0.8963   0.01144   0.00493  -0.0482  0.1554  1.0000  -2.3465   0.0000   0.0000   0.0000   0.2975
   6.200   0.9058   0.01157   0.00504  -0.0480  0.1499  1.0000  -2.4025   0.0000   0.0000   0.0000   0.2966
   6.300   0.9148   0.01174   0.00517  -0.0477  0.1435  1.0000  -2.4574   0.0000   0.0000   0.0000   0.2956
   6.400   0.9234   0.01195   0.00533  -0.0473  0.1354  1.0000  -2.5110   0.0000   0.0000   0.0000   0.2946
   6.500   0.9328   0.01209   0.00546  -0.0470  0.1299  1.0000  -2.5674   0.0000   0.0000   0.0000   0.2937
   6.600   0.9424   0.01221   0.00557  -0.0468  0.1251  1.0000  -2.6254   0.0000   0.0000   0.0000   0.2929
   6.700   0.9513   0.01239   0.00570  -0.0465  0.1190  1.0000  -2.6819   0.0000   0.0000   0.0000   0.2920
   6.800   0.9597   0.01262   0.00587  -0.0461  0.1113  1.0000  -2.7364   0.0000   0.0000   0.0000   0.2910
   6.900   0.9689   0.01277   0.00602  -0.0458  0.1067  1.0000  -2.7939   0.0000   0.0000   0.0000   0.2902
   7.000   0.9786   0.01288   0.00613  -0.0457  0.1038  1.0000  -2.8537   0.0000   0.0000   0.0000   0.2894
   7.100   0.9879   0.01302   0.00627  -0.0454  0.1002  1.0000  -2.9125   0.0000   0.0000   0.0000   0.2886
   7.200   0.9968   0.01320   0.00642  -0.0451  0.0963  1.0000  -2.9703   0.0000   0.0000   0.0000   0.2878
   7.300   1.0053   0.01342   0.00660  -0.0447  0.0916  1.0000  -3.0265   0.0000   0.0000   0.0000   0.2869
   7.400   1.0131   0.01371   0.00693  -0.0442  0.0860  1.0000  -3.0781   0.0000   0.0000   0.0000   0.2859
   7.500   1.0229   0.01380   0.00706  -0.0440  0.0847  1.0000  -3.1401   0.0000   0.0000   0.0000   0.2852
   7.600   1.0324   0.01392   0.00720  -0.0438  0.0828  1.0000  -3.2016   0.0000   0.0000   0.0000   0.2845
   7.700   1.0417   0.01405   0.00734  -0.0435  0.0805  1.0000  -3.2624   0.0000   0.0000   0.0000   0.2837
   7.800   1.0508   0.01422   0.00750  -0.0433  0.0780  1.0000  -3.3228   0.0000   0.0000   0.0000   0.2830
   7.900   1.0594   0.01441   0.00767  -0.0429  0.0752  1.0000  -3.3823   0.0000   0.0000   0.0000   0.2822
   8.000   1.0677   0.01464   0.00788  -0.0425  0.0719  1.0000  -3.4396   0.0000   0.0000   0.0000   0.2814
   8.100   1.0748   0.01498   0.00821  -0.0419  0.0678  1.0000  -3.4925   0.0000   0.0000   0.0000   0.2804
   8.200   1.0840   0.01512   0.00837  -0.0416  0.0664  1.0000  -3.5699   0.0000   0.0000   0.0000   0.2797
   8.300   1.0936   0.01521   0.00849  -0.0415  0.0653  1.0000  -3.6512   0.0000   0.0000   0.0000   0.2791
   8.400   1.1030   0.01533   0.00862  -0.0412  0.0638  1.0000  -3.7318   0.0000   0.0000   0.0000   0.2784
   8.500   1.1122   0.01546   0.00877  -0.0410  0.0619  1.0000  -3.8119   0.0000   0.0000   0.0000   0.2778
   8.600   1.1210   0.01562   0.00893  -0.0407  0.0598  1.0000  -3.8912   0.0000   0.0000   0.0000   0.2771
   8.700   1.1295   0.01582   0.00911  -0.0403  0.0575  1.0000  -3.9691   0.0000   0.0000   0.0000   0.2764
   8.800   1.1373   0.01608   0.00934  -0.0399  0.0548  1.0000  -4.0437   0.0000   0.0000   0.0000   0.2756
   8.900   1.1435   0.01648   0.00974  -0.0392  0.0510  1.0000  -4.1132   0.0000   0.0000   0.0000   0.2746
   9.000   1.1522   0.01663   0.00991  -0.0389  0.0496  1.0000  -4.2194   0.0000   0.0000   0.0000   0.2740
   9.100   1.1621   0.01669   0.00999  -0.0387  0.0485  1.0000  -4.3356   0.0000   0.0000   0.0000   0.2735
   9.200   1.1716   0.01678   0.01009  -0.0386  0.0468  1.0000  -4.4504   0.0000   0.0000   0.0000   0.2729
   9.300   1.1805   0.01691   0.01022  -0.0383  0.0445  1.0000  -4.5634   0.0000   0.0000   0.0000   0.2723
   9.400   1.1889   0.01710   0.01037  -0.0380  0.0418  1.0000  -4.6736   0.0000   0.0000   0.0000   0.2717
   9.500   1.1961   0.01739   0.01061  -0.0375  0.0385  1.0000  -4.7763   0.0000   0.0000   0.0000   0.2709
   9.600   1.2026   0.01773   0.01096  -0.0369  0.0355  1.0000  -4.8717   0.0000   0.0000   0.0000   0.2701
   9.700   1.2121   0.01780   0.01104  -0.0367  0.0345  1.0000  -4.9939   0.0000   0.0000   0.0000   0.2696
   9.800   1.2208   0.01793   0.01119  -0.0364  0.0331  1.0000  -5.1119   0.0000   0.0000   0.0000   0.2690
   9.900   1.2294   0.01807   0.01133  -0.0362  0.0305  1.0000  -5.2416   0.0000   0.0000   0.0000   0.2684
  10.000   1.2369   0.01831   0.01152  -0.0358  0.0281  1.0000  -5.3596   0.0000   0.0000   0.0000   0.2678
  10.100   1.2441   0.01857   0.01177  -0.0353  0.0264  1.0000  -5.4699   0.0000   0.0000   0.0000   0.2671
  10.200   1.2507   0.01886   0.01208  -0.0346  0.0247  1.0000  -5.5739   0.0000   0.0000   0.0000   0.2662
  10.300   1.2571   0.01914   0.01237  -0.0340  0.0236  1.0000  -5.6779   0.0000   0.0000   0.0000   0.2654
  10.400   1.2645   0.01933   0.01259  -0.0335  0.0233  1.0000  -5.7923   0.0000   0.0000   0.0000   0.2647
  10.500   1.2717   0.01953   0.01282  -0.0329  0.0229  1.0000  -5.9059   0.0000   0.0000   0.0000   0.2640
  10.600   1.2787   0.01974   0.01306  -0.0324  0.0225  1.0000  -6.0191   0.0000   0.0000   0.0000   0.2633
  10.700   1.2855   0.01996   0.01331  -0.0318  0.0220  1.0000  -6.1321   0.0000   0.0000   0.0000   0.2625
  10.800   1.2923   0.02019   0.01357  -0.0312  0.0216  1.0000  -6.2449   0.0000   0.0000   0.0000   0.2618
  10.900   1.2988   0.02043   0.01383  -0.0306  0.0211  1.0000  -6.3577   0.0000   0.0000   0.0000   0.2611
  11.000   1.3053   0.02068   0.01410  -0.0300  0.0206  1.0000  -6.4704   0.0000   0.0000   0.0000   0.2603
  11.100   1.3116   0.02093   0.01438  -0.0294  0.0201  1.0000  -6.5832   0.0000   0.0000   0.0000   0.2596
  11.200   1.3178   0.02119   0.01466  -0.0287  0.0197  1.0000  -6.6958   0.0000   0.0000   0.0000   0.2588
  11.300   1.3238   0.02147   0.01495  -0.0281  0.0192  1.0000  -6.8083   0.0000   0.0000   0.0000   0.2581
  11.400   1.3298   0.02175   0.01525  -0.0274  0.0187  1.0000  -6.9207   0.0000   0.0000   0.0000   0.2574
  11.500   1.3356   0.02204   0.01555  -0.0268  0.0183  1.0000  -7.0329   0.0000   0.0000   0.0000   0.2566
  11.600   1.3412   0.02234   0.01587  -0.0261  0.0178  1.0000  -7.1445   0.0000   0.0000   0.0000   0.2559
  11.700   1.3466   0.02265   0.01621  -0.0254  0.0174  1.0000  -7.2552   0.0000   0.0000   0.0000   0.2551
  11.800   1.3519   0.02298   0.01656  -0.0247  0.0169  1.0000  -7.3650   0.0000   0.0000   0.0000   0.2544
  11.900   1.3569   0.02332   0.01693  -0.0240  0.0164  1.0000  -7.4733   0.0000   0.0000   0.0000   0.2536
  12.000   1.3616   0.02369   0.01733  -0.0233  0.0160  1.0000  -7.5792   0.0000   0.0000   0.0000   0.2528
  12.100   1.3660   0.02407   0.01775  -0.0225  0.0155  1.0000  -7.6823   0.0000   0.0000   0.0000   0.2521
  12.200   1.3699   0.02449   0.01822  -0.0217  0.0151  1.0000  -7.7821   0.0000   0.0000   0.0000   0.2512
  12.300   1.3734   0.02495   0.01872  -0.0208  0.0147  1.0000  -7.8785   0.0000   0.0000   0.0000   0.2504
  12.400   1.3763   0.02544   0.01927  -0.0199  0.0143  1.0000  -7.9706   0.0000   0.0000   0.0000   0.2496
  12.500   1.3810   0.02580   0.01965  -0.0193  0.0142  1.0000  -8.0823   0.0000   0.0000   0.0000   0.2489
  12.600   1.3868   0.02608   0.01997  -0.0188  0.0141  1.0000  -8.2057   0.0000   0.0000   0.0000   0.2483
  12.700   1.3924   0.02637   0.02029  -0.0182  0.0140  1.0000  -8.3291   0.0000   0.0000   0.0000   0.2477
  12.800   1.3979   0.02668   0.02063  -0.0177  0.0139  1.0000  -8.4518   0.0000   0.0000   0.0000   0.2471
  12.900   1.4031   0.02700   0.02099  -0.0172  0.0138  1.0000  -8.5732   0.0000   0.0000   0.0000   0.2465
  13.000   1.4062   0.02749   0.02157  -0.0164  0.0138  1.0000  -8.6586   0.0000   0.0000   0.0000   0.2457
  13.100   1.4108   0.02787   0.02200  -0.0158  0.0137  1.0000  -8.7708   0.0000   0.0000   0.0000   0.2451
  13.200   1.4155   0.02824   0.02241  -0.0153  0.0135  1.0000  -8.8878   0.0000   0.0000   0.0000   0.2445
  13.300   1.4201   0.02863   0.02284  -0.0147  0.0134  1.0000  -9.0049   0.0000   0.0000   0.0000   0.2439
  13.400   1.4245   0.02903   0.02328  -0.0142  0.0132  1.0000  -9.1413   0.0000   0.0000   0.0000   0.2433
  13.500   1.4290   0.02943   0.02372  -0.0137  0.0129  1.0000  -9.2830   0.0000   0.0000   0.0000   0.2427
  13.600   1.4334   0.02984   0.02416  -0.0132  0.0126  1.0000  -9.4259   0.0000   0.0000   0.0000   0.2422
  13.700   1.4379   0.03026   0.02462  -0.0127  0.0123  1.0000  -9.5695   0.0000   0.0000   0.0000   0.2416
  13.800   1.4420   0.03070   0.02509  -0.0122  0.0119  1.0000  -9.7104   0.0000   0.0000   0.0000   0.2411
  13.900   1.4457   0.03117   0.02560  -0.0117  0.0115  1.0000  -9.8475   0.0000   0.0000   0.0000   0.2405
  14.000   1.4490   0.03167   0.02613  -0.0112  0.0111  1.0000  -9.9801   0.0000   0.0000   0.0000   0.2399
  14.100   1.4522   0.03219   0.02668  -0.0107  0.0107  1.0000  -10.1121   0.0000   0.0000   0.0000   0.2393
  14.200   1.4552   0.03274   0.02725  -0.0102  0.0103  1.0000  -10.2431   0.0000   0.0000   0.0000   0.2388
  14.300   1.4577   0.03333   0.02787  -0.0097  0.0098  1.0000  -10.3688   0.0000   0.0000   0.0000   0.2382
  14.400   1.4598   0.03396   0.02852  -0.0092  0.0093  1.0000  -10.4908   0.0000   0.0000   0.0000   0.2377
  14.500   1.4618   0.03463   0.02921  -0.0087  0.0088  1.0000  -10.6104   0.0000   0.0000   0.0000   0.2372
  14.600   1.4634   0.03535   0.02994  -0.0082  0.0082  1.0000  -10.7266   0.0000   0.0000   0.0000   0.2366
  14.700   1.4645   0.03612   0.03075  -0.0077  0.0076  1.0000  -10.8350   0.0000   0.0000   0.0000   0.2361
  14.800   1.4650   0.03696   0.03163  -0.0073  0.0071  1.0000  -10.9348   0.0000   0.0000   0.0000   0.2356
  14.900   1.4664   0.03772   0.03243  -0.0069  0.0069  1.0000  -11.0478   0.0000   0.0000   0.0000   0.2351
  15.000   1.4676   0.03852   0.03327  -0.0065  0.0066  1.0000  -11.1572   0.0000   0.0000   0.0000   0.2347
  15.100   1.4681   0.03940   0.03419  -0.0062  0.0062  1.0000  -11.2580   0.0000   0.0000   0.0000   0.2342
  15.200   1.4678   0.04036   0.03519  -0.0059  0.0058  1.0000  -11.3504   0.0000   0.0000   0.0000   0.2338
  15.300   1.4674   0.04137   0.03623  -0.0056  0.0053  1.0000  -11.4394   0.0000   0.0000   0.0000   0.2334
  15.400   1.4664   0.04245   0.03735  -0.0053  0.0049  1.0000  -11.5216   0.0000   0.0000   0.0000   0.2330
  15.500   1.4644   0.04366   0.03860  -0.0051  0.0045  1.0000  -11.5908   0.0000   0.0000   0.0000   0.2327
  15.600   1.4620   0.04492   0.03989  -0.0050  0.0041  1.0000  -11.6549   0.0000   0.0000   0.0000   0.2323
  15.700   1.4591   0.04625   0.04125  -0.0049  0.0037  1.0000  -11.7115   0.0000   0.0000   0.0000   0.2320
  15.800   1.4555   0.04769   0.04274  -0.0048  0.0034  1.0000  -11.7578   0.0000   0.0000   0.0000   0.2318
  15.900   1.4523   0.04915   0.04425  -0.0049  0.0031  1.0000  -11.8056   0.0000   0.0000   0.0000   0.2316
  16.000   1.4487   0.05070   0.04586  -0.0050  0.0028  1.0000  -11.8456   0.0000   0.0000   0.0000   0.2315
  16.100   1.4446   0.05239   0.04762  -0.0053  0.0026  1.0000  -11.8733   0.0000   0.0000   0.0000   0.2315
  16.200   1.4409   0.05407   0.04935  -0.0056  0.0025  1.0000  -11.9085   0.0000   0.0000   0.0000   0.2314
  16.300   1.4367   0.05586   0.05121  -0.0060  0.0024  1.0000  -11.9408   0.0000   0.0000   0.0000   0.2315
  16.400   1.4329   0.05765   0.05307  -0.0065  0.0024  1.0000  -11.9756   0.0000   0.0000   0.0000   0.2317
  16.500   1.4282   0.05963   0.05511  -0.0072  0.0024  1.0000  -11.9978   0.0000   0.0000   0.0000   0.2319
  16.600   1.4235   0.06166   0.05721  -0.0079  0.0023  1.0000  -12.0176   0.0000   0.0000   0.0000   0.2322
  16.700   1.4183   0.06382   0.05945  -0.0088  0.0023  1.0000  -12.0298   0.0000   0.0000   0.0000   0.2326
  16.800   1.4126   0.06612   0.06181  -0.0097  0.0023  1.0000  -12.0332   0.0000   0.0000   0.0000   0.2330
  16.900   1.4066   0.06850   0.06426  -0.0108  0.0022  1.0000  -12.0318   0.0000   0.0000   0.0000   0.2336
  17.000   1.4000   0.07107   0.06690  -0.0120  0.0022  1.0000  -12.0181   0.0000   0.0000   0.0000   0.2342
  17.100   1.3931   0.07371   0.06962  -0.0133  0.0022  1.0000  -11.9997   0.0000   0.0000   0.0000   0.2350
  17.200   1.3856   0.07654   0.07252  -0.0147  0.0022  1.0000  -11.9686   0.0000   0.0000   0.0000   0.2358
  17.300   1.3776   0.07950   0.07555  -0.0163  0.0022  1.0000  -11.9285   0.0000   0.0000   0.0000   0.2368
  17.400   1.3692   0.08256   0.07868  -0.0179  0.0022  1.0000  -11.8810   0.0000   0.0000   0.0000   0.2378
  17.500   1.3598   0.08585   0.08205  -0.0197  0.0022  1.0000  -11.8148   0.0000   0.0000   0.0000   0.2390
  17.600   1.3504   0.08907   0.08534  -0.0214  0.0022  1.0000  -11.7483   0.0000   0.0000   0.0000   0.2401
  17.700   1.3395   0.09271   0.08905  -0.0234  0.0022  1.0000  -11.6540   0.0000   0.0000   0.0000   0.2416
  17.800   1.3291   0.09626   0.09267  -0.0253  0.0023  1.0000  -11.5656   0.0000   0.0000   0.0000   0.2429
  17.900   1.3176   0.10015   0.09664  -0.0275  0.0023  1.0000  -11.4535   0.0000   0.0000   0.0000   0.2446
  18.000   1.3058   0.10414   0.10069  -0.0297  0.0023  1.0000  -11.3338   0.0000   0.0000   0.0000   0.2462
  18.100   1.2942   0.10813   0.10476  -0.0319  0.0024  1.0000  -11.2113   0.0000   0.0000   0.0000   0.2480
  18.200   1.2812   0.11250   0.10920  -0.0343  0.0024  1.0000  -11.0606   0.0000   0.0000   0.0000   0.2500
  18.300   1.2694   0.11659   0.11335  -0.0366  0.0025  1.0000  -10.9261   0.0000   0.0000   0.0000   0.2519
  18.600   1.2374   0.12840   0.12536  -0.0433  0.0029  1.0000  -10.5668   0.0000   0.0000   0.0000   0.2575
  18.700   1.2275   0.13221   0.12923  -0.0454  0.0031  1.0000  -10.4496   0.0000   0.0000   0.0000   0.2594
  18.800   1.2178   0.13601   0.13309  -0.0476  0.0033  1.0000  -10.3287   0.0000   0.0000   0.0000   0.2614
  18.900   1.2073   0.14004   0.13719  -0.0499  0.0036  1.0000  -10.1869   0.0000   0.0000   0.0000   0.2635
  19.000   1.1985   0.14369   0.14091  -0.0521  0.0038  1.0000  -10.0703   0.0000   0.0000   0.0000   0.2655
  19.100   1.1895   0.14743   0.14471  -0.0542  0.0040  1.0000  -9.9444   0.0000   0.0000   0.0000   0.2675
  19.200   1.1798   0.15140   0.14874  -0.0566  0.0042  1.0000  -9.7975   0.0000   0.0000   0.0000   0.2697
  19.300   1.1716   0.15502   0.15242  -0.0587  0.0044  1.0000  -9.6759   0.0000   0.0000   0.0000   0.2718
  19.400   1.1637   0.15863   0.15608  -0.0608  0.0045  1.0000  -9.5531   0.0000   0.0000   0.0000   0.2738
  19.500   1.1537   0.16280   0.16033  -0.0633  0.0048  1.0000  -9.3797   0.0000   0.0000   0.0000   0.2763
  19.600   1.1458   0.16636   0.16394  -0.0655  0.0050  1.0000  -9.2435   0.0000   0.0000   0.0000   0.2785
  19.700   1.1386   0.16969   0.16731  -0.0677  0.0051  1.0000  -9.1163   0.0000   0.0000   0.0000   0.2807
  19.800   1.1306   0.17330   0.17097  -0.0700  0.0053  1.0000  -8.9628   0.0000   0.0000   0.0000   0.2831
  19.900   1.1206   0.17757   0.17530  -0.0726  0.0056  1.0000  -8.7522   0.0000   0.0000   0.0000   0.2860
  20.000   1.1136   0.18116   0.17893  -0.0748  0.0057  1.0000  -8.6090   0.0000   0.0000   0.0000   0.2883
  20.100   1.1066   0.18487   0.18269  -0.0771  0.0058  1.0000  -8.4578   0.0000   0.0000   0.0000   0.2907
  20.200   1.0948   0.19013   0.18800  -0.0801  0.0062  1.0000  -8.1731   0.0000   0.0000   0.0000   0.2942
  20.300   1.0851   0.19496   0.19287  -0.0828  0.0064  1.0000  -7.9305   0.0000   0.0000   0.0000   0.2974
  20.400   1.0774   0.19935   0.19730  -0.0852  0.0064  1.0000  -7.7301   0.0000   0.0000   0.0000   0.3002
  20.500   1.0557   0.20866   0.20666  -0.0899  0.0068  1.0000  -7.1072   0.0000   0.0000   0.0000   0.3067
  20.800   0.9812   0.24925   0.24721  -0.1051  0.0041  1.0000  -4.2072   0.0000   0.0000   0.0000   0.3314
  20.900   0.9826   0.25130   0.24925  -0.1061  0.0039  1.0000  -4.2123   0.0000   0.0000   0.0000   0.3320
  21.000   0.9846   0.25304   0.25099  -0.1069  0.0037  1.0000  -4.2455   0.0000   0.0000   0.0000   0.3325
  21.100   0.9866   0.25470   0.25265  -0.1078  0.0035  1.0000  -4.2868   0.0000   0.0000   0.0000   0.3329
  21.200   0.9884   0.25652   0.25448  -0.1086  0.0033  1.0000  -4.3160   0.0000   0.0000   0.0000   0.3334
  21.300   0.9897   0.25864   0.25659  -0.1096  0.0032  1.0000  -4.3197   0.0000   0.0000   0.0000   0.3340
  21.400   0.9905   0.26108   0.25903  -0.1106  0.0030  1.0000  -4.2932   0.0000   0.0000   0.0000   0.3348
  21.600   0.9760   0.27717   0.27504  -0.1147  0.0025  1.0000  -3.2755   0.0000   0.0000   0.0000   0.3414
  21.700   0.9761   0.28048   0.27834  -0.1157  0.0025  1.0000  -3.1770   0.0000   0.0000   0.0000   0.3423
  21.800   0.9758   0.28408   0.28194  -0.1167  0.0025  1.0000  -3.0502   0.0000   0.0000   0.0000   0.3433
  21.900   0.9762   0.28723   0.28510  -0.1176  0.0025  1.0000  -2.9598   0.0000   0.0000   0.0000   0.3441
  22.000   0.9778   0.28944   0.28731  -0.1184  0.0026  1.0000  -2.9506   0.0000   0.0000   0.0000   0.3445
  22.100   0.9795   0.29157   0.28944  -0.1191  0.0026  1.0000  -2.9478   0.0000   0.0000   0.0000   0.3449
  22.200   0.9812   0.29365   0.29152  -0.1199  0.0026  1.0000  -2.9492   0.0000   0.0000   0.0000   0.3453
  22.300   0.9831   0.29570   0.29358  -0.1206  0.0026  1.0000  -2.9528   0.0000   0.0000   0.0000   0.3456
  22.400   0.9849   0.29775   0.29563  -0.1214  0.0027  1.0000  -2.9561   0.0000   0.0000   0.0000   0.3459
  22.500   0.9867   0.29985   0.29774  -0.1221  0.0027  1.0000  -2.9543   0.0000   0.0000   0.0000   0.3463
  22.600   0.9884   0.30237   0.30025  -0.1228  0.0028  1.0000  -2.9145   0.0000   0.0000   0.0000   0.3467
  23.100   0.9821   0.32557   0.32342  -0.1259  0.0070  1.0000  -2.0007   0.0000   0.0000   0.0000   0.3506
  23.200   0.9832   0.32796   0.32581  -0.1266  0.0070  1.0000  -1.9886   0.0000   0.0000   0.0000   0.3510
  23.300   0.9842   0.33035   0.32820  -0.1273  0.0070  1.0000  -1.9768   0.0000   0.0000   0.0000   0.3515
  23.400   0.9852   0.33273   0.33059  -0.1280  0.0070  1.0000  -1.9651   0.0000   0.0000   0.0000   0.3519
  23.500   0.9861   0.33511   0.33297  -0.1286  0.0070  1.0000  -1.9537   0.0000   0.0000   0.0000   0.3523
  23.600   0.9869   0.33749   0.33535  -0.1293  0.0070  1.0000  -1.9423   0.0000   0.0000   0.0000   0.3527
  23.700   0.9877   0.33986   0.33772  -0.1300  0.0070  1.0000  -1.9311   0.0000   0.0000   0.0000   0.3531
  23.800   0.9884   0.34222   0.34009  -0.1306  0.0070  1.0000  -1.9199   0.0000   0.0000   0.0000   0.3535
  23.900   0.9891   0.34458   0.34246  -0.1312  0.0070  1.0000  -1.9086   0.0000   0.0000   0.0000   0.3539
  24.000   0.9896   0.34694   0.34481  -0.1319  0.0070  1.0000  -1.8973   0.0000   0.0000   0.0000   0.3543
  24.100   0.9900   0.34928   0.34716  -0.1325  0.0070  1.0000  -1.8859   0.0000   0.0000   0.0000   0.3547
  24.200   0.9904   0.35162   0.34950  -0.1331  0.0070  1.0000  -1.8745   0.0000   0.0000   0.0000   0.3551
  24.300   0.9906   0.35394   0.35183  -0.1337  0.0070  1.0000  -1.8630   0.0000   0.0000   0.0000   0.3555
  24.400   0.9906   0.35625   0.35414  -0.1343  0.0070  1.0000  -1.8513   0.0000   0.0000   0.0000   0.3559
  24.500   0.9906   0.35854   0.35644  -0.1348  0.0070  1.0000  -1.8395   0.0000   0.0000   0.0000   0.3563
  24.600   0.9903   0.36081   0.35872  -0.1353  0.0070  1.0000  -1.8275   0.0000   0.0000   0.0000   0.3567
  24.700   0.9898   0.36306   0.36097  -0.1358  0.0070  1.0000  -1.8151   0.0000   0.0000   0.0000   0.3572
  24.800   0.9891   0.36527   0.36318  -0.1363  0.0070  1.0000  -1.8022   0.0000   0.0000   0.0000   0.3576
  24.900   0.9881   0.36744   0.36536  -0.1367  0.0069  1.0000  -1.7888   0.0000   0.0000   0.0000   0.3580
  25.000   0.9866   0.36955   0.36747  -0.1371  0.0069  1.0000  -1.7743   0.0000   0.0000   0.0000   0.3585
  25.100   0.9845   0.37158   0.36951  -0.1374  0.0069  1.0000  -1.7581   0.0000   0.0000   0.0000   0.3590
  25.200   0.9816   0.37348   0.37142  -0.1376  0.0069  1.0000  -1.7398   0.0000   0.0000   0.0000   0.3595
  25.300   0.9771   0.37513   0.37308  -0.1376  0.0069  1.0000  -1.7178   0.0000   0.0000   0.0000   0.3601
  26.200   0.8337   0.34549   0.34370  -0.1226  0.0067  1.0000  -1.2654   0.0000   0.0000   0.0000   0.3687
  26.300   0.8323   0.34591   0.34413  -0.1229  0.0066  1.0000  -1.2475   0.0000   0.0000   0.0000   0.3692
  26.400   0.8310   0.34641   0.34464  -0.1232  0.0065  1.0000  -1.2285   0.0000   0.0000   0.0000   0.3697
  26.500   0.8300   0.34697   0.34521  -0.1235  0.0064  1.0000  -1.2080   0.0000   0.0000   0.0000   0.3703
  26.600   0.8290   0.34750   0.34574  -0.1238  0.0062  1.0000  -1.1880   0.0000   0.0000   0.0000   0.3707
  26.700   0.8277   0.34796   0.34620  -0.1241  0.0060  1.0000  -1.1710   0.0000   0.0000   0.0000   0.3712
  26.800   0.8264   0.34835   0.34660  -0.1243  0.0058  1.0000  -1.1569   0.0000   0.0000   0.0000   0.3716
  26.900   0.8251   0.34871   0.34697  -0.1246  0.0056  1.0000  -1.1452   0.0000   0.0000   0.0000   0.3720
  27.000   0.8238   0.34904   0.34733  -0.1248  0.0055  1.0000  -1.1349   0.0000   0.0000   0.0000   0.3724
  27.100   0.8225   0.34938   0.34768  -0.1250  0.0053  1.0000  -1.1260   0.0000   0.0000   0.0000   0.3728
  27.200   0.8213   0.34973   0.34803  -0.1253  0.0052  1.0000  -1.1180   0.0000   0.0000   0.0000   0.3733
  27.300   0.8201   0.35007   0.34838  -0.1255  0.0050  1.0000  -1.1109   0.0000   0.0000   0.0000   0.3737
  27.400   0.8190   0.35042   0.34874  -0.1258  0.0049  1.0000  -1.1045   0.0000   0.0000   0.0000   0.3741
  27.500   0.8180   0.35077   0.34910  -0.1261  0.0048  1.0000  -1.0987   0.0000   0.0000   0.0000   0.3745
  27.600   0.8170   0.35113   0.34946  -0.1263  0.0047  1.0000  -1.0934   0.0000   0.0000   0.0000   0.3749
  27.700   0.8160   0.35149   0.34983  -0.1266  0.0046  1.0000  -1.0887   0.0000   0.0000   0.0000   0.3753
  27.800   0.8151   0.35186   0.35020  -0.1269  0.0045  1.0000  -1.0845   0.0000   0.0000   0.0000   0.3756
  27.900   0.8142   0.35223   0.35058  -0.1272  0.0044  1.0000  -1.0807   0.0000   0.0000   0.0000   0.3760
  28.000   0.8133   0.35260   0.35096  -0.1275  0.0043  1.0000  -1.0773   0.0000   0.0000   0.0000   0.3764
  28.100   0.8125   0.35298   0.35134  -0.1278  0.0042  1.0000  -1.0745   0.0000   0.0000   0.0000   0.3768
  28.200   0.8118   0.35336   0.35173  -0.1281  0.0041  1.0000  -1.0720   0.0000   0.0000   0.0000   0.3772
  28.300   0.8110   0.35374   0.35212  -0.1284  0.0040  1.0000  -1.0700   0.0000   0.0000   0.0000   0.3775
  28.400   0.8103   0.35413   0.35252  -0.1287  0.0039  1.0000  -1.0684   0.0000   0.0000   0.0000   0.3779
  28.500   0.8096   0.35452   0.35291  -0.1291  0.0039  1.0000  -1.0672   0.0000   0.0000   0.0000   0.3783
  28.600   0.8090   0.35491   0.35331  -0.1294  0.0038  1.0000  -1.0665   0.0000   0.0000   0.0000   0.3786
  28.700   0.8084   0.35530   0.35371  -0.1297  0.0037  1.0000  -1.0661   0.0000   0.0000   0.0000   0.3790
  28.800   0.8078   0.35570   0.35411  -0.1300  0.0037  1.0000  -1.0663   0.0000   0.0000   0.0000   0.3794
  28.900   0.8072   0.35609   0.35451  -0.1304  0.0036  1.0000  -1.0668   0.0000   0.0000   0.0000   0.3797
  29.000   0.8066   0.35649   0.35491  -0.1307  0.0035  1.0000  -1.0679   0.0000   0.0000   0.0000   0.3801
  29.100   0.8061   0.35688   0.35531  -0.1311  0.0035  1.0000  -1.0694   0.0000   0.0000   0.0000   0.3804
  29.200   0.8056   0.35728   0.35571  -0.1314  0.0034  1.0000  -1.0713   0.0000   0.0000   0.0000   0.3808
  29.300   0.8051   0.35767   0.35611  -0.1317  0.0034  1.0000  -1.0738   0.0000   0.0000   0.0000   0.3811
  29.400   0.8046   0.35806   0.35651  -0.1321  0.0033  1.0000  -1.0767   0.0000   0.0000   0.0000   0.3815
  29.500   0.8042   0.35845   0.35691  -0.1324  0.0033  1.0000  -1.0802   0.0000   0.0000   0.0000   0.3818
  29.600   0.8037   0.35884   0.35730  -0.1328  0.0032  1.0000  -1.0842   0.0000   0.0000   0.0000   0.3821
  29.700   0.8033   0.35922   0.35769  -0.1331  0.0032  1.0000  -1.0888   0.0000   0.0000   0.0000   0.3825
  29.800   0.8028   0.35960   0.35807  -0.1335  0.0031  1.0000  -1.0939   0.0000   0.0000   0.0000   0.3828
  29.900   0.8024   0.35997   0.35845  -0.1339  0.0031  1.0000  -1.0995   0.0000   0.0000   0.0000   0.3831
  30.000   0.8020   0.36033   0.35882  -0.1342  0.0030  1.0000  -1.1056   0.0000   0.0000   0.0000   0.3834


