xflr5 v6.61

 Calculated polar for: SG6042

 1 1 Reynolds number fixed          Mach number fixed         

 xtrf =   1.000 (top)        1.000 (bottom)
 Mach =   0.000     Re =     0.130 e 6     Ncrit =   9.000

  alpha     CL        CD       CDp       Cm    Top Xtr Bot Xtr   Cpmin    Chinge    XCp    
 ------- -------- --------- --------- -------- ------- ------- -------- --------- ---------
 -10.000  -0.3310   0.12040   0.11569  -0.0368  1.0000  0.0456  -1.2771   0.0000   0.0000   0.0000   0.1287
  -9.900  -0.3317   0.11951   0.11482  -0.0368  1.0000  0.0461  -1.2883   0.0000   0.0000   0.0000   0.1289
  -9.800  -0.3327   0.11867   0.11401  -0.0369  1.0000  0.0466  -1.3019   0.0000   0.0000   0.0000   0.1292
  -9.700  -0.3342   0.11792   0.11327  -0.0370  1.0000  0.0471  -1.3185   0.0000   0.0000   0.0000   0.1295
  -9.600  -0.3362   0.11725   0.11264  -0.0372  1.0000  0.0475  -1.3384   0.0000   0.0000   0.0000   0.1300
  -9.500  -0.3389   0.11668   0.11209  -0.0373  1.0000  0.0479  -1.3610   0.0000   0.0000   0.0000   0.1306
  -9.400  -0.3419   0.11616   0.11161  -0.0375  1.0000  0.0483  -1.3849   0.0000   0.0000   0.0000   0.1314
  -9.300  -0.3451   0.11568   0.11115  -0.0375  1.0000  0.0486  -1.4084   0.0000   0.0000   0.0000   0.1325
  -9.200  -0.3485   0.11519   0.11070  -0.0375  1.0000  0.0488  -1.4307   0.0000   0.0000   0.0000   0.1339
  -9.100  -0.3518   0.11468   0.11022  -0.0374  1.0000  0.0490  -1.4503   0.0000   0.0000   0.0000   0.1355
  -9.000  -0.3552   0.11415   0.10972  -0.0372  1.0000  0.0491  -1.4689   0.0000   0.0000   0.0000   0.1374
  -8.900  -0.3588   0.11360   0.10920  -0.0369  1.0000  0.0492  -1.4867   0.0000   0.0000   0.0000   0.1394
  -8.800  -0.3627   0.11304   0.10867  -0.0365  1.0000  0.0493  -1.5040   0.0000   0.0000   0.0000   0.1418
  -8.700  -0.3668   0.11246   0.10812  -0.0361  1.0000  0.0494  -1.5209   0.0000   0.0000   0.0000   0.1442
  -8.600  -0.3703   0.11186   0.10755  -0.0356  1.0000  0.0494  -1.5340   0.0000   0.0000   0.0000   0.1468
  -8.500  -0.3742   0.11126   0.10698  -0.0350  1.0000  0.0495  -1.5471   0.0000   0.0000   0.0000   0.1495
  -8.400  -0.3782   0.11066   0.10640  -0.0344  1.0000  0.0495  -1.5602   0.0000   0.0000   0.0000   0.1522
  -8.300  -0.3825   0.11006   0.10583  -0.0338  1.0000  0.0496  -1.5735   0.0000   0.0000   0.0000   0.1551
  -8.200  -0.3871   0.10946   0.10527  -0.0331  1.0000  0.0496  -1.5869   0.0000   0.0000   0.0000   0.1581
  -8.100  -0.3919   0.10888   0.10471  -0.0324  1.0000  0.0496  -1.6005   0.0000   0.0000   0.0000   0.1612
  -8.000  -0.3971   0.10831   0.10417  -0.0317  1.0000  0.0497  -1.6144   0.0000   0.0000   0.0000   0.1644
  -7.900  -0.4026   0.10775   0.10364  -0.0309  1.0000  0.0497  -1.6286   0.0000   0.0000   0.0000   0.1676
  -7.800  -0.4084   0.10720   0.10312  -0.0300  1.0000  0.0497  -1.6431   0.0000   0.0000   0.0000   0.1709
  -7.700  -0.4143   0.10662   0.10258  -0.0293  1.0000  0.0497  -1.6579   0.0000   0.0000   0.0000   0.1740
  -7.600  -0.4196   0.10596   0.10194  -0.0287  1.0000  0.0497  -1.6730   0.0000   0.0000   0.0000   0.1764
  -7.500  -0.4234   0.10509   0.10109  -0.0287  1.0000  0.0498  -1.6885   0.0000   0.0000   0.0000   0.1773
  -7.400  -0.4266   0.10412   0.10014  -0.0288  1.0000  0.0498  -1.7044   0.0000   0.0000   0.0000   0.1776
  -7.300  -0.4295   0.10307   0.09912  -0.0291  1.0000  0.0498  -1.7208   0.0000   0.0000   0.0000   0.1774
  -7.200  -0.4321   0.10196   0.09802  -0.0296  1.0000  0.0498  -1.7378   0.0000   0.0000   0.0000   0.1770
  -7.100  -0.4343   0.10078   0.09685  -0.0301  1.0000  0.0499  -1.7554   0.0000   0.0000   0.0000   0.1762
  -7.000  -0.4361   0.09955   0.09562  -0.0307  1.0000  0.0499  -1.7734   0.0000   0.0000   0.0000   0.1753
  -6.900  -0.4376   0.09828   0.09436  -0.0313  1.0000  0.0499  -1.7913   0.0000   0.0000   0.0000   0.1743
  -6.800  -0.4443   0.09493   0.09107  -0.0316  1.0000  0.0503  -1.8439   0.0000   0.0000   0.0000   0.1748
  -6.700  -0.4500   0.09190   0.08807  -0.0304  1.0000  0.0510  -1.8568   0.0000   0.0000   0.0000   0.1784
  -6.600  -0.4505   0.09048   0.08668  -0.0283  1.0000  0.0515  -1.8225   0.0000   0.0000   0.0000   0.1831
  -6.500  -0.4509   0.08931   0.08553  -0.0270  1.0000  0.0519  -1.7973   0.0000   0.0000   0.0000   0.1862
  -6.400  -0.4512   0.08822   0.08446  -0.0260  1.0000  0.0523  -1.7758   0.0000   0.0000   0.0000   0.1885
  -6.300  -0.4512   0.08720   0.08345  -0.0251  1.0000  0.0526  -1.7547   0.0000   0.0000   0.0000   0.1907
  -6.200  -0.4513   0.08616   0.08243  -0.0244  1.0000  0.0530  -1.7383   0.0000   0.0000   0.0000   0.1921
  -6.100  -0.4514   0.08511   0.08138  -0.0240  1.0000  0.0535  -1.7253   0.0000   0.0000   0.0000   0.1931
  -6.000  -0.4513   0.08403   0.08032  -0.0237  1.0000  0.0539  -1.7139   0.0000   0.0000   0.0000   0.1938
  -5.900  -0.4511   0.08293   0.07923  -0.0236  1.0000  0.0543  -1.7047   0.0000   0.0000   0.0000   0.1942
  -5.800  -0.4507   0.08178   0.07809  -0.0237  1.0000  0.0548  -1.6978   0.0000   0.0000   0.0000   0.1941
  -5.700  -0.4489   0.08052   0.07683  -0.0241  0.9998  0.0554  -1.6909   0.0000   0.0000   0.0000   0.1929
  -5.600  -0.4391   0.07870   0.07499  -0.0265  0.9981  0.0565  -1.6754   0.0000   0.0000   0.0000   0.1862
  -5.500  -0.4291   0.07677   0.07305  -0.0292  0.9962  0.0576  -1.6666   0.0000   0.0000   0.0000   0.1786
  -5.400  -0.4180   0.07471   0.07096  -0.0323  0.9941  0.0590  -1.6632   0.0000   0.0000   0.0000   0.1692
  -5.300  -0.4054   0.07248   0.06868  -0.0360  0.9922  0.0606  -1.6664   0.0000   0.0000   0.0000   0.1576
  -5.200  -0.3934   0.07022   0.06637  -0.0396  0.9895  0.0623  -1.6786   0.0000   0.0000   0.0000   0.1458
  -5.100  -0.3618   0.06802   0.06380  -0.0502  0.9857  0.0681  -1.7820   0.0000   0.0000   0.0000   0.1075
  -5.000  -0.3421   0.06694   0.06248  -0.0543  0.9835  0.0689  -1.8060   0.0000   0.0000   0.0000   0.0872
  -4.800  -0.3309   0.05866   0.05409  -0.0591  0.9793  0.0709  -1.8823   0.0000   0.0000   0.0000   0.0672
  -4.700  -0.3240   0.05668   0.05214  -0.0593  0.9778  0.0721  -1.8527   0.0000   0.0000   0.0000   0.0628
  -4.600  -0.3146   0.05526   0.05075  -0.0600  0.9762  0.0734  -1.8111   0.0000   0.0000   0.0000   0.0552
  -4.500  -0.3039   0.05401   0.04951  -0.0609  0.9747  0.0750  -1.7721   0.0000   0.0000   0.0000   0.0455
  -4.400  -0.2916   0.05276   0.04823  -0.0621  0.9734  0.0771  -1.7393   0.0000   0.0000   0.0000   0.0326
  -4.300  -0.2770   0.05136   0.04677  -0.0640  0.9722  0.0801  -1.7181   0.0000   0.0000   0.0000   0.0144
  -4.200  -0.2555   0.05374   0.04866  -0.0657  0.9681  0.0908  -1.7274   0.0000   0.0000   0.0000  -0.0120
  -4.100  -0.2473   0.04834   0.04310  -0.0691  0.9670  0.0934  -1.7813   0.0000   0.0000   0.0000  -0.0345
  -4.000  -0.2391   0.04628   0.04115  -0.0696  0.9657  0.0953  -1.7418   0.0000   0.0000   0.0000  -0.0463
  -3.900  -0.2289   0.04513   0.04007  -0.0701  0.9640  0.0977  -1.6911   0.0000   0.0000   0.0000  -0.0615
  -3.800  -0.2168   0.04436   0.03933  -0.0709  0.9623  0.1016  -1.6325   0.0000   0.0000   0.0000  -0.0820
  -3.700  -0.2016   0.04378   0.03863  -0.0730  0.9605  0.1219  -1.5654   0.0000   0.0000   0.0000  -0.1173
  -3.500  -0.1734   0.04260   0.03748  -0.0756  0.9579  0.1503  -1.4097   0.0000   0.0000   0.0000  -0.1919
  -3.400  -0.1678   0.04172   0.03663  -0.0750  0.9546  0.1527  -1.3705   0.0000   0.0000   0.0000  -0.2029
  -3.200  -0.1052   0.03269   0.02592  -0.0807  0.9553  0.0647  -1.7069   0.0000   0.0000   0.0000  -0.5281
  -3.100  -0.0912   0.03114   0.02417  -0.0815  0.9536  0.0616  -1.6991   0.0000   0.0000   0.0000  -0.6562
  -3.000  -0.0756   0.02970   0.02245  -0.0823  0.9521  0.0585  -1.7230   0.0000   0.0000   0.0000  -0.8535
  -2.900  -0.0591   0.02835   0.02076  -0.0830  0.9508  0.0557  -1.7584   0.0000   0.0000   0.0000  -1.1722
  -2.800  -0.0438   0.02744   0.01963  -0.0835  0.9495  0.0541  -1.7680   0.0000   0.0000   0.0000  -1.6834
  -2.700  -0.0285   0.02676   0.01877  -0.0841  0.9480  0.0532  -1.7617   0.0000   0.0000   0.0000  -2.7343
  -2.600  -0.0130   0.02616   0.01804  -0.0848  0.9466  0.0528  -1.7459   0.0000   0.0000   0.0000  -6.3646
  -2.500   0.0031   0.02556   0.01734  -0.0856  0.9454  0.0527  -1.7261   0.0000   0.0000   0.0000  28.1933
  -2.400   0.0197   0.02496   0.01666  -0.0865  0.9442  0.0530  -1.7043   0.0000   0.0000   0.0000   4.7002
  -2.300   0.0367   0.02438   0.01604  -0.0876  0.9431  0.0538  -1.6801   0.0000   0.0000   0.0000   2.6618
  -2.200   0.0542   0.02388   0.01552  -0.0887  0.9421  0.0552  -1.6527   0.0000   0.0000   0.0000   1.9030
  -2.100   0.0723   0.02347   0.01510  -0.0899  0.9411  0.0575  -1.6246   0.0000   0.0000   0.0000   1.5066
  -2.000   0.0768   0.02321   0.01483  -0.0887  0.9367  0.0592  -1.6137   0.0000   0.0000   0.0000   1.4163
  -1.900   0.0887   0.02289   0.01450  -0.0888  0.9339  0.0631  -1.6040   0.0000   0.0000   0.0000   1.2604
  -1.800   0.1032   0.02236   0.01396  -0.0893  0.9319  0.0717  -1.6290   0.0000   0.0000   0.0000   1.1231
  -1.700   0.1193   0.02160   0.01337  -0.0904  0.9305  0.1111  -1.6859   0.0000   0.0000   0.0000   1.0137
  -1.600   0.1339   0.02133   0.01321  -0.0913  0.9288  0.1492  -1.6447   0.0000   0.0000   0.0000   0.9370
  -1.500   0.1493   0.02099   0.01312  -0.0924  0.9273  0.1914  -1.5827   0.0000   0.0000   0.0000   0.8736
  -1.400   0.1660   0.02009   0.01295  -0.0940  0.9264  0.3403  -1.5273   0.0000   0.0000   0.0000   0.8201
  -1.300   0.1749   0.01915   0.01327  -0.0932  0.9255  0.6731  -1.4748   0.0000   0.0000   0.0000   0.7862
  -1.200   0.1840   0.01899   0.01338  -0.0919  0.9238  0.7724  -1.4170   0.0000   0.0000   0.0000   0.7523
  -1.100   0.1937   0.01890   0.01341  -0.0907  0.9223  0.8391  -1.3566   0.0000   0.0000   0.0000   0.7210
  -1.000   0.1939   0.01884   0.01342  -0.0883  0.9177  0.8819  -1.3245   0.0000   0.0000   0.0000   0.7075
  -0.900   0.2047   0.01864   0.01326  -0.0880  0.9131  1.0000  -1.2619   0.0000   0.0000   0.0000   0.6818
  -0.800   0.2188   0.01870   0.01321  -0.0887  0.9102  1.0000  -1.1909   0.0000   0.0000   0.0000   0.6568
  -0.700   0.2345   0.01875   0.01316  -0.0896  0.9077  1.0000  -1.1154   0.0000   0.0000   0.0000   0.6334
  -0.600   0.2512   0.01879   0.01311  -0.0907  0.9056  1.0000  -1.0375   0.0000   0.0000   0.0000   0.6121
  -0.500   0.2687   0.01883   0.01306  -0.0920  0.9038  1.0000  -0.9581   0.0000   0.0000   0.0000   0.5929
  -0.400   0.2870   0.01887   0.01301  -0.0934  0.9023  1.0000  -0.8770   0.0000   0.0000   0.0000   0.5756
  -0.300   0.3061   0.01890   0.01297  -0.0949  0.9010  1.0000  -0.7951   0.0000   0.0000   0.0000   0.5600
  -0.200   0.3254   0.01894   0.01293  -0.0964  0.8998  1.0000  -0.7138   0.0000   0.0000   0.0000   0.5461
  -0.100   0.3203   0.01911   0.01308  -0.0937  0.8919  1.0000  -0.7001   0.0000   0.0000   0.0000   0.5423
   0.000   0.3321   0.01917   0.01309  -0.0939  0.8884  1.0000  -0.6408   0.0000   0.0000   0.0000   0.5324
   0.100   0.3463   0.01921   0.01307  -0.0945  0.8856  1.0000  -0.5755   0.0000   0.0000   0.0000   0.5225
   0.200   0.3621   0.01922   0.01303  -0.0954  0.8833  1.0000  -0.5364   0.0000   0.0000   0.0000   0.5128
   0.300   0.3792   0.01921   0.01297  -0.0965  0.8814  1.0000  -0.5490   0.0000   0.0000   0.0000   0.5036
   0.400   0.3972   0.01918   0.01289  -0.0977  0.8797  1.0000  -0.5635   0.0000   0.0000   0.0000   0.4950
   0.500   0.4158   0.01914   0.01278  -0.0990  0.8783  1.0000  -0.5783   0.0000   0.0000   0.0000   0.4870
   0.600   0.4347   0.01909   0.01268  -0.1004  0.8769  1.0000  -0.5935   0.0000   0.0000   0.0000   0.4796
   0.700   0.4542   0.01903   0.01258  -0.1018  0.8757  1.0000  -0.6092   0.0000   0.0000   0.0000   0.4727
   1.000   0.4729   0.01936   0.01284  -0.0994  0.8597  1.0000  -0.6344   0.0000   0.0000   0.0000   0.4584
   1.100   0.4901   0.01925   0.01271  -0.1004  0.8575  1.0000  -0.6518   0.0000   0.0000   0.0000   0.4529
   1.200   0.5082   0.01912   0.01255  -0.1014  0.8555  1.0000  -0.6700   0.0000   0.0000   0.0000   0.4476
   1.300   0.5269   0.01896   0.01236  -0.1026  0.8538  1.0000  -0.6887   0.0000   0.0000   0.0000   0.4427
   1.400   0.5462   0.01878   0.01217  -0.1039  0.8524  1.0000  -0.7086   0.0000   0.0000   0.0000   0.4380
   1.500   0.5663   0.01859   0.01196  -0.1053  0.8512  1.0000  -0.7306   0.0000   0.0000   0.0000   0.4337
   1.600   0.5868   0.01838   0.01175  -0.1068  0.8501  1.0000  -0.7533   0.0000   0.0000   0.0000   0.4296
   1.800   0.5898   0.01884   0.01218  -0.1034  0.8360  1.0000  -0.7694   0.0000   0.0000   0.0000   0.4228
   1.900   0.6053   0.01870   0.01204  -0.1040  0.8331  1.0000  -0.7903   0.0000   0.0000   0.0000   0.4192
   2.000   0.6227   0.01851   0.01184  -0.1049  0.8307  1.0000  -0.8132   0.0000   0.0000   0.0000   0.4157
   2.100   0.6410   0.01828   0.01161  -0.1059  0.8287  1.0000  -0.8395   0.0000   0.0000   0.0000   0.4124
   2.200   0.6594   0.01803   0.01136  -0.1069  0.8268  1.0000  -0.8668   0.0000   0.0000   0.0000   0.4092
   2.300   0.6783   0.01775   0.01108  -0.1080  0.8251  1.0000  -0.8948   0.0000   0.0000   0.0000   0.4061
   2.400   0.6980   0.01745   0.01078  -0.1091  0.8234  1.0000  -0.9238   0.0000   0.0000   0.0000   0.4032
   2.500   0.7176   0.01715   0.01048  -0.1103  0.8218  1.0000  -0.9530   0.0000   0.0000   0.0000   0.4004
   2.600   0.7136   0.01754   0.01089  -0.1077  0.8124  1.0000  -0.9574   0.0000   0.0000   0.0000   0.3976
   2.700   0.7239   0.01748   0.01090  -0.1073  0.8071  1.0000  -0.9771   0.0000   0.0000   0.0000   0.3948
   2.800   0.7388   0.01727   0.01069  -0.1077  0.8034  1.0000  -1.0017   0.0000   0.0000   0.0000   0.3922
   2.900   0.7555   0.01700   0.01042  -0.1083  0.8003  1.0000  -1.0307   0.0000   0.0000   0.0000   0.3897
   3.000   0.7732   0.01669   0.01010  -0.1090  0.7975  1.0000  -1.0626   0.0000   0.0000   0.0000   0.3873
   3.100   0.7921   0.01634   0.00975  -0.1100  0.7949  1.0000  -1.0964   0.0000   0.0000   0.0000   0.3850
   3.200   0.8117   0.01600   0.00940  -0.1110  0.7923  1.0000  -1.1312   0.0000   0.0000   0.0000   0.3829
   3.300   0.8143   0.01618   0.00960  -0.1094  0.7845  1.0000  -1.1476   0.0000   0.0000   0.0000   0.3804
   3.400   0.8220   0.01617   0.00961  -0.1086  0.7777  1.0000  -1.1715   0.0000   0.0000   0.0000   0.3780
   3.500   0.8353   0.01598   0.00942  -0.1087  0.7725  1.0000  -1.2034   0.0000   0.0000   0.0000   0.3759
   3.600   0.8513   0.01571   0.00915  -0.1091  0.7681  1.0000  -1.2395   0.0000   0.0000   0.0000   0.3739
   3.700   0.8685   0.01543   0.00886  -0.1098  0.7642  1.0000  -1.2774   0.0000   0.0000   0.0000   0.3720
   3.800   0.8869   0.01514   0.00856  -0.1107  0.7603  1.0000  -1.3175   0.0000   0.0000   0.0000   0.3703
   3.900   0.8889   0.01530   0.00876  -0.1090  0.7514  1.0000  -1.3340   0.0000   0.0000   0.0000   0.3680
   4.000   0.8985   0.01522   0.00869  -0.1084  0.7437  1.0000  -1.3618   0.0000   0.0000   0.0000   0.3659
   4.100   0.9121   0.01502   0.00849  -0.1085  0.7371  1.0000  -1.3955   0.0000   0.0000   0.0000   0.3641
   4.200   0.9281   0.01478   0.00822  -0.1089  0.7313  1.0000  -1.4331   0.0000   0.0000   0.0000   0.3624
   4.300   0.9404   0.01468   0.00811  -0.1088  0.7241  1.0000  -1.4707   0.0000   0.0000   0.0000   0.3607
   4.400   0.9465   0.01472   0.00819  -0.1078  0.7144  1.0000  -1.4981   0.0000   0.0000   0.0000   0.3587
   4.500   0.9574   0.01461   0.00807  -0.1074  0.7055  1.0000  -1.5343   0.0000   0.0000   0.0000   0.3569
   4.600   0.9728   0.01442   0.00783  -0.1078  0.6976  1.0000  -1.5783   0.0000   0.0000   0.0000   0.3554
   4.700   0.9826   0.01442   0.00783  -0.1073  0.6882  1.0000  -1.6126   0.0000   0.0000   0.0000   0.3537
   4.800   0.9902   0.01444   0.00787  -0.1065  0.6772  1.0000  -1.6433   0.0000   0.0000   0.0000   0.3519
   4.900   1.0026   0.01436   0.00775  -0.1064  0.6668  1.0000  -1.6828   0.0000   0.0000   0.0000   0.3504
   5.000   1.0148   0.01433   0.00766  -0.1063  0.6566  1.0000  -1.7221   0.0000   0.0000   0.0000   0.3489
   5.100   1.0220   0.01440   0.00793  -0.1054  0.6446  1.0000  -1.7532   0.0000   0.0000   0.0000   0.3472
   5.200   1.0328   0.01440   0.00788  -0.1051  0.6325  1.0000  -1.7905   0.0000   0.0000   0.0000   0.3457
   5.300   1.0436   0.01444   0.00785  -0.1048  0.6205  1.0000  -1.8279   0.0000   0.0000   0.0000   0.3442
   5.400   1.0511   0.01452   0.00794  -0.1040  0.6064  1.0000  -1.8594   0.0000   0.0000   0.0000   0.3426
   5.500   1.0616   0.01458   0.00789  -0.1036  0.5918  1.0000  -1.8967   0.0000   0.0000   0.0000   0.3411
   5.600   1.0692   0.01470   0.00799  -0.1028  0.5768  1.0000  -1.9286   0.0000   0.0000   0.0000   0.3396
   5.700   1.0775   0.01482   0.00804  -0.1021  0.5602  1.0000  -1.9621   0.0000   0.0000   0.0000   0.3381
   5.800   1.0856   0.01497   0.00811  -0.1014  0.5439  1.0000  -1.9953   0.0000   0.0000   0.0000   0.3366
   5.900   1.0927   0.01514   0.00821  -0.1005  0.5259  1.0000  -2.0269   0.0000   0.0000   0.0000   0.3351
   6.000   1.1002   0.01534   0.00831  -0.0998  0.5086  1.0000  -2.0724   0.0000   0.0000   0.0000   0.3336
   6.100   1.1069   0.01555   0.00844  -0.0988  0.4898  1.0000  -2.1181   0.0000   0.0000   0.0000   0.3321
   6.200   1.1135   0.01580   0.00858  -0.0979  0.4717  1.0000  -2.1641   0.0000   0.0000   0.0000   0.3306
   6.300   1.1194   0.01605   0.00874  -0.0970  0.4520  1.0000  -2.2085   0.0000   0.0000   0.0000   0.3292
   6.400   1.1253   0.01634   0.00892  -0.0960  0.4335  1.0000  -2.2530   0.0000   0.0000   0.0000   0.3277
   6.500   1.1307   0.01664   0.00911  -0.0949  0.4139  1.0000  -2.2963   0.0000   0.0000   0.0000   0.3262
   6.600   1.1362   0.01695   0.00932  -0.0939  0.3957  1.0000  -2.3399   0.0000   0.0000   0.0000   0.3248
   6.700   1.1411   0.01730   0.00955  -0.0928  0.3770  1.0000  -2.3822   0.0000   0.0000   0.0000   0.3234
   6.800   1.1466   0.01763   0.00980  -0.0919  0.3597  1.0000  -2.4257   0.0000   0.0000   0.0000   0.3220
   6.900   1.1513   0.01800   0.01005  -0.0908  0.3426  1.0000  -2.4675   0.0000   0.0000   0.0000   0.3206
   7.000   1.1567   0.01836   0.01033  -0.0898  0.3270  1.0000  -2.5108   0.0000   0.0000   0.0000   0.3193
   7.100   1.1617   0.01873   0.01061  -0.0888  0.3113  1.0000  -2.5533   0.0000   0.0000   0.0000   0.3180
   7.200   1.1663   0.01916   0.01092  -0.0878  0.2972  1.0000  -2.5948   0.0000   0.0000   0.0000   0.3167
   7.300   1.1721   0.01949   0.01121  -0.0869  0.2828  1.0000  -2.6392   0.0000   0.0000   0.0000   0.3154
   7.400   1.1757   0.01999   0.01155  -0.0858  0.2701  1.0000  -2.6785   0.0000   0.0000   0.0000   0.3141
   7.500   1.1822   0.02031   0.01187  -0.0850  0.2577  1.0000  -2.7246   0.0000   0.0000   0.0000   0.3130
   7.600   1.1871   0.02070   0.01218  -0.0841  0.2461  1.0000  -2.7674   0.0000   0.0000   0.0000   0.3117
   7.700   1.1911   0.02124   0.01257  -0.0830  0.2353  1.0000  -2.8073   0.0000   0.0000   0.0000   0.3105
   7.800   1.1978   0.02151   0.01288  -0.0823  0.2256  1.0000  -2.8545   0.0000   0.0000   0.0000   0.3094
   7.900   1.2026   0.02189   0.01320  -0.0814  0.2165  1.0000  -2.8973   0.0000   0.0000   0.0000   0.3082
   8.000   1.2063   0.02247   0.01363  -0.0803  0.2075  1.0000  -2.9366   0.0000   0.0000   0.0000   0.3069
   8.100   1.2127   0.02282   0.01419  -0.0795  0.1989  1.0000  -2.9816   0.0000   0.0000   0.0000   0.3058
   8.200   1.2186   0.02317   0.01455  -0.0787  0.1916  1.0000  -3.0273   0.0000   0.0000   0.0000   0.3047
   8.300   1.2235   0.02362   0.01494  -0.0778  0.1851  1.0000  -3.0706   0.0000   0.0000   0.0000   0.3036
   8.400   1.2295   0.02438   0.01553  -0.0772  0.1773  1.0000  -3.1143   0.0000   0.0000   0.0000   0.3026
   8.500   1.2362   0.02464   0.01589  -0.0765  0.1725  1.0000  -3.1614   0.0000   0.0000   0.0000   0.3016
   8.600   1.2427   0.02499   0.01628  -0.0758  0.1672  1.0000  -3.2080   0.0000   0.0000   0.0000   0.3006
   8.700   1.2487   0.02536   0.01667  -0.0751  0.1621  1.0000  -3.2541   0.0000   0.0000   0.0000   0.2995
   8.800   1.2542   0.02585   0.01710  -0.0743  0.1573  1.0000  -3.2991   0.0000   0.0000   0.0000   0.2985
   8.900   1.2633   0.02680   0.01789  -0.0742  0.1503  1.0000  -3.3493   0.0000   0.0000   0.0000   0.2979
   9.000   1.2692   0.02705   0.01825  -0.0734  0.1471  1.0000  -3.3944   0.0000   0.0000   0.0000   0.2969
   9.100   1.2752   0.02737   0.01864  -0.0727  0.1431  1.0000  -3.4401   0.0000   0.0000   0.0000   0.2958
   9.200   1.2810   0.02772   0.01902  -0.0719  0.1389  1.0000  -3.4859   0.0000   0.0000   0.0000   0.2949
   9.300   1.2862   0.02809   0.01940  -0.0711  0.1351  1.0000  -3.5317   0.0000   0.0000   0.0000   0.2939
   9.400   1.2914   0.02858   0.01984  -0.0704  0.1312  1.0000  -3.5775   0.0000   0.0000   0.0000   0.2929
   9.500   1.3031   0.02970   0.02082  -0.0708  0.1252  1.0000  -3.6335   0.0000   0.0000   0.0000   0.2926
   9.600   1.3085   0.02999   0.02122  -0.0700  0.1231  1.0000  -3.6765   0.0000   0.0000   0.0000   0.2916
   9.700   1.3148   0.03037   0.02169  -0.0693  0.1204  1.0000  -3.7208   0.0000   0.0000   0.0000   0.2907
   9.800   1.3211   0.03080   0.02218  -0.0686  0.1174  1.0000  -3.7654   0.0000   0.0000   0.0000   0.2898
   9.900   1.3269   0.03122   0.02263  -0.0679  0.1145  1.0000  -3.8120   0.0000   0.0000   0.0000   0.2889
  10.000   1.3322   0.03163   0.02306  -0.0672  0.1116  1.0000  -3.8696   0.0000   0.0000   0.0000   0.2880
  10.100   1.3372   0.03208   0.02350  -0.0664  0.1089  1.0000  -3.9274   0.0000   0.0000   0.0000   0.2871
  10.200   1.3455   0.03293   0.02426  -0.0663  0.1051  1.0000  -3.9950   0.0000   0.0000   0.0000   0.2865
  10.300   1.3560   0.03393   0.02529  -0.0665  0.1014  1.0000  -4.0629   0.0000   0.0000   0.0000   0.2861
  10.400   1.3592   0.03421   0.02567  -0.0654  0.0996  1.0000  -4.1127   0.0000   0.0000   0.0000   0.2850
  10.500   1.3627   0.03456   0.02611  -0.0644  0.0973  1.0000  -4.1635   0.0000   0.0000   0.0000   0.2840
  10.600   1.3665   0.03496   0.02658  -0.0634  0.0949  1.0000  -4.2158   0.0000   0.0000   0.0000   0.2831
  10.700   1.3707   0.03540   0.02705  -0.0626  0.0926  1.0000  -4.2694   0.0000   0.0000   0.0000   0.2821
  10.800   1.3752   0.03587   0.02755  -0.0618  0.0904  1.0000  -4.3245   0.0000   0.0000   0.0000   0.2813
  10.900   1.3798   0.03637   0.02807  -0.0611  0.0884  1.0000  -4.3803   0.0000   0.0000   0.0000   0.2804
  11.000   1.3850   0.03698   0.02866  -0.0605  0.0864  1.0000  -4.4380   0.0000   0.0000   0.0000   0.2797
  11.100   1.4030   0.03924   0.03097  -0.0620  0.0818  1.0000  -4.5159   0.0000   0.0000   0.0000   0.2801
  11.200   1.4055   0.03962   0.03146  -0.0609  0.0810  1.0000  -4.5596   0.0000   0.0000   0.0000   0.2790
  11.300   1.4083   0.04009   0.03204  -0.0598  0.0799  1.0000  -4.6032   0.0000   0.0000   0.0000   0.2780
  11.400   1.4117   0.04065   0.03271  -0.0588  0.0785  1.0000  -4.6468   0.0000   0.0000   0.0000   0.2771
  11.500   1.4151   0.04129   0.03344  -0.0579  0.0770  1.0000  -4.6899   0.0000   0.0000   0.0000   0.2762
  11.600   1.4181   0.04196   0.03422  -0.0570  0.0755  1.0000  -4.7307   0.0000   0.0000   0.0000   0.2753
  11.700   1.4211   0.04266   0.03500  -0.0561  0.0740  1.0000  -4.7723   0.0000   0.0000   0.0000   0.2744
  11.800   1.4241   0.04335   0.03577  -0.0553  0.0726  1.0000  -4.8148   0.0000   0.0000   0.0000   0.2736
  11.900   1.4271   0.04404   0.03651  -0.0544  0.0712  1.0000  -4.8582   0.0000   0.0000   0.0000   0.2728
  12.000   1.4301   0.04473   0.03724  -0.0536  0.0699  1.0000  -4.9028   0.0000   0.0000   0.0000   0.2720
  12.100   1.4332   0.04542   0.03796  -0.0529  0.0687  1.0000  -4.9676   0.0000   0.0000   0.0000   0.2712
  12.200   1.4368   0.04618   0.03873  -0.0522  0.0674  1.0000  -5.0374   0.0000   0.0000   0.0000   0.2705
  12.300   1.4412   0.04723   0.03979  -0.0518  0.0659  1.0000  -5.1077   0.0000   0.0000   0.0000   0.2699
  12.400   1.4447   0.04970   0.04238  -0.0515  0.0640  1.0000  -5.1482   0.0000   0.0000   0.0000   0.2695
  12.500   1.4426   0.05167   0.04450  -0.0505  0.0630  1.0000  -5.1626   0.0000   0.0000   0.0000   0.2687
  12.600   1.4408   0.05227   0.04520  -0.0493  0.0626  1.0000  -5.2021   0.0000   0.0000   0.0000   0.2677
  12.700   1.4390   0.05296   0.04600  -0.0481  0.0620  1.0000  -5.2400   0.0000   0.0000   0.0000   0.2668
  12.800   1.4371   0.05374   0.04689  -0.0470  0.0614  1.0000  -5.2767   0.0000   0.0000   0.0000   0.2659
  12.900   1.4351   0.05459   0.04786  -0.0460  0.0608  1.0000  -5.3117   0.0000   0.0000   0.0000   0.2651
  13.000   1.4329   0.05552   0.04889  -0.0450  0.0601  1.0000  -5.3450   0.0000   0.0000   0.0000   0.2642
  13.100   1.4304   0.05650   0.04997  -0.0440  0.0594  1.0000  -5.3769   0.0000   0.0000   0.0000   0.2635
  13.200   1.4277   0.05753   0.05110  -0.0431  0.0587  1.0000  -5.4070   0.0000   0.0000   0.0000   0.2627
  13.300   1.4249   0.05861   0.05228  -0.0423  0.0580  1.0000  -5.4364   0.0000   0.0000   0.0000   0.2620
  13.400   1.4221   0.05973   0.05349  -0.0415  0.0573  1.0000  -5.4654   0.0000   0.0000   0.0000   0.2614
  13.500   1.4190   0.06090   0.05476  -0.0408  0.0567  1.0000  -5.4926   0.0000   0.0000   0.0000   0.2607
  13.600   1.4159   0.06213   0.05608  -0.0402  0.0561  1.0000  -5.5184   0.0000   0.0000   0.0000   0.2602
  13.700   1.4124   0.06344   0.05748  -0.0396  0.0557  1.0000  -5.5414   0.0000   0.0000   0.0000   0.2596
  13.800   1.4079   0.06489   0.05902  -0.0390  0.0553  1.0000  -5.5554   0.0000   0.0000   0.0000   0.2591
  13.900   1.4028   0.06644   0.06068  -0.0385  0.0550  1.0000  -5.5645   0.0000   0.0000   0.0000   0.2587
  14.000   1.3972   0.06805   0.06239  -0.0380  0.0547  1.0000  -5.5704   0.0000   0.0000   0.0000   0.2583
  14.100   1.3911   0.06975   0.06419  -0.0377  0.0544  1.0000  -5.5718   0.0000   0.0000   0.0000   0.2580
  14.200   1.3846   0.07151   0.06606  -0.0374  0.0542  1.0000  -5.5701   0.0000   0.0000   0.0000   0.2578
  14.300   1.3774   0.07338   0.06802  -0.0373  0.0540  1.0000  -5.5629   0.0000   0.0000   0.0000   0.2576
  14.400   1.3695   0.07533   0.07008  -0.0372  0.0539  1.0000  -5.5503   0.0000   0.0000   0.0000   0.2575
  14.500   1.3609   0.07739   0.07224  -0.0372  0.0538  1.0000  -5.5320   0.0000   0.0000   0.0000   0.2575
  14.600   1.3516   0.07960   0.07456  -0.0374  0.0537  1.0000  -5.5069   0.0000   0.0000   0.0000   0.2577
  14.700   1.3418   0.08196   0.07703  -0.0378  0.0537  1.0000  -5.4763   0.0000   0.0000   0.0000   0.2580
  14.800   1.3310   0.08453   0.07970  -0.0384  0.0537  1.0000  -5.4370   0.0000   0.0000   0.0000   0.2584
  14.900   1.3195   0.08730   0.08258  -0.0392  0.0538  1.0000  -5.3899   0.0000   0.0000   0.0000   0.2591
  15.000   1.3069   0.09035   0.08573  -0.0402  0.0539  1.0000  -5.3317   0.0000   0.0000   0.0000   0.2600
  15.100   1.2920   0.09386   0.08936  -0.0417  0.0541  1.0000  -5.2523   0.0000   0.0000   0.0000   0.2614
  15.200   1.2736   0.09812   0.09374  -0.0439  0.0544  1.0000  -5.1408   0.0000   0.0000   0.0000   0.2633
  15.300   1.2515   0.10335   0.09910  -0.0469  0.0550  1.0000  -4.9908   0.0000   0.0000   0.0000   0.2662
  15.400   1.2233   0.11016   0.10605  -0.0512  0.0559  1.0000  -4.7798   0.0000   0.0000   0.0000   0.2705
  15.500   1.1657   0.12466   0.12070  -0.0612  0.0592  1.0000  -4.2611   0.0000   0.0000   0.0000   0.2813
  15.600   1.1215   0.13798   0.13403  -0.0695  0.0619  1.0000  -3.8158   0.0000   0.0000   0.0000   0.2910
  15.700   1.0966   0.14710   0.14313  -0.0745  0.0629  1.0000  -3.5401   0.0000   0.0000   0.0000   0.2972
  15.900   1.0196   0.18267   0.17848  -0.0940  0.0795  1.0000  -2.4191   0.0000   0.0000   0.0000   0.3230
  16.000   1.0207   0.18493   0.18075  -0.0945  0.0801  1.0000  -2.4126   0.0000   0.0000   0.0000   0.3233
  16.600   0.9972   0.20770   0.20348  -0.1088  0.0968  1.0000  -1.9361   0.0000   0.0000   0.0000   0.3397
  16.700   0.9968   0.20937   0.20515  -0.1102  0.0946  1.0000  -1.9182   0.0000   0.0000   0.0000   0.3410
  16.800   0.9978   0.21106   0.20685  -0.1111  0.0931  1.0000  -1.9114   0.0000   0.0000   0.0000   0.3417
  16.900   0.9993   0.21274   0.20854  -0.1119  0.0918  1.0000  -1.9113   0.0000   0.0000   0.0000   0.3422
  17.000   1.0013   0.21437   0.21017  -0.1126  0.0907  1.0000  -1.9253   0.0000   0.0000   0.0000   0.3425
  17.100   1.0036   0.21594   0.21176  -0.1132  0.0896  1.0000  -1.9438   0.0000   0.0000   0.0000   0.3426
  17.200   1.0064   0.21746   0.21328  -0.1137  0.0885  1.0000  -1.9676   0.0000   0.0000   0.0000   0.3426
  17.300   1.0098   0.21891   0.21475  -0.1139  0.0875  1.0000  -1.9978   0.0000   0.0000   0.0000   0.3423
  17.400   1.0139   0.22031   0.21616  -0.1140  0.0865  1.0000  -2.0362   0.0000   0.0000   0.0000   0.3417
  17.500   1.0191   0.22169   0.21757  -0.1138  0.0856  1.0000  -2.0861   0.0000   0.0000   0.0000   0.3407
  17.600   1.0262   0.22314   0.21904  -0.1131  0.0847  1.0000  -2.1547   0.0000   0.0000   0.0000   0.3390
  17.700   1.0342   0.22471   0.22065  -0.1119  0.0838  1.0000  -2.2361   0.0000   0.0000   0.0000   0.3369
  17.800   1.0426   0.22723   0.22321  -0.1103  0.0828  1.0000  -2.3272   0.0000   0.0000   0.0000   0.3342
  17.900   1.0406   0.23437   0.23033  -0.1105  0.0818  1.0000  -2.3001   0.0000   0.0000   0.0000   0.3345
  18.000   1.0411   0.23663   0.23259  -0.1117  0.0817  1.0000  -2.2856   0.0000   0.0000   0.0000   0.3355
  18.100   1.0415   0.23880   0.23476  -0.1130  0.0816  1.0000  -2.2710   0.0000   0.0000   0.0000   0.3365
  18.200   1.0419   0.24088   0.23685  -0.1142  0.0815  1.0000  -2.2562   0.0000   0.0000   0.0000   0.3376
  18.300   1.0422   0.24286   0.23882  -0.1155  0.0814  1.0000  -2.2408   0.0000   0.0000   0.0000   0.3386
  18.400   1.0415   0.24469   0.24064  -0.1171  0.0813  1.0000  -2.2148   0.0000   0.0000   0.0000   0.3401
  18.500   1.0398   0.24629   0.24224  -0.1189  0.0810  1.0000  -2.1797   0.0000   0.0000   0.0000   0.3419
  18.600   1.0366   0.24745   0.24339  -0.1213  0.0805  1.0000  -2.1277   0.0000   0.0000   0.0000   0.3444
  18.700   1.0297   0.24800   0.24391  -0.1247  0.0792  1.0000  -2.0397   0.0000   0.0000   0.0000   0.3484
  18.800   1.0273   0.24955   0.24544  -0.1271  0.0773  1.0000  -1.9917   0.0000   0.0000   0.0000   0.3508
  18.900   1.0278   0.25145   0.24735  -0.1283  0.0757  1.0000  -1.9794   0.0000   0.0000   0.0000   0.3518
  19.000   1.0290   0.25336   0.24926  -0.1293  0.0745  1.0000  -1.9775   0.0000   0.0000   0.0000   0.3525
  19.100   1.0305   0.25525   0.25117  -0.1302  0.0734  1.0000  -1.9807   0.0000   0.0000   0.0000   0.3530
  19.200   1.0322   0.25712   0.25304  -0.1310  0.0723  1.0000  -1.9872   0.0000   0.0000   0.0000   0.3533
  19.300   1.0340   0.25897   0.25490  -0.1317  0.0714  1.0000  -1.9964   0.0000   0.0000   0.0000   0.3536
  19.400   1.0360   0.26079   0.25673  -0.1323  0.0706  1.0000  -2.0079   0.0000   0.0000   0.0000   0.3538
  19.500   1.0380   0.26259   0.25854  -0.1329  0.0698  1.0000  -2.0218   0.0000   0.0000   0.0000   0.3540
  19.600   1.0403   0.26437   0.26034  -0.1335  0.0691  1.0000  -2.0380   0.0000   0.0000   0.0000   0.3540
  19.700   1.0426   0.26614   0.26212  -0.1340  0.0684  1.0000  -2.0565   0.0000   0.0000   0.0000   0.3540
  19.800   1.0451   0.26791   0.26390  -0.1344  0.0678  1.0000  -2.0777   0.0000   0.0000   0.0000   0.3539
  19.900   1.0478   0.26968   0.26569  -0.1347  0.0672  1.0000  -2.1016   0.0000   0.0000   0.0000   0.3537
  20.000   1.0507   0.27148   0.26750  -0.1350  0.0666  1.0000  -2.1287   0.0000   0.0000   0.0000   0.3534
  20.100   1.0538   0.27334   0.26946  -0.1352  0.0662  1.0000  -2.1663   0.0000   0.0000   0.0000   0.3529
  20.200   1.0573   0.27530   0.27143  -0.1352  0.0657  1.0000  -2.2027   0.0000   0.0000   0.0000   0.3523
  20.300   1.0614   0.27743   0.27359  -0.1350  0.0652  1.0000  -2.2446   0.0000   0.0000   0.0000   0.3515
  20.400   1.0664   0.27994   0.27613  -0.1346  0.0648  1.0000  -2.2953   0.0000   0.0000   0.0000   0.3502
  20.500   1.0733   0.28335   0.27958  -0.1337  0.0643  1.0000  -2.3647   0.0000   0.0000   0.0000   0.3484
  20.600   1.0764   0.29245   0.28868  -0.1325  0.0633  1.0000  -2.4066   0.0000   0.0000   0.0000   0.3469
  20.700   1.0771   0.29466   0.29090  -0.1335  0.0632  1.0000  -2.4045   0.0000   0.0000   0.0000   0.3475
  20.800   1.0777   0.29679   0.29304  -0.1345  0.0632  1.0000  -2.4002   0.0000   0.0000   0.0000   0.3482
  20.900   1.0780   0.29868   0.29493  -0.1356  0.0631  1.0000  -2.3905   0.0000   0.0000   0.0000   0.3491
  21.000   1.0769   0.30019   0.29644  -0.1370  0.0630  1.0000  -2.3645   0.0000   0.0000   0.0000   0.3504
  21.100   1.0747   0.30127   0.29752  -0.1388  0.0628  1.0000  -2.3252   0.0000   0.0000   0.0000   0.3521
  21.200   1.0707   0.30184   0.29807  -0.1409  0.0625  1.0000  -2.2672   0.0000   0.0000   0.0000   0.3544
  21.300   1.0661   0.30219   0.29840  -0.1436  0.0619  1.0000  -2.1920   0.0000   0.0000   0.0000   0.3573
  21.400   1.0628   0.30304   0.29924  -0.1466  0.0601  1.0000  -2.1082   0.0000   0.0000   0.0000   0.3604
  21.500   1.0629   0.30502   0.30122  -0.1480  0.0577  1.0000  -2.0836   0.0000   0.0000   0.0000   0.3615
  21.600   1.0639   0.30713   0.30335  -0.1488  0.0559  1.0000  -2.0809   0.0000   0.0000   0.0000   0.3620
  21.700   1.0651   0.30917   0.30539  -0.1495  0.0543  1.0000  -2.0856   0.0000   0.0000   0.0000   0.3622
  21.800   1.0667   0.31108   0.30732  -0.1499  0.0527  1.0000  -2.0983   0.0000   0.0000   0.0000   0.3622
  21.900   1.0690   0.31271   0.30897  -0.1499  0.0510  1.0000  -2.1305   0.0000   0.0000   0.0000   0.3617
  22.000   1.0834   0.31988   0.31619  -0.1440  0.0470  1.0000  -2.3825   0.0000   0.0000   0.0000   0.3540
  22.100   1.0813   0.32145   0.31775  -0.1455  0.0468  1.0000  -2.3247   0.0000   0.0000   0.0000   0.3556
  22.200   1.0779   0.32279   0.31908  -0.1474  0.0466  1.0000  -2.2564   0.0000   0.0000   0.0000   0.3576
  22.300   1.0738   0.32402   0.32030  -0.1496  0.0462  1.0000  -2.1786   0.0000   0.0000   0.0000   0.3599
  22.400   1.0703   0.32542   0.32168  -0.1522  0.0452  1.0000  -2.0836   0.0000   0.0000   0.0000   0.3628
  22.500   1.0695   0.32753   0.32378  -0.1543  0.0420  1.0000  -2.0179   0.0000   0.0000   0.0000   0.3647
  22.600   1.0705   0.32925   0.32551  -0.1549  0.0389  1.0000  -2.0270   0.0000   0.0000   0.0000   0.3649
  22.700   1.0718   0.33090   0.32717  -0.1551  0.0372  1.0000  -2.0468   0.0000   0.0000   0.0000   0.3647
  22.800   1.0737   0.33224   0.32853  -0.1549  0.0359  1.0000  -2.0887   0.0000   0.0000   0.0000   0.3640
  22.900   1.0792   0.33315   0.32949  -0.1531  0.0343  1.0000  -2.2198   0.0000   0.0000   0.0000   0.3611
  23.000   1.0812   0.34036   0.33669  -0.1508  0.0332  1.0000  -2.2475   0.0000   0.0000   0.0000   0.3586
  23.100   1.0801   0.34292   0.33925  -0.1515  0.0332  1.0000  -2.2058   0.0000   0.0000   0.0000   0.3593
  23.200   1.0787   0.34541   0.34174  -0.1521  0.0331  1.0000  -2.1653   0.0000   0.0000   0.0000   0.3599
  23.300   1.0771   0.34781   0.34415  -0.1528  0.0331  1.0000  -2.1258   0.0000   0.0000   0.0000   0.3606
  23.400   1.0747   0.35009   0.34644  -0.1534  0.0330  1.0000  -2.0817   0.0000   0.0000   0.0000   0.3614
  23.500   1.0715   0.35225   0.34860  -0.1541  0.0330  1.0000  -2.0358   0.0000   0.0000   0.0000   0.3623
  23.600   1.0672   0.35424   0.35060  -0.1548  0.0329  1.0000  -1.9863   0.0000   0.0000   0.0000   0.3634
  23.700   1.0620   0.35608   0.35244  -0.1553  0.0328  1.0000  -1.9350   0.0000   0.0000   0.0000   0.3645
  23.800   1.0553   0.35768   0.35405  -0.1556  0.0327  1.0000  -1.8805   0.0000   0.0000   0.0000   0.3657
  24.300   0.9173   0.33361   0.33031  -0.1393  0.0324  1.0000  -1.4593   0.0000   0.0000   0.0000   0.3720
  24.400   0.9127   0.33375   0.33045  -0.1399  0.0321  1.0000  -1.4089   0.0000   0.0000   0.0000   0.3733
  24.500   0.9091   0.33427   0.33099  -0.1406  0.0315  1.0000  -1.3595   0.0000   0.0000   0.0000   0.3746
  24.600   0.9061   0.33484   0.33157  -0.1410  0.0306  1.0000  -1.3211   0.0000   0.0000   0.0000   0.3755
  24.700   0.9031   0.33524   0.33198  -0.1412  0.0298  1.0000  -1.2943   0.0000   0.0000   0.0000   0.3761
  24.800   0.9002   0.33554   0.33230  -0.1412  0.0291  1.0000  -1.2734   0.0000   0.0000   0.0000   0.3766
  24.900   0.8975   0.33582   0.33259  -0.1413  0.0285  1.0000  -1.2559   0.0000   0.0000   0.0000   0.3771
  25.000   0.8949   0.33607   0.33285  -0.1414  0.0279  1.0000  -1.2407   0.0000   0.0000   0.0000   0.3775
  25.100   0.8926   0.33633   0.33313  -0.1414  0.0274  1.0000  -1.2275   0.0000   0.0000   0.0000   0.3778
  25.200   0.8903   0.33659   0.33340  -0.1415  0.0269  1.0000  -1.2160   0.0000   0.0000   0.0000   0.3782
  25.300   0.8882   0.33685   0.33368  -0.1415  0.0264  1.0000  -1.2060   0.0000   0.0000   0.0000   0.3785
  25.400   0.8863   0.33711   0.33395  -0.1416  0.0260  1.0000  -1.1975   0.0000   0.0000   0.0000   0.3788
  25.500   0.8844   0.33737   0.33422  -0.1417  0.0256  1.0000  -1.1903   0.0000   0.0000   0.0000   0.3791
  25.600   0.8827   0.33762   0.33448  -0.1418  0.0253  1.0000  -1.1846   0.0000   0.0000   0.0000   0.3793
  25.700   0.8811   0.33787   0.33474  -0.1418  0.0249  1.0000  -1.1805   0.0000   0.0000   0.0000   0.3796
  25.800   0.8795   0.33811   0.33500  -0.1419  0.0246  1.0000  -1.1779   0.0000   0.0000   0.0000   0.3798
  25.900   0.8781   0.33833   0.33523  -0.1420  0.0243  1.0000  -1.1769   0.0000   0.0000   0.0000   0.3800
  26.000   0.8767   0.33853   0.33545  -0.1420  0.0240  1.0000  -1.1777   0.0000   0.0000   0.0000   0.3801
  26.100   0.8754   0.33872   0.33564  -0.1420  0.0237  1.0000  -1.1805   0.0000   0.0000   0.0000   0.3802
  26.200   0.8742   0.33888   0.33582  -0.1420  0.0234  1.0000  -1.1855   0.0000   0.0000   0.0000   0.3802
  26.300   0.8730   0.33901   0.33597  -0.1420  0.0232  1.0000  -1.1931   0.0000   0.0000   0.0000   0.3802
  26.400   0.8719   0.33915   0.33612  -0.1418  0.0229  1.0000  -1.2037   0.0000   0.0000   0.0000   0.3801
  26.500   0.8710   0.33932   0.33631  -0.1416  0.0227  1.0000  -1.2183   0.0000   0.0000   0.0000   0.3798
  26.600   0.8705   0.33968   0.33669  -0.1412  0.0224  1.0000  -1.2391   0.0000   0.0000   0.0000   0.3792
  26.700   0.8723   0.34196   0.33900  -0.1399  0.0220  1.0000  -1.2823   0.0000   0.0000   0.0000   0.3773
  26.800   0.8717   0.34380   0.34081  -0.1398  0.0219  1.0000  -1.2698   0.0000   0.0000   0.0000   0.3772
  26.900   0.8700   0.34414   0.34116  -0.1401  0.0219  1.0000  -1.2543   0.0000   0.0000   0.0000   0.3777
  27.000   0.8681   0.34438   0.34141  -0.1404  0.0219  1.0000  -1.2365   0.0000   0.0000   0.0000   0.3782
  27.100   0.8662   0.34459   0.34163  -0.1407  0.0219  1.0000  -1.2180   0.0000   0.0000   0.0000   0.3789
  27.200   0.8643   0.34481   0.34186  -0.1411  0.0218  1.0000  -1.1997   0.0000   0.0000   0.0000   0.3795
  27.300   0.8625   0.34505   0.34211  -0.1415  0.0218  1.0000  -1.1818   0.0000   0.0000   0.0000   0.3801
  27.400   0.8608   0.34530   0.34237  -0.1419  0.0218  1.0000  -1.1642   0.0000   0.0000   0.0000   0.3807
  27.600   0.8577   0.34588   0.34301  -0.1426  0.0217  1.0000  -1.1340   0.0000   0.0000   0.0000   0.3819
  27.700   0.8562   0.34619   0.34333  -0.1431  0.0217  1.0000  -1.1176   0.0000   0.0000   0.0000   0.3826
  27.800   0.8548   0.34652   0.34367  -0.1435  0.0217  1.0000  -1.1012   0.0000   0.0000   0.0000   0.3832
  27.900   0.8535   0.34688   0.34404  -0.1439  0.0216  1.0000  -1.0848   0.0000   0.0000   0.0000   0.3838
  28.000   0.8522   0.34727   0.34444  -0.1444  0.0216  1.0000  -1.0684   0.0000   0.0000   0.0000   0.3844
  28.100   0.8511   0.34770   0.34487  -0.1449  0.0215  1.0000  -1.0520   0.0000   0.0000   0.0000   0.3850
  28.200   0.8501   0.34817   0.34535  -0.1454  0.0215  1.0000  -1.0356   0.0000   0.0000   0.0000   0.3856
  28.300   0.8491   0.34869   0.34588  -0.1459  0.0214  1.0000  -1.0190   0.0000   0.0000   0.0000   0.3863
  28.400   0.8483   0.34927   0.34646  -0.1464  0.0213  1.0000  -1.0024   0.0000   0.0000   0.0000   0.3869
  28.500   0.8477   0.34991   0.34711  -0.1470  0.0212  1.0000  -0.9857   0.0000   0.0000   0.0000   0.3875
  28.600   0.8471   0.35062   0.34783  -0.1475  0.0211  1.0000  -0.9693   0.0000   0.0000   0.0000   0.3881
  28.700   0.8467   0.35138   0.34860  -0.1481  0.0209  1.0000  -0.9532   0.0000   0.0000   0.0000   0.3886
  28.800   0.8464   0.35217   0.34941  -0.1486  0.0207  1.0000  -0.9382   0.0000   0.0000   0.0000   0.3891
  28.900   0.8461   0.35296   0.35020  -0.1491  0.0204  1.0000  -0.9250   0.0000   0.0000   0.0000   0.3896
  29.000   0.8458   0.35370   0.35095  -0.1495  0.0201  1.0000  -0.9136   0.0000   0.0000   0.0000   0.3899
  29.100   0.8454   0.35440   0.35166  -0.1499  0.0198  1.0000  -0.9041   0.0000   0.0000   0.0000   0.3903
  29.200   0.8450   0.35506   0.35233  -0.1503  0.0195  1.0000  -0.8960   0.0000   0.0000   0.0000   0.3906
  29.300   0.8446   0.35568   0.35296  -0.1506  0.0192  1.0000  -0.8890   0.0000   0.0000   0.0000   0.3909
  29.400   0.8442   0.35630   0.35359  -0.1510  0.0189  1.0000  -0.8829   0.0000   0.0000   0.0000   0.3912
  29.500   0.8437   0.35690   0.35420  -0.1513  0.0187  1.0000  -0.8774   0.0000   0.0000   0.0000   0.3915
  29.600   0.8433   0.35749   0.35480  -0.1516  0.0184  1.0000  -0.8725   0.0000   0.0000   0.0000   0.3918
  29.700   0.8429   0.35807   0.35539  -0.1520  0.0181  1.0000  -0.8680   0.0000   0.0000   0.0000   0.3920
  29.800   0.8424   0.35864   0.35598  -0.1523  0.0178  1.0000  -0.8640   0.0000   0.0000   0.0000   0.3923
  29.900   0.8420   0.35921   0.35656  -0.1526  0.0176  1.0000  -0.8603   0.0000   0.0000   0.0000   0.3926
  30.000   0.8416   0.35978   0.35713  -0.1529  0.0173  1.0000  -0.8570   0.0000   0.0000   0.0000   0.3928


