xflr5 v6.61

 Calculated polar for: SG6043

 1 1 Reynolds number fixed          Mach number fixed         

 xtrf =   1.000 (top)        1.000 (bottom)
 Mach =   0.000     Re =     0.563 e 6     Ncrit =   9.000

  alpha     CL        CD       CDp       Cm    Top Xtr Bot Xtr   Cpmin    Chinge    XCp    
 ------- -------- --------- --------- -------- ------- ------- -------- --------- ---------
 -10.000  -0.1838   0.11516   0.11277  -0.0677  0.9860  0.0107  -1.4683   0.0000   0.0000   0.0000  -0.1420
  -9.900  -0.1779   0.11358   0.11119  -0.0692  0.9856  0.0107  -1.4728   0.0000   0.0000   0.0000  -0.1630
  -9.800  -0.1720   0.11200   0.10960  -0.0706  0.9852  0.0108  -1.4775   0.0000   0.0000   0.0000  -0.1855
  -9.700  -0.1661   0.11042   0.10802  -0.0721  0.9849  0.0108  -1.4823   0.0000   0.0000   0.0000  -0.2098
  -9.600  -0.1601   0.10883   0.10644  -0.0736  0.9846  0.0108  -1.4873   0.0000   0.0000   0.0000  -0.2363
  -9.500  -0.1568   0.10748   0.10509  -0.0742  0.9827  0.0108  -1.4932   0.0000   0.0000   0.0000  -0.2501
  -9.400  -0.1526   0.10605   0.10366  -0.0752  0.9812  0.0108  -1.4990   0.0000   0.0000   0.0000  -0.2698
  -9.300  -0.1476   0.10456   0.10217  -0.0763  0.9800  0.0108  -1.5048   0.0000   0.0000   0.0000  -0.2950
  -9.200  -0.1423   0.10303   0.10065  -0.0776  0.9791  0.0108  -1.5107   0.0000   0.0000   0.0000  -0.3244
  -9.100  -0.1367   0.10149   0.09910  -0.0790  0.9782  0.0108  -1.5168   0.0000   0.0000   0.0000  -0.3577
  -9.000  -0.1308   0.09993   0.09754  -0.0804  0.9774  0.0108  -1.5230   0.0000   0.0000   0.0000  -0.3955
  -8.900  -0.1248   0.09835   0.09596  -0.0819  0.9767  0.0108  -1.5294   0.0000   0.0000   0.0000  -0.4385
  -8.800  -0.1185   0.09674   0.09435  -0.0835  0.9761  0.0108  -1.5361   0.0000   0.0000   0.0000  -0.4882
  -8.700  -0.1120   0.09510   0.09272  -0.0852  0.9755  0.0108  -1.5431   0.0000   0.0000   0.0000  -0.5461
  -8.600  -0.1053   0.09345   0.09107  -0.0869  0.9750  0.0108  -1.5504   0.0000   0.0000   0.0000  -0.6131
  -8.500  -0.0984   0.09179   0.08941  -0.0887  0.9745  0.0108  -1.5581   0.0000   0.0000   0.0000  -0.6914
  -8.400  -0.0914   0.09012   0.08773  -0.0905  0.9740  0.0108  -1.5663   0.0000   0.0000   0.0000  -0.7836
  -8.300  -0.0842   0.08843   0.08605  -0.0924  0.9736  0.0108  -1.5750   0.0000   0.0000   0.0000  -0.8935
  -8.200  -0.0856   0.08749   0.08512  -0.0917  0.9685  0.0108  -1.5854   0.0000   0.0000   0.0000  -0.8658
  -7.900  -0.0832   0.07848   0.07613  -0.0984  0.9636  0.0116  -1.9397   0.0000   0.0000   0.0000  -0.9771
  -7.800  -0.0772   0.07683   0.07449  -0.1002  0.9627  0.0118  -1.9347   0.0000   0.0000   0.0000  -1.0967
  -7.700  -0.0699   0.07543   0.07308  -0.1021  0.9619  0.0121  -1.9087   0.0000   0.0000   0.0000  -1.2626
  -7.600  -0.0617   0.07424   0.07190  -0.1037  0.9613  0.0123  -1.8628   0.0000   0.0000   0.0000  -1.4896
  -7.500  -0.0528   0.07323   0.07088  -0.1052  0.9608  0.0126  -1.8010   0.0000   0.0000   0.0000  -1.8074
  -7.400  -0.0513   0.07253   0.07020  -0.1049  0.9570  0.0128  -1.7697   0.0000   0.0000   0.0000  -1.8634
  -7.300  -0.0478   0.07172   0.06939  -0.1051  0.9536  0.0130  -1.7343   0.0000   0.0000   0.0000  -2.0224
  -7.200  -0.0411   0.07071   0.06839  -0.1062  0.9518  0.0133  -1.6923   0.0000   0.0000   0.0000  -2.4157
  -7.100  -0.0337   0.06962   0.06730  -0.1076  0.9503  0.0137  -1.6532   0.0000   0.0000   0.0000  -3.0442
  -7.000  -0.0257   0.06842   0.06610  -0.1093  0.9489  0.0143  -1.6190   0.0000   0.0000   0.0000  -4.1352
  -6.900  -0.0167   0.06709   0.06477  -0.1115  0.9478  0.0149  -1.5893   0.0000   0.0000   0.0000  -6.6197
  -6.800  -0.0059   0.06557   0.06325  -0.1143  0.9468  0.0160  -1.5661   0.0000   0.0000   0.0000  -19.7890
  -6.700   0.0068   0.06379   0.06147  -0.1181  0.9459  0.0179  -1.5660   0.0000   0.0000   0.0000  18.1137
  -6.600   0.0302   0.06286   0.06050  -0.1236  0.9449  0.0206  -1.5885   0.0000   0.0000   0.0000   4.4441
  -6.500   0.0335   0.06149   0.05913  -0.1249  0.9399  0.0207  -1.6227   0.0000   0.0000   0.0000   4.0722
  -6.400   0.0420   0.05950   0.05712  -0.1280  0.9364  0.0208  -1.6754   0.0000   0.0000   0.0000   3.3672
  -6.300   0.0540   0.05714   0.05475  -0.1325  0.9339  0.0208  -1.7287   0.0000   0.0000   0.0000   2.7563
  -6.200   0.0674   0.05470   0.05228  -0.1372  0.9318  0.0209  -1.7624   0.0000   0.0000   0.0000   2.3287
  -6.100   0.0790   0.04511   0.04261  -0.1514  0.9283  0.0219  -2.1044   0.0000   0.0000   0.0000   2.2020
  -6.000   0.0906   0.04307   0.04054  -0.1548  0.9269  0.0227  -2.0634   0.0000   0.0000   0.0000   1.9896
  -5.900   0.1014   0.04323   0.04068  -0.1550  0.9260  0.0235  -1.9252   0.0000   0.0000   0.0000   1.8064
  -5.800   0.1043   0.04264   0.04008  -0.1545  0.9214  0.0238  -1.8828   0.0000   0.0000   0.0000   1.7573
  -5.700   0.1127   0.04180   0.03922  -0.1554  0.9182  0.0243  -1.8249   0.0000   0.0000   0.0000   1.6525
  -5.600   0.1228   0.04084   0.03824  -0.1567  0.9156  0.0248  -1.7671   0.0000   0.0000   0.0000   1.5474
  -5.500   0.1343   0.03968   0.03704  -0.1585  0.9133  0.0254  -1.7161   0.0000   0.0000   0.0000   1.4497
  -5.400   0.1473   0.03834   0.03565  -0.1608  0.9114  0.0262  -1.6706   0.0000   0.0000   0.0000   1.3588
  -5.300   0.1611   0.03685   0.03410  -0.1632  0.9096  0.0271  -1.6323   0.0000   0.0000   0.0000   1.2787
  -5.200   0.1756   0.03527   0.03244  -0.1658  0.9078  0.0281  -1.6005   0.0000   0.0000   0.0000   1.2081
  -5.100   0.1909   0.03363   0.03071  -0.1684  0.9061  0.0294  -1.5750   0.0000   0.0000   0.0000   1.1450
  -5.000   0.2022   0.03231   0.02930  -0.1697  0.9035  0.0308  -1.5669   0.0000   0.0000   0.0000   1.1008
  -4.900   0.2155   0.03286   0.02981  -0.1691  0.9011  0.0332  -1.5235   0.0000   0.0000   0.0000   1.0456
  -4.800   0.2274   0.03290   0.02978  -0.1692  0.8985  0.0338  -1.4908   0.0000   0.0000   0.0000   1.0042
  -4.700   0.2381   0.03205   0.02883  -0.1699  0.8956  0.0340  -1.4832   0.0000   0.0000   0.0000   0.9733
  -4.600   0.2491   0.03104   0.02772  -0.1708  0.8930  0.0341  -1.4775   0.0000   0.0000   0.0000   0.9448
  -4.500   0.2580   0.02487   0.02115  -0.1752  0.8897  0.0355  -1.6801   0.0000   0.0000   0.0000   0.9378
  -4.400   0.2691   0.02335   0.01956  -0.1764  0.8876  0.0367  -1.6498   0.0000   0.0000   0.0000   0.9139
  -4.300   0.2814   0.02269   0.01886  -0.1772  0.8858  0.0374  -1.5956   0.0000   0.0000   0.0000   0.8876
  -4.200   0.2941   0.02213   0.01827  -0.1780  0.8839  0.0380  -1.5415   0.0000   0.0000   0.0000   0.8625
  -4.100   0.3068   0.02157   0.01766  -0.1788  0.8820  0.0386  -1.4941   0.0000   0.0000   0.0000   0.8395
  -4.000   0.3156   0.02109   0.01715  -0.1786  0.8800  0.0392  -1.4570   0.0000   0.0000   0.0000   0.8223
  -3.900   0.3252   0.02059   0.01661  -0.1786  0.8778  0.0399  -1.4207   0.0000   0.0000   0.0000   0.8052
  -3.800   0.3353   0.02009   0.01606  -0.1786  0.8756  0.0407  -1.3855   0.0000   0.0000   0.0000   0.7884
  -3.700   0.3460   0.01957   0.01548  -0.1787  0.8733  0.0416  -1.3519   0.0000   0.0000   0.0000   0.7720
  -3.600   0.3571   0.01906   0.01490  -0.1789  0.8710  0.0427  -1.3198   0.0000   0.0000   0.0000   0.7561
  -3.500   0.3685   0.01856   0.01433  -0.1791  0.8688  0.0440  -1.2891   0.0000   0.0000   0.0000   0.7408
  -3.400   0.3806   0.01811   0.01380  -0.1793  0.8667  0.0453  -1.2585   0.0000   0.0000   0.0000   0.7257
  -3.300   0.3931   0.01774   0.01334  -0.1796  0.8646  0.0467  -1.2265   0.0000   0.0000   0.0000   0.7111
  -3.200   0.4060   0.01748   0.01301  -0.1798  0.8625  0.0479  -1.1915   0.0000   0.0000   0.0000   0.6970
  -3.100   0.4231   0.01320   0.00808  -0.1807  0.8607  0.0291  -1.4895   0.0000   0.0000   0.0000   0.6810
  -3.000   0.4373   0.01146   0.00601  -0.1809  0.8586  0.0242  -1.6212   0.0000   0.0000   0.0000   0.6676
  -2.900   0.4497   0.01114   0.00561  -0.1811  0.8565  0.0232  -1.5986   0.0000   0.0000   0.0000   0.6563
  -2.800   0.4597   0.01096   0.00541  -0.1808  0.8547  0.0226  -1.5591   0.0000   0.0000   0.0000   0.6466
  -2.700   0.4700   0.01081   0.00524  -0.1805  0.8526  0.0223  -1.5159   0.0000   0.0000   0.0000   0.6372
  -2.600   0.4807   0.01066   0.00505  -0.1803  0.8505  0.0219  -1.4738   0.0000   0.0000   0.0000   0.6281
  -2.500   0.4915   0.01053   0.00490  -0.1802  0.8483  0.0216  -1.4262   0.0000   0.0000   0.0000   0.6194
  -2.400   0.5026   0.01039   0.00474  -0.1801  0.8463  0.0214  -1.3789   0.0000   0.0000   0.0000   0.6109
  -2.300   0.5138   0.01024   0.00457  -0.1801  0.8443  0.0211  -1.3327   0.0000   0.0000   0.0000   0.6028
  -2.100   0.5370   0.00969   0.00394  -0.1802  0.8403  0.0208  -1.2661   0.0000   0.0000   0.0000   0.5876
  -2.000   0.5491   0.00942   0.00361  -0.1804  0.8382  0.0207  -1.2349   0.0000   0.0000   0.0000   0.5803
  -1.900   0.5614   0.00921   0.00334  -0.1806  0.8361  0.0207  -1.1988   0.0000   0.0000   0.0000   0.5733
  -1.800   0.5740   0.00905   0.00312  -0.1808  0.8338  0.0207  -1.1593   0.0000   0.0000   0.0000   0.5665
  -1.700   0.5868   0.00893   0.00295  -0.1811  0.8313  0.0208  -1.1171   0.0000   0.0000   0.0000   0.5600
  -1.600   0.5986   0.00883   0.00281  -0.1812  0.8291  0.0209  -1.0753   0.0000   0.0000   0.0000   0.5540
  -1.500   0.6092   0.00871   0.00265  -0.1810  0.8273  0.0214  -1.0453   0.0000   0.0000   0.0000   0.5482
  -1.400   0.6201   0.00859   0.00246  -0.1809  0.8253  0.0236  -1.0297   0.0000   0.0000   0.0000   0.5426
  -1.300   0.6314   0.00838   0.00237  -0.1809  0.8232  0.0541  -1.0247   0.0000   0.0000   0.0000   0.5372
  -1.200   0.6425   0.00821   0.00235  -0.1809  0.8210  0.0958  -0.9857   0.0000   0.0000   0.0000   0.5322
  -1.100   0.6535   0.00813   0.00234  -0.1809  0.8186  0.1172  -0.9283   0.0000   0.0000   0.0000   0.5273
  -1.000   0.6645   0.00806   0.00233  -0.1809  0.8161  0.1377  -0.8680   0.0000   0.0000   0.0000   0.5226
  -0.900   0.6758   0.00798   0.00231  -0.1810  0.8136  0.1612  -0.8065   0.0000   0.0000   0.0000   0.5180
  -0.800   0.6873   0.00790   0.00230  -0.1811  0.8111  0.1907  -0.7493   0.0000   0.0000   0.0000   0.5135
  -0.700   0.6991   0.00781   0.00229  -0.1813  0.8087  0.2279  -0.7571   0.0000   0.0000   0.0000   0.5092
  -0.600   0.7111   0.00771   0.00229  -0.1815  0.8061  0.2728  -0.7651   0.0000   0.0000   0.0000   0.5051
  -0.500   0.7234   0.00761   0.00230  -0.1819  0.8032  0.3275  -0.7732   0.0000   0.0000   0.0000   0.5011
  -0.400   0.7352   0.00749   0.00233  -0.1822  0.8005  0.3924  -0.7817   0.0000   0.0000   0.0000   0.4973
  -0.300   0.7455   0.00746   0.00232  -0.1820  0.7986  0.4071  -0.7895   0.0000   0.0000   0.0000   0.4935
  -0.200   0.7561   0.00731   0.00237  -0.1820  0.7965  0.4816  -0.7979   0.0000   0.0000   0.0000   0.4899
  -0.100   0.7667   0.00722   0.00241  -0.1819  0.7940  0.5326  -0.8066   0.0000   0.0000   0.0000   0.4864
   0.000   0.7772   0.00715   0.00244  -0.1817  0.7913  0.5726  -0.8153   0.0000   0.0000   0.0000   0.4828
   0.100   0.7877   0.00707   0.00247  -0.1816  0.7884  0.6178  -0.8240   0.0000   0.0000   0.0000   0.4794
   0.200   0.7982   0.00698   0.00251  -0.1814  0.7855  0.6663  -0.8332   0.0000   0.0000   0.0000   0.4760
   0.300   0.8083   0.00689   0.00255  -0.1811  0.7826  0.7182  -0.8426   0.0000   0.0000   0.0000   0.4727
   0.400   0.8181   0.00681   0.00259  -0.1807  0.7797  0.7684  -0.8518   0.0000   0.0000   0.0000   0.4694
   0.500   0.8273   0.00675   0.00261  -0.1801  0.7765  0.8132  -0.8607   0.0000   0.0000   0.0000   0.4661
   0.600   0.8359   0.00670   0.00263  -0.1794  0.7730  0.8525  -0.8697   0.0000   0.0000   0.0000   0.4629
   0.700   0.8434   0.00666   0.00265  -0.1784  0.7700  0.8877  -0.8787   0.0000   0.0000   0.0000   0.4598
   0.800   0.8489   0.00656   0.00263  -0.1770  0.7678  0.9339  -0.8872   0.0000   0.0000   0.0000   0.4566
   0.900   0.8612   0.00650   0.00259  -0.1772  0.7652  1.0000  -0.8999   0.0000   0.0000   0.0000   0.4537
   1.000   0.8719   0.00652   0.00259  -0.1771  0.7621  1.0000  -0.9116   0.0000   0.0000   0.0000   0.4509
   1.100   0.8827   0.00653   0.00259  -0.1770  0.7588  1.0000  -0.9234   0.0000   0.0000   0.0000   0.4482
   1.200   0.8936   0.00655   0.00259  -0.1769  0.7553  1.0000  -0.9359   0.0000   0.0000   0.0000   0.4456
   1.300   0.9046   0.00658   0.00258  -0.1768  0.7516  1.0000  -0.9492   0.0000   0.0000   0.0000   0.4430
   1.400   0.9156   0.00661   0.00258  -0.1768  0.7477  1.0000  -0.9626   0.0000   0.0000   0.0000   0.4404
   1.500   0.9267   0.00666   0.00258  -0.1767  0.7436  1.0000  -0.9770   0.0000   0.0000   0.0000   0.4379
   1.600   0.9383   0.00673   0.00259  -0.1768  0.7392  1.0000  -0.9922   0.0000   0.0000   0.0000   0.4356
   1.700   0.9486   0.00674   0.00261  -0.1766  0.7367  1.0000  -1.0065   0.0000   0.0000   0.0000   0.4332
   1.800   0.9590   0.00675   0.00263  -0.1764  0.7335  1.0000  -1.0223   0.0000   0.0000   0.0000   0.4309
   1.900   0.9696   0.00677   0.00265  -0.1763  0.7299  1.0000  -1.0387   0.0000   0.0000   0.0000   0.4286
   2.000   0.9802   0.00680   0.00266  -0.1762  0.7258  1.0000  -1.0551   0.0000   0.0000   0.0000   0.4264
   2.100   0.9907   0.00683   0.00267  -0.1760  0.7213  1.0000  -1.0716   0.0000   0.0000   0.0000   0.4242
   2.200   1.0013   0.00687   0.00268  -0.1758  0.7165  1.0000  -1.0890   0.0000   0.0000   0.0000   0.4220
   2.300   1.0117   0.00692   0.00273  -0.1757  0.7115  1.0000  -1.1094   0.0000   0.0000   0.0000   0.4199
   2.400   1.0222   0.00699   0.00275  -0.1755  0.7064  1.0000  -1.1306   0.0000   0.0000   0.0000   0.4179
   2.500   1.0326   0.00701   0.00277  -0.1753  0.7028  1.0000  -1.1518   0.0000   0.0000   0.0000   0.4159
   2.600   1.0429   0.00704   0.00280  -0.1751  0.6981  1.0000  -1.1730   0.0000   0.0000   0.0000   0.4139
   2.700   1.0532   0.00707   0.00282  -0.1749  0.6927  1.0000  -1.1942   0.0000   0.0000   0.0000   0.4119
   2.800   1.0633   0.00712   0.00284  -0.1747  0.6870  1.0000  -1.2155   0.0000   0.0000   0.0000   0.4100
   2.900   1.0733   0.00718   0.00286  -0.1744  0.6810  1.0000  -1.2366   0.0000   0.0000   0.0000   0.4081
   3.000   1.0830   0.00727   0.00288  -0.1741  0.6747  1.0000  -1.2576   0.0000   0.0000   0.0000   0.4062
   3.100   1.0933   0.00731   0.00292  -0.1739  0.6700  1.0000  -1.2792   0.0000   0.0000   0.0000   0.4044
   3.200   1.1035   0.00735   0.00296  -0.1737  0.6646  1.0000  -1.3009   0.0000   0.0000   0.0000   0.4027
   3.300   1.1134   0.00740   0.00299  -0.1734  0.6574  1.0000  -1.3223   0.0000   0.0000   0.0000   0.4009
   3.400   1.1226   0.00749   0.00302  -0.1730  0.6491  1.0000  -1.3463   0.0000   0.0000   0.0000   0.3991
   3.500   1.1312   0.00760   0.00306  -0.1725  0.6401  1.0000  -1.3695   0.0000   0.0000   0.0000   0.3973
   3.600   1.1412   0.00766   0.00311  -0.1722  0.6336  1.0000  -1.3945   0.0000   0.0000   0.0000   0.3956
   3.700   1.1511   0.00772   0.00316  -0.1720  0.6261  1.0000  -1.4194   0.0000   0.0000   0.0000   0.3940
   3.800   1.1604   0.00780   0.00321  -0.1716  0.6180  1.0000  -1.4438   0.0000   0.0000   0.0000   0.3923
   3.900   1.1693   0.00791   0.00326  -0.1711  0.6100  1.0000  -1.4678   0.0000   0.0000   0.0000   0.3907
   4.000   1.1783   0.00802   0.00332  -0.1706  0.6027  1.0000  -1.4919   0.0000   0.0000   0.0000   0.3891
   4.100   1.1883   0.00808   0.00338  -0.1704  0.5964  1.0000  -1.5176   0.0000   0.0000   0.0000   0.3875
   4.200   1.1979   0.00816   0.00344  -0.1701  0.5886  1.0000  -1.5427   0.0000   0.0000   0.0000   0.3860
   4.300   1.2066   0.00828   0.00351  -0.1696  0.5795  1.0000  -1.5685   0.0000   0.0000   0.0000   0.3844
   4.400   1.2142   0.00843   0.00359  -0.1689  0.5695  1.0000  -1.5952   0.0000   0.0000   0.0000   0.3828
   4.500   1.2238   0.00851   0.00366  -0.1686  0.5615  1.0000  -1.6299   0.0000   0.0000   0.0000   0.3814
   4.600   1.2327   0.00862   0.00373  -0.1682  0.5510  1.0000  -1.6636   0.0000   0.0000   0.0000   0.3799
   4.700   1.2401   0.00879   0.00383  -0.1674  0.5393  1.0000  -1.6951   0.0000   0.0000   0.0000   0.3783
   4.800   1.2482   0.00893   0.00392  -0.1668  0.5291  1.0000  -1.7279   0.0000   0.0000   0.0000   0.3769
   4.900   1.2572   0.00904   0.00400  -0.1664  0.5190  1.0000  -1.7624   0.0000   0.0000   0.0000   0.3754
   5.000   1.2651   0.00920   0.00417  -0.1658  0.5080  1.0000  -1.7960   0.0000   0.0000   0.0000   0.3740
   5.100   1.2720   0.00939   0.00429  -0.1649  0.4968  1.0000  -1.8277   0.0000   0.0000   0.0000   0.3725
   5.200   1.2812   0.00949   0.00438  -0.1646  0.4882  1.0000  -1.8633   0.0000   0.0000   0.0000   0.3712
   5.300   1.2894   0.00964   0.00448  -0.1640  0.4773  1.0000  -1.8971   0.0000   0.0000   0.0000   0.3698
   5.400   1.2961   0.00984   0.00461  -0.1632  0.4654  1.0000  -1.9285   0.0000   0.0000   0.0000   0.3683
   5.500   1.3042   0.00999   0.00472  -0.1626  0.4555  1.0000  -1.9625   0.0000   0.0000   0.0000   0.3670
   5.600   1.3120   0.01015   0.00483  -0.1620  0.4428  1.0000  -1.9962   0.0000   0.0000   0.0000   0.3656
   5.700   1.3174   0.01042   0.00500  -0.1609  0.4274  1.0000  -2.0256   0.0000   0.0000   0.0000   0.3642
   5.800   1.3248   0.01060   0.00512  -0.1603  0.4138  1.0000  -2.0589   0.0000   0.0000   0.0000   0.3629
   5.900   1.3300   0.01086   0.00529  -0.1592  0.3972  1.0000  -2.0882   0.0000   0.0000   0.0000   0.3614
   6.000   1.3360   0.01109   0.00544  -0.1582  0.3829  1.0000  -2.1191   0.0000   0.0000   0.0000   0.3600
   6.100   1.3419   0.01132   0.00560  -0.1573  0.3677  1.0000  -2.1500   0.0000   0.0000   0.0000   0.3587
   6.200   1.3472   0.01160   0.00578  -0.1562  0.3536  1.0000  -2.1798   0.0000   0.0000   0.0000   0.3573
   6.300   1.3546   0.01178   0.00592  -0.1555  0.3425  1.0000  -2.2135   0.0000   0.0000   0.0000   0.3560
   6.400   1.3605   0.01202   0.00609  -0.1546  0.3302  1.0000  -2.2448   0.0000   0.0000   0.0000   0.3547
   6.500   1.3667   0.01226   0.00627  -0.1537  0.3188  1.0000  -2.2767   0.0000   0.0000   0.0000   0.3534
   6.600   1.3740   0.01244   0.00642  -0.1531  0.3089  1.0000  -2.3107   0.0000   0.0000   0.0000   0.3522
   6.700   1.3800   0.01270   0.00660  -0.1522  0.2974  1.0000  -2.3424   0.0000   0.0000   0.0000   0.3509
   6.800   1.3861   0.01294   0.00679  -0.1513  0.2865  1.0000  -2.3744   0.0000   0.0000   0.0000   0.3497
   6.900   1.3933   0.01313   0.00695  -0.1506  0.2776  1.0000  -2.4087   0.0000   0.0000   0.0000   0.3485
   7.000   1.3993   0.01338   0.00714  -0.1498  0.2670  1.0000  -2.4411   0.0000   0.0000   0.0000   0.3472
   7.100   1.4049   0.01366   0.00735  -0.1488  0.2560  1.0000  -2.4786   0.0000   0.0000   0.0000   0.3460
   7.200   1.4122   0.01385   0.00752  -0.1482  0.2483  1.0000  -2.5204   0.0000   0.0000   0.0000   0.3449
   7.300   1.4184   0.01409   0.00771  -0.1474  0.2390  1.0000  -2.5600   0.0000   0.0000   0.0000   0.3437
   7.400   1.4237   0.01439   0.00793  -0.1464  0.2286  1.0000  -2.5976   0.0000   0.0000   0.0000   0.3425
   7.500   1.4308   0.01459   0.00812  -0.1457  0.2212  1.0000  -2.6434   0.0000   0.0000   0.0000   0.3413
   7.600   1.4373   0.01482   0.00831  -0.1450  0.2135  1.0000  -2.6926   0.0000   0.0000   0.0000   0.3402
   7.700   1.4428   0.01511   0.00854  -0.1441  0.2049  1.0000  -2.7392   0.0000   0.0000   0.0000   0.3390
   7.800   1.4484   0.01539   0.00877  -0.1432  0.1960  1.0000  -2.7863   0.0000   0.0000   0.0000   0.3379
   7.900   1.4555   0.01558   0.00896  -0.1425  0.1904  1.0000  -2.8380   0.0000   0.0000   0.0000   0.3368
   8.000   1.4616   0.01583   0.00918  -0.1417  0.1834  1.0000  -2.8872   0.0000   0.0000   0.0000   0.3357
   8.100   1.4662   0.01619   0.00955  -0.1407  0.1740  1.0000  -2.9310   0.0000   0.0000   0.0000   0.3345
   8.200   1.4723   0.01644   0.00979  -0.1399  0.1669  1.0000  -2.9807   0.0000   0.0000   0.0000   0.3335
   8.300   1.4788   0.01668   0.01001  -0.1392  0.1612  1.0000  -3.0319   0.0000   0.0000   0.0000   0.3324
   8.400   1.4842   0.01698   0.01027  -0.1383  0.1546  1.0000  -3.0800   0.0000   0.0000   0.0000   0.3313
   8.500   1.4889   0.01732   0.01055  -0.1373  0.1472  1.0000  -3.1265   0.0000   0.0000   0.0000   0.3302
   8.600   1.4950   0.01758   0.01080  -0.1365  0.1415  1.0000  -3.1773   0.0000   0.0000   0.0000   0.3292
   8.700   1.5016   0.01781   0.01103  -0.1358  0.1373  1.0000  -3.2300   0.0000   0.0000   0.0000   0.3281
   8.800   1.5074   0.01808   0.01129  -0.1351  0.1326  1.0000  -3.2807   0.0000   0.0000   0.0000   0.3271
   8.900   1.5125   0.01841   0.01157  -0.1342  0.1276  1.0000  -3.3293   0.0000   0.0000   0.0000   0.3261
   9.000   1.5173   0.01875   0.01188  -0.1332  0.1216  1.0000  -3.3770   0.0000   0.0000   0.0000   0.3250
   9.100   1.5233   0.01901   0.01214  -0.1325  0.1178  1.0000  -3.4289   0.0000   0.0000   0.0000   0.3240
   9.200   1.5297   0.01925   0.01239  -0.1318  0.1150  1.0000  -3.4826   0.0000   0.0000   0.0000   0.3230
   9.300   1.5355   0.01953   0.01267  -0.1310  0.1113  1.0000  -3.5346   0.0000   0.0000   0.0000   0.3221
   9.400   1.5406   0.01986   0.01298  -0.1302  0.1074  1.0000  -3.5846   0.0000   0.0000   0.0000   0.3211
   9.500   1.5452   0.02023   0.01331  -0.1293  0.1028  1.0000  -3.6330   0.0000   0.0000   0.0000   0.3201
   9.600   1.5496   0.02062   0.01367  -0.1283  0.0976  1.0000  -3.6806   0.0000   0.0000   0.0000   0.3190
   9.700   1.5562   0.02085   0.01393  -0.1277  0.0957  1.0000  -3.7362   0.0000   0.0000   0.0000   0.3181
   9.800   1.5624   0.02111   0.01420  -0.1271  0.0935  1.0000  -3.7910   0.0000   0.0000   0.0000   0.3172
   9.900   1.5680   0.02141   0.01451  -0.1263  0.0909  1.0000  -3.8440   0.0000   0.0000   0.0000   0.3163
  10.000   1.5731   0.02176   0.01484  -0.1255  0.0879  1.0000  -3.8954   0.0000   0.0000   0.0000   0.3154
  10.100   1.5775   0.02215   0.01520  -0.1247  0.0846  1.0000  -3.9449   0.0000   0.0000   0.0000   0.3144
  10.200   1.5817   0.02257   0.01560  -0.1238  0.0807  1.0000  -3.9931   0.0000   0.0000   0.0000   0.3135
  10.300   1.5855   0.02301   0.01603  -0.1228  0.0770  1.0000  -4.0395   0.0000   0.0000   0.0000   0.3125
  10.400   1.5921   0.02324   0.01630  -0.1223  0.0759  1.0000  -4.1088   0.0000   0.0000   0.0000   0.3116
  10.500   1.5980   0.02352   0.01660  -0.1216  0.0745  1.0000  -4.1762   0.0000   0.0000   0.0000   0.3108
  10.600   1.6034   0.02384   0.01694  -0.1209  0.0728  1.0000  -4.2416   0.0000   0.0000   0.0000   0.3099
  10.700   1.6084   0.02420   0.01730  -0.1202  0.0709  1.0000  -4.3057   0.0000   0.0000   0.0000   0.3090
  10.800   1.6130   0.02459   0.01769  -0.1194  0.0688  1.0000  -4.3684   0.0000   0.0000   0.0000   0.3082
  10.900   1.6171   0.02502   0.01811  -0.1185  0.0666  1.0000  -4.4291   0.0000   0.0000   0.0000   0.3073
  11.000   1.6210   0.02547   0.01859  -0.1177  0.0644  1.0000  -4.4860   0.0000   0.0000   0.0000   0.3064
  11.100   1.6241   0.02599   0.01911  -0.1167  0.0617  1.0000  -4.5411   0.0000   0.0000   0.0000   0.3055
  11.200   1.6267   0.02655   0.01968  -0.1157  0.0593  1.0000  -4.5941   0.0000   0.0000   0.0000   0.3046
  11.300   1.6330   0.02683   0.02000  -0.1152  0.0587  1.0000  -4.6655   0.0000   0.0000   0.0000   0.3038
  11.400   1.6390   0.02714   0.02033  -0.1147  0.0578  1.0000  -4.7367   0.0000   0.0000   0.0000   0.3030
  11.500   1.6446   0.02748   0.02070  -0.1141  0.0566  1.0000  -4.8066   0.0000   0.0000   0.0000   0.3023
  11.600   1.6496   0.02787   0.02110  -0.1135  0.0552  1.0000  -4.8739   0.0000   0.0000   0.0000   0.3015
  11.700   1.6538   0.02832   0.02155  -0.1127  0.0536  1.0000  -4.9385   0.0000   0.0000   0.0000   0.3007
  11.800   1.6576   0.02880   0.02203  -0.1120  0.0519  1.0000  -5.0014   0.0000   0.0000   0.0000   0.2999
  11.900   1.6610   0.02933   0.02254  -0.1112  0.0501  1.0000  -5.0628   0.0000   0.0000   0.0000   0.2991
  12.000   1.6641   0.02989   0.02309  -0.1104  0.0481  1.0000  -5.1223   0.0000   0.0000   0.0000   0.2983
  12.100   1.6666   0.03050   0.02370  -0.1096  0.0458  1.0000  -5.1784   0.0000   0.0000   0.0000   0.2975
  12.200   1.6683   0.03118   0.02440  -0.1086  0.0439  1.0000  -5.2300   0.0000   0.0000   0.0000   0.2967
  12.300   1.6741   0.03151   0.02476  -0.1082  0.0434  1.0000  -5.3048   0.0000   0.0000   0.0000   0.2960
  12.400   1.6794   0.03189   0.02518  -0.1076  0.0428  1.0000  -5.3771   0.0000   0.0000   0.0000   0.2953
  12.500   1.6842   0.03231   0.02562  -0.1071  0.0420  1.0000  -5.4475   0.0000   0.0000   0.0000   0.2945
  12.600   1.6886   0.03277   0.02610  -0.1065  0.0410  1.0000  -5.5163   0.0000   0.0000   0.0000   0.2938
  12.700   1.6927   0.03326   0.02660  -0.1059  0.0399  1.0000  -5.5836   0.0000   0.0000   0.0000   0.2931
  12.800   1.6966   0.03377   0.02713  -0.1053  0.0388  1.0000  -5.6498   0.0000   0.0000   0.0000   0.2924
  12.900   1.6999   0.03433   0.02769  -0.1046  0.0377  1.0000  -5.7138   0.0000   0.0000   0.0000   0.2917
  13.000   1.7023   0.03495   0.02832  -0.1039  0.0366  1.0000  -5.7736   0.0000   0.0000   0.0000   0.2910
  13.100   1.7044   0.03561   0.02898  -0.1031  0.0356  1.0000  -5.8314   0.0000   0.0000   0.0000   0.2903
  13.200   1.7065   0.03627   0.02966  -0.1024  0.0345  1.0000  -5.8892   0.0000   0.0000   0.0000   0.2896
  13.300   1.7086   0.03696   0.03036  -0.1017  0.0334  1.0000  -5.9464   0.0000   0.0000   0.0000   0.2889
  13.400   1.7105   0.03768   0.03111  -0.1010  0.0322  1.0000  -6.0019   0.0000   0.0000   0.0000   0.2882
  13.500   1.7120   0.03846   0.03192  -0.1002  0.0312  1.0000  -6.0548   0.0000   0.0000   0.0000   0.2875
  13.600   1.7144   0.03915   0.03264  -0.0996  0.0306  1.0000  -6.1140   0.0000   0.0000   0.0000   0.2868
  13.700   1.7181   0.03972   0.03325  -0.0991  0.0304  1.0000  -6.1818   0.0000   0.0000   0.0000   0.2862
  13.800   1.7218   0.04031   0.03387  -0.0986  0.0301  1.0000  -6.2494   0.0000   0.0000   0.0000   0.2856
  13.900   1.7254   0.04090   0.03451  -0.0981  0.0298  1.0000  -6.3171   0.0000   0.0000   0.0000   0.2850
  14.000   1.7290   0.04151   0.03515  -0.0976  0.0294  1.0000  -6.3846   0.0000   0.0000   0.0000   0.2844
  14.100   1.7325   0.04213   0.03581  -0.0972  0.0289  1.0000  -6.4518   0.0000   0.0000   0.0000   0.2838
  14.200   1.7358   0.04278   0.03648  -0.0967  0.0284  1.0000  -6.5182   0.0000   0.0000   0.0000   0.2832
  14.300   1.7388   0.04347   0.03720  -0.0962  0.0278  1.0000  -6.5828   0.0000   0.0000   0.0000   0.2826
  14.400   1.7409   0.04424   0.03800  -0.0957  0.0272  1.0000  -6.6434   0.0000   0.0000   0.0000   0.2820
  14.500   1.7422   0.04512   0.03898  -0.0952  0.0269  1.0000  -6.6989   0.0000   0.0000   0.0000   0.2814
  14.600   1.7441   0.04594   0.03982  -0.0947  0.0263  1.0000  -6.7584   0.0000   0.0000   0.0000   0.2809
  14.700   1.7461   0.04676   0.04066  -0.0942  0.0256  1.0000  -6.8184   0.0000   0.0000   0.0000   0.2803
  14.800   1.7480   0.04759   0.04151  -0.0937  0.0249  1.0000  -6.8943   0.0000   0.0000   0.0000   0.2798
  14.900   1.7496   0.04846   0.04240  -0.0933  0.0243  1.0000  -6.9865   0.0000   0.0000   0.0000   0.2792
  15.000   1.7506   0.04941   0.04337  -0.0928  0.0236  1.0000  -7.0742   0.0000   0.0000   0.0000   0.2787
  15.100   1.7507   0.05046   0.04444  -0.0924  0.0229  1.0000  -7.1547   0.0000   0.0000   0.0000   0.2782
  15.200   1.7508   0.05153   0.04554  -0.0919  0.0221  1.0000  -7.2348   0.0000   0.0000   0.0000   0.2777
  15.300   1.7508   0.05263   0.04667  -0.0915  0.0214  1.0000  -7.3133   0.0000   0.0000   0.0000   0.2772
  15.400   1.7502   0.05378   0.04787  -0.0910  0.0206  1.0000  -7.3874   0.0000   0.0000   0.0000   0.2768
  15.500   1.7492   0.05502   0.04913  -0.0906  0.0199  1.0000  -7.4564   0.0000   0.0000   0.0000   0.2763
  15.600   1.7509   0.05593   0.05009  -0.0903  0.0198  1.0000  -7.5525   0.0000   0.0000   0.0000   0.2759
  15.700   1.7522   0.05692   0.05112  -0.0901  0.0197  1.0000  -7.6445   0.0000   0.0000   0.0000   0.2755
  15.800   1.7536   0.05788   0.05213  -0.0898  0.0195  1.0000  -7.7380   0.0000   0.0000   0.0000   0.2750
  15.900   1.7551   0.05884   0.05313  -0.0896  0.0193  1.0000  -7.8332   0.0000   0.0000   0.0000   0.2746
  16.000   1.7567   0.05980   0.05412  -0.0893  0.0191  1.0000  -7.9290   0.0000   0.0000   0.0000   0.2742
  16.100   1.7581   0.06077   0.05514  -0.0891  0.0188  1.0000  -8.0242   0.0000   0.0000   0.0000   0.2738
  16.200   1.7593   0.06178   0.05619  -0.0889  0.0186  1.0000  -8.1170   0.0000   0.0000   0.0000   0.2734
  16.300   1.7593   0.06296   0.05741  -0.0887  0.0183  1.0000  -8.1998   0.0000   0.0000   0.0000   0.2731
  16.400   1.7592   0.06415   0.05864  -0.0886  0.0181  1.0000  -8.2817   0.0000   0.0000   0.0000   0.2727
  16.500   1.7592   0.06530   0.05983  -0.0884  0.0178  1.0000  -8.3658   0.0000   0.0000   0.0000   0.2724
  16.600   1.7594   0.06643   0.06100  -0.0883  0.0175  1.0000  -8.4508   0.0000   0.0000   0.0000   0.2721
  16.700   1.7595   0.06758   0.06219  -0.0881  0.0172  1.0000  -8.5358   0.0000   0.0000   0.0000   0.2717
  16.800   1.7594   0.06879   0.06343  -0.0880  0.0169  1.0000  -8.6184   0.0000   0.0000   0.0000   0.2714
  16.900   1.7580   0.07020   0.06489  -0.0880  0.0166  1.0000  -8.6900   0.0000   0.0000   0.0000   0.2712
  17.000   1.7569   0.07160   0.06632  -0.0880  0.0163  1.0000  -8.7631   0.0000   0.0000   0.0000   0.2710
  17.100   1.7561   0.07295   0.06771  -0.0880  0.0160  1.0000  -8.8403   0.0000   0.0000   0.0000   0.2707
  17.200   1.7555   0.07429   0.06908  -0.0880  0.0157  1.0000  -8.9186   0.0000   0.0000   0.0000   0.2705
  17.300   1.7549   0.07565   0.07047  -0.0881  0.0154  1.0000  -8.9970   0.0000   0.0000   0.0000   0.2703
  17.400   1.7531   0.07721   0.07207  -0.0882  0.0151  1.0000  -9.0643   0.0000   0.0000   0.0000   0.2702
  17.500   1.7507   0.07889   0.07378  -0.0884  0.0149  1.0000  -9.1248   0.0000   0.0000   0.0000   0.2701
  17.600   1.7489   0.08047   0.07541  -0.0885  0.0146  1.0000  -9.1908   0.0000   0.0000   0.0000   0.2700
  17.700   1.7473   0.08203   0.07700  -0.0887  0.0143  1.0000  -9.2592   0.0000   0.0000   0.0000   0.2699
  17.800   1.7456   0.08362   0.07862  -0.0889  0.0140  1.0000  -9.3261   0.0000   0.0000   0.0000   0.2698
  17.900   1.7427   0.08544   0.08049  -0.0892  0.0137  1.0000  -9.3793   0.0000   0.0000   0.0000   0.2698
  18.000   1.7391   0.08736   0.08246  -0.0896  0.0134  1.0000  -9.4262   0.0000   0.0000   0.0000   0.2698
  18.100   1.7363   0.08917   0.08432  -0.0900  0.0131  1.0000  -9.4799   0.0000   0.0000   0.0000   0.2699
  18.200   1.7336   0.09097   0.08617  -0.0904  0.0128  1.0000  -9.5340   0.0000   0.0000   0.0000   0.2699
  18.300   1.7303   0.09287   0.08812  -0.0908  0.0126  1.0000  -9.5818   0.0000   0.0000   0.0000   0.2700
  18.400   1.7252   0.09511   0.09041  -0.0914  0.0124  1.0000  -9.6100   0.0000   0.0000   0.0000   0.2702
  18.500   1.7210   0.09721   0.09257  -0.0920  0.0121  1.0000  -9.6460   0.0000   0.0000   0.0000   0.2704
  18.600   1.7171   0.09925   0.09467  -0.0926  0.0119  1.0000  -9.6842   0.0000   0.0000   0.0000   0.2706
  18.700   1.7127   0.10137   0.09685  -0.0933  0.0117  1.0000  -9.7169   0.0000   0.0000   0.0000   0.2709
  18.800   1.7065   0.10385   0.09940  -0.0941  0.0116  1.0000  -9.7287   0.0000   0.0000   0.0000   0.2713
  18.900   1.7039   0.10573   0.10131  -0.0948  0.0115  1.0000  -9.7803   0.0000   0.0000   0.0000   0.2715
  19.000   1.7026   0.10735   0.10298  -0.0953  0.0114  1.0000  -9.8484   0.0000   0.0000   0.0000   0.2716
  19.100   1.7014   0.10897   0.10464  -0.0959  0.0114  1.0000  -9.9161   0.0000   0.0000   0.0000   0.2717
  19.200   1.6992   0.11076   0.10648  -0.0966  0.0114  1.0000  -9.9727   0.0000   0.0000   0.0000   0.2719
  19.300   1.6954   0.11288   0.10866  -0.0974  0.0113  1.0000  -10.0097   0.0000   0.0000   0.0000   0.2723
  19.400   1.6930   0.11474   0.11056  -0.0982  0.0113  1.0000  -10.0622   0.0000   0.0000   0.0000   0.2725
  19.500   1.6932   0.11611   0.11200  -0.0987  0.0112  1.0000  -10.1436   0.0000   0.0000   0.0000   0.2726
  19.600   1.6918   0.11776   0.11369  -0.0994  0.0111  1.0000  -10.2068   0.0000   0.0000   0.0000   0.2727
  19.700   1.6895   0.11957   0.11555  -0.1002  0.0110  1.0000  -10.2592   0.0000   0.0000   0.0000   0.2730
  19.800   1.6849   0.12186   0.11790  -0.1013  0.0109  1.0000  -10.2831   0.0000   0.0000   0.0000   0.2735
  19.900   1.6817   0.12387   0.11997  -0.1022  0.0108  1.0000  -10.3228   0.0000   0.0000   0.0000   0.2739
  20.000   1.6791   0.12575   0.12189  -0.1031  0.0107  1.0000  -10.3695   0.0000   0.0000   0.0000   0.2743
  20.100   1.6765   0.12762   0.12381  -0.1040  0.0106  1.0000  -10.4155   0.0000   0.0000   0.0000   0.2746
  20.200   1.6726   0.12979   0.12603  -0.1051  0.0106  1.0000  -10.4437   0.0000   0.0000   0.0000   0.2751
  20.300   1.6676   0.13218   0.12848  -0.1064  0.0105  1.0000  -10.4570   0.0000   0.0000   0.0000   0.2758
  20.400   1.6641   0.13424   0.13058  -0.1075  0.0104  1.0000  -10.4896   0.0000   0.0000   0.0000   0.2763
  20.500   1.6611   0.13617   0.13256  -0.1085  0.0103  1.0000  -10.5260   0.0000   0.0000   0.0000   0.2768
  20.600   1.6580   0.13805   0.13449  -0.1096  0.0102  1.0000  -10.5610   0.0000   0.0000   0.0000   0.2773
  20.700   1.6523   0.14047   0.13696  -0.1111  0.0101  1.0000  -10.5573   0.0000   0.0000   0.0000   0.2782
  20.800   1.6481   0.14256   0.13911  -0.1124  0.0100  1.0000  -10.5742   0.0000   0.0000   0.0000   0.2788
  20.900   1.6447   0.14453   0.14112  -0.1136  0.0099  1.0000  -10.6004   0.0000   0.0000   0.0000   0.2794
  21.000   1.6413   0.14651   0.14314  -0.1149  0.0098  1.0000  -10.6274   0.0000   0.0000   0.0000   0.2800
  21.100   1.6358   0.14900   0.14569  -0.1164  0.0097  1.0000  -10.6214   0.0000   0.0000   0.0000   0.2810
  21.200   1.6303   0.15152   0.14826  -0.1180  0.0097  1.0000  -10.6149   0.0000   0.0000   0.0000   0.2819
  21.300   1.6263   0.15375   0.15053  -0.1194  0.0096  1.0000  -10.6286   0.0000   0.0000   0.0000   0.2827
  21.400   1.6225   0.15596   0.15278  -0.1208  0.0094  1.0000  -10.6449   0.0000   0.0000   0.0000   0.2834
  21.500   1.6175   0.15849   0.15537  -0.1223  0.0094  1.0000  -10.6406   0.0000   0.0000   0.0000   0.2843
  21.600   1.6106   0.16147   0.15841  -0.1242  0.0093  1.0000  -10.6077   0.0000   0.0000   0.0000   0.2856
  21.700   1.6061   0.16396   0.16094  -0.1258  0.0092  1.0000  -10.6092   0.0000   0.0000   0.0000   0.2865
  21.800   1.6019   0.16640   0.16342  -0.1273  0.0091  1.0000  -10.6140   0.0000   0.0000   0.0000   0.2874
  21.900   1.5971   0.16901   0.16608  -0.1289  0.0090  1.0000  -10.6082   0.0000   0.0000   0.0000   0.2883
  22.000   1.5894   0.17240   0.16953  -0.1310  0.0090  1.0000  -10.5537   0.0000   0.0000   0.0000   0.2898
  22.100   1.5843   0.17517   0.17235  -0.1327  0.0089  1.0000  -10.5401   0.0000   0.0000   0.0000   0.2909
  22.200   1.5797   0.17785   0.17506  -0.1343  0.0088  1.0000  -10.5329   0.0000   0.0000   0.0000   0.2919
  22.300   1.5748   0.18063   0.17789  -0.1360  0.0087  1.0000  -10.5193   0.0000   0.0000   0.0000   0.2930
  22.400   1.5669   0.18429   0.18161  -0.1383  0.0087  1.0000  -10.4522   0.0000   0.0000   0.0000   0.2946
  22.500   1.5611   0.18740   0.18476  -0.1401  0.0086  1.0000  -10.4206   0.0000   0.0000   0.0000   0.2959
  22.600   1.5562   0.19032   0.18772  -0.1419  0.0085  1.0000  -10.4014   0.0000   0.0000   0.0000   0.2970
  22.700   1.5513   0.19328   0.19072  -0.1436  0.0084  1.0000  -10.3804   0.0000   0.0000   0.0000   0.2982
  22.800   1.5438   0.19701   0.19451  -0.1458  0.0084  1.0000  -10.3126   0.0000   0.0000   0.0000   0.2998
  22.900   1.5369   0.20065   0.19819  -0.1479  0.0084  1.0000  -10.2518   0.0000   0.0000   0.0000   0.3014
  23.000   1.5317   0.20382   0.20141  -0.1498  0.0083  1.0000  -10.2204   0.0000   0.0000   0.0000   0.3026
  23.100   1.5268   0.20696   0.20459  -0.1516  0.0082  1.0000  -10.1919   0.0000   0.0000   0.0000   0.3039
  23.200   1.5211   0.21037   0.20804  -0.1535  0.0081  1.0000  -10.1475   0.0000   0.0000   0.0000   0.3053
  23.300   1.5119   0.21491   0.21265  -0.1560  0.0082  1.0000  -10.0355   0.0000   0.0000   0.0000   0.3074
  23.400   1.5064   0.21839   0.21616  -0.1580  0.0081  1.0000  -9.9897   0.0000   0.0000   0.0000   0.3088
  23.500   1.5013   0.22177   0.21958  -0.1598  0.0080  1.0000  -9.9505   0.0000   0.0000   0.0000   0.3101
  23.600   1.4959   0.22531   0.22315  -0.1617  0.0079  1.0000  -9.9023   0.0000   0.0000   0.0000   0.3116
  23.700   1.4875   0.22985   0.22775  -0.1641  0.0079  1.0000  -9.7956   0.0000   0.0000   0.0000   0.3136
  23.800   1.4802   0.23415   0.23210  -0.1663  0.0079  1.0000  -9.7045   0.0000   0.0000   0.0000   0.3155
  23.900   1.4747   0.23786   0.23584  -0.1682  0.0078  1.0000  -9.6496   0.0000   0.0000   0.0000   0.3169
  24.000   1.4694   0.24159   0.23961  -0.1701  0.0077  1.0000  -9.5940   0.0000   0.0000   0.0000   0.3184
  24.100   1.4636   0.24551   0.24357  -0.1721  0.0076  1.0000  -9.5281   0.0000   0.0000   0.0000   0.3200
  24.200   1.4534   0.25107   0.24919  -0.1747  0.0077  1.0000  -9.3684   0.0000   0.0000   0.0000   0.3225
  24.300   1.4464   0.25557   0.25373  -0.1769  0.0076  1.0000  -9.2716   0.0000   0.0000   0.0000   0.3244
  24.400   1.4408   0.25961   0.25780  -0.1787  0.0075  1.0000  -9.2021   0.0000   0.0000   0.0000   0.3260
  24.500   1.4351   0.26370   0.26193  -0.1806  0.0075  1.0000  -9.1302   0.0000   0.0000   0.0000   0.3276
  24.600   1.4280   0.26839   0.26666  -0.1827  0.0074  1.0000  -9.0252   0.0000   0.0000   0.0000   0.3295
  24.700   1.4146   0.27565   0.27399  -0.1857  0.0075  1.0000  -8.7766   0.0000   0.0000   0.0000   0.3329
  24.800   1.4083   0.28017   0.27855  -0.1876  0.0074  1.0000  -8.6836   0.0000   0.0000   0.0000   0.3346
  24.900   1.4023   0.28460   0.28301  -0.1893  0.0073  1.0000  -8.5963   0.0000   0.0000   0.0000   0.3363
  25.000   1.3950   0.28963   0.28808  -0.1913  0.0073  1.0000  -8.4758   0.0000   0.0000   0.0000   0.3383


