xflr5 v6.61

 Calculated polar for: SG6042

 1 1 Reynolds number fixed          Mach number fixed         

 xtrf =   1.000 (top)        1.000 (bottom)
 Mach =   0.000     Re =     0.450 e 6     Ncrit =   9.000

  alpha     CL        CD       CDp       Cm    Top Xtr Bot Xtr   Cpmin    Chinge    XCp    
 ------- -------- --------- --------- -------- ------- ------- -------- --------- ---------
 -10.000  -0.3515   0.11358   0.11104  -0.0340  1.0000  0.0124  -1.7953   0.0000   0.0000   0.0000   0.1433
  -9.900  -0.3526   0.11271   0.11018  -0.0335  1.0000  0.0125  -1.7932   0.0000   0.0000   0.0000   0.1450
  -9.800  -0.3540   0.11187   0.10936  -0.0330  1.0000  0.0125  -1.7921   0.0000   0.0000   0.0000   0.1470
  -9.700  -0.3557   0.11106   0.10856  -0.0324  1.0000  0.0126  -1.7920   0.0000   0.0000   0.0000   0.1493
  -9.600  -0.3578   0.11028   0.10780  -0.0318  1.0000  0.0126  -1.7929   0.0000   0.0000   0.0000   0.1519
  -9.500  -0.3602   0.10953   0.10707  -0.0311  1.0000  0.0127  -1.7948   0.0000   0.0000   0.0000   0.1546
  -9.400  -0.3626   0.10879   0.10634  -0.0304  1.0000  0.0128  -1.7972   0.0000   0.0000   0.0000   0.1573
  -9.300  -0.3574   0.10720   0.10475  -0.0318  0.9994  0.0129  -1.7883   0.0000   0.0000   0.0000   0.1520
  -9.200  -0.3522   0.10561   0.10317  -0.0333  0.9988  0.0130  -1.7807   0.0000   0.0000   0.0000   0.1465
  -9.100  -0.3470   0.10403   0.10158  -0.0348  0.9982  0.0131  -1.7743   0.0000   0.0000   0.0000   0.1407
  -9.000  -0.3419   0.10243   0.09999  -0.0363  0.9975  0.0132  -1.7690   0.0000   0.0000   0.0000   0.1349
  -8.900  -0.3369   0.10083   0.09839  -0.0378  0.9968  0.0133  -1.7649   0.0000   0.0000   0.0000   0.1288
  -8.800  -0.3319   0.09923   0.09679  -0.0393  0.9960  0.0135  -1.7620   0.0000   0.0000   0.0000   0.1224
  -8.700  -0.3268   0.09762   0.09518  -0.0409  0.9952  0.0136  -1.7601   0.0000   0.0000   0.0000   0.1157
  -8.600  -0.3217   0.09600   0.09356  -0.0426  0.9944  0.0137  -1.7592   0.0000   0.0000   0.0000   0.1085
  -8.500  -0.3163   0.09434   0.09191  -0.0443  0.9936  0.0139  -1.7591   0.0000   0.0000   0.0000   0.1007
  -8.400  -0.3106   0.09264   0.09021  -0.0462  0.9930  0.0140  -1.7598   0.0000   0.0000   0.0000   0.0920
  -8.300  -0.3051   0.09095   0.08852  -0.0480  0.9921  0.0142  -1.7617   0.0000   0.0000   0.0000   0.0832
  -8.200  -0.3003   0.08930   0.08687  -0.0497  0.9906  0.0143  -1.7652   0.0000   0.0000   0.0000   0.0753
  -8.100  -0.2952   0.08760   0.08518  -0.0515  0.9892  0.0145  -1.7695   0.0000   0.0000   0.0000   0.0662
  -8.000  -0.2897   0.08587   0.08345  -0.0535  0.9879  0.0146  -1.7749   0.0000   0.0000   0.0000   0.0561
  -7.900  -0.2839   0.08409   0.08167  -0.0556  0.9867  0.0148  -1.7814   0.0000   0.0000   0.0000   0.0447
  -7.800  -0.2778   0.08225   0.07983  -0.0579  0.9856  0.0150  -1.7891   0.0000   0.0000   0.0000   0.0320
  -7.700  -0.2714   0.08037   0.07795  -0.0604  0.9846  0.0151  -1.7982   0.0000   0.0000   0.0000   0.0178
  -7.600  -0.2646   0.07844   0.07602  -0.0631  0.9838  0.0153  -1.8091   0.0000   0.0000   0.0000   0.0019
  -7.500  -0.2629   0.07693   0.07452  -0.0643  0.9802  0.0155  -1.8234   0.0000   0.0000   0.0000  -0.0041
  -7.400  -0.2585   0.07513   0.07273  -0.0665  0.9777  0.0156  -1.8387   0.0000   0.0000   0.0000  -0.0168
  -7.300  -0.2527   0.07314   0.07074  -0.0693  0.9756  0.0158  -1.8561   0.0000   0.0000   0.0000  -0.0338
  -7.200  -0.2443   0.07079   0.06839  -0.0731  0.9740  0.0160  -1.8759   0.0000   0.0000   0.0000  -0.0589
  -7.100  -0.2337   0.06808   0.06568  -0.0779  0.9728  0.0163  -1.9000   0.0000   0.0000   0.0000  -0.0934
  -7.000  -0.2297   0.06597   0.06356  -0.0808  0.9690  0.0164  -1.9286   0.0000   0.0000   0.0000  -0.1119
  -6.900  -0.2234   0.06348   0.06106  -0.0847  0.9654  0.0166  -1.9626   0.0000   0.0000   0.0000  -0.1393
  -6.800  -0.2136   0.06051   0.05806  -0.0898  0.9632  0.0167  -2.0035   0.0000   0.0000   0.0000  -0.1805
  -6.700  -0.2025   0.05740   0.05492  -0.0948  0.9615  0.0170  -2.0480   0.0000   0.0000   0.0000  -0.2290
  -6.600  -0.1905   0.05428   0.05174  -0.0997  0.9602  0.0172  -2.0938   0.0000   0.0000   0.0000  -0.2843
  -6.500  -0.1779   0.05114   0.04853  -0.1042  0.9592  0.0174  -2.1420   0.0000   0.0000   0.0000  -0.3475
  -6.400  -0.1862   0.03577   0.03255  -0.1122  0.9495  0.0116  -3.2595   0.0000   0.0000   0.0000  -0.3654
  -6.300  -0.1740   0.03437   0.03106  -0.1132  0.9483  0.0113  -3.2448   0.0000   0.0000   0.0000  -0.4141
  -6.200  -0.1618   0.03309   0.02969  -0.1143  0.9473  0.0112  -3.2089   0.0000   0.0000   0.0000  -0.4710
  -6.100  -0.1496   0.03174   0.02823  -0.1155  0.9464  0.0111  -3.1757   0.0000   0.0000   0.0000  -0.5376
  -6.000  -0.1375   0.03021   0.02657  -0.1167  0.9455  0.0110  -3.1538   0.0000   0.0000   0.0000  -0.6157
  -5.900  -0.1259   0.02838   0.02456  -0.1180  0.9446  0.0110  -3.1548   0.0000   0.0000   0.0000  -0.7054
  -5.800  -0.1149   0.02594   0.02186  -0.1193  0.9436  0.0110  -3.2133   0.0000   0.0000   0.0000  -0.8080
  -5.700  -0.1058   0.02194   0.01736  -0.1207  0.9424  0.0113  -3.4184   0.0000   0.0000   0.0000  -0.9129
  -5.600  -0.0954   0.01889   0.01387  -0.1217  0.9416  0.0124  -3.5436   0.0000   0.0000   0.0000  -1.0498
  -5.500  -0.0878   0.01852   0.01346  -0.1212  0.9389  0.0130  -3.4601   0.0000   0.0000   0.0000  -1.1561
  -5.400  -0.0806   0.01845   0.01340  -0.1205  0.9358  0.0136  -3.3550   0.0000   0.0000   0.0000  -1.2721
  -5.300  -0.0696   0.01849   0.01344  -0.1206  0.9340  0.0145  -3.2236   0.0000   0.0000   0.0000  -1.5126
  -5.200  -0.0575   0.01884   0.01381  -0.1209  0.9326  0.0161  -3.0722   0.0000   0.0000   0.0000  -1.8910
  -5.100  -0.0455   0.01855   0.01347  -0.1212  0.9313  0.0170  -2.9729   0.0000   0.0000   0.0000  -2.4580
  -5.000  -0.0333   0.01819   0.01306  -0.1215  0.9302  0.0177  -2.8783   0.0000   0.0000   0.0000  -3.4606
  -4.900  -0.0207   0.01781   0.01262  -0.1218  0.9291  0.0184  -2.7847   0.0000   0.0000   0.0000  -5.7345
  -4.800  -0.0078   0.01741   0.01215  -0.1222  0.9281  0.0189  -2.6907   0.0000   0.0000   0.0000  -15.6453
  -4.700   0.0052   0.01702   0.01169  -0.1226  0.9272  0.0193  -2.5962   0.0000   0.0000   0.0000  23.9821
  -4.600   0.0184   0.01663   0.01124  -0.1231  0.9262  0.0196  -2.5009   0.0000   0.0000   0.0000   7.0234
  -4.500   0.0317   0.01625   0.01079  -0.1235  0.9253  0.0199  -2.4054   0.0000   0.0000   0.0000   4.2016
  -4.400   0.0450   0.01588   0.01036  -0.1240  0.9243  0.0201  -2.3102   0.0000   0.0000   0.0000   3.0432
  -4.300   0.0583   0.01552   0.00995  -0.1244  0.9234  0.0203  -2.2259   0.0000   0.0000   0.0000   2.4138
  -4.200   0.0716   0.01517   0.00954  -0.1248  0.9224  0.0204  -2.1655   0.0000   0.0000   0.0000   2.0171
  -4.100   0.0837   0.01511   0.00946  -0.1250  0.9210  0.0207  -2.0887   0.0000   0.0000   0.0000   1.7621
  -4.000   0.0905   0.01448   0.00874  -0.1242  0.9181  0.0212  -2.0716   0.0000   0.0000   0.0000   1.6393
  -3.900   0.0989   0.01347   0.00762  -0.1237  0.9158  0.0221  -2.0750   0.0000   0.0000   0.0000   1.5163
  -3.800   0.1090   0.01292   0.00702  -0.1236  0.9138  0.0231  -2.0385   0.0000   0.0000   0.0000   1.3977
  -3.700   0.1201   0.01261   0.00670  -0.1236  0.9120  0.0241  -1.9799   0.0000   0.0000   0.0000   1.2913
  -3.600   0.1318   0.01236   0.00643  -0.1237  0.9102  0.0247  -1.9215   0.0000   0.0000   0.0000   1.1994
  -3.500   0.1437   0.01205   0.00609  -0.1238  0.9086  0.0249  -1.8746   0.0000   0.0000   0.0000   1.1209
  -3.400   0.1558   0.01169   0.00569  -0.1239  0.9070  0.0248  -1.8382   0.0000   0.0000   0.0000   1.0536
  -3.300   0.1681   0.01137   0.00532  -0.1241  0.9055  0.0246  -1.8008   0.0000   0.0000   0.0000   0.9956
  -3.200   0.1805   0.01108   0.00499  -0.1242  0.9040  0.0245  -1.7606   0.0000   0.0000   0.0000   0.9453
  -3.100   0.1931   0.01082   0.00469  -0.1244  0.9025  0.0245  -1.7182   0.0000   0.0000   0.0000   0.9008
  -3.000   0.2060   0.01059   0.00442  -0.1247  0.9010  0.0246  -1.6745   0.0000   0.0000   0.0000   0.8613
  -2.900   0.2180   0.01040   0.00419  -0.1249  0.8992  0.0249  -1.6327   0.0000   0.0000   0.0000   0.8279
  -2.800   0.2269   0.01025   0.00402  -0.1243  0.8968  0.0253  -1.5980   0.0000   0.0000   0.0000   0.8027
  -2.700   0.2367   0.01009   0.00381  -0.1240  0.8943  0.0263  -1.5710   0.0000   0.0000   0.0000   0.7781
  -2.600   0.2473   0.00994   0.00364  -0.1238  0.8919  0.0274  -1.5356   0.0000   0.0000   0.0000   0.7546
  -2.500   0.2584   0.00980   0.00347  -0.1237  0.8898  0.0297  -1.5053   0.0000   0.0000   0.0000   0.7324
  -2.400   0.2693   0.00934   0.00321  -0.1237  0.8877  0.0812  -1.5579   0.0000   0.0000   0.0000   0.7125
  -2.300   0.2809   0.00925   0.00315  -0.1237  0.8858  0.0938  -1.4979   0.0000   0.0000   0.0000   0.6935
  -2.200   0.2925   0.00912   0.00309  -0.1239  0.8840  0.1102  -1.4325   0.0000   0.0000   0.0000   0.6762
  -2.100   0.3043   0.00900   0.00302  -0.1240  0.8821  0.1285  -1.3656   0.0000   0.0000   0.0000   0.6600
  -2.000   0.3162   0.00886   0.00295  -0.1242  0.8802  0.1528  -1.2978   0.0000   0.0000   0.0000   0.6449
  -1.900   0.3285   0.00868   0.00289  -0.1245  0.8781  0.1898  -1.2295   0.0000   0.0000   0.0000   0.6310
  -1.800   0.3407   0.00846   0.00285  -0.1249  0.8758  0.2497  -1.1616   0.0000   0.0000   0.0000   0.6183
  -1.700   0.3497   0.00813   0.00283  -0.1247  0.8734  0.3418  -1.1042   0.0000   0.0000   0.0000   0.6081
  -1.600   0.3581   0.00774   0.00283  -0.1244  0.8707  0.4628  -1.0483   0.0000   0.0000   0.0000   0.5987
  -1.500   0.3669   0.00745   0.00289  -0.1240  0.8681  0.5663  -0.9914   0.0000   0.0000   0.0000   0.5892
  -1.400   0.3767   0.00732   0.00291  -0.1237  0.8655  0.6219  -0.9320   0.0000   0.0000   0.0000   0.5793
  -1.300   0.3871   0.00725   0.00291  -0.1234  0.8630  0.6520  -0.8716   0.0000   0.0000   0.0000   0.5697
  -1.200   0.3980   0.00721   0.00290  -0.1233  0.8607  0.6748  -0.8106   0.0000   0.0000   0.0000   0.5604
  -1.100   0.4087   0.00714   0.00289  -0.1230  0.8584  0.6970  -0.7511   0.0000   0.0000   0.0000   0.5516
  -1.000   0.4199   0.00711   0.00287  -0.1229  0.8561  0.7159  -0.6910   0.0000   0.0000   0.0000   0.5432
  -0.900   0.4310   0.00706   0.00286  -0.1228  0.8537  0.7357  -0.6318   0.0000   0.0000   0.0000   0.5351
  -0.800   0.4428   0.00705   0.00285  -0.1228  0.8512  0.7514  -0.5716   0.0000   0.0000   0.0000   0.5274
  -0.700   0.4535   0.00703   0.00287  -0.1226  0.8485  0.7663  -0.5773   0.0000   0.0000   0.0000   0.5202
  -0.600   0.4629   0.00701   0.00287  -0.1221  0.8459  0.7787  -0.5851   0.0000   0.0000   0.0000   0.5136
  -0.500   0.4727   0.00699   0.00286  -0.1217  0.8429  0.7888  -0.5932   0.0000   0.0000   0.0000   0.5072
  -0.400   0.4820   0.00695   0.00285  -0.1212  0.8397  0.8029  -0.6011   0.0000   0.0000   0.0000   0.5010
  -0.300   0.4922   0.00693   0.00283  -0.1208  0.8365  0.8153  -0.6095   0.0000   0.0000   0.0000   0.4950
  -0.200   0.5022   0.00689   0.00281  -0.1204  0.8334  0.8264  -0.6184   0.0000   0.0000   0.0000   0.4892
  -0.100   0.5123   0.00686   0.00279  -0.1200  0.8305  0.8378  -0.6285   0.0000   0.0000   0.0000   0.4836
   0.000   0.5232   0.00684   0.00276  -0.1198  0.8276  0.8491  -0.6391   0.0000   0.0000   0.0000   0.4782
   0.100   0.5333   0.00682   0.00275  -0.1195  0.8247  0.8614  -0.6494   0.0000   0.0000   0.0000   0.4730
   0.200   0.5438   0.00682   0.00275  -0.1191  0.8216  0.8758  -0.6598   0.0000   0.0000   0.0000   0.4680
   0.300   0.5518   0.00679   0.00276  -0.1183  0.8189  0.8902  -0.6687   0.0000   0.0000   0.0000   0.4632
   0.400   0.5597   0.00675   0.00275  -0.1174  0.8158  0.9060  -0.6794   0.0000   0.0000   0.0000   0.4585
   0.500   0.5675   0.00671   0.00274  -0.1165  0.8125  0.9226  -0.6905   0.0000   0.0000   0.0000   0.4539
   0.600   0.5771   0.00666   0.00271  -0.1159  0.8091  0.9411  -0.7029   0.0000   0.0000   0.0000   0.4494
   0.700   0.5907   0.00661   0.00267  -0.1163  0.8055  0.9604  -0.7180   0.0000   0.0000   0.0000   0.4453
   0.800   0.6082   0.00657   0.00260  -0.1176  0.8019  0.9787  -0.7358   0.0000   0.0000   0.0000   0.4416
   0.900   0.6270   0.00654   0.00254  -0.1192  0.7982  0.9998  -0.7553   0.0000   0.0000   0.0000   0.4383
   1.000   0.6389   0.00656   0.00251  -0.1193  0.7944  1.0000  -0.7710   0.0000   0.0000   0.0000   0.4349
   1.100   0.6506   0.00659   0.00251  -0.1195  0.7906  1.0000  -0.7866   0.0000   0.0000   0.0000   0.4317
   1.200   0.6605   0.00660   0.00251  -0.1193  0.7873  1.0000  -0.8020   0.0000   0.0000   0.0000   0.4285
   1.300   0.6707   0.00660   0.00251  -0.1191  0.7831  1.0000  -0.8184   0.0000   0.0000   0.0000   0.4254
   1.400   0.6810   0.00661   0.00251  -0.1189  0.7783  1.0000  -0.8351   0.0000   0.0000   0.0000   0.4223
   1.500   0.6918   0.00661   0.00249  -0.1188  0.7732  1.0000  -0.8546   0.0000   0.0000   0.0000   0.4193
   1.600   0.7029   0.00663   0.00246  -0.1187  0.7682  1.0000  -0.8744   0.0000   0.0000   0.0000   0.4164
   1.700   0.7142   0.00666   0.00244  -0.1187  0.7635  1.0000  -0.8946   0.0000   0.0000   0.0000   0.4137
   1.800   0.7253   0.00669   0.00245  -0.1187  0.7590  1.0000  -0.9147   0.0000   0.0000   0.0000   0.4110
   1.900   0.7354   0.00670   0.00247  -0.1185  0.7549  1.0000  -0.9339   0.0000   0.0000   0.0000   0.4083
   2.000   0.7458   0.00672   0.00248  -0.1183  0.7499  1.0000  -0.9534   0.0000   0.0000   0.0000   0.4058
   2.100   0.7562   0.00674   0.00248  -0.1181  0.7443  1.0000  -0.9732   0.0000   0.0000   0.0000   0.4033
   2.200   0.7669   0.00676   0.00251  -0.1180  0.7383  1.0000  -0.9932   0.0000   0.0000   0.0000   0.4008
   2.300   0.7775   0.00680   0.00250  -0.1178  0.7320  1.0000  -1.0134   0.0000   0.0000   0.0000   0.3984
   2.400   0.7881   0.00684   0.00250  -0.1177  0.7260  1.0000  -1.0335   0.0000   0.0000   0.0000   0.3961
   2.500   0.7982   0.00686   0.00253  -0.1175  0.7199  1.0000  -1.0548   0.0000   0.0000   0.0000   0.3938
   2.600   0.8084   0.00689   0.00254  -0.1172  0.7124  1.0000  -1.0778   0.0000   0.0000   0.0000   0.3916
   2.700   0.8185   0.00694   0.00253  -0.1170  0.7041  1.0000  -1.1009   0.0000   0.0000   0.0000   0.3893
   2.800   0.8285   0.00701   0.00253  -0.1167  0.6956  1.0000  -1.1239   0.0000   0.0000   0.0000   0.3872
   2.900   0.8386   0.00704   0.00256  -0.1164  0.6883  1.0000  -1.1483   0.0000   0.0000   0.0000   0.3851
   3.000   0.8487   0.00709   0.00259  -0.1162  0.6796  1.0000  -1.1753   0.0000   0.0000   0.0000   0.3831
   3.100   0.8585   0.00715   0.00261  -0.1159  0.6702  1.0000  -1.2023   0.0000   0.0000   0.0000   0.3810
   3.200   0.8680   0.00724   0.00263  -0.1155  0.6611  1.0000  -1.2291   0.0000   0.0000   0.0000   0.3790
   3.300   0.8782   0.00730   0.00267  -0.1153  0.6537  1.0000  -1.2568   0.0000   0.0000   0.0000   0.3771
   3.400   0.8882   0.00735   0.00271  -0.1151  0.6447  1.0000  -1.2844   0.0000   0.0000   0.0000   0.3753
   3.500   0.8978   0.00744   0.00274  -0.1147  0.6346  1.0000  -1.3117   0.0000   0.0000   0.0000   0.3734
   3.700   0.9168   0.00761   0.00283  -0.1140  0.6154  1.0000  -1.3665   0.0000   0.0000   0.0000   0.3698
   3.800   0.9262   0.00771   0.00288  -0.1137  0.6034  1.0000  -1.3940   0.0000   0.0000   0.0000   0.3680
   3.900   0.9345   0.00785   0.00294  -0.1131  0.5903  1.0000  -1.4211   0.0000   0.0000   0.0000   0.3662
   4.000   0.9440   0.00794   0.00300  -0.1127  0.5785  1.0000  -1.4541   0.0000   0.0000   0.0000   0.3645
   4.100   0.9527   0.00807   0.00306  -0.1123  0.5638  1.0000  -1.4860   0.0000   0.0000   0.0000   0.3628
   4.200   0.9607   0.00823   0.00313  -0.1116  0.5500  1.0000  -1.5170   0.0000   0.0000   0.0000   0.3611
   4.300   0.9700   0.00834   0.00320  -0.1113  0.5362  1.0000  -1.5502   0.0000   0.0000   0.0000   0.3595
   4.400   0.9778   0.00852   0.00329  -0.1106  0.5204  1.0000  -1.5812   0.0000   0.0000   0.0000   0.3578
   4.500   0.9864   0.00866   0.00337  -0.1101  0.5059  1.0000  -1.6135   0.0000   0.0000   0.0000   0.3562
   4.600   0.9944   0.00884   0.00346  -0.1096  0.4886  1.0000  -1.6451   0.0000   0.0000   0.0000   0.3546
   4.700   1.0022   0.00902   0.00357  -0.1089  0.4728  1.0000  -1.6765   0.0000   0.0000   0.0000   0.3530
   4.800   1.0105   0.00919   0.00366  -0.1084  0.4557  1.0000  -1.7088   0.0000   0.0000   0.0000   0.3515
   4.900   1.0180   0.00941   0.00387  -0.1078  0.4398  1.0000  -1.7409   0.0000   0.0000   0.0000   0.3500
   5.000   1.0269   0.00955   0.00397  -0.1074  0.4260  1.0000  -1.7749   0.0000   0.0000   0.0000   0.3485
   5.100   1.0344   0.00977   0.00409  -0.1067  0.4102  1.0000  -1.8066   0.0000   0.0000   0.0000   0.3471
   5.200   1.0430   0.00993   0.00420  -0.1063  0.3966  1.0000  -1.8401   0.0000   0.0000   0.0000   0.3457
   5.300   1.0508   0.01014   0.00433  -0.1057  0.3802  1.0000  -1.8724   0.0000   0.0000   0.0000   0.3443
   5.400   1.0586   0.01035   0.00446  -0.1052  0.3647  1.0000  -1.9047   0.0000   0.0000   0.0000   0.3429
   5.500   1.0666   0.01055   0.00459  -0.1046  0.3485  1.0000  -1.9376   0.0000   0.0000   0.0000   0.3415
   5.600   1.0740   0.01080   0.00473  -0.1040  0.3323  1.0000  -1.9695   0.0000   0.0000   0.0000   0.3401
   5.700   1.0823   0.01099   0.00486  -0.1035  0.3178  1.0000  -2.0032   0.0000   0.0000   0.0000   0.3389
   5.800   1.0894   0.01125   0.00502  -0.1029  0.3019  1.0000  -2.0349   0.0000   0.0000   0.0000   0.3375
   5.900   1.0982   0.01141   0.00515  -0.1025  0.2904  1.0000  -2.0702   0.0000   0.0000   0.0000   0.3363
   6.000   1.1060   0.01164   0.00530  -0.1020  0.2773  1.0000  -2.1192   0.0000   0.0000   0.0000   0.3350
   6.100   1.1141   0.01185   0.00544  -0.1015  0.2652  1.0000  -2.1691   0.0000   0.0000   0.0000   0.3338
   6.200   1.1226   0.01203   0.00558  -0.1011  0.2544  1.0000  -2.2209   0.0000   0.0000   0.0000   0.3326
   6.300   1.1301   0.01227   0.00575  -0.1005  0.2421  1.0000  -2.2701   0.0000   0.0000   0.0000   0.3314
   6.400   1.1385   0.01246   0.00589  -0.1001  0.2319  1.0000  -2.3220   0.0000   0.0000   0.0000   0.3303
   6.500   1.1468   0.01265   0.00604  -0.0996  0.2222  1.0000  -2.3742   0.0000   0.0000   0.0000   0.3291
   6.600   1.1543   0.01290   0.00621  -0.0991  0.2113  1.0000  -2.4242   0.0000   0.0000   0.0000   0.3279
   6.700   1.1626   0.01309   0.00637  -0.0986  0.2026  1.0000  -2.4771   0.0000   0.0000   0.0000   0.3268
   6.800   1.1710   0.01327   0.00652  -0.0982  0.1945  1.0000  -2.5306   0.0000   0.0000   0.0000   0.3257
   6.900   1.1785   0.01351   0.00670  -0.0977  0.1854  1.0000  -2.5818   0.0000   0.0000   0.0000   0.3246
   7.000   1.1863   0.01373   0.00688  -0.0971  0.1764  1.0000  -2.6338   0.0000   0.0000   0.0000   0.3235
   7.100   1.1949   0.01389   0.00702  -0.0967  0.1705  1.0000  -2.6890   0.0000   0.0000   0.0000   0.3224
   7.200   1.2028   0.01410   0.00720  -0.0962  0.1635  1.0000  -2.7422   0.0000   0.0000   0.0000   0.3213
   7.300   1.2099   0.01436   0.00740  -0.0956  0.1556  1.0000  -2.7935   0.0000   0.0000   0.0000   0.3202
   7.400   1.2178   0.01456   0.00758  -0.0951  0.1490  1.0000  -2.8471   0.0000   0.0000   0.0000   0.3192
   7.500   1.2261   0.01472   0.00773  -0.0947  0.1442  1.0000  -2.9028   0.0000   0.0000   0.0000   0.3182
   7.600   1.2335   0.01493   0.00791  -0.0941  0.1384  1.0000  -2.9562   0.0000   0.0000   0.0000   0.3171
   7.700   1.2394   0.01524   0.00824  -0.0932  0.1303  1.0000  -3.0046   0.0000   0.0000   0.0000   0.3159
   7.800   1.2465   0.01546   0.00845  -0.0926  0.1246  1.0000  -3.0571   0.0000   0.0000   0.0000   0.3148
   7.900   1.2548   0.01561   0.00861  -0.0921  0.1213  1.0000  -3.1142   0.0000   0.0000   0.0000   0.3138
   8.000   1.2624   0.01580   0.00879  -0.0916  0.1174  1.0000  -3.1695   0.0000   0.0000   0.0000   0.3128
   8.100   1.2694   0.01603   0.00900  -0.0909  0.1132  1.0000  -3.2230   0.0000   0.0000   0.0000   0.3118
   8.200   1.2757   0.01631   0.00923  -0.0902  0.1083  1.0000  -3.2743   0.0000   0.0000   0.0000   0.3107
   8.300   1.2811   0.01664   0.00954  -0.0893  0.1026  1.0000  -3.3216   0.0000   0.0000   0.0000   0.3095
   8.400   1.2897   0.01676   0.00968  -0.0889  0.1008  1.0000  -3.3819   0.0000   0.0000   0.0000   0.3087
   8.500   1.2978   0.01691   0.00985  -0.0884  0.0981  1.0000  -3.4405   0.0000   0.0000   0.0000   0.3077
   8.600   1.3052   0.01711   0.01004  -0.0879  0.0948  1.0000  -3.4974   0.0000   0.0000   0.0000   0.3068
   8.700   1.3119   0.01735   0.01026  -0.0872  0.0912  1.0000  -3.5522   0.0000   0.0000   0.0000   0.3058
   8.800   1.3178   0.01765   0.01052  -0.0865  0.0871  1.0000  -3.6041   0.0000   0.0000   0.0000   0.3048
   8.900   1.3223   0.01804   0.01088  -0.0854  0.0824  1.0000  -3.6493   0.0000   0.0000   0.0000   0.3036
   9.000   1.3301   0.01820   0.01107  -0.0850  0.0810  1.0000  -3.7084   0.0000   0.0000   0.0000   0.3027
   9.100   1.3382   0.01834   0.01124  -0.0845  0.0795  1.0000  -3.7690   0.0000   0.0000   0.0000   0.3019
   9.200   1.3458   0.01851   0.01143  -0.0840  0.0777  1.0000  -3.8402   0.0000   0.0000   0.0000   0.3010
   9.300   1.3530   0.01872   0.01164  -0.0835  0.0755  1.0000  -3.9115   0.0000   0.0000   0.0000   0.3001
   9.400   1.3598   0.01895   0.01187  -0.0829  0.0732  1.0000  -3.9816   0.0000   0.0000   0.0000   0.2992
   9.500   1.3660   0.01922   0.01212  -0.0822  0.0708  1.0000  -4.0497   0.0000   0.0000   0.0000   0.2983
   9.600   1.3715   0.01954   0.01242  -0.0814  0.0681  1.0000  -4.1147   0.0000   0.0000   0.0000   0.2973
   9.700   1.3757   0.01994   0.01282  -0.0804  0.0651  1.0000  -4.1723   0.0000   0.0000   0.0000   0.2963
   9.800   1.3806   0.02029   0.01318  -0.0795  0.0631  1.0000  -4.2338   0.0000   0.0000   0.0000   0.2953
   9.900   1.3887   0.02043   0.01335  -0.0791  0.0623  1.0000  -4.3124   0.0000   0.0000   0.0000   0.2945
  10.000   1.3964   0.02058   0.01353  -0.0787  0.0611  1.0000  -4.3902   0.0000   0.0000   0.0000   0.2937
  10.100   1.4039   0.02076   0.01373  -0.0782  0.0596  1.0000  -4.4674   0.0000   0.0000   0.0000   0.2929
  10.200   1.4109   0.02097   0.01394  -0.0777  0.0577  1.0000  -4.5434   0.0000   0.0000   0.0000   0.2921
  10.300   1.4174   0.02122   0.01418  -0.0772  0.0556  1.0000  -4.6177   0.0000   0.0000   0.0000   0.2913
  10.400   1.4233   0.02151   0.01444  -0.0765  0.0534  1.0000  -4.6895   0.0000   0.0000   0.0000   0.2905
  10.500   1.4273   0.02192   0.01483  -0.0757  0.0480  1.0000  -4.7531   0.0000   0.0000   0.0000   0.2896
  10.600   1.4345   0.02212   0.01503  -0.0752  0.0465  1.0000  -4.8321   0.0000   0.0000   0.0000   0.2888
  10.700   1.4420   0.02228   0.01522  -0.0748  0.0452  1.0000  -4.9138   0.0000   0.0000   0.0000   0.2881
  10.800   1.4487   0.02251   0.01546  -0.0743  0.0437  1.0000  -4.9913   0.0000   0.0000   0.0000   0.2874
  10.900   1.4547   0.02278   0.01574  -0.0737  0.0421  1.0000  -5.0657   0.0000   0.0000   0.0000   0.2866
  11.000   1.4603   0.02308   0.01604  -0.0731  0.0407  1.0000  -5.1383   0.0000   0.0000   0.0000   0.2858
  11.100   1.4657   0.02341   0.01637  -0.0724  0.0394  1.0000  -5.2097   0.0000   0.0000   0.0000   0.2849
  11.200   1.4708   0.02375   0.01671  -0.0717  0.0380  1.0000  -5.2803   0.0000   0.0000   0.0000   0.2841
  11.300   1.4758   0.02412   0.01707  -0.0710  0.0365  1.0000  -5.3500   0.0000   0.0000   0.0000   0.2833
  11.400   1.4805   0.02451   0.01747  -0.0703  0.0349  1.0000  -5.4177   0.0000   0.0000   0.0000   0.2825
  11.500   1.4845   0.02495   0.01794  -0.0694  0.0334  1.0000  -5.4810   0.0000   0.0000   0.0000   0.2817
  11.600   1.4904   0.02524   0.01825  -0.0689  0.0329  1.0000  -5.5571   0.0000   0.0000   0.0000   0.2809
  11.700   1.4963   0.02553   0.01858  -0.0683  0.0324  1.0000  -5.6331   0.0000   0.0000   0.0000   0.2802
  11.800   1.5019   0.02584   0.01893  -0.0677  0.0318  1.0000  -5.7085   0.0000   0.0000   0.0000   0.2795
  11.900   1.5074   0.02617   0.01928  -0.0672  0.0310  1.0000  -5.7834   0.0000   0.0000   0.0000   0.2787
  12.000   1.5127   0.02653   0.01966  -0.0666  0.0302  1.0000  -5.8573   0.0000   0.0000   0.0000   0.2780
  12.100   1.5176   0.02690   0.02006  -0.0659  0.0293  1.0000  -5.9297   0.0000   0.0000   0.0000   0.2773
  12.200   1.5220   0.02730   0.02047  -0.0653  0.0283  1.0000  -6.0006   0.0000   0.0000   0.0000   0.2765
  12.300   1.5262   0.02772   0.02090  -0.0646  0.0273  1.0000  -6.0703   0.0000   0.0000   0.0000   0.2758
  12.400   1.5303   0.02817   0.02135  -0.0639  0.0264  1.0000  -6.1395   0.0000   0.0000   0.0000   0.2751
  12.500   1.5342   0.02863   0.02182  -0.0632  0.0254  1.0000  -6.2081   0.0000   0.0000   0.0000   0.2743
  12.600   1.5380   0.02911   0.02231  -0.0626  0.0243  1.0000  -6.3067   0.0000   0.0000   0.0000   0.2736
  12.700   1.5413   0.02963   0.02285  -0.0618  0.0233  1.0000  -6.4112   0.0000   0.0000   0.0000   0.2729
  12.800   1.5440   0.03020   0.02345  -0.0611  0.0223  1.0000  -6.5114   0.0000   0.0000   0.0000   0.2721
  12.900   1.5478   0.03069   0.02396  -0.0604  0.0218  1.0000  -6.6210   0.0000   0.0000   0.0000   0.2714
  13.000   1.5522   0.03113   0.02444  -0.0599  0.0215  1.0000  -6.7383   0.0000   0.0000   0.0000   0.2708
  13.100   1.5566   0.03158   0.02492  -0.0593  0.0212  1.0000  -6.8557   0.0000   0.0000   0.0000   0.2701
  13.200   1.5608   0.03205   0.02543  -0.0588  0.0208  1.0000  -6.9725   0.0000   0.0000   0.0000   0.2695
  13.300   1.5647   0.03254   0.02596  -0.0582  0.0205  1.0000  -7.0869   0.0000   0.0000   0.0000   0.2688
  13.400   1.5683   0.03307   0.02652  -0.0577  0.0201  1.0000  -7.1998   0.0000   0.0000   0.0000   0.2682
  13.500   1.5717   0.03361   0.02709  -0.0571  0.0196  1.0000  -7.3121   0.0000   0.0000   0.0000   0.2675
  13.600   1.5751   0.03416   0.02767  -0.0565  0.0192  1.0000  -7.4247   0.0000   0.0000   0.0000   0.2669
  13.700   1.5778   0.03478   0.02839  -0.0559  0.0190  1.0000  -7.5373   0.0000   0.0000   0.0000   0.2663
  13.800   1.5808   0.03537   0.02901  -0.0554  0.0186  1.0000  -7.6494   0.0000   0.0000   0.0000   0.2656
  13.900   1.5835   0.03600   0.02968  -0.0548  0.0182  1.0000  -7.7581   0.0000   0.0000   0.0000   0.2650
  14.000   1.5859   0.03666   0.03036  -0.0543  0.0178  1.0000  -7.8653   0.0000   0.0000   0.0000   0.2644
  14.100   1.5884   0.03731   0.03104  -0.0537  0.0174  1.0000  -7.9730   0.0000   0.0000   0.0000   0.2638
  14.200   1.5908   0.03798   0.03174  -0.0532  0.0170  1.0000  -8.0810   0.0000   0.0000   0.0000   0.2633
  14.300   1.5930   0.03866   0.03244  -0.0527  0.0166  1.0000  -8.1879   0.0000   0.0000   0.0000   0.2627
  14.400   1.5949   0.03937   0.03318  -0.0522  0.0162  1.0000  -8.2911   0.0000   0.0000   0.0000   0.2621
  14.500   1.5961   0.04015   0.03398  -0.0517  0.0158  1.0000  -8.3891   0.0000   0.0000   0.0000   0.2616
  14.600   1.5973   0.04094   0.03480  -0.0512  0.0154  1.0000  -8.4867   0.0000   0.0000   0.0000   0.2610
  14.700   1.5986   0.04174   0.03564  -0.0507  0.0150  1.0000  -8.5849   0.0000   0.0000   0.0000   0.2605
  14.800   1.5998   0.04257   0.03650  -0.0502  0.0145  1.0000  -8.6828   0.0000   0.0000   0.0000   0.2600
  14.900   1.6008   0.04343   0.03740  -0.0498  0.0141  1.0000  -8.7780   0.0000   0.0000   0.0000   0.2594
  15.000   1.6010   0.04439   0.03841  -0.0493  0.0137  1.0000  -8.8654   0.0000   0.0000   0.0000   0.2590
  15.100   1.6010   0.04540   0.03946  -0.0489  0.0134  1.0000  -8.9508   0.0000   0.0000   0.0000   0.2585
  15.200   1.6011   0.04641   0.04053  -0.0486  0.0130  1.0000  -9.0362   0.0000   0.0000   0.0000   0.2580
  15.300   1.6031   0.04722   0.04136  -0.0483  0.0129  1.0000  -9.1442   0.0000   0.0000   0.0000   0.2576
  15.400   1.6056   0.04800   0.04218  -0.0481  0.0128  1.0000  -9.2568   0.0000   0.0000   0.0000   0.2572
  15.500   1.6073   0.04886   0.04309  -0.0478  0.0127  1.0000  -9.3624   0.0000   0.0000   0.0000   0.2568
  15.600   1.6088   0.04976   0.04403  -0.0476  0.0126  1.0000  -9.4660   0.0000   0.0000   0.0000   0.2564
  15.700   1.6105   0.05065   0.04497  -0.0474  0.0125  1.0000  -9.5709   0.0000   0.0000   0.0000   0.2560
  15.800   1.6121   0.05155   0.04591  -0.0473  0.0123  1.0000  -9.6761   0.0000   0.0000   0.0000   0.2557
  15.900   1.6137   0.05247   0.04687  -0.0471  0.0121  1.0000  -9.7804   0.0000   0.0000   0.0000   0.2553
  16.000   1.6147   0.05348   0.04792  -0.0470  0.0119  1.0000  -9.8782   0.0000   0.0000   0.0000   0.2550
  16.100   1.6151   0.05457   0.04906  -0.0469  0.0117  1.0000  -9.9697   0.0000   0.0000   0.0000   0.2547
  16.200   1.6155   0.05567   0.05021  -0.0468  0.0114  1.0000  -10.0605   0.0000   0.0000   0.0000   0.2544
  16.300   1.6160   0.05678   0.05136  -0.0468  0.0111  1.0000  -10.1512   0.0000   0.0000   0.0000   0.2541
  16.400   1.6162   0.05791   0.05253  -0.0467  0.0108  1.0000  -10.2400   0.0000   0.0000   0.0000   0.2539
  16.500   1.6157   0.05918   0.05384  -0.0468  0.0105  1.0000  -10.3190   0.0000   0.0000   0.0000   0.2537
  16.600   1.6145   0.06054   0.05525  -0.0468  0.0101  1.0000  -10.3916   0.0000   0.0000   0.0000   0.2535
  16.700   1.6136   0.06189   0.05663  -0.0469  0.0098  1.0000  -10.4649   0.0000   0.0000   0.0000   0.2533
  16.800   1.6124   0.06326   0.05804  -0.0470  0.0093  1.0000  -10.5364   0.0000   0.0000   0.0000   0.2532
  16.900   1.6104   0.06479   0.05961  -0.0472  0.0088  1.0000  -10.5972   0.0000   0.0000   0.0000   0.2531
  17.000   1.6071   0.06652   0.06137  -0.0475  0.0083  1.0000  -10.6444   0.0000   0.0000   0.0000   0.2531
  17.100   1.6037   0.06827   0.06316  -0.0478  0.0077  1.0000  -10.6901   0.0000   0.0000   0.0000   0.2531
  17.200   1.6001   0.07006   0.06497  -0.0482  0.0071  1.0000  -10.7320   0.0000   0.0000   0.0000   0.2531
  17.300   1.5954   0.07201   0.06697  -0.0486  0.0067  1.0000  -10.7607   0.0000   0.0000   0.0000   0.2533
  17.400   1.5913   0.07391   0.06892  -0.0491  0.0063  1.0000  -10.7947   0.0000   0.0000   0.0000   0.2534
  17.500   1.5880   0.07572   0.07078  -0.0495  0.0060  1.0000  -10.8357   0.0000   0.0000   0.0000   0.2535
  17.600   1.5838   0.07770   0.07283  -0.0501  0.0058  1.0000  -10.8663   0.0000   0.0000   0.0000   0.2537
  17.700   1.5788   0.07987   0.07506  -0.0508  0.0055  1.0000  -10.8873   0.0000   0.0000   0.0000   0.2540
  17.800   1.5743   0.08198   0.07722  -0.0515  0.0052  1.0000  -10.9120   0.0000   0.0000   0.0000   0.2543
  17.900   1.5693   0.08420   0.07950  -0.0523  0.0050  1.0000  -10.9303   0.0000   0.0000   0.0000   0.2546
  18.000   1.5633   0.08667   0.08203  -0.0532  0.0047  1.0000  -10.9354   0.0000   0.0000   0.0000   0.2551
  18.100   1.5579   0.08903   0.08445  -0.0541  0.0045  1.0000  -10.9458   0.0000   0.0000   0.0000   0.2555
  18.200   1.5521   0.09150   0.08699  -0.0552  0.0043  1.0000  -10.9506   0.0000   0.0000   0.0000   0.2561
  18.300   1.5453   0.09420   0.08975  -0.0563  0.0041  1.0000  -10.9424   0.0000   0.0000   0.0000   0.2567
  18.400   1.5392   0.09677   0.09238  -0.0575  0.0039  1.0000  -10.9408   0.0000   0.0000   0.0000   0.2574
  18.500   1.5325   0.09951   0.09518  -0.0587  0.0038  1.0000  -10.9297   0.0000   0.0000   0.0000   0.2581
  18.600   1.5254   0.10236   0.09810  -0.0601  0.0037  1.0000  -10.9114   0.0000   0.0000   0.0000   0.2589
  18.700   1.5189   0.10508   0.10088  -0.0614  0.0036  1.0000  -10.8997   0.0000   0.0000   0.0000   0.2597
  18.800   1.5114   0.10808   0.10394  -0.0629  0.0035  1.0000  -10.8717   0.0000   0.0000   0.0000   0.2607
  18.900   1.5041   0.11102   0.10694  -0.0644  0.0035  1.0000  -10.8460   0.0000   0.0000   0.0000   0.2617
  19.000   1.4973   0.11388   0.10987  -0.0659  0.0034  1.0000  -10.8231   0.0000   0.0000   0.0000   0.2626
  19.100   1.4890   0.11708   0.11314  -0.0676  0.0034  1.0000  -10.7797   0.0000   0.0000   0.0000   0.2638
  19.200   1.4818   0.12008   0.11620  -0.0693  0.0033  1.0000  -10.7471   0.0000   0.0000   0.0000   0.2649
  19.300   1.4742   0.12316   0.11935  -0.0710  0.0033  1.0000  -10.7073   0.0000   0.0000   0.0000   0.2660
  19.400   1.4660   0.12643   0.12269  -0.0728  0.0033  1.0000  -10.6560   0.0000   0.0000   0.0000   0.2674
  19.500   1.4587   0.12947   0.12579  -0.0746  0.0033  1.0000  -10.6151   0.0000   0.0000   0.0000   0.2686
  19.600   1.4504   0.13279   0.12918  -0.0765  0.0034  1.0000  -10.5571   0.0000   0.0000   0.0000   0.2700
  19.700   1.4425   0.13604   0.13250  -0.0784  0.0034  1.0000  -10.5010   0.0000   0.0000   0.0000   0.2714
  19.800   1.4351   0.13915   0.13567  -0.0803  0.0034  1.0000  -10.4511   0.0000   0.0000   0.0000   0.2728
  19.900   1.4264   0.14264   0.13923  -0.0824  0.0035  1.0000  -10.3775   0.0000   0.0000   0.0000   0.2744
  20.000   1.4187   0.14589   0.14255  -0.0844  0.0035  1.0000  -10.3152   0.0000   0.0000   0.0000   0.2759
  20.100   1.4114   0.14899   0.14571  -0.0863  0.0036  1.0000  -10.2568   0.0000   0.0000   0.0000   0.2774
  20.200   1.4028   0.15235   0.14913  -0.0886  0.0037  1.0000  -10.1715   0.0000   0.0000   0.0000   0.2792
  20.300   1.3956   0.15538   0.15223  -0.0906  0.0037  1.0000  -10.1053   0.0000   0.0000   0.0000   0.2808
  20.400   1.3885   0.15842   0.15532  -0.0927  0.0038  1.0000  -10.0390   0.0000   0.0000   0.0000   0.2824
  20.500   1.3798   0.16195   0.15893  -0.0950  0.0040  1.0000  -9.9420   0.0000   0.0000   0.0000   0.2843
  20.600   1.3726   0.16521   0.16224  -0.0971  0.0040  1.0000  -9.8652   0.0000   0.0000   0.0000   0.2861
  20.700   1.3656   0.16847   0.16556  -0.0992  0.0041  1.0000  -9.7903   0.0000   0.0000   0.0000   0.2878
  20.800   1.3568   0.17228   0.16944  -0.1017  0.0043  1.0000  -9.6801   0.0000   0.0000   0.0000   0.2899
  20.900   1.3495   0.17580   0.17301  -0.1039  0.0044  1.0000  -9.5914   0.0000   0.0000   0.0000   0.2918
  21.000   1.3427   0.17925   0.17651  -0.1060  0.0045  1.0000  -9.5088   0.0000   0.0000   0.0000   0.2936
  21.100   1.3344   0.18319   0.18052  -0.1084  0.0047  1.0000  -9.3941   0.0000   0.0000   0.0000   0.2958
  21.200   1.3265   0.18712   0.18451  -0.1108  0.0049  1.0000  -9.2821   0.0000   0.0000   0.0000   0.2979
  21.300   1.3197   0.19080   0.18823  -0.1130  0.0049  1.0000  -9.1884   0.0000   0.0000   0.0000   0.2998
  21.400   1.3128   0.19458   0.19207  -0.1152  0.0050  1.0000  -9.0889   0.0000   0.0000   0.0000   0.3019
  21.500   1.3034   0.19924   0.19679  -0.1179  0.0054  1.0000  -8.9322   0.0000   0.0000   0.0000   0.3045
  21.600   1.2964   0.20324   0.20084  -0.1202  0.0055  1.0000  -8.8209   0.0000   0.0000   0.0000   0.3066
  21.700   1.2900   0.20716   0.20480  -0.1224  0.0055  1.0000  -8.7165   0.0000   0.0000   0.0000   0.3086
  21.800   1.2819   0.21170   0.20939  -0.1249  0.0057  1.0000  -8.5720   0.0000   0.0000   0.0000   0.3111
  21.900   1.2725   0.21679   0.21454  -0.1276  0.0059  1.0000  -8.3931   0.0000   0.0000   0.0000   0.3139
  22.000   1.2663   0.22094   0.21873  -0.1297  0.0059  1.0000  -8.2770   0.0000   0.0000   0.0000   0.3160
  22.100   1.2602   0.22512   0.22294  -0.1319  0.0060  1.0000  -8.1603   0.0000   0.0000   0.0000   0.3181
  22.200   1.2525   0.22998   0.22784  -0.1343  0.0061  1.0000  -8.0002   0.0000   0.0000   0.0000   0.3206
  22.300   1.2434   0.23547   0.23338  -0.1370  0.0062  1.0000  -7.7999   0.0000   0.0000   0.0000   0.3236
  22.400   1.2381   0.23967   0.23761  -0.1390  0.0061  1.0000  -7.6849   0.0000   0.0000   0.0000   0.3256
  22.500   1.2332   0.24382   0.24179  -0.1409  0.0061  1.0000  -7.5744   0.0000   0.0000   0.0000   0.3275
  22.600   1.2275   0.24832   0.24632  -0.1430  0.0061  1.0000  -7.4418   0.0000   0.0000   0.0000   0.3296
  22.700   1.2189   0.25419   0.25223  -0.1455  0.0061  1.0000  -7.2215   0.0000   0.0000   0.0000   0.3326
  22.800   1.2132   0.25895   0.25702  -0.1475  0.0061  1.0000  -7.0733   0.0000   0.0000   0.0000   0.3348
  22.900   1.2082   0.26351   0.26161  -0.1494  0.0060  1.0000  -6.9391   0.0000   0.0000   0.0000   0.3368
  23.000   1.2020   0.26871   0.26685  -0.1515  0.0060  1.0000  -6.7632   0.0000   0.0000   0.0000   0.3392
  23.100   1.1766   0.28371   0.28190  -0.1564  0.0061  1.0000  -5.9547   0.0000   0.0000   0.0000   0.3469
  23.200   1.1566   0.29731   0.29551  -0.1602  0.0058  1.0000  -5.2339   0.0000   0.0000   0.0000   0.3532
  23.300   1.1428   0.30862   0.30680  -0.1628  0.0040  1.0000  -4.6233   0.0000   0.0000   0.0000   0.3577
  23.400   1.1411   0.31235   0.31054  -0.1639  0.0035  1.0000  -4.5220   0.0000   0.0000   0.0000   0.3588
  23.500   1.1404   0.31541   0.31359  -0.1648  0.0032  1.0000  -4.4733   0.0000   0.0000   0.0000   0.3595
  23.600   1.1395   0.31858   0.31676  -0.1657  0.0030  1.0000  -4.4180   0.0000   0.0000   0.0000   0.3603
  23.700   1.1376   0.32233   0.32051  -0.1667  0.0028  1.0000  -4.3222   0.0000   0.0000   0.0000   0.3613
  23.800   1.1351   0.32647   0.32464  -0.1677  0.0027  1.0000  -4.1972   0.0000   0.0000   0.0000   0.3624
  23.900   1.1320   0.33092   0.32909  -0.1686  0.0025  1.0000  -4.0465   0.0000   0.0000   0.0000   0.3636
  24.000   1.1275   0.33614   0.33430  -0.1695  0.0025  1.0000  -3.8348   0.0000   0.0000   0.0000   0.3650
  24.100   1.1226   0.34147   0.33958  -0.1703  0.0024  1.0000  -3.6068   0.0000   0.0000   0.0000   0.3664
  24.200   1.0896   0.36154   0.35961  -0.1698  0.0039  1.0000  -2.2837   0.0000   0.0000   0.0000   0.3721
  24.300   1.0818   0.36461   0.36269  -0.1695  0.0043  1.0000  -2.1805   0.0000   0.0000   0.0000   0.3729
  24.700   0.9290   0.33568   0.33397  -0.1497  0.0055  1.0000  -1.6868   0.0000   0.0000   0.0000   0.3796
  24.800   0.9172   0.33398   0.33228  -0.1481  0.0063  1.0000  -1.6236   0.0000   0.0000   0.0000   0.3799
  24.900   0.9135   0.33412   0.33242  -0.1480  0.0063  1.0000  -1.5993   0.0000   0.0000   0.0000   0.3803
  25.000   0.9102   0.33433   0.33264  -0.1479  0.0063  1.0000  -1.5767   0.0000   0.0000   0.0000   0.3808
  25.100   0.9071   0.33457   0.33290  -0.1479  0.0063  1.0000  -1.5554   0.0000   0.0000   0.0000   0.3812
  25.200   0.9043   0.33485   0.33318  -0.1479  0.0063  1.0000  -1.5351   0.0000   0.0000   0.0000   0.3816
  25.300   0.9016   0.33516   0.33349  -0.1479  0.0063  1.0000  -1.5156   0.0000   0.0000   0.0000   0.3820
  25.400   0.8991   0.33549   0.33383  -0.1479  0.0063  1.0000  -1.4969   0.0000   0.0000   0.0000   0.3824
  25.500   0.8967   0.33583   0.33418  -0.1480  0.0063  1.0000  -1.4790   0.0000   0.0000   0.0000   0.3828
  25.600   0.8945   0.33620   0.33456  -0.1481  0.0063  1.0000  -1.4617   0.0000   0.0000   0.0000   0.3832
  25.700   0.8924   0.33658   0.33495  -0.1482  0.0063  1.0000  -1.4450   0.0000   0.0000   0.0000   0.3836
  25.800   0.8904   0.33698   0.33535  -0.1483  0.0063  1.0000  -1.4288   0.0000   0.0000   0.0000   0.3840
  25.900   0.8884   0.33739   0.33577  -0.1484  0.0063  1.0000  -1.4132   0.0000   0.0000   0.0000   0.3844
  26.000   0.8866   0.33781   0.33619  -0.1486  0.0063  1.0000  -1.3981   0.0000   0.0000   0.0000   0.3847
  26.100   0.8849   0.33825   0.33663  -0.1487  0.0063  1.0000  -1.3834   0.0000   0.0000   0.0000   0.3851
  26.200   0.8832   0.33869   0.33708  -0.1489  0.0063  1.0000  -1.3691   0.0000   0.0000   0.0000   0.3855
  26.300   0.8816   0.33914   0.33754  -0.1491  0.0063  1.0000  -1.3553   0.0000   0.0000   0.0000   0.3858
  26.400   0.8801   0.33960   0.33801  -0.1492  0.0063  1.0000  -1.3418   0.0000   0.0000   0.0000   0.3862
  26.500   0.8787   0.34007   0.33848  -0.1494  0.0063  1.0000  -1.3287   0.0000   0.0000   0.0000   0.3865
  26.600   0.8773   0.34055   0.33897  -0.1496  0.0063  1.0000  -1.3160   0.0000   0.0000   0.0000   0.3869
  26.700   0.8759   0.34103   0.33946  -0.1498  0.0063  1.0000  -1.3035   0.0000   0.0000   0.0000   0.3872
  26.800   0.8746   0.34152   0.33995  -0.1500  0.0063  1.0000  -1.2914   0.0000   0.0000   0.0000   0.3876
  26.900   0.8734   0.34202   0.34046  -0.1502  0.0063  1.0000  -1.2796   0.0000   0.0000   0.0000   0.3879
  27.000   0.8722   0.34253   0.34097  -0.1505  0.0063  1.0000  -1.2679   0.0000   0.0000   0.0000   0.3883
  27.100   0.8711   0.34304   0.34148  -0.1507  0.0063  1.0000  -1.2565   0.0000   0.0000   0.0000   0.3886
  27.200   0.8699   0.34356   0.34201  -0.1509  0.0063  1.0000  -1.2452   0.0000   0.0000   0.0000   0.3889
  27.300   0.8689   0.34407   0.34256  -0.1512  0.0063  1.0000  -1.2343   0.0000   0.0000   0.0000   0.3893
  27.400   0.8679   0.34460   0.34309  -0.1514  0.0063  1.0000  -1.2236   0.0000   0.0000   0.0000   0.3896
  27.500   0.8669   0.34513   0.34362  -0.1517  0.0063  1.0000  -1.2131   0.0000   0.0000   0.0000   0.3899
  27.600   0.8659   0.34567   0.34417  -0.1519  0.0063  1.0000  -1.2029   0.0000   0.0000   0.0000   0.3902
  27.700   0.8650   0.34621   0.34471  -0.1522  0.0062  1.0000  -1.1928   0.0000   0.0000   0.0000   0.3906
  27.800   0.8641   0.34675   0.34526  -0.1525  0.0062  1.0000  -1.1830   0.0000   0.0000   0.0000   0.3909
  27.900   0.8632   0.34730   0.34582  -0.1528  0.0062  1.0000  -1.1733   0.0000   0.0000   0.0000   0.3912
  28.000   0.8624   0.34785   0.34638  -0.1530  0.0062  1.0000  -1.1639   0.0000   0.0000   0.0000   0.3915
  28.100   0.8616   0.34841   0.34694  -0.1533  0.0062  1.0000  -1.1546   0.0000   0.0000   0.0000   0.3918
  28.200   0.8608   0.34897   0.34751  -0.1536  0.0062  1.0000  -1.1455   0.0000   0.0000   0.0000   0.3922
  28.300   0.8601   0.34954   0.34808  -0.1539  0.0062  1.0000  -1.1366   0.0000   0.0000   0.0000   0.3925
  28.400   0.8593   0.35011   0.34865  -0.1542  0.0062  1.0000  -1.1279   0.0000   0.0000   0.0000   0.3928
  28.500   0.8586   0.35068   0.34923  -0.1545  0.0062  1.0000  -1.1190   0.0000   0.0000   0.0000   0.3931
  28.600   0.8579   0.35127   0.34982  -0.1548  0.0062  1.0000  -1.1101   0.0000   0.0000   0.0000   0.3934
  28.700   0.8573   0.35185   0.35041  -0.1551  0.0062  1.0000  -1.1014   0.0000   0.0000   0.0000   0.3937
  28.800   0.8566   0.35244   0.35100  -0.1554  0.0062  1.0000  -1.0929   0.0000   0.0000   0.0000   0.3940
  28.900   0.8560   0.35303   0.35160  -0.1558  0.0062  1.0000  -1.0845   0.0000   0.0000   0.0000   0.3944
  29.000   0.8554   0.35363   0.35220  -0.1561  0.0062  1.0000  -1.0762   0.0000   0.0000   0.0000   0.3947
  29.100   0.8548   0.35423   0.35281  -0.1564  0.0062  1.0000  -1.0682   0.0000   0.0000   0.0000   0.3950
  29.200   0.8543   0.35484   0.35342  -0.1568  0.0061  1.0000  -1.0599   0.0000   0.0000   0.0000   0.3953
  29.300   0.8537   0.35547   0.35406  -0.1571  0.0061  1.0000  -1.0502   0.0000   0.0000   0.0000   0.3956
  29.400   0.8532   0.35612   0.35471  -0.1575  0.0061  1.0000  -1.0407   0.0000   0.0000   0.0000   0.3960
  29.500   0.8527   0.35677   0.35537  -0.1579  0.0061  1.0000  -1.0314   0.0000   0.0000   0.0000   0.3963
  29.600   0.8522   0.35743   0.35603  -0.1582  0.0061  1.0000  -1.0221   0.0000   0.0000   0.0000   0.3966
  29.700   0.8518   0.35810   0.35671  -0.1586  0.0061  1.0000  -1.0129   0.0000   0.0000   0.0000   0.3970
  29.800   0.8514   0.35878   0.35739  -0.1590  0.0060  1.0000  -1.0037   0.0000   0.0000   0.0000   0.3973
  29.900   0.8510   0.35947   0.35809  -0.1594  0.0060  1.0000  -0.9945   0.0000   0.0000   0.0000   0.3976
  30.000   0.8507   0.36018   0.35881  -0.1598  0.0060  1.0000  -0.9852   0.0000   0.0000   0.0000   0.3979


