xflr5 v6.61

 Calculated polar for: SG6042

 1 1 Reynolds number fixed          Mach number fixed         

 xtrf =   1.000 (top)        1.000 (bottom)
 Mach =   0.000     Re =     1.000 e 6     Ncrit =   9.000

  alpha     CL        CD       CDp       Cm    Top Xtr Bot Xtr   Cpmin    Chinge    XCp    
 ------- -------- --------- --------- -------- ------- ------- -------- --------- ---------
 -10.000  -0.3133   0.11298   0.11123  -0.0408  0.9978  0.0106  -1.6057   0.0000   0.0000   0.0000   0.1084
  -9.900  -0.3087   0.11131   0.10955  -0.0421  0.9974  0.0106  -1.6130   0.0000   0.0000   0.0000   0.1023
  -9.800  -0.3042   0.10963   0.10788  -0.0434  0.9970  0.0106  -1.6204   0.0000   0.0000   0.0000   0.0959
  -9.700  -0.2996   0.10796   0.10620  -0.0447  0.9965  0.0106  -1.6281   0.0000   0.0000   0.0000   0.0893
  -9.600  -0.2950   0.10628   0.10453  -0.0460  0.9961  0.0106  -1.6362   0.0000   0.0000   0.0000   0.0824
  -9.500  -0.2904   0.10460   0.10285  -0.0474  0.9956  0.0106  -1.6445   0.0000   0.0000   0.0000   0.0752
  -9.400  -0.2857   0.10292   0.10117  -0.0488  0.9952  0.0106  -1.6532   0.0000   0.0000   0.0000   0.0676
  -9.300  -0.2810   0.10123   0.09948  -0.0502  0.9947  0.0106  -1.6622   0.0000   0.0000   0.0000   0.0596
  -9.200  -0.2762   0.09953   0.09778  -0.0516  0.9943  0.0106  -1.6716   0.0000   0.0000   0.0000   0.0512
  -9.100  -0.2714   0.09783   0.09609  -0.0531  0.9938  0.0106  -1.6814   0.0000   0.0000   0.0000   0.0424
  -9.000  -0.2666   0.09613   0.09439  -0.0546  0.9935  0.0106  -1.6917   0.0000   0.0000   0.0000   0.0331
  -8.900  -0.2617   0.09442   0.09267  -0.0562  0.9931  0.0106  -1.7024   0.0000   0.0000   0.0000   0.0231
  -8.800  -0.2565   0.09267   0.09093  -0.0579  0.9927  0.0106  -1.7135   0.0000   0.0000   0.0000   0.0122
  -8.700  -0.2516   0.09093   0.08919  -0.0594  0.9921  0.0106  -1.7252   0.0000   0.0000   0.0000   0.0014
  -8.600  -0.2473   0.08924   0.08750  -0.0608  0.9909  0.0106  -1.7375   0.0000   0.0000   0.0000  -0.0082
  -8.500  -0.2426   0.08751   0.08577  -0.0624  0.9898  0.0106  -1.7504   0.0000   0.0000   0.0000  -0.0195
  -8.400  -0.2377   0.08574   0.08400  -0.0641  0.9888  0.0106  -1.7640   0.0000   0.0000   0.0000  -0.0321
  -8.300  -0.2325   0.08394   0.08221  -0.0659  0.9879  0.0106  -1.7785   0.0000   0.0000   0.0000  -0.0460
  -8.200  -0.2271   0.08211   0.08038  -0.0678  0.9871  0.0106  -1.7939   0.0000   0.0000   0.0000  -0.0612
  -8.100  -0.2214   0.08023   0.07850  -0.0698  0.9863  0.0106  -1.8104   0.0000   0.0000   0.0000  -0.0783
  -8.000  -0.2155   0.07830   0.07657  -0.0720  0.9856  0.0106  -1.8281   0.0000   0.0000   0.0000  -0.0974
  -7.900  -0.2094   0.07633   0.07460  -0.0744  0.9849  0.0106  -1.8473   0.0000   0.0000   0.0000  -0.1185
  -7.800  -0.2030   0.07430   0.07257  -0.0769  0.9843  0.0106  -1.8684   0.0000   0.0000   0.0000  -0.1424
  -7.700  -0.1983   0.07239   0.07066  -0.0790  0.9825  0.0106  -1.8909   0.0000   0.0000   0.0000  -0.1621
  -7.600  -0.1951   0.07059   0.06887  -0.0807  0.9794  0.0106  -1.9150   0.0000   0.0000   0.0000  -0.1772
  -7.500  -0.1896   0.06847   0.06675  -0.0833  0.9773  0.0106  -1.9433   0.0000   0.0000   0.0000  -0.2035
  -7.400  -0.1830   0.06612   0.06440  -0.0867  0.9755  0.0106  -1.9770   0.0000   0.0000   0.0000  -0.2380
  -7.300  -0.1741   0.06329   0.06157  -0.0914  0.9742  0.0106  -2.0212   0.0000   0.0000   0.0000  -0.2895
  -7.100  -0.1698   0.04940   0.04756  -0.1121  0.9623  0.0093  -2.6271   0.0000   0.0000   0.0000  -0.4247
  -7.000  -0.2080   0.01934   0.01586  -0.1267  0.9422  0.0062  -5.1679   0.0000   0.0000   0.0000  -0.3740
  -6.900  -0.2049   0.01612   0.01220  -0.1263  0.9380  0.0061  -5.3946   0.0000   0.0000   0.0000  -0.3818
  -6.800  -0.1976   0.01484   0.01071  -0.1259  0.9345  0.0061  -5.3925   0.0000   0.0000   0.0000  -0.4030
  -6.700  -0.1882   0.01397   0.00969  -0.1258  0.9318  0.0061  -5.3303   0.0000   0.0000   0.0000  -0.4343
  -6.600  -0.1778   0.01332   0.00893  -0.1258  0.9295  0.0063  -5.2344   0.0000   0.0000   0.0000  -0.4742
  -6.500  -0.1668   0.01281   0.00833  -0.1259  0.9274  0.0064  -5.1205   0.0000   0.0000   0.0000  -0.5222
  -6.400  -0.1553   0.01241   0.00786  -0.1260  0.9254  0.0067  -5.0190   0.0000   0.0000   0.0000  -0.5795
  -6.300  -0.1436   0.01211   0.00750  -0.1262  0.9233  0.0070  -4.9053   0.0000   0.0000   0.0000  -0.6484
  -6.200  -0.1319   0.01191   0.00727  -0.1263  0.9212  0.0074  -4.7818   0.0000   0.0000   0.0000  -0.7282
  -6.100  -0.1218   0.01180   0.00714  -0.1261  0.9189  0.0078  -4.6563   0.0000   0.0000   0.0000  -0.8070
  -6.000  -0.1113   0.01174   0.00708  -0.1260  0.9166  0.0083  -4.5210   0.0000   0.0000   0.0000  -0.9050
  -5.900  -0.1005   0.01172   0.00706  -0.1259  0.9143  0.0087  -4.3783   0.0000   0.0000   0.0000  -1.0281
  -5.800  -0.0893   0.01174   0.00709  -0.1260  0.9122  0.0090  -4.2295   0.0000   0.0000   0.0000  -1.1878
  -5.700  -0.0779   0.01179   0.00715  -0.1260  0.9101  0.0094  -4.0768   0.0000   0.0000   0.0000  -1.3991
  -5.600  -0.0663   0.01188   0.00725  -0.1261  0.9081  0.0096  -3.9211   0.0000   0.0000   0.0000  -1.6889
  -5.500  -0.0545   0.01203   0.00742  -0.1263  0.9060  0.0099  -3.7613   0.0000   0.0000   0.0000  -2.1112
  -5.400  -0.0424   0.01228   0.00770  -0.1265  0.9039  0.0102  -3.5938   0.0000   0.0000   0.0000  -2.7873
  -5.300  -0.0289   0.01331   0.00884  -0.1268  0.9019  0.0105  -3.3585   0.0000   0.0000   0.0000  -4.2187
  -5.200  -0.0164   0.01370   0.00927  -0.1270  0.8996  0.0107  -3.1878   0.0000   0.0000   0.0000  -7.6009
  -5.100  -0.0088   0.01225   0.00761  -0.1267  0.8975  0.0116  -3.1762   0.0000   0.0000   0.0000  -14.3149
  -5.000   0.0002   0.01141   0.00666  -0.1264  0.8953  0.0122  -3.1232   0.0000   0.0000   0.0000  845.6323
  -4.900   0.0102   0.01102   0.00622  -0.1263  0.8932  0.0127  -3.0321   0.0000   0.0000   0.0000  12.8533
  -4.800   0.0206   0.01076   0.00593  -0.1262  0.8912  0.0131  -2.9306   0.0000   0.0000   0.0000   6.4751
  -4.700   0.0313   0.01055   0.00569  -0.1261  0.8891  0.0135  -2.8250   0.0000   0.0000   0.0000   4.3455
  -4.600   0.0421   0.01036   0.00549  -0.1261  0.8870  0.0138  -2.7188   0.0000   0.0000   0.0000   3.2902
  -4.500   0.0530   0.01019   0.00528  -0.1260  0.8848  0.0141  -2.6276   0.0000   0.0000   0.0000   2.6625
  -4.400   0.0640   0.01001   0.00508  -0.1260  0.8826  0.0143  -2.5552   0.0000   0.0000   0.0000   2.2471
  -4.300   0.0750   0.00983   0.00486  -0.1260  0.8802  0.0145  -2.4859   0.0000   0.0000   0.0000   1.9517
  -4.200   0.0863   0.00965   0.00465  -0.1260  0.8776  0.0147  -2.4192   0.0000   0.0000   0.0000   1.7297
  -4.100   0.0974   0.00947   0.00443  -0.1260  0.8751  0.0149  -2.3554   0.0000   0.0000   0.0000   1.5598
  -4.000   0.1078   0.00928   0.00422  -0.1258  0.8735  0.0150  -2.2959   0.0000   0.0000   0.0000   1.4317
  -3.900   0.1183   0.00909   0.00401  -0.1257  0.8717  0.0152  -2.2379   0.0000   0.0000   0.0000   1.3253
  -3.800   0.1288   0.00890   0.00380  -0.1255  0.8698  0.0153  -2.1810   0.0000   0.0000   0.0000   1.2357
  -3.700   0.1395   0.00873   0.00360  -0.1254  0.8678  0.0154  -2.1249   0.0000   0.0000   0.0000   1.1593
  -3.600   0.1502   0.00856   0.00341  -0.1253  0.8657  0.0154  -2.0695   0.0000   0.0000   0.0000   1.0934
  -3.500   0.1610   0.00840   0.00322  -0.1252  0.8636  0.0155  -2.0143   0.0000   0.0000   0.0000   1.0357
  -3.400   0.1720   0.00826   0.00305  -0.1251  0.8616  0.0156  -1.9569   0.0000   0.0000   0.0000   0.9850
  -3.300   0.1830   0.00816   0.00292  -0.1251  0.8596  0.0160  -1.8921   0.0000   0.0000   0.0000   0.9402
  -3.200   0.1941   0.00806   0.00281  -0.1250  0.8576  0.0164  -1.8258   0.0000   0.0000   0.0000   0.9004
  -3.100   0.2053   0.00797   0.00270  -0.1250  0.8553  0.0168  -1.7616   0.0000   0.0000   0.0000   0.8647
  -3.000   0.2165   0.00788   0.00257  -0.1250  0.8527  0.0172  -1.7010   0.0000   0.0000   0.0000   0.8326
  -2.800   0.2389   0.00764   0.00223  -0.1249  0.8480  0.0171  -1.6147   0.0000   0.0000   0.0000   0.7772
  -2.700   0.2496   0.00755   0.00213  -0.1248  0.8462  0.0174  -1.5583   0.0000   0.0000   0.0000   0.7538
  -2.600   0.2605   0.00746   0.00202  -0.1247  0.8443  0.0177  -1.5053   0.0000   0.0000   0.0000   0.7322
  -2.500   0.2714   0.00737   0.00191  -0.1246  0.8422  0.0180  -1.4555   0.0000   0.0000   0.0000   0.7123
  -2.400   0.2824   0.00729   0.00180  -0.1245  0.8401  0.0182  -1.4088   0.0000   0.0000   0.0000   0.6937
  -2.200   0.3042   0.00688   0.00151  -0.1243  0.8356  0.0629  -1.4021   0.0000   0.0000   0.0000   0.6610
  -2.100   0.3153   0.00682   0.00148  -0.1243  0.8333  0.0744  -1.3403   0.0000   0.0000   0.0000   0.6463
  -2.000   0.3263   0.00675   0.00145  -0.1243  0.8309  0.0860  -1.2748   0.0000   0.0000   0.0000   0.6328
  -1.900   0.3374   0.00671   0.00142  -0.1242  0.8283  0.0957  -1.2088   0.0000   0.0000   0.0000   0.6200
  -1.800   0.3484   0.00665   0.00139  -0.1242  0.8253  0.1107  -1.1435   0.0000   0.0000   0.0000   0.6081
  -1.700   0.3598   0.00659   0.00138  -0.1243  0.8219  0.1282  -1.0779   0.0000   0.0000   0.0000   0.5968
  -1.600   0.3707   0.00651   0.00135  -0.1243  0.8199  0.1481  -1.0144   0.0000   0.0000   0.0000   0.5864
  -1.400   0.3921   0.00628   0.00131  -0.1242  0.8159  0.2069  -0.8910   0.0000   0.0000   0.0000   0.5676
  -1.300   0.4027   0.00614   0.00129  -0.1242  0.8134  0.2473  -0.8308   0.0000   0.0000   0.0000   0.5590
  -1.200   0.4132   0.00595   0.00127  -0.1241  0.8106  0.3046  -0.7718   0.0000   0.0000   0.0000   0.5510
  -1.100   0.4236   0.00572   0.00125  -0.1241  0.8076  0.3809  -0.7141   0.0000   0.0000   0.0000   0.5434
  -1.000   0.4338   0.00548   0.00125  -0.1241  0.8046  0.4700  -0.6576   0.0000   0.0000   0.0000   0.5363
  -0.900   0.4441   0.00529   0.00126  -0.1240  0.8016  0.5461  -0.6015   0.0000   0.0000   0.0000   0.5294
  -0.800   0.4546   0.00521   0.00127  -0.1239  0.7985  0.5896  -0.5761   0.0000   0.0000   0.0000   0.5225
  -0.700   0.4653   0.00516   0.00128  -0.1238  0.7949  0.6188  -0.5847   0.0000   0.0000   0.0000   0.5159
  -0.600   0.4765   0.00516   0.00129  -0.1237  0.7911  0.6351  -0.5935   0.0000   0.0000   0.0000   0.5095
  -0.500   0.4876   0.00515   0.00128  -0.1237  0.7895  0.6374  -0.6022   0.0000   0.0000   0.0000   0.5033
  -0.400   0.4998   0.00532   0.00121  -0.1238  0.7875  0.5625  -0.6116   0.0000   0.0000   0.0000   0.4972
  -0.300   0.5103   0.00521   0.00123  -0.1237  0.7848  0.6093  -0.6201   0.0000   0.0000   0.0000   0.4918
  -0.200   0.5208   0.00513   0.00125  -0.1235  0.7814  0.6476  -0.6302   0.0000   0.0000   0.0000   0.4865
  -0.100   0.5313   0.00508   0.00126  -0.1234  0.7775  0.6778  -0.6406   0.0000   0.0000   0.0000   0.4813
   0.000   0.5416   0.00503   0.00128  -0.1231  0.7733  0.7071  -0.6509   0.0000   0.0000   0.0000   0.4764
   0.100   0.5518   0.00500   0.00130  -0.1229  0.7692  0.7317  -0.6611   0.0000   0.0000   0.0000   0.4716
   0.200   0.5623   0.00500   0.00131  -0.1227  0.7650  0.7482  -0.6715   0.0000   0.0000   0.0000   0.4670
   0.300   0.5727   0.00500   0.00132  -0.1225  0.7605  0.7621  -0.6833   0.0000   0.0000   0.0000   0.4626
   0.400   0.5836   0.00499   0.00133  -0.1224  0.7580  0.7712  -0.6964   0.0000   0.0000   0.0000   0.4583
   0.500   0.5944   0.00498   0.00134  -0.1223  0.7545  0.7805  -0.7096   0.0000   0.0000   0.0000   0.4542
   0.600   0.6050   0.00496   0.00135  -0.1221  0.7498  0.7917  -0.7226   0.0000   0.0000   0.0000   0.4502
   0.700   0.6152   0.00495   0.00136  -0.1218  0.7442  0.8050  -0.7354   0.0000   0.0000   0.0000   0.4463
   0.800   0.6254   0.00497   0.00136  -0.1215  0.7381  0.8168  -0.7483   0.0000   0.0000   0.0000   0.4426
   0.900   0.6351   0.00498   0.00138  -0.1212  0.7321  0.8283  -0.7622   0.0000   0.0000   0.0000   0.4389
   1.000   0.6451   0.00499   0.00139  -0.1208  0.7270  0.8408  -0.7765   0.0000   0.0000   0.0000   0.4354
   1.200   0.6655   0.00496   0.00143  -0.1203  0.7192  0.8650  -0.8071   0.0000   0.0000   0.0000   0.4286
   1.300   0.6755   0.00497   0.00144  -0.1200  0.7132  0.8775  -0.8234   0.0000   0.0000   0.0000   0.4254
   1.400   0.6845   0.00497   0.00145  -0.1194  0.7063  0.8906  -0.8406   0.0000   0.0000   0.0000   0.4221
   1.500   0.6932   0.00500   0.00146  -0.1188  0.6985  0.9044  -0.8583   0.0000   0.0000   0.0000   0.4190
   1.600   0.7016   0.00500   0.00148  -0.1181  0.6922  0.9200  -0.8757   0.0000   0.0000   0.0000   0.4158
   1.700   0.7106   0.00499   0.00149  -0.1175  0.6867  0.9381  -0.8937   0.0000   0.0000   0.0000   0.4128
   1.800   0.7212   0.00499   0.00149  -0.1173  0.6787  0.9597  -0.9134   0.0000   0.0000   0.0000   0.4100
   2.000   0.7488   0.00510   0.00151  -0.1185  0.6563  1.0000  -0.9590   0.0000   0.0000   0.0000   0.4054
   2.100   0.7593   0.00515   0.00155  -0.1184  0.6473  1.0000  -0.9789   0.0000   0.0000   0.0000   0.4029
   2.200   0.7692   0.00523   0.00157  -0.1181  0.6364  1.0000  -0.9982   0.0000   0.0000   0.0000   0.4005
   2.300   0.7785   0.00534   0.00161  -0.1178  0.6248  1.0000  -1.0169   0.0000   0.0000   0.0000   0.3981
   2.400   0.7893   0.00538   0.00163  -0.1177  0.6184  1.0000  -1.0372   0.0000   0.0000   0.0000   0.3958
   2.500   0.7997   0.00544   0.00166  -0.1176  0.6099  1.0000  -1.0590   0.0000   0.0000   0.0000   0.3936
   2.600   0.8095   0.00553   0.00169  -0.1173  0.5996  1.0000  -1.0816   0.0000   0.0000   0.0000   0.3914
   2.700   0.8188   0.00563   0.00173  -0.1169  0.5883  1.0000  -1.1037   0.0000   0.0000   0.0000   0.3892
   2.800   0.8295   0.00568   0.00177  -0.1169  0.5812  1.0000  -1.1275   0.0000   0.0000   0.0000   0.3872
   2.900   0.8397   0.00576   0.00180  -0.1167  0.5712  1.0000  -1.1527   0.0000   0.0000   0.0000   0.3852
   3.000   0.8489   0.00588   0.00185  -0.1163  0.5587  1.0000  -1.1787   0.0000   0.0000   0.0000   0.3831
   3.100   0.8586   0.00598   0.00190  -0.1160  0.5476  1.0000  -1.2055   0.0000   0.0000   0.0000   0.3811
   3.200   0.8685   0.00607   0.00195  -0.1158  0.5348  1.0000  -1.2327   0.0000   0.0000   0.0000   0.3792
   3.300   0.8769   0.00624   0.00201  -0.1153  0.5177  1.0000  -1.2581   0.0000   0.0000   0.0000   0.3773
   3.400   0.8869   0.00633   0.00206  -0.1151  0.5056  1.0000  -1.2857   0.0000   0.0000   0.0000   0.3754
   3.500   0.8960   0.00647   0.00213  -0.1147  0.4907  1.0000  -1.3123   0.0000   0.0000   0.0000   0.3736
   3.600   0.9051   0.00661   0.00219  -0.1143  0.4764  1.0000  -1.3391   0.0000   0.0000   0.0000   0.3718
   3.700   0.9148   0.00672   0.00225  -0.1141  0.4630  1.0000  -1.3668   0.0000   0.0000   0.0000   0.3701
   3.900   0.9327   0.00703   0.00241  -0.1133  0.4298  1.0000  -1.4243   0.0000   0.0000   0.0000   0.3666
   4.000   0.9411   0.00723   0.00250  -0.1128  0.4118  1.0000  -1.4556   0.0000   0.0000   0.0000   0.3650
   4.100   0.9508   0.00735   0.00257  -0.1126  0.3995  1.0000  -1.4890   0.0000   0.0000   0.0000   0.3634
   4.200   0.9602   0.00748   0.00264  -0.1123  0.3866  1.0000  -1.5223   0.0000   0.0000   0.0000   0.3618
   4.300   0.9689   0.00766   0.00274  -0.1119  0.3702  1.0000  -1.5544   0.0000   0.0000   0.0000   0.3602
   4.400   0.9786   0.00778   0.00281  -0.1116  0.3591  1.0000  -1.5886   0.0000   0.0000   0.0000   0.3587
   4.500   0.9871   0.00798   0.00291  -0.1112  0.3421  1.0000  -1.6208   0.0000   0.0000   0.0000   0.3572
   4.600   0.9963   0.00812   0.00300  -0.1109  0.3281  1.0000  -1.6545   0.0000   0.0000   0.0000   0.3557
   4.700   1.0051   0.00831   0.00310  -0.1105  0.3129  1.0000  -1.6875   0.0000   0.0000   0.0000   0.3542
   4.800   1.0140   0.00848   0.00319  -0.1101  0.2983  1.0000  -1.7210   0.0000   0.0000   0.0000   0.3528
   4.900   1.0236   0.00860   0.00334  -0.1099  0.2882  1.0000  -1.7570   0.0000   0.0000   0.0000   0.3514
   5.000   1.0324   0.00878   0.00344  -0.1095  0.2756  1.0000  -1.7909   0.0000   0.0000   0.0000   0.3500
   5.100   1.0418   0.00892   0.00353  -0.1092  0.2651  1.0000  -1.8259   0.0000   0.0000   0.0000   0.3487
   5.200   1.0514   0.00904   0.00362  -0.1090  0.2560  1.0000  -1.8613   0.0000   0.0000   0.0000   0.3474
   5.300   1.0601   0.00923   0.00373  -0.1086  0.2443  1.0000  -1.8954   0.0000   0.0000   0.0000   0.3461
   5.400   1.0694   0.00937   0.00382  -0.1083  0.2340  1.0000  -1.9307   0.0000   0.0000   0.0000   0.3448
   5.500   1.0790   0.00949   0.00391  -0.1080  0.2263  1.0000  -1.9667   0.0000   0.0000   0.0000   0.3436
   5.600   1.0878   0.00966   0.00402  -0.1077  0.2165  1.0000  -2.0015   0.0000   0.0000   0.0000   0.3423
   5.700   1.0968   0.00983   0.00413  -0.1073  0.2056  1.0000  -2.0366   0.0000   0.0000   0.0000   0.3410
   5.800   1.1065   0.00994   0.00422  -0.1071  0.1999  1.0000  -2.0734   0.0000   0.0000   0.0000   0.3399
   5.900   1.1155   0.01009   0.00433  -0.1068  0.1915  1.0000  -2.1182   0.0000   0.0000   0.0000   0.3387
   6.000   1.1240   0.01029   0.00446  -0.1064  0.1803  1.0000  -2.1694   0.0000   0.0000   0.0000   0.3375
   6.100   1.1335   0.01042   0.00456  -0.1061  0.1737  1.0000  -2.2238   0.0000   0.0000   0.0000   0.3363
   6.200   1.1426   0.01056   0.00466  -0.1058  0.1666  1.0000  -2.2778   0.0000   0.0000   0.0000   0.3352
   6.300   1.1510   0.01076   0.00480  -0.1054  0.1577  1.0000  -2.3302   0.0000   0.0000   0.0000   0.3340
   6.400   1.1600   0.01092   0.00492  -0.1050  0.1494  1.0000  -2.3845   0.0000   0.0000   0.0000   0.3329
   6.500   1.1693   0.01105   0.00502  -0.1048  0.1440  1.0000  -2.4402   0.0000   0.0000   0.0000   0.3318
   6.600   1.1779   0.01123   0.00515  -0.1044  0.1364  1.0000  -2.4943   0.0000   0.0000   0.0000   0.3307
   6.700   1.1862   0.01144   0.00529  -0.1039  0.1268  1.0000  -2.5478   0.0000   0.0000   0.0000   0.3296
   6.800   1.1954   0.01156   0.00540  -0.1036  0.1223  1.0000  -2.6048   0.0000   0.0000   0.0000   0.3285
   6.900   1.2042   0.01173   0.00552  -0.1033  0.1163  1.0000  -2.6606   0.0000   0.0000   0.0000   0.3275
   7.000   1.2123   0.01194   0.00567  -0.1028  0.1087  1.0000  -2.7149   0.0000   0.0000   0.0000   0.3264
   7.100   1.2210   0.01210   0.00581  -0.1024  0.1019  1.0000  -2.7713   0.0000   0.0000   0.0000   0.3253
   7.200   1.2300   0.01224   0.00592  -0.1021  0.0981  1.0000  -2.8293   0.0000   0.0000   0.0000   0.3243
   7.300   1.2384   0.01242   0.00606  -0.1017  0.0927  1.0000  -2.8858   0.0000   0.0000   0.0000   0.3233
   7.400   1.2463   0.01264   0.00622  -0.1012  0.0860  1.0000  -2.9413   0.0000   0.0000   0.0000   0.3223
   7.500   1.2577   0.01259   0.00633  -0.1012  0.0932  1.0000  -3.0064   0.0000   0.0000   0.0000   0.3214
   7.600   1.2664   0.01275   0.00647  -0.1008  0.0903  1.0000  -3.0648   0.0000   0.0000   0.0000   0.3204
   7.700   1.2747   0.01293   0.00662  -0.1004  0.0857  1.0000  -3.1225   0.0000   0.0000   0.0000   0.3194
   7.800   1.2834   0.01308   0.00677  -0.1000  0.0816  1.0000  -3.1816   0.0000   0.0000   0.0000   0.3184
   7.900   1.2925   0.01319   0.00688  -0.0997  0.0800  1.0000  -3.2431   0.0000   0.0000   0.0000   0.3175
   8.000   1.3012   0.01333   0.00701  -0.0994  0.0772  1.0000  -3.3035   0.0000   0.0000   0.0000   0.3166
   8.100   1.3094   0.01351   0.00716  -0.0989  0.0736  1.0000  -3.3628   0.0000   0.0000   0.0000   0.3156
   8.200   1.3170   0.01372   0.00732  -0.0984  0.0692  1.0000  -3.4206   0.0000   0.0000   0.0000   0.3146
   8.300   1.3246   0.01392   0.00749  -0.0978  0.0639  1.0000  -3.4782   0.0000   0.0000   0.0000   0.3137
   8.400   1.3330   0.01404   0.00762  -0.0974  0.0621  1.0000  -3.5395   0.0000   0.0000   0.0000   0.3127
   8.500   1.3410   0.01419   0.00776  -0.0969  0.0599  1.0000  -3.6001   0.0000   0.0000   0.0000   0.3118
   8.600   1.3485   0.01438   0.00792  -0.0963  0.0569  1.0000  -3.6592   0.0000   0.0000   0.0000   0.3108
   8.700   1.3555   0.01459   0.00809  -0.0957  0.0536  1.0000  -3.7274   0.0000   0.0000   0.0000   0.3098
   8.800   1.3627   0.01479   0.00826  -0.0951  0.0499  1.0000  -3.7988   0.0000   0.0000   0.0000   0.3089
   8.900   1.3703   0.01496   0.00843  -0.0945  0.0470  1.0000  -3.8724   0.0000   0.0000   0.0000   0.3079
   9.000   1.3785   0.01509   0.00857  -0.0940  0.0463  1.0000  -3.9492   0.0000   0.0000   0.0000   0.3070
   9.100   1.3864   0.01524   0.00872  -0.0936  0.0454  1.0000  -4.0258   0.0000   0.0000   0.0000   0.3061
   9.200   1.3943   0.01539   0.00887  -0.0931  0.0443  1.0000  -4.1024   0.0000   0.0000   0.0000   0.3052
   9.300   1.4018   0.01555   0.00904  -0.0925  0.0430  1.0000  -4.1785   0.0000   0.0000   0.0000   0.3043
   9.400   1.4092   0.01573   0.00921  -0.0919  0.0415  1.0000  -4.2540   0.0000   0.0000   0.0000   0.3034
   9.500   1.4162   0.01593   0.00939  -0.0913  0.0399  1.0000  -4.3288   0.0000   0.0000   0.0000   0.3025
   9.600   1.4231   0.01614   0.00958  -0.0907  0.0382  1.0000  -4.4033   0.0000   0.0000   0.0000   0.3016
   9.700   1.4301   0.01634   0.00977  -0.0900  0.0363  1.0000  -4.4786   0.0000   0.0000   0.0000   0.3007
   9.800   1.4373   0.01652   0.00995  -0.0895  0.0344  1.0000  -4.5552   0.0000   0.0000   0.0000   0.2998
   9.900   1.4447   0.01669   0.01014  -0.0889  0.0332  1.0000  -4.6330   0.0000   0.0000   0.0000   0.2990
  10.000   1.4522   0.01685   0.01031  -0.0884  0.0328  1.0000  -4.7123   0.0000   0.0000   0.0000   0.2981
  10.100   1.4593   0.01704   0.01052  -0.0878  0.0315  1.0000  -4.7894   0.0000   0.0000   0.0000   0.2973
  10.200   1.4661   0.01724   0.01072  -0.0872  0.0302  1.0000  -4.8666   0.0000   0.0000   0.0000   0.2964
  10.300   1.4727   0.01746   0.01094  -0.0865  0.0286  1.0000  -4.9431   0.0000   0.0000   0.0000   0.2955
  10.400   1.4788   0.01771   0.01117  -0.0858  0.0268  1.0000  -5.0185   0.0000   0.0000   0.0000   0.2947
  10.500   1.4846   0.01798   0.01142  -0.0851  0.0250  1.0000  -5.0925   0.0000   0.0000   0.0000   0.2938
  10.600   1.4907   0.01824   0.01167  -0.0843  0.0230  1.0000  -5.1678   0.0000   0.0000   0.0000   0.2929
  10.700   1.4972   0.01845   0.01189  -0.0837  0.0217  1.0000  -5.2458   0.0000   0.0000   0.0000   0.2921
  10.800   1.5038   0.01867   0.01211  -0.0831  0.0210  1.0000  -5.3245   0.0000   0.0000   0.0000   0.2912
  10.900   1.5102   0.01889   0.01234  -0.0824  0.0203  1.0000  -5.4032   0.0000   0.0000   0.0000   0.2904
  11.000   1.5164   0.01913   0.01258  -0.0818  0.0194  1.0000  -5.4816   0.0000   0.0000   0.0000   0.2896
  11.100   1.5224   0.01939   0.01285  -0.0811  0.0185  1.0000  -5.5593   0.0000   0.0000   0.0000   0.2887
  11.200   1.5282   0.01967   0.01312  -0.0804  0.0175  1.0000  -5.6363   0.0000   0.0000   0.0000   0.2879
  11.300   1.5336   0.01996   0.01342  -0.0796  0.0165  1.0000  -5.7121   0.0000   0.0000   0.0000   0.2871
  11.400   1.5389   0.02027   0.01372  -0.0789  0.0155  1.0000  -5.7875   0.0000   0.0000   0.0000   0.2862
  11.500   1.5444   0.02056   0.01401  -0.0781  0.0145  1.0000  -5.8638   0.0000   0.0000   0.0000   0.2854
  11.600   1.5501   0.02083   0.01428  -0.0775  0.0136  1.0000  -5.9419   0.0000   0.0000   0.0000   0.2846
  11.700   1.5562   0.02108   0.01455  -0.0768  0.0129  1.0000  -6.0216   0.0000   0.0000   0.0000   0.2838
  11.800   1.5621   0.02134   0.01483  -0.0762  0.0127  1.0000  -6.1025   0.0000   0.0000   0.0000   0.2831
  11.900   1.5679   0.02161   0.01511  -0.0755  0.0124  1.0000  -6.1826   0.0000   0.0000   0.0000   0.2823
  12.000   1.5734   0.02189   0.01541  -0.0749  0.0121  1.0000  -6.2624   0.0000   0.0000   0.0000   0.2815
  12.100   1.5789   0.02219   0.01572  -0.0742  0.0117  1.0000  -6.3421   0.0000   0.0000   0.0000   0.2807
  12.200   1.5843   0.02249   0.01604  -0.0735  0.0113  1.0000  -6.4531   0.0000   0.0000   0.0000   0.2800
  12.300   1.5896   0.02281   0.01636  -0.0729  0.0108  1.0000  -6.5777   0.0000   0.0000   0.0000   0.2792
  12.400   1.5947   0.02314   0.01671  -0.0722  0.0103  1.0000  -6.7016   0.0000   0.0000   0.0000   0.2785
  12.500   1.5994   0.02350   0.01708  -0.0714  0.0098  1.0000  -6.8229   0.0000   0.0000   0.0000   0.2777
  12.600   1.6038   0.02388   0.01747  -0.0707  0.0093  1.0000  -6.9428   0.0000   0.0000   0.0000   0.2769
  12.700   1.6080   0.02429   0.01788  -0.0699  0.0087  1.0000  -7.0612   0.0000   0.0000   0.0000   0.2762
  12.800   1.6121   0.02470   0.01830  -0.0692  0.0081  1.0000  -7.1803   0.0000   0.0000   0.0000   0.2754
  12.900   1.6164   0.02511   0.01871  -0.0685  0.0075  1.0000  -7.3014   0.0000   0.0000   0.0000   0.2747
  13.000   1.6208   0.02550   0.01911  -0.0678  0.0068  1.0000  -7.4237   0.0000   0.0000   0.0000   0.2739
  13.100   1.6252   0.02587   0.01951  -0.0671  0.0063  1.0000  -7.5472   0.0000   0.0000   0.0000   0.2732
  13.200   1.6300   0.02623   0.01992  -0.0665  0.0067  1.0000  -7.6821   0.0000   0.0000   0.0000   0.2725
  13.300   1.6345   0.02661   0.02033  -0.0658  0.0064  1.0000  -7.8100   0.0000   0.0000   0.0000   0.2718
  13.400   1.6391   0.02699   0.02074  -0.0652  0.0062  1.0000  -7.9381   0.0000   0.0000   0.0000   0.2711
  13.500   1.6436   0.02739   0.02116  -0.0646  0.0061  1.0000  -8.0662   0.0000   0.0000   0.0000   0.2704
  13.600   1.6477   0.02782   0.02160  -0.0639  0.0059  1.0000  -8.1918   0.0000   0.0000   0.0000   0.2697
  13.700   1.6514   0.02828   0.02209  -0.0632  0.0056  1.0000  -8.3136   0.0000   0.0000   0.0000   0.2691
  13.800   1.6549   0.02877   0.02259  -0.0626  0.0053  1.0000  -8.4333   0.0000   0.0000   0.0000   0.2684
  13.900   1.6579   0.02930   0.02314  -0.0619  0.0048  1.0000  -8.5494   0.0000   0.0000   0.0000   0.2677
  14.000   1.6611   0.02984   0.02370  -0.0612  0.0043  1.0000  -8.6659   0.0000   0.0000   0.0000   0.2670
  14.100   1.6552   0.03114   0.02499  -0.0597  0.0021  1.0000  -8.7002   0.0000   0.0000   0.0000   0.2661
  14.200   1.6570   0.03180   0.02567  -0.0590  0.0020  1.0000  -8.8040   0.0000   0.0000   0.0000   0.2654
  14.300   1.6590   0.03245   0.02634  -0.0583  0.0018  1.0000  -8.9097   0.0000   0.0000   0.0000   0.2647
  14.400   1.6613   0.03309   0.02700  -0.0576  0.0017  1.0000  -9.0161   0.0000   0.0000   0.0000   0.2641
  14.500   1.6631   0.03378   0.02771  -0.0570  0.0015  1.0000  -9.1166   0.0000   0.0000   0.0000   0.2634
  14.600   1.6644   0.03452   0.02847  -0.0563  0.0013  1.0000  -9.2103   0.0000   0.0000   0.0000   0.2628
  14.700   1.6653   0.03530   0.02927  -0.0556  0.0011  1.0000  -9.2969   0.0000   0.0000   0.0000   0.2621
  14.800   1.6665   0.03605   0.03005  -0.0550  0.0010  1.0000  -9.3837   0.0000   0.0000   0.0000   0.2615
  14.900   1.6681   0.03679   0.03082  -0.0544  0.0008  1.0000  -9.4710   0.0000   0.0000   0.0000   0.2609
  15.000   1.6697   0.03751   0.03158  -0.0538  0.0008  1.0000  -9.5597   0.0000   0.0000   0.0000   0.2603
  15.100   1.6709   0.03827   0.03238  -0.0532  0.0007  1.0000  -9.6463   0.0000   0.0000   0.0000   0.2597
  15.200   1.6712   0.03911   0.03326  -0.0526  0.0007  1.0000  -9.7275   0.0000   0.0000   0.0000   0.2592
  15.300   1.6719   0.03993   0.03413  -0.0521  0.0006  1.0000  -9.8136   0.0000   0.0000   0.0000   0.2586
  15.400   1.6731   0.04074   0.03499  -0.0516  0.0006  1.0000  -9.9046   0.0000   0.0000   0.0000   0.2581
  15.500   1.6744   0.04156   0.03585  -0.0511  0.0006  1.0000  -9.9983   0.0000   0.0000   0.0000   0.2576
  15.600   1.6754   0.04242   0.03676  -0.0507  0.0006  1.0000  -10.0898   0.0000   0.0000   0.0000   0.2570
  15.700   1.6755   0.04339   0.03777  -0.0503  0.0006  1.0000  -10.1743   0.0000   0.0000   0.0000   0.2566
  15.800   1.6759   0.04435   0.03878  -0.0499  0.0006  1.0000  -10.2620   0.0000   0.0000   0.0000   0.2561
  15.900   1.6767   0.04529   0.03976  -0.0495  0.0005  1.0000  -10.3532   0.0000   0.0000   0.0000   0.2557
  16.000   1.6775   0.04624   0.04076  -0.0492  0.0005  1.0000  -10.4455   0.0000   0.0000   0.0000   0.2552
  16.100   1.6778   0.04727   0.04183  -0.0489  0.0005  1.0000  -10.5326   0.0000   0.0000   0.0000   0.2548
  16.200   1.6771   0.04841   0.04303  -0.0486  0.0005  1.0000  -10.6112   0.0000   0.0000   0.0000   0.2544
  16.300   1.6769   0.04952   0.04419  -0.0484  0.0005  1.0000  -10.6943   0.0000   0.0000   0.0000   0.2540
  16.400   1.6770   0.05062   0.04533  -0.0482  0.0005  1.0000  -10.7806   0.0000   0.0000   0.0000   0.2537
  16.500   1.6771   0.05173   0.04649  -0.0480  0.0005  1.0000  -10.8670   0.0000   0.0000   0.0000   0.2533
  16.600   1.6759   0.05301   0.04783  -0.0479  0.0005  1.0000  -10.9405   0.0000   0.0000   0.0000   0.2530
  16.700   1.6745   0.05434   0.04920  -0.0478  0.0005  1.0000  -11.0124   0.0000   0.0000   0.0000   0.2528
  16.800   1.6737   0.05561   0.05053  -0.0477  0.0005  1.0000  -11.0895   0.0000   0.0000   0.0000   0.2525
  16.900   1.6730   0.05688   0.05185  -0.0477  0.0005  1.0000  -11.1681   0.0000   0.0000   0.0000   0.2523
  17.000   1.6713   0.05830   0.05333  -0.0477  0.0005  1.0000  -11.2357   0.0000   0.0000   0.0000   0.2521
  17.100   1.6688   0.05985   0.05493  -0.0478  0.0005  1.0000  -11.2950   0.0000   0.0000   0.0000   0.2519
  17.200   1.6671   0.06132   0.05645  -0.0480  0.0005  1.0000  -11.3622   0.0000   0.0000   0.0000   0.2518
  17.300   1.6656   0.06277   0.05796  -0.0481  0.0005  1.0000  -11.4306   0.0000   0.0000   0.0000   0.2516
  17.400   1.6627   0.06445   0.05969  -0.0483  0.0005  1.0000  -11.4841   0.0000   0.0000   0.0000   0.2516
  17.500   1.6594   0.06622   0.06151  -0.0486  0.0005  1.0000  -11.5327   0.0000   0.0000   0.0000   0.2516
  17.600   1.6562   0.06795   0.06334  -0.0489  0.0005  1.0000  -11.5744   0.0000   0.0000   0.0000   0.2515
  17.700   1.6534   0.06967   0.06511  -0.0493  0.0005  1.0000  -11.6256   0.0000   0.0000   0.0000   0.2515
  17.800   1.6484   0.07174   0.06725  -0.0498  0.0005  1.0000  -11.6529   0.0000   0.0000   0.0000   0.2517
  17.900   1.6442   0.07365   0.06921  -0.0503  0.0005  1.0000  -11.6890   0.0000   0.0000   0.0000   0.2518
  18.000   1.6405   0.07551   0.07113  -0.0508  0.0005  1.0000  -11.7294   0.0000   0.0000   0.0000   0.2519
  18.100   1.6348   0.07777   0.07345  -0.0515  0.0005  1.0000  -11.7463   0.0000   0.0000   0.0000   0.2522
  18.200   1.6296   0.07997   0.07571  -0.0522  0.0005  1.0000  -11.7680   0.0000   0.0000   0.0000   0.2525
  18.300   1.6252   0.08207   0.07787  -0.0529  0.0005  1.0000  -11.7984   0.0000   0.0000   0.0000   0.2527
  18.400   1.6189   0.08457   0.08044  -0.0539  0.0005  1.0000  -11.8041   0.0000   0.0000   0.0000   0.2532
  18.500   1.6129   0.08704   0.08297  -0.0548  0.0005  1.0000  -11.8127   0.0000   0.0000   0.0000   0.2537
  18.600   1.6078   0.08936   0.08535  -0.0557  0.0005  1.0000  -11.8311   0.0000   0.0000   0.0000   0.2541
  18.700   1.6004   0.09219   0.08824  -0.0570  0.0005  1.0000  -11.8194   0.0000   0.0000   0.0000   0.2547
  18.800   1.5939   0.09486   0.09096  -0.0581  0.0005  1.0000  -11.8186   0.0000   0.0000   0.0000   0.2554
  18.900   1.5880   0.09741   0.09358  -0.0593  0.0005  1.0000  -11.8243   0.0000   0.0000   0.0000   0.2559
  19.000   1.5791   0.10061   0.09685  -0.0608  0.0005  1.0000  -11.7879   0.0000   0.0000   0.0000   0.2569
  19.100   1.5724   0.10340   0.09969  -0.0621  0.0005  1.0000  -11.7782   0.0000   0.0000   0.0000   0.2576
  19.200   1.5645   0.10642   0.10278  -0.0636  0.0005  1.0000  -11.7515   0.0000   0.0000   0.0000   0.2585
  19.300   1.5556   0.10971   0.10614  -0.0653  0.0005  1.0000  -11.7069   0.0000   0.0000   0.0000   0.2596
  19.400   1.5484   0.11263   0.10912  -0.0668  0.0005  1.0000  -11.6844   0.0000   0.0000   0.0000   0.2605
  19.500   1.5380   0.11627   0.11283  -0.0688  0.0005  1.0000  -11.6137   0.0000   0.0000   0.0000   0.2619
  19.600   1.5298   0.11944   0.11605  -0.0705  0.0005  1.0000  -11.5722   0.0000   0.0000   0.0000   0.2630
  19.700   1.5201   0.12295   0.11963  -0.0725  0.0005  1.0000  -11.5051   0.0000   0.0000   0.0000   0.2643
  19.800   1.5103   0.12655   0.12329  -0.0745  0.0005  1.0000  -11.4315   0.0000   0.0000   0.0000   0.2658
  19.900   1.5019   0.12979   0.12659  -0.0764  0.0005  1.0000  -11.3782   0.0000   0.0000   0.0000   0.2671
  20.000   1.4898   0.13392   0.13078  -0.0788  0.0005  1.0000  -11.2656   0.0000   0.0000   0.0000   0.2689
  20.100   1.4810   0.13730   0.13422  -0.0808  0.0005  1.0000  -11.1996   0.0000   0.0000   0.0000   0.2703
  20.200   1.4690   0.14146   0.13845  -0.0833  0.0005  1.0000  -11.0804   0.0000   0.0000   0.0000   0.2723
  20.300   1.4593   0.14510   0.14214  -0.0855  0.0005  1.0000  -10.9931   0.0000   0.0000   0.0000   0.2740
  20.400   1.4491   0.14891   0.14602  -0.0878  0.0005  1.0000  -10.8920   0.0000   0.0000   0.0000   0.2758
  20.500   1.4375   0.15290   0.15007  -0.0905  0.0005  1.0000  -10.7636   0.0000   0.0000   0.0000   0.2779
  20.600   1.4290   0.15609   0.15331  -0.0926  0.0005  1.0000  -10.6808   0.0000   0.0000   0.0000   0.2797
  20.700   1.4173   0.16007   0.15732  -0.0954  0.0005  1.0000  -10.5462   0.0000   0.0000   0.0000   0.2820
  20.800   1.4081   0.16360   0.16090  -0.0978  0.0005  1.0000  -10.4414   0.0000   0.0000   0.0000   0.2839
  20.900   1.3987   0.16728   0.16464  -0.1002  0.0005  1.0000  -10.3296   0.0000   0.0000   0.0000   0.2860
  21.000   1.3856   0.17200   0.16941  -0.1033  0.0005  1.0000  -10.1467   0.0000   0.0000   0.0000   0.2887
  21.100   1.3773   0.17566   0.17312  -0.1056  0.0005  1.0000  -10.0441   0.0000   0.0000   0.0000   0.2907
  21.200   1.3645   0.18059   0.17812  -0.1087  0.0006  1.0000  -9.8531   0.0000   0.0000   0.0000   0.2936
  21.300   1.3549   0.18483   0.18240  -0.1114  0.0006  1.0000  -9.7157   0.0000   0.0000   0.0000   0.2960
  21.400   1.3470   0.18867   0.18628  -0.1137  0.0006  1.0000  -9.6085   0.0000   0.0000   0.0000   0.2981
  21.500   1.3340   0.19409   0.19177  -0.1169  0.0006  1.0000  -9.3929   0.0000   0.0000   0.0000   0.3013
  21.600   1.3254   0.19840   0.19611  -0.1195  0.0006  1.0000  -9.2585   0.0000   0.0000   0.0000   0.3036
  21.700   1.3188   0.20220   0.19995  -0.1217  0.0006  1.0000  -9.1609   0.0000   0.0000   0.0000   0.3056
  21.800   1.3111   0.20642   0.20422  -0.1241  0.0006  1.0000  -9.0356   0.0000   0.0000   0.0000   0.3079
  21.900   1.2982   0.21245   0.21030  -0.1274  0.0006  1.0000  -8.7905   0.0000   0.0000   0.0000   0.3114
  22.000   1.2927   0.21621   0.21409  -0.1295  0.0006  1.0000  -8.7009   0.0000   0.0000   0.0000   0.3133
  22.100   1.2877   0.21985   0.21777  -0.1315  0.0006  1.0000  -8.6204   0.0000   0.0000   0.0000   0.3150
  22.200   1.2820   0.22383   0.22179  -0.1336  0.0006  1.0000  -8.5180   0.0000   0.0000   0.0000   0.3170
  22.300   1.2687   0.23059   0.22860  -0.1369  0.0006  1.0000  -8.2346   0.0000   0.0000   0.0000   0.3209
  22.400   1.2646   0.23422   0.23226  -0.1388  0.0006  1.0000  -8.1590   0.0000   0.0000   0.0000   0.3225
  22.500   1.2611   0.23768   0.23574  -0.1405  0.0006  1.0000  -8.0953   0.0000   0.0000   0.0000   0.3241
  22.600   1.2573   0.24128   0.23937  -0.1423  0.0006  1.0000  -8.0233   0.0000   0.0000   0.0000   0.3257
  22.700   1.2517   0.24567   0.24380  -0.1444  0.0006  1.0000  -7.9006   0.0000   0.0000   0.0000   0.3278
  22.800   1.2392   0.25297   0.25116  -0.1476  0.0007  1.0000  -7.5928   0.0000   0.0000   0.0000   0.3317
  22.900   1.2364   0.25644   0.25465  -0.1492  0.0007  1.0000  -7.5330   0.0000   0.0000   0.0000   0.3331
  23.000   1.2342   0.25968   0.25791  -0.1506  0.0007  1.0000  -7.4876   0.0000   0.0000   0.0000   0.3343
  23.100   1.2321   0.26289   0.26115  -0.1521  0.0007  1.0000  -7.4448   0.0000   0.0000   0.0000   0.3355
  23.200   1.2302   0.26605   0.26433  -0.1535  0.0007  1.0000  -7.4052   0.0000   0.0000   0.0000   0.3367
  23.300   1.2277   0.26955   0.26785  -0.1550  0.0007  1.0000  -7.3444   0.0000   0.0000   0.0000   0.3380
  23.400   1.2124   0.27914   0.27751  -0.1585  0.0007  1.0000  -6.9026   0.0000   0.0000   0.0000   0.3429
  23.500   1.2107   0.28238   0.28076  -0.1598  0.0007  1.0000  -6.8608   0.0000   0.0000   0.0000   0.3440
  23.600   1.2099   0.28521   0.28361  -0.1609  0.0007  1.0000  -6.8443   0.0000   0.0000   0.0000   0.3448
  23.700   1.2093   0.28795   0.28637  -0.1621  0.0007  1.0000  -6.8333   0.0000   0.0000   0.0000   0.3456
  23.800   1.2088   0.29065   0.28908  -0.1631  0.0007  1.0000  -6.8253   0.0000   0.0000   0.0000   0.3463
  23.900   1.2083   0.29332   0.29177  -0.1642  0.0007  1.0000  -6.8184   0.0000   0.0000   0.0000   0.3471
  24.000   1.2078   0.29601   0.29448  -0.1653  0.0007  1.0000  -6.8112   0.0000   0.0000   0.0000   0.3478
  24.100   1.2072   0.29873   0.29722  -0.1663  0.0007  1.0000  -6.8019   0.0000   0.0000   0.0000   0.3485
  24.200   1.2065   0.30153   0.30003  -0.1674  0.0007  1.0000  -6.7879   0.0000   0.0000   0.0000   0.3493
  24.300   1.2054   0.30447   0.30299  -0.1684  0.0007  1.0000  -6.7646   0.0000   0.0000   0.0000   0.3501
  24.400   1.2037   0.30777   0.30632  -0.1696  0.0007  1.0000  -6.7186   0.0000   0.0000   0.0000   0.3511
  24.600   1.1878   0.32130   0.31993  -0.1733  0.0008  1.0000  -6.1911   0.0000   0.0000   0.0000   0.3564
  24.700   1.1863   0.32446   0.32311  -0.1743  0.0008  1.0000  -6.1529   0.0000   0.0000   0.0000   0.3572
  24.800   1.1848   0.32762   0.32628  -0.1752  0.0008  1.0000  -6.1141   0.0000   0.0000   0.0000   0.3580
  24.900   1.1831   0.33084   0.32953  -0.1761  0.0008  1.0000  -6.0700   0.0000   0.0000   0.0000   0.3589
  25.000   1.1810   0.33423   0.33294  -0.1771  0.0008  1.0000  -6.0137   0.0000   0.0000   0.0000   0.3598
  25.100   1.1780   0.33802   0.33675  -0.1780  0.0008  1.0000  -5.9290   0.0000   0.0000   0.0000   0.3609


