xflr5 v6.61

 Calculated polar for: SG6041

 1 1 Reynolds number fixed          Mach number fixed         

 xtrf =   1.000 (top)        1.000 (bottom)
 Mach =   0.000     Re =     1.000 e 6     Ncrit =   9.000

  alpha     CL        CD       CDp       Cm    Top Xtr Bot Xtr   Cpmin    Chinge    XCp    
 ------- -------- --------- --------- -------- ------- ------- -------- --------- ---------
 -10.000  -0.4065   0.10324   0.10144  -0.0318  1.0000  0.0107  -1.9157   0.0000   0.0000   0.0000   0.1631
  -9.900  -0.4057   0.10177   0.09998  -0.0323  1.0000  0.0107  -1.9282   0.0000   0.0000   0.0000   0.1618
  -9.800  -0.4051   0.10029   0.09851  -0.0328  1.0000  0.0107  -1.9415   0.0000   0.0000   0.0000   0.1606
  -9.700  -0.4046   0.09881   0.09703  -0.0333  1.0000  0.0108  -1.9554   0.0000   0.0000   0.0000   0.1594
  -9.600  -0.4041   0.09733   0.09555  -0.0338  1.0000  0.0108  -1.9700   0.0000   0.0000   0.0000   0.1582
  -9.500  -0.4039   0.09584   0.09407  -0.0342  1.0000  0.0108  -1.9854   0.0000   0.0000   0.0000   0.1571
  -9.400  -0.4038   0.09435   0.09259  -0.0347  1.0000  0.0108  -2.0014   0.0000   0.0000   0.0000   0.1560
  -9.300  -0.4038   0.09286   0.09111  -0.0352  1.0000  0.0108  -2.0183   0.0000   0.0000   0.0000   0.1550
  -9.200  -0.4041   0.09137   0.08962  -0.0356  1.0000  0.0108  -2.0359   0.0000   0.0000   0.0000   0.1540
  -9.100  -0.4045   0.08987   0.08814  -0.0361  1.0000  0.0108  -2.0544   0.0000   0.0000   0.0000   0.1531
  -9.000  -0.4051   0.08838   0.08665  -0.0365  1.0000  0.0108  -2.0738   0.0000   0.0000   0.0000   0.1522
  -8.900  -0.4059   0.08687   0.08515  -0.0370  1.0000  0.0108  -2.0940   0.0000   0.0000   0.0000   0.1514
  -8.800  -0.4070   0.08536   0.08366  -0.0374  1.0000  0.0108  -2.1153   0.0000   0.0000   0.0000   0.1508
  -8.700  -0.4085   0.08387   0.08217  -0.0378  1.0000  0.0108  -2.1375   0.0000   0.0000   0.0000   0.1503
  -8.600  -0.4105   0.08239   0.08071  -0.0381  1.0000  0.0108  -2.1609   0.0000   0.0000   0.0000   0.1501
  -8.500  -0.4131   0.08096   0.07929  -0.0383  1.0000  0.0108  -2.1854   0.0000   0.0000   0.0000   0.1503
  -8.400  -0.4165   0.07958   0.07793  -0.0384  1.0000  0.0108  -2.2112   0.0000   0.0000   0.0000   0.1511
  -8.300  -0.4212   0.07831   0.07668  -0.0382  1.0000  0.0108  -2.2379   0.0000   0.0000   0.0000   0.1527
  -8.000  -0.4238   0.07187   0.07026  -0.0447  0.9980  0.0108  -2.3549   0.0000   0.0000   0.0000   0.1384
  -7.900  -0.4193   0.06795   0.06632  -0.0517  0.9954  0.0108  -2.4273   0.0000   0.0000   0.0000   0.1208
  -7.800  -0.4132   0.06462   0.06295  -0.0565  0.9934  0.0108  -2.4822   0.0000   0.0000   0.0000   0.1073
  -7.700  -0.4063   0.06150   0.05977  -0.0604  0.9923  0.0108  -2.5317   0.0000   0.0000   0.0000   0.0954
  -7.600  -0.4017   0.05886   0.05709  -0.0629  0.9898  0.0109  -2.5751   0.0000   0.0000   0.0000   0.0873
  -7.500  -0.3960   0.05623   0.05439  -0.0655  0.9879  0.0109  -2.6170   0.0000   0.0000   0.0000   0.0787
  -7.400  -0.3896   0.05363   0.05173  -0.0678  0.9864  0.0109  -2.6570   0.0000   0.0000   0.0000   0.0699
  -7.300  -0.3828   0.05110   0.04912  -0.0700  0.9852  0.0109  -2.6951   0.0000   0.0000   0.0000   0.0611
  -7.200  -0.3754   0.04862   0.04656  -0.0720  0.9843  0.0109  -2.7312   0.0000   0.0000   0.0000   0.0520
  -7.100  -0.3674   0.04621   0.04406  -0.0739  0.9835  0.0109  -2.7650   0.0000   0.0000   0.0000   0.0427
  -7.000  -0.3922   0.03418   0.03148  -0.0769  0.9752  0.0119  -3.5044   0.0000   0.0000   0.0000   0.0476
  -6.900  -0.3847   0.03274   0.02995  -0.0776  0.9735  0.0123  -3.4547   0.0000   0.0000   0.0000   0.0420
  -6.800  -0.3758   0.03170   0.02884  -0.0782  0.9722  0.0126  -3.3788   0.0000   0.0000   0.0000   0.0356
  -6.700  -0.3664   0.03045   0.02750  -0.0787  0.9709  0.0128  -3.3316   0.0000   0.0000   0.0000   0.0288
  -6.600  -0.3616   0.02949   0.02647  -0.0780  0.9667  0.0129  -3.2973   0.0000   0.0000   0.0000   0.0279
  -6.500  -0.3545   0.02846   0.02535  -0.0778  0.9636  0.0131  -3.2567   0.0000   0.0000   0.0000   0.0241
  -6.400  -0.3466   0.02751   0.02433  -0.0777  0.9611  0.0133  -3.2055   0.0000   0.0000   0.0000   0.0194
  -6.300  -0.3381   0.02655   0.02329  -0.0776  0.9589  0.0135  -3.1545   0.0000   0.0000   0.0000   0.0139
  -6.200  -0.3291   0.02560   0.02225  -0.0776  0.9570  0.0137  -3.1043   0.0000   0.0000   0.0000   0.0076
  -6.100  -0.3208   0.02469   0.02125  -0.0774  0.9547  0.0139  -3.0583   0.0000   0.0000   0.0000   0.0022
  -6.000  -0.3140   0.02385   0.02033  -0.0768  0.9514  0.0141  -3.0180   0.0000   0.0000   0.0000  -0.0012
  -5.900  -0.3064   0.02298   0.01937  -0.0763  0.9483  0.0143  -2.9786   0.0000   0.0000   0.0000  -0.0056
  -5.800  -0.2985   0.02207   0.01836  -0.0759  0.9456  0.0144  -2.9436   0.0000   0.0000   0.0000  -0.0108
  -5.700  -0.2900   0.02107   0.01722  -0.0754  0.9432  0.0146  -2.9168   0.0000   0.0000   0.0000  -0.0168
  -5.600  -0.2809   0.02020   0.01625  -0.0751  0.9411  0.0148  -2.8783   0.0000   0.0000   0.0000  -0.0242
  -5.200  -0.2462   0.01424   0.00953  -0.0718  0.9316  0.0093  -3.1911   0.0000   0.0000   0.0000  -0.0491
  -5.100  -0.2382   0.01283   0.00794  -0.0710  0.9291  0.0085  -3.2590   0.0000   0.0000   0.0000  -0.0554
  -5.000  -0.2295   0.01183   0.00683  -0.0703  0.9266  0.0080  -3.2822   0.0000   0.0000   0.0000  -0.0636
  -4.900  -0.2207   0.01106   0.00595  -0.0696  0.9243  0.0075  -3.2803   0.0000   0.0000   0.0000  -0.0732
  -4.800  -0.2115   0.01047   0.00525  -0.0691  0.9219  0.0072  -3.2550   0.0000   0.0000   0.0000  -0.0844
  -4.700  -0.2020   0.01000   0.00469  -0.0687  0.9195  0.0070  -3.2132   0.0000   0.0000   0.0000  -0.0978
  -4.600  -0.1921   0.00963   0.00424  -0.0683  0.9171  0.0068  -3.1561   0.0000   0.0000   0.0000  -0.1138
  -4.500  -0.1826   0.00933   0.00388  -0.0679  0.9153  0.0067  -3.0890   0.0000   0.0000   0.0000  -0.1301
  -4.400  -0.1728   0.00909   0.00359  -0.0676  0.9133  0.0066  -3.0117   0.0000   0.0000   0.0000  -0.1493
  -4.300  -0.1628   0.00888   0.00334  -0.0673  0.9112  0.0066  -2.9255   0.0000   0.0000   0.0000  -0.1719
  -4.200  -0.1525   0.00872   0.00313  -0.0670  0.9091  0.0066  -2.8320   0.0000   0.0000   0.0000  -0.1983
  -4.100  -0.1421   0.00857   0.00295  -0.0668  0.9070  0.0067  -2.7329   0.0000   0.0000   0.0000  -0.2292
  -4.000  -0.1316   0.00844   0.00278  -0.0666  0.9049  0.0068  -2.6294   0.0000   0.0000   0.0000  -0.2659
  -3.900  -0.1209   0.00832   0.00263  -0.0664  0.9029  0.0070  -2.5391   0.0000   0.0000   0.0000  -0.3097
  -3.800  -0.1101   0.00822   0.00249  -0.0663  0.9007  0.0074  -2.4495   0.0000   0.0000   0.0000  -0.3627
  -3.700  -0.0993   0.00812   0.00237  -0.0662  0.8985  0.0080  -2.3597   0.0000   0.0000   0.0000  -0.4282
  -3.600  -0.0882   0.00804   0.00227  -0.0661  0.8961  0.0090  -2.2645   0.0000   0.0000   0.0000  -0.5117
  -3.500  -0.0771   0.00798   0.00221  -0.0661  0.8938  0.0101  -2.1610   0.0000   0.0000   0.0000  -0.6202
  -3.400  -0.0665   0.00791   0.00214  -0.0660  0.8923  0.0117  -2.0592   0.0000   0.0000   0.0000  -0.7568
  -3.300  -0.0561   0.00781   0.00207  -0.0658  0.8904  0.0170  -1.9610   0.0000   0.0000   0.0000  -0.9407
  -3.200  -0.0457   0.00769   0.00201  -0.0656  0.8882  0.0250  -1.8593   0.0000   0.0000   0.0000  -1.2058
  -3.100  -0.0353   0.00759   0.00195  -0.0655  0.8860  0.0327  -1.7568   0.0000   0.0000   0.0000  -1.6334
  -3.000  -0.0246   0.00752   0.00190  -0.0654  0.8837  0.0381  -1.6546   0.0000   0.0000   0.0000  -2.4454
  -2.900  -0.0139   0.00745   0.00185  -0.0653  0.8814  0.0435  -1.5815   0.0000   0.0000   0.0000  -4.4997
  -2.800  -0.0028   0.00744   0.00177  -0.0653  0.8791  0.0399  -1.5222   0.0000   0.0000   0.0000  -23.7051
  -2.700   0.0080   0.00737   0.00172  -0.0652  0.8767  0.0462  -1.4522   0.0000   0.0000   0.0000   8.4887
  -2.600   0.0189   0.00731   0.00168  -0.0651  0.8742  0.0533  -1.3833   0.0000   0.0000   0.0000   3.7372
  -2.500   0.0297   0.00724   0.00164  -0.0651  0.8714  0.0612  -1.3159   0.0000   0.0000   0.0000   2.4599
  -2.400   0.0408   0.00720   0.00160  -0.0650  0.8685  0.0672  -1.2487   0.0000   0.0000   0.0000   1.8577
  -2.300   0.0514   0.00712   0.00156  -0.0649  0.8668  0.0772  -1.1846   0.0000   0.0000   0.0000   1.5248
  -2.200   0.0620   0.00704   0.00153  -0.0648  0.8648  0.0875  -1.1214   0.0000   0.0000   0.0000   1.3051
  -2.100   0.0725   0.00694   0.00149  -0.0647  0.8625  0.1026  -1.0597   0.0000   0.0000   0.0000   1.1502
  -2.000   0.0830   0.00685   0.00145  -0.0646  0.8599  0.1182  -0.9987   0.0000   0.0000   0.0000   1.0340
  -1.900   0.0934   0.00673   0.00141  -0.0645  0.8572  0.1393  -0.9393   0.0000   0.0000   0.0000   0.9452
  -1.800   0.1038   0.00661   0.00137  -0.0644  0.8545  0.1655  -0.8809   0.0000   0.0000   0.0000   0.8743
  -1.700   0.1139   0.00645   0.00132  -0.0642  0.8516  0.2039  -0.8243   0.0000   0.0000   0.0000   0.8173
  -1.600   0.1229   0.00613   0.00126  -0.0640  0.8486  0.2833  -0.7721   0.0000   0.0000   0.0000   0.7735
  -1.500   0.1309   0.00568   0.00119  -0.0636  0.8452  0.4018  -0.7233   0.0000   0.0000   0.0000   0.7385
  -1.400   0.1381   0.00519   0.00115  -0.0631  0.8413  0.5445  -0.6769   0.0000   0.0000   0.0000   0.7089
  -1.300   0.1460   0.00489   0.00117  -0.0625  0.8394  0.6392  -0.6285   0.0000   0.0000   0.0000   0.6797
  -1.200   0.1556   0.00478   0.00120  -0.0621  0.8369  0.6801  -0.5764   0.0000   0.0000   0.0000   0.6505
  -1.100   0.1661   0.00473   0.00120  -0.0619  0.8341  0.6986  -0.5232   0.0000   0.0000   0.0000   0.6239
  -1.000   0.1767   0.00470   0.00120  -0.0617  0.8310  0.7112  -0.4706   0.0000   0.0000   0.0000   0.6002
  -0.900   0.1876   0.00469   0.00120  -0.0616  0.8277  0.7206  -0.4180   0.0000   0.0000   0.0000   0.5791
  -0.800   0.1986   0.00469   0.00118  -0.0616  0.8242  0.7268  -0.4125   0.0000   0.0000   0.0000   0.5602
  -0.700   0.2093   0.00467   0.00117  -0.0614  0.8206  0.7344  -0.4218   0.0000   0.0000   0.0000   0.5434
  -0.600   0.2201   0.00467   0.00117  -0.0613  0.8168  0.7405  -0.4313   0.0000   0.0000   0.0000   0.5283
  -0.500   0.2310   0.00468   0.00117  -0.0611  0.8122  0.7474  -0.4424   0.0000   0.0000   0.0000   0.5145
  -0.400   0.2419   0.00467   0.00116  -0.0611  0.8098  0.7539  -0.4542   0.0000   0.0000   0.0000   0.5020
  -0.300   0.2530   0.00467   0.00116  -0.0610  0.8065  0.7581  -0.4660   0.0000   0.0000   0.0000   0.4906
  -0.200   0.2641   0.00467   0.00115  -0.0609  0.8021  0.7616  -0.4779   0.0000   0.0000   0.0000   0.4801
  -0.100   0.2746   0.00464   0.00114  -0.0607  0.7970  0.7703  -0.4895   0.0000   0.0000   0.0000   0.4704
   0.000   0.2849   0.00463   0.00115  -0.0605  0.7916  0.7794  -0.5010   0.0000   0.0000   0.0000   0.4614
   0.100   0.2954   0.00464   0.00114  -0.0603  0.7861  0.7876  -0.5141   0.0000   0.0000   0.0000   0.4530
   0.200   0.3061   0.00467   0.00114  -0.0601  0.7809  0.7929  -0.5275   0.0000   0.0000   0.0000   0.4452
   0.300   0.3171   0.00466   0.00115  -0.0600  0.7777  0.7989  -0.5411   0.0000   0.0000   0.0000   0.4381
   0.400   0.3277   0.00464   0.00116  -0.0599  0.7731  0.8057  -0.5562   0.0000   0.0000   0.0000   0.4314
   0.500   0.3383   0.00464   0.00116  -0.0597  0.7672  0.8115  -0.5713   0.0000   0.0000   0.0000   0.4250
   0.600   0.3487   0.00465   0.00116  -0.0595  0.7601  0.8167  -0.5865   0.0000   0.0000   0.0000   0.4190
   0.700   0.3590   0.00469   0.00115  -0.0592  0.7520  0.8212  -0.6015   0.0000   0.0000   0.0000   0.4134
   0.800   0.3698   0.00471   0.00116  -0.0591  0.7455  0.8248  -0.6185   0.0000   0.0000   0.0000   0.4081
   1.000   0.3909   0.00474   0.00116  -0.0588  0.7294  0.8339  -0.6537   0.0000   0.0000   0.0000   0.3985
   1.100   0.4007   0.00478   0.00116  -0.0584  0.7191  0.8382  -0.6708   0.0000   0.0000   0.0000   0.3939
   1.200   0.4111   0.00480   0.00117  -0.0582  0.7110  0.8421  -0.6885   0.0000   0.0000   0.0000   0.3896
   1.300   0.4216   0.00482   0.00118  -0.0581  0.7016  0.8457  -0.7065   0.0000   0.0000   0.0000   0.3856
   1.400   0.4316   0.00487   0.00119  -0.0578  0.6896  0.8491  -0.7240   0.0000   0.0000   0.0000   0.3817
   1.500   0.4417   0.00493   0.00120  -0.0575  0.6780  0.8523  -0.7416   0.0000   0.0000   0.0000   0.3780
   1.600   0.4522   0.00498   0.00121  -0.0574  0.6668  0.8551  -0.7597   0.0000   0.0000   0.0000   0.3746
   1.800   0.4720   0.00510   0.00124  -0.0568  0.6425  0.8622  -0.7951   0.0000   0.0000   0.0000   0.3679
   1.900   0.4823   0.00512   0.00127  -0.0567  0.6325  0.8661  -0.8165   0.0000   0.0000   0.0000   0.3649
   2.000   0.4921   0.00519   0.00129  -0.0563  0.6197  0.8700  -0.8407   0.0000   0.0000   0.0000   0.3619
   2.100   0.5017   0.00526   0.00132  -0.0560  0.6070  0.8739  -0.8648   0.0000   0.0000   0.0000   0.3589
   2.200   0.5121   0.00530   0.00136  -0.0559  0.5963  0.8778  -0.8902   0.0000   0.0000   0.0000   0.3563
   2.300   0.5218   0.00539   0.00139  -0.0556  0.5819  0.8818  -0.9148   0.0000   0.0000   0.0000   0.3536
   2.500   0.5414   0.00552   0.00145  -0.0550  0.5552  0.8907  -0.9645   0.0000   0.0000   0.0000   0.3485
   2.600   0.5500   0.00564   0.00150  -0.0545  0.5362  0.8963  -0.9881   0.0000   0.0000   0.0000   0.3459
   2.700   0.5595   0.00571   0.00153  -0.0541  0.5195  0.9017  -1.0130   0.0000   0.0000   0.0000   0.3436
   2.800   0.5680   0.00587   0.00159  -0.0536  0.4955  0.9073  -1.0367   0.0000   0.0000   0.0000   0.3411
   3.000   0.5858   0.00610   0.00169  -0.0527  0.4548  0.9193  -1.0855   0.0000   0.0000   0.0000   0.3366
   3.100   0.5950   0.00620   0.00173  -0.0523  0.4380  0.9262  -1.1105   0.0000   0.0000   0.0000   0.3344
   3.200   0.6040   0.00632   0.00179  -0.0519  0.4209  0.9333  -1.1353   0.0000   0.0000   0.0000   0.3324
   3.300   0.6140   0.00639   0.00183  -0.0517  0.4086  0.9406  -1.1617   0.0000   0.0000   0.0000   0.3305
   3.400   0.6236   0.00652   0.00190  -0.0514  0.3914  0.9492  -1.1880   0.0000   0.0000   0.0000   0.3287
   3.500   0.6350   0.00661   0.00195  -0.0515  0.3779  0.9569  -1.2219   0.0000   0.0000   0.0000   0.3273
   3.600   0.6472   0.00674   0.00201  -0.0518  0.3612  0.9648  -1.2572   0.0000   0.0000   0.0000   0.3261
   3.700   0.6601   0.00687   0.00208  -0.0523  0.3439  0.9718  -1.2939   0.0000   0.0000   0.0000   0.3252
   3.800   0.6736   0.00703   0.00215  -0.0530  0.3256  0.9783  -1.3318   0.0000   0.0000   0.0000   0.3245
   3.900   0.6871   0.00718   0.00222  -0.0536  0.3078  0.9841  -1.3699   0.0000   0.0000   0.0000   0.3239
   4.000   0.7009   0.00735   0.00230  -0.0544  0.2898  0.9890  -1.4088   0.0000   0.0000   0.0000   0.3233
   4.100   0.7148   0.00748   0.00237  -0.0551  0.2747  0.9934  -1.4481   0.0000   0.0000   0.0000   0.3228
   4.200   0.7289   0.00761   0.00244  -0.0559  0.2618  0.9971  -1.4881   0.0000   0.0000   0.0000   0.3223
   4.300   0.7409   0.00777   0.00252  -0.0562  0.2466  1.0000  -1.5247   0.0000   0.0000   0.0000   0.3214
   4.400   0.7500   0.00785   0.00257  -0.0559  0.2396  1.0000  -1.5571   0.0000   0.0000   0.0000   0.3199
   4.500   0.7589   0.00797   0.00264  -0.0555  0.2298  1.0000  -1.5892   0.0000   0.0000   0.0000   0.3185
   4.600   0.7675   0.00812   0.00272  -0.0551  0.2173  1.0000  -1.6210   0.0000   0.0000   0.0000   0.3170
   4.700   0.7770   0.00820   0.00278  -0.0548  0.2106  1.0000  -1.6547   0.0000   0.0000   0.0000   0.3157
   4.800   0.7864   0.00831   0.00292  -0.0545  0.2023  1.0000  -1.6921   0.0000   0.0000   0.0000   0.3144
   4.900   0.7953   0.00845   0.00300  -0.0542  0.1925  1.0000  -1.7432   0.0000   0.0000   0.0000   0.3131
   5.000   0.8049   0.00856   0.00308  -0.0539  0.1842  1.0000  -1.7952   0.0000   0.0000   0.0000   0.3118
   5.100   0.8146   0.00864   0.00314  -0.0537  0.1787  1.0000  -1.8483   0.0000   0.0000   0.0000   0.3107
   5.200   0.8241   0.00876   0.00322  -0.0534  0.1717  1.0000  -1.9009   0.0000   0.0000   0.0000   0.3095
   5.300   0.8333   0.00890   0.00331  -0.0531  0.1630  1.0000  -1.9530   0.0000   0.0000   0.0000   0.3083
   5.400   0.8431   0.00900   0.00339  -0.0529  0.1565  1.0000  -2.0069   0.0000   0.0000   0.0000   0.3072
   5.500   0.8530   0.00909   0.00346  -0.0527  0.1523  1.0000  -2.0619   0.0000   0.0000   0.0000   0.3062
   5.600   0.8626   0.00920   0.00354  -0.0525  0.1466  1.0000  -2.1166   0.0000   0.0000   0.0000   0.3052
   5.700   0.8719   0.00934   0.00364  -0.0522  0.1398  1.0000  -2.1707   0.0000   0.0000   0.0000   0.3041
   5.800   0.8814   0.00947   0.00374  -0.0520  0.1318  1.0000  -2.2255   0.0000   0.0000   0.0000   0.3031
   5.900   0.8915   0.00955   0.00381  -0.0518  0.1290  1.0000  -2.2826   0.0000   0.0000   0.0000   0.3021
   6.000   0.9012   0.00966   0.00390  -0.0516  0.1242  1.0000  -2.3392   0.0000   0.0000   0.0000   0.3011
   6.100   0.9104   0.00982   0.00400  -0.0513  0.1171  1.0000  -2.3947   0.0000   0.0000   0.0000   0.3002
   6.200   0.9195   0.00998   0.00411  -0.0511  0.1080  1.0000  -2.4503   0.0000   0.0000   0.0000   0.2992
   6.300   0.9296   0.01007   0.00419  -0.0509  0.1053  1.0000  -2.5093   0.0000   0.0000   0.0000   0.2983
   6.400   0.9393   0.01017   0.00429  -0.0507  0.1017  1.0000  -2.5678   0.0000   0.0000   0.0000   0.2974
   6.500   0.9488   0.01031   0.00438  -0.0505  0.0973  1.0000  -2.6259   0.0000   0.0000   0.0000   0.2965
   6.600   0.9581   0.01046   0.00450  -0.0502  0.0919  1.0000  -2.6836   0.0000   0.0000   0.0000   0.2956
   6.700   0.9676   0.01060   0.00462  -0.0500  0.0861  1.0000  -2.7421   0.0000   0.0000   0.0000   0.2947
   6.800   0.9775   0.01068   0.00470  -0.0498  0.0842  1.0000  -2.8034   0.0000   0.0000   0.0000   0.2940
   6.900   0.9871   0.01081   0.00480  -0.0496  0.0804  1.0000  -2.8639   0.0000   0.0000   0.0000   0.2931
   7.000   0.9962   0.01098   0.00491  -0.0493  0.0752  1.0000  -2.9232   0.0000   0.0000   0.0000   0.2923
   7.100   1.0052   0.01115   0.00504  -0.0490  0.0684  1.0000  -2.9821   0.0000   0.0000   0.0000   0.2914
   7.200   1.0150   0.01126   0.00515  -0.0489  0.0657  1.0000  -3.0446   0.0000   0.0000   0.0000   0.2907
   7.300   1.0249   0.01136   0.00534  -0.0486  0.0667  1.0000  -3.1043   0.0000   0.0000   0.0000   0.2899
   7.400   1.0348   0.01145   0.00543  -0.0485  0.0656  1.0000  -3.1681   0.0000   0.0000   0.0000   0.2891
   7.500   1.0445   0.01156   0.00554  -0.0483  0.0638  1.0000  -3.2317   0.0000   0.0000   0.0000   0.2884
   7.600   1.0539   0.01170   0.00565  -0.0481  0.0613  1.0000  -3.2948   0.0000   0.0000   0.0000   0.2877
   7.700   1.0630   0.01186   0.00578  -0.0478  0.0581  1.0000  -3.3573   0.0000   0.0000   0.0000   0.2869
   7.800   1.0720   0.01203   0.00591  -0.0475  0.0539  1.0000  -3.4194   0.0000   0.0000   0.0000   0.2861
   7.900   1.0812   0.01219   0.00606  -0.0472  0.0501  1.0000  -3.4864   0.0000   0.0000   0.0000   0.2854
   8.000   1.0911   0.01228   0.00616  -0.0471  0.0492  1.0000  -3.5695   0.0000   0.0000   0.0000   0.2847
   8.100   1.1006   0.01239   0.00627  -0.0469  0.0474  1.0000  -3.6516   0.0000   0.0000   0.0000   0.2840
   8.200   1.1098   0.01254   0.00640  -0.0467  0.0446  1.0000  -3.7326   0.0000   0.0000   0.0000   0.2833
   8.300   1.1185   0.01273   0.00654  -0.0463  0.0412  1.0000  -3.8120   0.0000   0.0000   0.0000   0.2826
   8.400   1.1273   0.01292   0.00670  -0.0460  0.0375  1.0000  -3.8919   0.0000   0.0000   0.0000   0.2819
   8.500   1.1366   0.01306   0.00683  -0.0458  0.0354  1.0000  -3.9745   0.0000   0.0000   0.0000   0.2812
   8.600   1.1460   0.01318   0.00696  -0.0456  0.0346  1.0000  -4.0587   0.0000   0.0000   0.0000   0.2805
   8.700   1.1553   0.01331   0.00710  -0.0453  0.0334  1.0000  -4.1429   0.0000   0.0000   0.0000   0.2799
   8.800   1.1643   0.01346   0.00724  -0.0451  0.0317  1.0000  -4.2268   0.0000   0.0000   0.0000   0.2792
   8.900   1.1730   0.01364   0.00741  -0.0447  0.0296  1.0000  -4.3101   0.0000   0.0000   0.0000   0.2785
   9.000   1.1815   0.01385   0.00758  -0.0444  0.0272  1.0000  -4.4098   0.0000   0.0000   0.0000   0.2778
   9.100   1.1901   0.01404   0.00775  -0.0441  0.0246  1.0000  -4.5179   0.0000   0.0000   0.0000   0.2771
   9.200   1.1991   0.01419   0.00791  -0.0438  0.0233  1.0000  -4.6294   0.0000   0.0000   0.0000   0.2765
   9.300   1.2080   0.01434   0.00806  -0.0435  0.0225  1.0000  -4.7420   0.0000   0.0000   0.0000   0.2758
   9.400   1.2168   0.01450   0.00822  -0.0432  0.0216  1.0000  -4.8552   0.0000   0.0000   0.0000   0.2752
   9.500   1.2255   0.01467   0.00839  -0.0429  0.0207  1.0000  -4.9686   0.0000   0.0000   0.0000   0.2745
   9.600   1.2340   0.01485   0.00857  -0.0425  0.0198  1.0000  -5.0820   0.0000   0.0000   0.0000   0.2738
   9.700   1.2424   0.01505   0.00876  -0.0422  0.0189  1.0000  -5.1957   0.0000   0.0000   0.0000   0.2732
   9.800   1.2503   0.01528   0.00900  -0.0418  0.0170  1.0000  -5.3181   0.0000   0.0000   0.0000   0.2725
   9.900   1.2588   0.01546   0.00918  -0.0414  0.0158  1.0000  -5.4363   0.0000   0.0000   0.0000   0.2718
  10.000   1.2673   0.01563   0.00937  -0.0410  0.0149  1.0000  -5.5545   0.0000   0.0000   0.0000   0.2712
  10.100   1.2757   0.01581   0.00955  -0.0407  0.0142  1.0000  -5.6731   0.0000   0.0000   0.0000   0.2705
  10.200   1.2844   0.01596   0.00972  -0.0404  0.0141  1.0000  -5.7962   0.0000   0.0000   0.0000   0.2699
  10.300   1.2930   0.01611   0.00989  -0.0400  0.0140  1.0000  -5.9197   0.0000   0.0000   0.0000   0.2693
  10.400   1.3014   0.01626   0.01006  -0.0397  0.0139  1.0000  -6.0437   0.0000   0.0000   0.0000   0.2687
  10.500   1.3099   0.01642   0.01024  -0.0394  0.0138  1.0000  -6.1682   0.0000   0.0000   0.0000   0.2681
  10.600   1.3182   0.01659   0.01042  -0.0390  0.0136  1.0000  -6.2931   0.0000   0.0000   0.0000   0.2675
  10.700   1.3264   0.01676   0.01060  -0.0386  0.0134  1.0000  -6.4184   0.0000   0.0000   0.0000   0.2669
  10.800   1.3345   0.01693   0.01079  -0.0382  0.0131  1.0000  -6.5440   0.0000   0.0000   0.0000   0.2662
  10.900   1.3425   0.01711   0.01098  -0.0378  0.0128  1.0000  -6.6699   0.0000   0.0000   0.0000   0.2656
  11.000   1.3502   0.01729   0.01118  -0.0374  0.0125  1.0000  -6.7952   0.0000   0.0000   0.0000   0.2649
  11.100   1.3576   0.01747   0.01137  -0.0369  0.0121  1.0000  -6.9194   0.0000   0.0000   0.0000   0.2643
  11.200   1.3647   0.01766   0.01158  -0.0363  0.0117  1.0000  -7.0433   0.0000   0.0000   0.0000   0.2636
  11.300   1.3717   0.01786   0.01179  -0.0357  0.0112  1.0000  -7.1668   0.0000   0.0000   0.0000   0.2628
  11.400   1.3784   0.01808   0.01201  -0.0351  0.0107  1.0000  -7.2893   0.0000   0.0000   0.0000   0.2621
  11.500   1.3848   0.01831   0.01225  -0.0345  0.0101  1.0000  -7.4110   0.0000   0.0000   0.0000   0.2614
  11.600   1.3910   0.01856   0.01250  -0.0338  0.0094  1.0000  -7.5319   0.0000   0.0000   0.0000   0.2606
  11.700   1.3970   0.01882   0.01277  -0.0331  0.0088  1.0000  -7.6523   0.0000   0.0000   0.0000   0.2599
  11.800   1.4030   0.01908   0.01303  -0.0324  0.0081  1.0000  -7.7733   0.0000   0.0000   0.0000   0.2591
  11.900   1.4092   0.01933   0.01329  -0.0317  0.0074  1.0000  -7.8969   0.0000   0.0000   0.0000   0.2584
  12.000   1.4155   0.01955   0.01353  -0.0311  0.0071  1.0000  -8.0229   0.0000   0.0000   0.0000   0.2577
  12.100   1.4218   0.01979   0.01378  -0.0305  0.0069  1.0000  -8.1493   0.0000   0.0000   0.0000   0.2569
  12.200   1.4278   0.02003   0.01404  -0.0298  0.0066  1.0000  -8.2758   0.0000   0.0000   0.0000   0.2562
  12.300   1.4338   0.02028   0.01431  -0.0292  0.0063  1.0000  -8.4022   0.0000   0.0000   0.0000   0.2555
  12.400   1.4395   0.02055   0.01459  -0.0285  0.0060  1.0000  -8.5283   0.0000   0.0000   0.0000   0.2548
  12.500   1.4447   0.02085   0.01491  -0.0278  0.0054  1.0000  -8.6517   0.0000   0.0000   0.0000   0.2540
  12.600   1.4513   0.02105   0.01517  -0.0272  0.0059  1.0000  -8.8107   0.0000   0.0000   0.0000   0.2534
  12.700   1.4563   0.02136   0.01550  -0.0265  0.0054  1.0000  -8.9583   0.0000   0.0000   0.0000   0.2527
  12.800   1.4604   0.02174   0.01589  -0.0256  0.0046  1.0000  -9.0971   0.0000   0.0000   0.0000   0.2519
  12.900   1.4620   0.02230   0.01644  -0.0245  0.0032  1.0000  -9.2107   0.0000   0.0000   0.0000   0.2509
  13.000   1.4653   0.02275   0.01689  -0.0236  0.0025  1.0000  -9.3410   0.0000   0.0000   0.0000   0.2501
  13.100   1.4700   0.02308   0.01725  -0.0229  0.0024  1.0000  -9.4874   0.0000   0.0000   0.0000   0.2494
  13.200   1.4746   0.02343   0.01762  -0.0222  0.0023  1.0000  -9.6330   0.0000   0.0000   0.0000   0.2487
  13.300   1.4789   0.02380   0.01801  -0.0215  0.0021  1.0000  -9.7761   0.0000   0.0000   0.0000   0.2480
  13.400   1.4830   0.02419   0.01842  -0.0207  0.0020  1.0000  -9.9173   0.0000   0.0000   0.0000   0.2473
  13.500   1.4869   0.02459   0.01885  -0.0200  0.0019  1.0000  -10.0566   0.0000   0.0000   0.0000   0.2465
  13.600   1.4906   0.02500   0.01929  -0.0192  0.0018  1.0000  -10.1940   0.0000   0.0000   0.0000   0.2458
  13.700   1.4938   0.02545   0.01976  -0.0184  0.0017  1.0000  -10.3269   0.0000   0.0000   0.0000   0.2451
  13.800   1.4968   0.02592   0.02026  -0.0177  0.0016  1.0000  -10.4570   0.0000   0.0000   0.0000   0.2443
  13.900   1.4997   0.02641   0.02078  -0.0169  0.0015  1.0000  -10.5861   0.0000   0.0000   0.0000   0.2436
  14.000   1.5026   0.02691   0.02130  -0.0162  0.0014  1.0000  -10.7144   0.0000   0.0000   0.0000   0.2429
  14.100   1.5053   0.02743   0.02185  -0.0154  0.0013  1.0000  -10.8390   0.0000   0.0000   0.0000   0.2422
  14.200   1.5080   0.02795   0.02240  -0.0147  0.0012  1.0000  -10.9627   0.0000   0.0000   0.0000   0.2416
  14.300   1.5108   0.02847   0.02296  -0.0140  0.0010  1.0000  -11.0850   0.0000   0.0000   0.0000   0.2409
  14.400   1.5136   0.02901   0.02353  -0.0134  0.0009  1.0000  -11.2048   0.0000   0.0000   0.0000   0.2402
  14.500   1.5159   0.02958   0.02415  -0.0127  0.0009  1.0000  -11.3181   0.0000   0.0000   0.0000   0.2396
  14.600   1.5178   0.03018   0.02479  -0.0120  0.0008  1.0000  -11.4270   0.0000   0.0000   0.0000   0.2389
  14.700   1.5196   0.03078   0.02544  -0.0113  0.0008  1.0000  -11.5359   0.0000   0.0000   0.0000   0.2383
  14.800   1.5214   0.03142   0.02612  -0.0107  0.0007  1.0000  -11.6441   0.0000   0.0000   0.0000   0.2376
  14.900   1.5226   0.03210   0.02686  -0.0100  0.0007  1.0000  -11.7470   0.0000   0.0000   0.0000   0.2370
  15.000   1.5235   0.03283   0.02764  -0.0094  0.0007  1.0000  -11.8713   0.0000   0.0000   0.0000   0.2364
  15.100   1.5246   0.03356   0.02843  -0.0089  0.0006  1.0000  -11.9962   0.0000   0.0000   0.0000   0.2358
  15.200   1.5257   0.03432   0.02924  -0.0083  0.0006  1.0000  -12.1197   0.0000   0.0000   0.0000   0.2352
  15.300   1.5259   0.03514   0.03012  -0.0078  0.0006  1.0000  -12.2323   0.0000   0.0000   0.0000   0.2347
  15.400   1.5259   0.03601   0.03105  -0.0073  0.0006  1.0000  -12.3403   0.0000   0.0000   0.0000   0.2341
  15.500   1.5260   0.03690   0.03199  -0.0068  0.0006  1.0000  -12.4482   0.0000   0.0000   0.0000   0.2336
  15.600   1.5258   0.03783   0.03298  -0.0064  0.0006  1.0000  -12.5522   0.0000   0.0000   0.0000   0.2331
  15.700   1.5247   0.03886   0.03407  -0.0060  0.0006  1.0000  -12.6436   0.0000   0.0000   0.0000   0.2327
  15.800   1.5237   0.03990   0.03517  -0.0057  0.0006  1.0000  -12.7360   0.0000   0.0000   0.0000   0.2322
  15.900   1.5228   0.04097   0.03629  -0.0054  0.0006  1.0000  -12.8277   0.0000   0.0000   0.0000   0.2318
  16.000   1.5206   0.04216   0.03755  -0.0052  0.0006  1.0000  -12.9043   0.0000   0.0000   0.0000   0.2315
  16.100   1.5186   0.04338   0.03882  -0.0050  0.0006  1.0000  -12.9811   0.0000   0.0000   0.0000   0.2311
  16.200   1.5165   0.04460   0.04011  -0.0048  0.0006  1.0000  -13.0556   0.0000   0.0000   0.0000   0.2308
  16.300   1.5130   0.04600   0.04156  -0.0048  0.0006  1.0000  -13.1124   0.0000   0.0000   0.0000   0.2305
  16.400   1.5100   0.04740   0.04302  -0.0048  0.0005  1.0000  -13.1733   0.0000   0.0000   0.0000   0.2303
  16.500   1.5067   0.04888   0.04457  -0.0049  0.0005  1.0000  -13.2304   0.0000   0.0000   0.0000   0.2301
  16.600   1.5026   0.05054   0.04628  -0.0051  0.0005  1.0000  -13.2741   0.0000   0.0000   0.0000   0.2301
  16.700   1.4990   0.05216   0.04797  -0.0054  0.0005  1.0000  -13.3247   0.0000   0.0000   0.0000   0.2300
  16.800   1.4943   0.05402   0.04989  -0.0058  0.0005  1.0000  -13.3569   0.0000   0.0000   0.0000   0.2301
  16.900   1.4898   0.05589   0.05182  -0.0063  0.0005  1.0000  -13.3915   0.0000   0.0000   0.0000   0.2302
  17.000   1.4838   0.05803   0.05407  -0.0070  0.0005  1.0000  -13.4129   0.0000   0.0000   0.0000   0.2304
  17.100   1.4780   0.06023   0.05632  -0.0078  0.0005  1.0000  -13.4282   0.0000   0.0000   0.0000   0.2307
  17.200   1.4721   0.06248   0.05864  -0.0087  0.0005  1.0000  -13.4392   0.0000   0.0000   0.0000   0.2311
  17.300   1.4656   0.06491   0.06114  -0.0097  0.0005  1.0000  -13.4366   0.0000   0.0000   0.0000   0.2316
  17.400   1.4590   0.06740   0.06369  -0.0108  0.0005  1.0000  -13.4317   0.0000   0.0000   0.0000   0.2321
  17.500   1.4515   0.07010   0.06646  -0.0121  0.0005  1.0000  -13.4109   0.0000   0.0000   0.0000   0.2328
  17.600   1.4439   0.07289   0.06932  -0.0135  0.0005  1.0000  -13.3841   0.0000   0.0000   0.0000   0.2335
  17.700   1.4357   0.07583   0.07232  -0.0150  0.0005  1.0000  -13.3465   0.0000   0.0000   0.0000   0.2344
  17.800   1.4266   0.07900   0.07556  -0.0166  0.0005  1.0000  -13.2913   0.0000   0.0000   0.0000   0.2354
  17.900   1.4179   0.08211   0.07874  -0.0183  0.0005  1.0000  -13.2393   0.0000   0.0000   0.0000   0.2364
  18.000   1.4074   0.08565   0.08234  -0.0202  0.0005  1.0000  -13.1544   0.0000   0.0000   0.0000   0.2376
  18.100   1.3977   0.08891   0.08566  -0.0220  0.0005  1.0000  -13.0801   0.0000   0.0000   0.0000   0.2387
  18.200   1.3868   0.09250   0.08929  -0.0239  0.0006  1.0000  -12.9758   0.0000   0.0000   0.0000   0.2401
  18.300   1.3748   0.09634   0.09320  -0.0260  0.0006  1.0000  -12.8587   0.0000   0.0000   0.0000   0.2415
  18.400   1.3627   0.10029   0.09720  -0.0282  0.0006  1.0000  -12.7354   0.0000   0.0000   0.0000   0.2431
  18.500   1.3490   0.10468   0.10167  -0.0306  0.0006  1.0000  -12.5768   0.0000   0.0000   0.0000   0.2449
  18.600   1.3368   0.10872   0.10576  -0.0328  0.0006  1.0000  -12.4429   0.0000   0.0000   0.0000   0.2466
  18.700   1.3220   0.11343   0.11054  -0.0355  0.0006  1.0000  -12.2549   0.0000   0.0000   0.0000   0.2487
  18.800   1.3079   0.11799   0.11516  -0.0380  0.0006  1.0000  -12.0742   0.0000   0.0000   0.0000   0.2508
  18.900   1.2940   0.12255   0.11977  -0.0406  0.0006  1.0000  -11.8903   0.0000   0.0000   0.0000   0.2529
  19.000   1.2786   0.12749   0.12478  -0.0434  0.0006  1.0000  -11.6703   0.0000   0.0000   0.0000   0.2553
  19.100   1.2654   0.13194   0.12928  -0.0459  0.0006  1.0000  -11.4872   0.0000   0.0000   0.0000   0.2576
  19.200   1.2497   0.13706   0.13446  -0.0489  0.0006  1.0000  -11.2434   0.0000   0.0000   0.0000   0.2603
  19.300   1.2371   0.14148   0.13892  -0.0514  0.0006  1.0000  -11.0565   0.0000   0.0000   0.0000   0.2626
  19.400   1.2228   0.14636   0.14386  -0.0543  0.0006  1.0000  -10.8244   0.0000   0.0000   0.0000   0.2654
  19.500   1.2097   0.15106   0.14860  -0.0571  0.0007  1.0000  -10.6065   0.0000   0.0000   0.0000   0.2681
  19.600   1.1990   0.15520   0.15278  -0.0595  0.0007  1.0000  -10.4342   0.0000   0.0000   0.0000   0.2704
  19.700   1.1834   0.16063   0.15827  -0.0627  0.0007  1.0000  -10.1418   0.0000   0.0000   0.0000   0.2738
  19.800   1.1740   0.16461   0.16229  -0.0651  0.0007  1.0000  -9.9788   0.0000   0.0000   0.0000   0.2761
  19.900   1.1653   0.16831   0.16602  -0.0675  0.0007  1.0000  -9.8217   0.0000   0.0000   0.0000   0.2785
  20.000   1.1514   0.17319   0.17095  -0.0707  0.0008  1.0000  -9.5259   0.0000   0.0000   0.0000   0.2820
  20.100   1.1444   0.17654   0.17434  -0.0729  0.0008  1.0000  -9.3898   0.0000   0.0000   0.0000   0.2842
  20.200   1.1382   0.17979   0.17762  -0.0750  0.0008  1.0000  -9.2691   0.0000   0.0000   0.0000   0.2862
  20.300   1.1310   0.18340   0.18127  -0.0772  0.0008  1.0000  -9.1175   0.0000   0.0000   0.0000   0.2886
  20.400   1.1184   0.18867   0.18658  -0.0804  0.0008  1.0000  -8.8222   0.0000   0.0000   0.0000   0.2922
  20.500   1.1131   0.19203   0.18997  -0.0824  0.0009  1.0000  -8.7085   0.0000   0.0000   0.0000   0.2943
  20.600   1.1085   0.19528   0.19325  -0.0843  0.0009  1.0000  -8.6060   0.0000   0.0000   0.0000   0.2962
  20.700   1.1023   0.19911   0.19711  -0.0864  0.0009  1.0000  -8.4570   0.0000   0.0000   0.0000   0.2985
  20.800   1.0889   0.20537   0.20342  -0.0898  0.0010  1.0000  -8.1068   0.0000   0.0000   0.0000   0.3027
  20.900   1.0854   0.20858   0.20666  -0.0915  0.0010  1.0000  -8.0148   0.0000   0.0000   0.0000   0.3045
  21.000   1.0826   0.21163   0.20973  -0.0932  0.0010  1.0000  -7.9374   0.0000   0.0000   0.0000   0.3062
  21.100   1.0797   0.21476   0.21288  -0.0948  0.0010  1.0000  -7.8537   0.0000   0.0000   0.0000   0.3078
  21.200   1.0759   0.21827   0.21642  -0.0966  0.0010  1.0000  -7.7393   0.0000   0.0000   0.0000   0.3098
  21.300   1.0615   0.22596   0.22418  -0.1002  0.0011  1.0000  -7.2840   0.0000   0.0000   0.0000   0.3146
  21.400   1.0597   0.22900   0.22723  -0.1017  0.0010  1.0000  -7.2127   0.0000   0.0000   0.0000   0.3161
  21.500   1.0589   0.23166   0.22991  -0.1030  0.0010  1.0000  -7.1718   0.0000   0.0000   0.0000   0.3173
  21.600   1.0583   0.23424   0.23250  -0.1043  0.0010  1.0000  -7.1379   0.0000   0.0000   0.0000   0.3184
  21.700   1.0578   0.23682   0.23509  -0.1056  0.0010  1.0000  -7.1042   0.0000   0.0000   0.0000   0.3195
  21.800   1.0573   0.23945   0.23774  -0.1068  0.0010  1.0000  -7.0667   0.0000   0.0000   0.0000   0.3206
  21.900   1.0564   0.24225   0.24056  -0.1081  0.0010  1.0000  -7.0162   0.0000   0.0000   0.0000   0.3218
  22.000   1.0539   0.24583   0.24416  -0.1097  0.0010  1.0000  -6.9067   0.0000   0.0000   0.0000   0.3235
  22.100   1.0449   0.25268   0.25106  -0.1123  0.0010  1.0000  -6.5227   0.0000   0.0000   0.0000   0.3272
  22.200   1.0445   0.25546   0.25385  -0.1135  0.0010  1.0000  -6.4854   0.0000   0.0000   0.0000   0.3283
  22.300   1.0444   0.25813   0.25654  -0.1147  0.0010  1.0000  -6.4566   0.0000   0.0000   0.0000   0.3293
  22.400   1.0444   0.26077   0.25920  -0.1159  0.0010  1.0000  -6.4301   0.0000   0.0000   0.0000   0.3302
  22.500   1.0444   0.26344   0.26188  -0.1170  0.0009  1.0000  -6.4015   0.0000   0.0000   0.0000   0.3312
  22.600   1.0443   0.26618   0.26464  -0.1182  0.0009  1.0000  -6.3656   0.0000   0.0000   0.0000   0.3322
  22.700   1.0439   0.26912   0.26759  -0.1194  0.0009  1.0000  -6.3133   0.0000   0.0000   0.0000   0.3333
  22.800   1.0427   0.27258   0.27108  -0.1207  0.0009  1.0000  -6.2163   0.0000   0.0000   0.0000   0.3346
  22.900   1.0167   0.29275   0.29130  -0.1254  0.0010  1.0000  -4.6678   0.0000   0.0000   0.0000   0.3437


