xflr5 v6.61

 Calculated polar for: SG6042

 1 1 Reynolds number fixed          Mach number fixed         

 xtrf =   1.000 (top)        1.000 (bottom)
 Mach =   0.000     Re =     0.563 e 6     Ncrit =   9.000

  alpha     CL        CD       CDp       Cm    Top Xtr Bot Xtr   Cpmin    Chinge    XCp    
 ------- -------- --------- --------- -------- ------- ------- -------- --------- ---------
 -10.000  -0.3454   0.11695   0.11466  -0.0329  1.0000  0.0107  -1.7079   0.0000   0.0000   0.0000   0.1446
  -9.900  -0.3471   0.11606   0.11379  -0.0324  1.0000  0.0107  -1.7174   0.0000   0.0000   0.0000   0.1468
  -9.800  -0.3471   0.11493   0.11267  -0.0324  0.9999  0.0108  -1.7266   0.0000   0.0000   0.0000   0.1470
  -9.700  -0.3421   0.11316   0.11091  -0.0338  0.9994  0.0108  -1.7347   0.0000   0.0000   0.0000   0.1412
  -9.600  -0.3371   0.11140   0.10914  -0.0353  0.9989  0.0108  -1.7430   0.0000   0.0000   0.0000   0.1353
  -9.500  -0.3321   0.10964   0.10738  -0.0368  0.9984  0.0108  -1.7517   0.0000   0.0000   0.0000   0.1291
  -9.400  -0.3272   0.10789   0.10563  -0.0383  0.9979  0.0108  -1.7608   0.0000   0.0000   0.0000   0.1228
  -9.300  -0.3224   0.10614   0.10388  -0.0398  0.9973  0.0108  -1.7701   0.0000   0.0000   0.0000   0.1165
  -9.200  -0.3175   0.10439   0.10213  -0.0413  0.9966  0.0108  -1.7798   0.0000   0.0000   0.0000   0.1099
  -9.100  -0.3127   0.10264   0.10038  -0.0428  0.9959  0.0108  -1.7899   0.0000   0.0000   0.0000   0.1030
  -9.000  -0.3078   0.10088   0.09863  -0.0443  0.9952  0.0108  -1.8004   0.0000   0.0000   0.0000   0.0957
  -8.900  -0.3028   0.09913   0.09687  -0.0459  0.9946  0.0108  -1.8113   0.0000   0.0000   0.0000   0.0881
  -8.800  -0.2978   0.09736   0.09511  -0.0476  0.9940  0.0108  -1.8228   0.0000   0.0000   0.0000   0.0800
  -8.700  -0.2927   0.09558   0.09333  -0.0493  0.9934  0.0108  -1.8347   0.0000   0.0000   0.0000   0.0713
  -8.600  -0.2872   0.09375   0.09150  -0.0511  0.9928  0.0108  -1.8471   0.0000   0.0000   0.0000   0.0617
  -8.500  -0.2821   0.09195   0.08970  -0.0528  0.9920  0.0108  -1.8600   0.0000   0.0000   0.0000   0.0522
  -8.400  -0.2774   0.09018   0.08793  -0.0544  0.9907  0.0108  -1.8735   0.0000   0.0000   0.0000   0.0433
  -8.300  -0.2724   0.08837   0.08612  -0.0561  0.9894  0.0108  -1.8877   0.0000   0.0000   0.0000   0.0333
  -8.200  -0.2743   0.08447   0.08225  -0.0591  0.9879  0.0110  -2.0598   0.0000   0.0000   0.0000   0.0240
  -8.100  -0.2724   0.08146   0.07925  -0.0619  0.9865  0.0111  -2.1578   0.0000   0.0000   0.0000   0.0121
  -8.000  -0.2684   0.07889   0.07668  -0.0647  0.9854  0.0111  -2.2189   0.0000   0.0000   0.0000  -0.0018
  -7.900  -0.2632   0.07645   0.07424  -0.0676  0.9845  0.0112  -2.2665   0.0000   0.0000   0.0000  -0.0177
  -7.800  -0.2585   0.07423   0.07202  -0.0702  0.9828  0.0112  -2.3045   0.0000   0.0000   0.0000  -0.0326
  -7.700  -0.2561   0.07237   0.07017  -0.0720  0.9793  0.0112  -2.3344   0.0000   0.0000   0.0000  -0.0420
  -7.600  -0.2510   0.07022   0.06802  -0.0748  0.9768  0.0112  -2.3651   0.0000   0.0000   0.0000  -0.0590
  -7.500  -0.2433   0.06778   0.06558  -0.0785  0.9750  0.0112  -2.3943   0.0000   0.0000   0.0000  -0.0839
  -7.400  -0.2328   0.06508   0.06288  -0.0832  0.9738  0.0112  -2.4198   0.0000   0.0000   0.0000  -0.1189
  -7.300  -0.2214   0.06241   0.06019  -0.0883  0.9729  0.0111  -2.4385   0.0000   0.0000   0.0000  -0.1606
  -7.200  -0.2137   0.06023   0.05800  -0.0919  0.9700  0.0111  -2.4492   0.0000   0.0000   0.0000  -0.1918
  -7.100  -0.2070   0.05831   0.05607  -0.0945  0.9664  0.0110  -2.4526   0.0000   0.0000   0.0000  -0.2185
  -7.000  -0.1967   0.05630   0.05403  -0.0977  0.9645  0.0110  -2.4440   0.0000   0.0000   0.0000  -0.2589
  -6.700  -0.1615   0.05049   0.04810  -0.1066  0.9611  0.0108  -2.3929   0.0000   0.0000   0.0000  -0.4243
  -6.600  -0.1609   0.03970   0.03699  -0.1172  0.9584  0.0098  -2.9635   0.0000   0.0000   0.0000  -0.4931
  -6.500  -0.1623   0.03621   0.03334  -0.1178  0.9522  0.0096  -3.1416   0.0000   0.0000   0.0000  -0.4906
  -6.400  -0.1585   0.03094   0.02776  -0.1199  0.9484  0.0093  -3.4337   0.0000   0.0000   0.0000  -0.5219
  -6.300  -0.1529   0.02568   0.02206  -0.1217  0.9459  0.0091  -3.7435   0.0000   0.0000   0.0000  -0.5620
  -6.200  -0.1436   0.02268   0.01872  -0.1227  0.9443  0.0091  -3.8627   0.0000   0.0000   0.0000  -0.6217
  -6.100  -0.1327   0.02080   0.01660  -0.1234  0.9432  0.0092  -3.8838   0.0000   0.0000   0.0000  -0.6987
  -6.000  -0.1209   0.01958   0.01519  -0.1239  0.9423  0.0095  -3.8642   0.0000   0.0000   0.0000  -0.7960
  -5.900  -0.1083   0.01881   0.01431  -0.1245  0.9415  0.0097  -3.7981   0.0000   0.0000   0.0000  -0.9214
  -5.800  -0.0997   0.01849   0.01392  -0.1240  0.9390  0.0100  -3.7149   0.0000   0.0000   0.0000  -1.0181
  -5.700  -0.0908   0.01837   0.01378  -0.1236  0.9364  0.0102  -3.6104   0.0000   0.0000   0.0000  -1.1377
  -5.600  -0.0796   0.01845   0.01387  -0.1236  0.9344  0.0104  -3.4746   0.0000   0.0000   0.0000  -1.3320
  -5.500  -0.0671   0.01886   0.01432  -0.1237  0.9329  0.0107  -3.3059   0.0000   0.0000   0.0000  -1.6271
  -5.400  -0.0610   0.01548   0.01043  -0.1238  0.9304  0.0127  -3.4650   0.0000   0.0000   0.0000  -1.8172
  -5.300  -0.0489   0.01546   0.01045  -0.1242  0.9290  0.0137  -3.3190   0.0000   0.0000   0.0000  -2.3357
  -5.200  -0.0362   0.01580   0.01081  -0.1246  0.9279  0.0149  -3.1497   0.0000   0.0000   0.0000  -3.2494
  -5.100  -0.0240   0.01565   0.01064  -0.1250  0.9267  0.0156  -3.0281   0.0000   0.0000   0.0000  -5.0494
  -5.000  -0.0116   0.01542   0.01037  -0.1253  0.9255  0.0163  -2.9158   0.0000   0.0000   0.0000  -10.6924
  -4.900   0.0010   0.01511   0.01002  -0.1256  0.9244  0.0168  -2.8101   0.0000   0.0000   0.0000  125.4482
  -4.800   0.0138   0.01477   0.00962  -0.1260  0.9232  0.0173  -2.7090   0.0000   0.0000   0.0000   9.5121
  -4.700   0.0267   0.01440   0.00920  -0.1264  0.9219  0.0177  -2.6106   0.0000   0.0000   0.0000   5.0526
  -4.600   0.0358   0.01410   0.00885  -0.1260  0.9196  0.0179  -2.5294   0.0000   0.0000   0.0000   3.8159
  -4.500   0.0452   0.01379   0.00850  -0.1256  0.9171  0.0182  -2.4484   0.0000   0.0000   0.0000   3.0673
  -4.400   0.0555   0.01347   0.00813  -0.1254  0.9149  0.0184  -2.3657   0.0000   0.0000   0.0000   2.5434
  -4.300   0.0662   0.01314   0.00775  -0.1253  0.9128  0.0186  -2.3136   0.0000   0.0000   0.0000   2.1690
  -4.200   0.0773   0.01281   0.00737  -0.1253  0.9109  0.0188  -2.2620   0.0000   0.0000   0.0000   1.8933
  -4.100   0.0885   0.01248   0.00700  -0.1253  0.9092  0.0189  -2.2109   0.0000   0.0000   0.0000   1.6840
  -4.000   0.0999   0.01216   0.00663  -0.1253  0.9075  0.0190  -2.1603   0.0000   0.0000   0.0000   1.5206
  -3.900   0.1116   0.01195   0.00639  -0.1254  0.9058  0.0194  -2.0962   0.0000   0.0000   0.0000   1.3875
  -3.800   0.1239   0.01188   0.00631  -0.1256  0.9042  0.0199  -2.0153   0.0000   0.0000   0.0000   1.2758
  -3.700   0.1367   0.01197   0.00639  -0.1259  0.9026  0.0204  -1.9214   0.0000   0.0000   0.0000   1.1819
  -3.600   0.1495   0.01200   0.00642  -0.1262  0.9008  0.0209  -1.8348   0.0000   0.0000   0.0000   1.1038
  -3.500   0.1597   0.01132   0.00566  -0.1261  0.8988  0.0214  -1.8201   0.0000   0.0000   0.0000   1.0481
  -3.400   0.1687   0.01092   0.00522  -0.1256  0.8965  0.0217  -1.7908   0.0000   0.0000   0.0000   1.0023
  -3.300   0.1785   0.01063   0.00490  -0.1253  0.8941  0.0218  -1.7533   0.0000   0.0000   0.0000   0.9591
  -3.200   0.1889   0.01040   0.00464  -0.1251  0.8918  0.0217  -1.7110   0.0000   0.0000   0.0000   0.9188
  -3.100   0.1996   0.01018   0.00440  -0.1250  0.8895  0.0216  -1.6684   0.0000   0.0000   0.0000   0.8821
  -3.000   0.2104   0.00995   0.00414  -0.1248  0.8873  0.0215  -1.6272   0.0000   0.0000   0.0000   0.8487
  -2.900   0.2214   0.00972   0.00387  -0.1248  0.8852  0.0215  -1.5882   0.0000   0.0000   0.0000   0.8184
  -2.800   0.2326   0.00948   0.00358  -0.1247  0.8832  0.0216  -1.5539   0.0000   0.0000   0.0000   0.7906
  -2.700   0.2442   0.00924   0.00325  -0.1247  0.8813  0.0220  -1.5275   0.0000   0.0000   0.0000   0.7649
  -2.600   0.2561   0.00905   0.00300  -0.1248  0.8795  0.0226  -1.4953   0.0000   0.0000   0.0000   0.7412
  -2.500   0.2682   0.00888   0.00276  -0.1249  0.8776  0.0241  -1.4708   0.0000   0.0000   0.0000   0.7192
  -2.400   0.2799   0.00848   0.00252  -0.1250  0.8753  0.0673  -1.5228   0.0000   0.0000   0.0000   0.6998
  -2.300   0.2898   0.00836   0.00249  -0.1248  0.8734  0.0859  -1.4743   0.0000   0.0000   0.0000   0.6834
  -2.200   0.3000   0.00829   0.00245  -0.1246  0.8711  0.0971  -1.4131   0.0000   0.0000   0.0000   0.6678
  -2.100   0.3104   0.00819   0.00241  -0.1244  0.8686  0.1118  -1.3498   0.0000   0.0000   0.0000   0.6532
  -2.000   0.3210   0.00809   0.00237  -0.1243  0.8660  0.1296  -1.2857   0.0000   0.0000   0.0000   0.6394
  -1.900   0.3317   0.00798   0.00232  -0.1243  0.8634  0.1525  -1.2213   0.0000   0.0000   0.0000   0.6265
  -1.800   0.3425   0.00783   0.00228  -0.1243  0.8609  0.1849  -1.1574   0.0000   0.0000   0.0000   0.6144
  -1.700   0.3534   0.00766   0.00224  -0.1243  0.8586  0.2290  -1.0937   0.0000   0.0000   0.0000   0.6032
  -1.600   0.3643   0.00740   0.00220  -0.1244  0.8564  0.3026  -1.0309   0.0000   0.0000   0.0000   0.5928
  -1.500   0.3749   0.00705   0.00217  -0.1246  0.8541  0.4094  -0.9697   0.0000   0.0000   0.0000   0.5834
  -1.400   0.3853   0.00672   0.00220  -0.1246  0.8516  0.5279  -0.9093   0.0000   0.0000   0.0000   0.5744
  -1.300   0.3962   0.00658   0.00224  -0.1246  0.8490  0.5964  -0.8479   0.0000   0.0000   0.0000   0.5653
  -1.200   0.4059   0.00650   0.00226  -0.1242  0.8470  0.6316  -0.7904   0.0000   0.0000   0.0000   0.5567
  -1.100   0.4158   0.00644   0.00227  -0.1239  0.8446  0.6560  -0.7333   0.0000   0.0000   0.0000   0.5485
  -1.000   0.4262   0.00641   0.00227  -0.1237  0.8420  0.6742  -0.6755   0.0000   0.0000   0.0000   0.5405
  -0.900   0.4363   0.00636   0.00227  -0.1234  0.8392  0.6934  -0.6191   0.0000   0.0000   0.0000   0.5330
  -0.800   0.4470   0.00633   0.00226  -0.1232  0.8363  0.7104  -0.5714   0.0000   0.0000   0.0000   0.5257
  -0.700   0.4572   0.00628   0.00226  -0.1229  0.8333  0.7275  -0.5798   0.0000   0.0000   0.0000   0.5187
  -0.600   0.4681   0.00626   0.00224  -0.1227  0.8303  0.7432  -0.5885   0.0000   0.0000   0.0000   0.5120
  -0.500   0.4791   0.00624   0.00223  -0.1226  0.8273  0.7558  -0.5972   0.0000   0.0000   0.0000   0.5055
  -0.400   0.4901   0.00622   0.00221  -0.1224  0.8241  0.7688  -0.6060   0.0000   0.0000   0.0000   0.4994
  -0.300   0.5016   0.00624   0.00221  -0.1224  0.8208  0.7810  -0.6150   0.0000   0.0000   0.0000   0.4935
  -0.200   0.5113   0.00621   0.00222  -0.1220  0.8186  0.7924  -0.6242   0.0000   0.0000   0.0000   0.4880
  -0.100   0.5210   0.00618   0.00223  -0.1216  0.8160  0.8043  -0.6340   0.0000   0.0000   0.0000   0.4827
   0.000   0.5312   0.00617   0.00223  -0.1213  0.8130  0.8144  -0.6442   0.0000   0.0000   0.0000   0.4775
   0.100   0.5414   0.00615   0.00223  -0.1210  0.8099  0.8237  -0.6544   0.0000   0.0000   0.0000   0.4726
   0.200   0.5511   0.00612   0.00223  -0.1206  0.8067  0.8359  -0.6644   0.0000   0.0000   0.0000   0.4677
   0.300   0.5613   0.00611   0.00222  -0.1203  0.8034  0.8487  -0.6750   0.0000   0.0000   0.0000   0.4631
   0.400   0.5708   0.00608   0.00221  -0.1198  0.7998  0.8623  -0.6873   0.0000   0.0000   0.0000   0.4585
   0.500   0.5807   0.00607   0.00220  -0.1193  0.7960  0.8764  -0.6998   0.0000   0.0000   0.0000   0.4541
   0.600   0.5904   0.00607   0.00219  -0.1189  0.7917  0.8897  -0.7123   0.0000   0.0000   0.0000   0.4498
   0.700   0.5988   0.00604   0.00220  -0.1181  0.7887  0.9051  -0.7239   0.0000   0.0000   0.0000   0.4457
   0.800   0.6068   0.00599   0.00220  -0.1173  0.7855  0.9213  -0.7352   0.0000   0.0000   0.0000   0.4416
   0.900   0.6159   0.00596   0.00219  -0.1167  0.7820  0.9387  -0.7475   0.0000   0.0000   0.0000   0.4376
   1.000   0.6280   0.00592   0.00216  -0.1167  0.7782  0.9575  -0.7634   0.0000   0.0000   0.0000   0.4340
   1.100   0.6442   0.00590   0.00213  -0.1178  0.7738  0.9758  -0.7824   0.0000   0.0000   0.0000   0.4308
   1.300   0.6733   0.00591   0.00206  -0.1192  0.7636  1.0000  -0.8214   0.0000   0.0000   0.0000   0.4249
   1.400   0.6843   0.00594   0.00205  -0.1192  0.7588  1.0000  -0.8393   0.0000   0.0000   0.0000   0.4219
   1.500   0.6948   0.00595   0.00207  -0.1191  0.7550  1.0000  -0.8585   0.0000   0.0000   0.0000   0.4190
   1.600   0.7056   0.00597   0.00207  -0.1190  0.7505  1.0000  -0.8780   0.0000   0.0000   0.0000   0.4162
   1.700   0.7163   0.00599   0.00208  -0.1189  0.7456  1.0000  -0.8976   0.0000   0.0000   0.0000   0.4134
   1.800   0.7270   0.00601   0.00207  -0.1188  0.7401  1.0000  -0.9173   0.0000   0.0000   0.0000   0.4107
   1.900   0.7376   0.00605   0.00207  -0.1187  0.7342  1.0000  -0.9371   0.0000   0.0000   0.0000   0.4081
   2.000   0.7481   0.00610   0.00207  -0.1185  0.7278  1.0000  -0.9568   0.0000   0.0000   0.0000   0.4055
   2.100   0.7587   0.00612   0.00209  -0.1184  0.7227  1.0000  -0.9766   0.0000   0.0000   0.0000   0.4031
   2.200   0.7691   0.00615   0.00213  -0.1182  0.7162  1.0000  -0.9964   0.0000   0.0000   0.0000   0.4007
   2.300   0.7795   0.00619   0.00214  -0.1180  0.7089  1.0000  -1.0163   0.0000   0.0000   0.0000   0.3983
   2.400   0.7895   0.00624   0.00214  -0.1178  0.7005  1.0000  -1.0359   0.0000   0.0000   0.0000   0.3959
   2.500   0.7994   0.00631   0.00215  -0.1175  0.6923  1.0000  -1.0572   0.0000   0.0000   0.0000   0.3936
   2.600   0.8098   0.00634   0.00217  -0.1173  0.6846  1.0000  -1.0804   0.0000   0.0000   0.0000   0.3914
   2.700   0.8198   0.00640   0.00219  -0.1171  0.6754  1.0000  -1.1034   0.0000   0.0000   0.0000   0.3892
   2.800   0.8294   0.00648   0.00221  -0.1167  0.6657  1.0000  -1.1260   0.0000   0.0000   0.0000   0.3871
   2.900   0.8392   0.00655   0.00224  -0.1164  0.6572  1.0000  -1.1503   0.0000   0.0000   0.0000   0.3850
   3.000   0.8496   0.00660   0.00227  -0.1163  0.6494  1.0000  -1.1778   0.0000   0.0000   0.0000   0.3830
   3.100   0.8595   0.00667   0.00231  -0.1160  0.6402  1.0000  -1.2049   0.0000   0.0000   0.0000   0.3810
   3.200   0.8689   0.00676   0.00234  -0.1156  0.6302  1.0000  -1.2314   0.0000   0.0000   0.0000   0.3790
   3.300   0.8785   0.00685   0.00238  -0.1153  0.6213  1.0000  -1.2584   0.0000   0.0000   0.0000   0.3771
   3.400   0.8887   0.00691   0.00242  -0.1151  0.6122  1.0000  -1.2863   0.0000   0.0000   0.0000   0.3753
   3.500   0.8981   0.00701   0.00247  -0.1148  0.6009  1.0000  -1.3134   0.0000   0.0000   0.0000   0.3734
   3.600   0.9065   0.00715   0.00253  -0.1142  0.5884  1.0000  -1.3392   0.0000   0.0000   0.0000   0.3715
   3.700   0.9165   0.00722   0.00258  -0.1140  0.5774  1.0000  -1.3673   0.0000   0.0000   0.0000   0.3698
   3.800   0.9253   0.00735   0.00263  -0.1135  0.5630  1.0000  -1.3940   0.0000   0.0000   0.0000   0.3680
   3.900   0.9337   0.00750   0.00270  -0.1130  0.5491  1.0000  -1.4221   0.0000   0.0000   0.0000   0.3662
   4.000   0.9431   0.00760   0.00277  -0.1127  0.5356  1.0000  -1.4550   0.0000   0.0000   0.0000   0.3645
   4.100   0.9512   0.00777   0.00285  -0.1121  0.5201  1.0000  -1.4859   0.0000   0.0000   0.0000   0.3628
   4.200   0.9602   0.00790   0.00292  -0.1117  0.5066  1.0000  -1.5185   0.0000   0.0000   0.0000   0.3612
   4.300   0.9686   0.00806   0.00300  -0.1112  0.4899  1.0000  -1.5502   0.0000   0.0000   0.0000   0.3595
   4.400   0.9767   0.00824   0.00310  -0.1106  0.4739  1.0000  -1.5816   0.0000   0.0000   0.0000   0.3579
   4.500   0.9853   0.00840   0.00318  -0.1101  0.4570  1.0000  -1.6141   0.0000   0.0000   0.0000   0.3563
   4.600   0.9930   0.00861   0.00329  -0.1095  0.4403  1.0000  -1.6451   0.0000   0.0000   0.0000   0.3547
   4.700   1.0022   0.00874   0.00338  -0.1092  0.4265  1.0000  -1.6787   0.0000   0.0000   0.0000   0.3533
   4.800   1.0101   0.00895   0.00349  -0.1086  0.4107  1.0000  -1.7105   0.0000   0.0000   0.0000   0.3517
   4.900   1.0191   0.00910   0.00367  -0.1082  0.3978  1.0000  -1.7452   0.0000   0.0000   0.0000   0.3503
   5.000   1.0275   0.00927   0.00377  -0.1078  0.3824  1.0000  -1.7785   0.0000   0.0000   0.0000   0.3489
   5.100   1.0355   0.00948   0.00390  -0.1072  0.3667  1.0000  -1.8109   0.0000   0.0000   0.0000   0.3474
   5.200   1.0441   0.00966   0.00400  -0.1068  0.3513  1.0000  -1.8445   0.0000   0.0000   0.0000   0.3461
   5.300   1.0517   0.00990   0.00414  -0.1062  0.3342  1.0000  -1.8764   0.0000   0.0000   0.0000   0.3447
   5.400   1.0605   0.01006   0.00425  -0.1058  0.3206  1.0000  -1.9106   0.0000   0.0000   0.0000   0.3433
   5.500   1.0682   0.01031   0.00439  -0.1053  0.3048  1.0000  -1.9430   0.0000   0.0000   0.0000   0.3420
   5.600   1.0771   0.01046   0.00451  -0.1049  0.2934  1.0000  -1.9777   0.0000   0.0000   0.0000   0.3407
   5.700   1.0856   0.01065   0.00463  -0.1045  0.2810  1.0000  -2.0118   0.0000   0.0000   0.0000   0.3395
   5.800   1.0936   0.01087   0.00477  -0.1040  0.2676  1.0000  -2.0451   0.0000   0.0000   0.0000   0.3382
   5.900   1.1027   0.01101   0.00489  -0.1037  0.2583  1.0000  -2.0833   0.0000   0.0000   0.0000   0.3370
   6.000   1.1110   0.01122   0.00502  -0.1032  0.2465  1.0000  -2.1336   0.0000   0.0000   0.0000   0.3358
   6.100   1.1192   0.01143   0.00517  -0.1028  0.2349  1.0000  -2.1842   0.0000   0.0000   0.0000   0.3345
   6.200   1.1282   0.01158   0.00529  -0.1024  0.2263  1.0000  -2.2372   0.0000   0.0000   0.0000   0.3334
   6.300   1.1363   0.01179   0.00543  -0.1020  0.2161  1.0000  -2.2884   0.0000   0.0000   0.0000   0.3322
   6.400   1.1445   0.01200   0.00558  -0.1015  0.2054  1.0000  -2.3399   0.0000   0.0000   0.0000   0.3310
   6.500   1.1535   0.01214   0.00571  -0.1012  0.1985  1.0000  -2.3943   0.0000   0.0000   0.0000   0.3299
   6.600   1.1618   0.01233   0.00586  -0.1007  0.1900  1.0000  -2.4470   0.0000   0.0000   0.0000   0.3288
   6.700   1.1696   0.01256   0.00601  -0.1002  0.1801  1.0000  -2.4987   0.0000   0.0000   0.0000   0.3277
   6.800   1.1785   0.01271   0.00615  -0.0999  0.1738  1.0000  -2.5536   0.0000   0.0000   0.0000   0.3266
   6.900   1.1871   0.01288   0.00630  -0.0995  0.1674  1.0000  -2.6084   0.0000   0.0000   0.0000   0.3255
   7.000   1.1950   0.01309   0.00646  -0.0990  0.1601  1.0000  -2.6614   0.0000   0.0000   0.0000   0.3244
   7.100   1.2028   0.01332   0.00663  -0.0985  0.1512  1.0000  -2.7140   0.0000   0.0000   0.0000   0.3233
   7.200   1.2117   0.01346   0.00677  -0.0981  0.1469  1.0000  -2.7708   0.0000   0.0000   0.0000   0.3223
   7.300   1.2201   0.01363   0.00692  -0.0977  0.1414  1.0000  -2.8265   0.0000   0.0000   0.0000   0.3213
   7.400   1.2278   0.01385   0.00709  -0.0972  0.1350  1.0000  -2.8803   0.0000   0.0000   0.0000   0.3202
   7.500   1.2352   0.01410   0.00728  -0.0966  0.1271  1.0000  -2.9332   0.0000   0.0000   0.0000   0.3191
   7.600   1.2438   0.01424   0.00742  -0.0962  0.1234  1.0000  -2.9906   0.0000   0.0000   0.0000   0.3181
   7.700   1.2517   0.01442   0.00768  -0.0957  0.1187  1.0000  -3.0458   0.0000   0.0000   0.0000   0.3171
   7.800   1.2592   0.01463   0.00786  -0.0951  0.1141  1.0000  -3.1005   0.0000   0.0000   0.0000   0.3161
   7.900   1.2661   0.01487   0.00805  -0.0944  0.1088  1.0000  -3.1536   0.0000   0.0000   0.0000   0.3150
   8.000   1.2728   0.01512   0.00827  -0.0937  0.1026  1.0000  -3.2055   0.0000   0.0000   0.0000   0.3139
   8.100   1.2814   0.01523   0.00841  -0.0933  0.1008  1.0000  -3.2654   0.0000   0.0000   0.0000   0.3129
   8.200   1.2895   0.01538   0.00856  -0.0928  0.0979  1.0000  -3.3237   0.0000   0.0000   0.0000   0.3120
   8.300   1.2969   0.01557   0.00874  -0.0923  0.0942  1.0000  -3.3803   0.0000   0.0000   0.0000   0.3110
   8.400   1.3038   0.01581   0.00893  -0.0916  0.0901  1.0000  -3.4352   0.0000   0.0000   0.0000   0.3100
   8.500   1.3102   0.01608   0.00916  -0.0909  0.0851  1.0000  -3.4883   0.0000   0.0000   0.0000   0.3089
   8.600   1.3171   0.01631   0.00939  -0.0902  0.0815  1.0000  -3.5428   0.0000   0.0000   0.0000   0.3079
   8.700   1.3255   0.01643   0.00953  -0.0898  0.0802  1.0000  -3.6040   0.0000   0.0000   0.0000   0.3070
   8.800   1.3334   0.01658   0.00970  -0.0893  0.0784  1.0000  -3.6639   0.0000   0.0000   0.0000   0.3061
   8.900   1.3409   0.01676   0.00988  -0.0888  0.0762  1.0000  -3.7225   0.0000   0.0000   0.0000   0.3052
   9.000   1.3481   0.01697   0.01008  -0.0882  0.0738  1.0000  -3.7867   0.0000   0.0000   0.0000   0.3043
   9.100   1.3548   0.01720   0.01030  -0.0875  0.0713  1.0000  -3.8560   0.0000   0.0000   0.0000   0.3033
   9.200   1.3611   0.01747   0.01053  -0.0868  0.0683  1.0000  -3.9236   0.0000   0.0000   0.0000   0.3023
   9.300   1.3667   0.01777   0.01083  -0.0860  0.0647  1.0000  -3.9876   0.0000   0.0000   0.0000   0.3013
   9.400   1.3737   0.01798   0.01105  -0.0854  0.0629  1.0000  -4.0588   0.0000   0.0000   0.0000   0.3004
   9.500   1.3818   0.01811   0.01120  -0.0850  0.0618  1.0000  -4.1372   0.0000   0.0000   0.0000   0.2996
   9.600   1.3896   0.01827   0.01137  -0.0845  0.0602  1.0000  -4.2143   0.0000   0.0000   0.0000   0.2988
   9.700   1.3968   0.01846   0.01155  -0.0840  0.0582  1.0000  -4.2897   0.0000   0.0000   0.0000   0.2979
   9.800   1.4034   0.01869   0.01176  -0.0834  0.0558  1.0000  -4.3632   0.0000   0.0000   0.0000   0.2970
   9.900   1.4095   0.01896   0.01200  -0.0827  0.0532  1.0000  -4.4344   0.0000   0.0000   0.0000   0.2961
  10.000   1.4151   0.01927   0.01228  -0.0819  0.0501  1.0000  -4.5028   0.0000   0.0000   0.0000   0.2952
  10.100   1.4201   0.01961   0.01261  -0.0811  0.0471  1.0000  -4.5678   0.0000   0.0000   0.0000   0.2943
  10.200   1.4279   0.01974   0.01277  -0.0807  0.0464  1.0000  -4.6494   0.0000   0.0000   0.0000   0.2935
  10.300   1.4356   0.01990   0.01296  -0.0803  0.0443  1.0000  -4.7305   0.0000   0.0000   0.0000   0.2928
  10.400   1.4421   0.02013   0.01319  -0.0797  0.0425  1.0000  -4.8057   0.0000   0.0000   0.0000   0.2919
  10.500   1.4485   0.02038   0.01344  -0.0791  0.0410  1.0000  -4.8802   0.0000   0.0000   0.0000   0.2911
  10.600   1.4546   0.02064   0.01370  -0.0784  0.0396  1.0000  -4.9538   0.0000   0.0000   0.0000   0.2903
  10.700   1.4604   0.02093   0.01399  -0.0777  0.0380  1.0000  -5.0264   0.0000   0.0000   0.0000   0.2894
  10.800   1.4659   0.02124   0.01429  -0.0770  0.0364  1.0000  -5.0981   0.0000   0.0000   0.0000   0.2886
  10.900   1.4714   0.02155   0.01461  -0.0763  0.0347  1.0000  -5.1691   0.0000   0.0000   0.0000   0.2877
  11.000   1.4767   0.02187   0.01494  -0.0756  0.0333  1.0000  -5.2395   0.0000   0.0000   0.0000   0.2869
  11.100   1.4833   0.02210   0.01519  -0.0750  0.0329  1.0000  -5.3176   0.0000   0.0000   0.0000   0.2861
  11.200   1.4896   0.02234   0.01547  -0.0744  0.0324  1.0000  -5.3950   0.0000   0.0000   0.0000   0.2853
  11.300   1.4956   0.02261   0.01576  -0.0738  0.0317  1.0000  -5.4713   0.0000   0.0000   0.0000   0.2845
  11.400   1.5014   0.02289   0.01606  -0.0732  0.0308  1.0000  -5.5469   0.0000   0.0000   0.0000   0.2838
  11.500   1.5070   0.02319   0.01637  -0.0725  0.0299  1.0000  -5.6222   0.0000   0.0000   0.0000   0.2830
  11.600   1.5125   0.02351   0.01670  -0.0719  0.0288  1.0000  -5.6971   0.0000   0.0000   0.0000   0.2822
  11.700   1.5177   0.02384   0.01704  -0.0712  0.0277  1.0000  -5.7715   0.0000   0.0000   0.0000   0.2814
  11.800   1.5227   0.02420   0.01739  -0.0705  0.0265  1.0000  -5.8446   0.0000   0.0000   0.0000   0.2807
  11.900   1.5273   0.02458   0.01777  -0.0698  0.0253  1.0000  -5.9165   0.0000   0.0000   0.0000   0.2799
  12.000   1.5319   0.02497   0.01816  -0.0691  0.0241  1.0000  -5.9880   0.0000   0.0000   0.0000   0.2791
  12.100   1.5365   0.02537   0.01857  -0.0684  0.0228  1.0000  -6.0590   0.0000   0.0000   0.0000   0.2783
  12.200   1.5412   0.02575   0.01898  -0.0677  0.0218  1.0000  -6.1307   0.0000   0.0000   0.0000   0.2776
  12.300   1.5465   0.02609   0.01935  -0.0672  0.0215  1.0000  -6.2074   0.0000   0.0000   0.0000   0.2769
  12.400   1.5514   0.02646   0.01974  -0.0665  0.0211  1.0000  -6.2893   0.0000   0.0000   0.0000   0.2761
  12.500   1.5560   0.02684   0.02015  -0.0659  0.0206  1.0000  -6.4059   0.0000   0.0000   0.0000   0.2754
  12.600   1.5604   0.02724   0.02056  -0.0652  0.0201  1.0000  -6.5220   0.0000   0.0000   0.0000   0.2747
  12.700   1.5648   0.02764   0.02099  -0.0645  0.0196  1.0000  -6.6386   0.0000   0.0000   0.0000   0.2740
  12.800   1.5692   0.02806   0.02143  -0.0639  0.0190  1.0000  -6.7555   0.0000   0.0000   0.0000   0.2732
  12.900   1.5734   0.02849   0.02188  -0.0633  0.0185  1.0000  -6.8724   0.0000   0.0000   0.0000   0.2725
  13.000   1.5772   0.02896   0.02236  -0.0626  0.0179  1.0000  -6.9871   0.0000   0.0000   0.0000   0.2718
  13.100   1.5808   0.02944   0.02287  -0.0619  0.0173  1.0000  -7.1003   0.0000   0.0000   0.0000   0.2711
  13.200   1.5844   0.02995   0.02338  -0.0613  0.0168  1.0000  -7.2135   0.0000   0.0000   0.0000   0.2704
  13.300   1.5879   0.03046   0.02390  -0.0606  0.0162  1.0000  -7.3272   0.0000   0.0000   0.0000   0.2698
  13.400   1.5914   0.03098   0.02444  -0.0600  0.0156  1.0000  -7.4415   0.0000   0.0000   0.0000   0.2691
  13.500   1.5950   0.03150   0.02503  -0.0594  0.0154  1.0000  -7.5623   0.0000   0.0000   0.0000   0.2684
  13.600   1.5981   0.03205   0.02562  -0.0588  0.0149  1.0000  -7.6761   0.0000   0.0000   0.0000   0.2678
  13.700   1.6011   0.03262   0.02621  -0.0581  0.0144  1.0000  -7.7883   0.0000   0.0000   0.0000   0.2671
  13.800   1.6041   0.03320   0.02683  -0.0575  0.0139  1.0000  -7.9001   0.0000   0.0000   0.0000   0.2665
  13.900   1.6070   0.03379   0.02745  -0.0569  0.0135  1.0000  -8.0120   0.0000   0.0000   0.0000   0.2658
  14.000   1.6099   0.03440   0.02810  -0.0563  0.0130  1.0000  -8.1230   0.0000   0.0000   0.0000   0.2652
  14.100   1.6134   0.03494   0.02866  -0.0558  0.0129  1.0000  -8.2428   0.0000   0.0000   0.0000   0.2646
  14.200   1.6167   0.03550   0.02926  -0.0553  0.0128  1.0000  -8.3611   0.0000   0.0000   0.0000   0.2640
  14.300   1.6198   0.03608   0.02988  -0.0548  0.0127  1.0000  -8.4784   0.0000   0.0000   0.0000   0.2634
  14.400   1.6230   0.03666   0.03049  -0.0543  0.0125  1.0000  -8.5965   0.0000   0.0000   0.0000   0.2629
  14.500   1.6262   0.03725   0.03112  -0.0538  0.0124  1.0000  -8.7149   0.0000   0.0000   0.0000   0.2623
  14.600   1.6292   0.03785   0.03175  -0.0534  0.0122  1.0000  -8.8330   0.0000   0.0000   0.0000   0.2617
  14.700   1.6319   0.03848   0.03241  -0.0529  0.0119  1.0000  -8.9476   0.0000   0.0000   0.0000   0.2612
  14.800   1.6339   0.03917   0.03314  -0.0524  0.0117  1.0000  -9.0555   0.0000   0.0000   0.0000   0.2606
  14.900   1.6356   0.03990   0.03390  -0.0519  0.0114  1.0000  -9.1613   0.0000   0.0000   0.0000   0.2601
  15.000   1.6374   0.04063   0.03466  -0.0514  0.0110  1.0000  -9.2681   0.0000   0.0000   0.0000   0.2595
  15.100   1.6392   0.04137   0.03543  -0.0510  0.0107  1.0000  -9.3753   0.0000   0.0000   0.0000   0.2590
  15.200   1.6409   0.04214   0.03623  -0.0506  0.0102  1.0000  -9.4813   0.0000   0.0000   0.0000   0.2585
  15.300   1.6421   0.04298   0.03709  -0.0502  0.0098  1.0000  -9.5821   0.0000   0.0000   0.0000   0.2580
  15.400   1.6425   0.04392   0.03805  -0.0498  0.0093  1.0000  -9.6747   0.0000   0.0000   0.0000   0.2575
  15.500   1.6427   0.04488   0.03905  -0.0494  0.0088  1.0000  -9.7658   0.0000   0.0000   0.0000   0.2571
  15.600   1.6429   0.04588   0.04006  -0.0490  0.0082  1.0000  -9.8554   0.0000   0.0000   0.0000   0.2566
  15.700   1.6429   0.04692   0.04112  -0.0487  0.0076  1.0000  -9.9420   0.0000   0.0000   0.0000   0.2562
  15.800   1.6422   0.04804   0.04226  -0.0484  0.0070  1.0000  -10.0215   0.0000   0.0000   0.0000   0.2558
  15.900   1.6415   0.04919   0.04344  -0.0481  0.0064  1.0000  -10.0996   0.0000   0.0000   0.0000   0.2554
  16.000   1.6416   0.05026   0.04456  -0.0479  0.0061  1.0000  -10.1842   0.0000   0.0000   0.0000   0.2551
  16.100   1.6414   0.05137   0.04571  -0.0477  0.0058  1.0000  -10.2660   0.0000   0.0000   0.0000   0.2547
  16.200   1.6402   0.05263   0.04700  -0.0475  0.0052  1.0000  -10.3366   0.0000   0.0000   0.0000   0.2544
  16.300   1.6368   0.05418   0.04859  -0.0474  0.0044  1.0000  -10.3858   0.0000   0.0000   0.0000   0.2541
  16.400   1.6331   0.05580   0.05024  -0.0473  0.0037  1.0000  -10.4299   0.0000   0.0000   0.0000   0.2539
  16.500   1.6288   0.05750   0.05198  -0.0472  0.0030  1.0000  -10.4684   0.0000   0.0000   0.0000   0.2537
  16.600   1.6237   0.05936   0.05387  -0.0473  0.0025  1.0000  -10.4976   0.0000   0.0000   0.0000   0.2536
  16.700   1.6193   0.06115   0.05570  -0.0474  0.0021  1.0000  -10.5333   0.0000   0.0000   0.0000   0.2535
  16.800   1.6171   0.06269   0.05729  -0.0475  0.0020  1.0000  -10.5892   0.0000   0.0000   0.0000   0.2534
  16.900   1.6145   0.06428   0.05894  -0.0477  0.0020  1.0000  -10.6422   0.0000   0.0000   0.0000   0.2533
  17.000   1.6109   0.06607   0.06078  -0.0480  0.0019  1.0000  -10.6834   0.0000   0.0000   0.0000   0.2533
  17.100   1.6079   0.06780   0.06256  -0.0483  0.0019  1.0000  -10.7296   0.0000   0.0000   0.0000   0.2533
  17.200   1.6050   0.06950   0.06432  -0.0486  0.0018  1.0000  -10.7772   0.0000   0.0000   0.0000   0.2533
  17.300   1.6008   0.07141   0.06629  -0.0491  0.0018  1.0000  -10.8107   0.0000   0.0000   0.0000   0.2534
  17.400   1.5965   0.07335   0.06829  -0.0496  0.0017  1.0000  -10.8417   0.0000   0.0000   0.0000   0.2536
  17.500   1.5927   0.07522   0.07022  -0.0500  0.0017  1.0000  -10.8776   0.0000   0.0000   0.0000   0.2537
  17.600   1.5884   0.07723   0.07229  -0.0506  0.0017  1.0000  -10.9069   0.0000   0.0000   0.0000   0.2539
  17.700   1.5833   0.07944   0.07456  -0.0513  0.0017  1.0000  -10.9265   0.0000   0.0000   0.0000   0.2542
  17.800   1.5789   0.08152   0.07671  -0.0520  0.0016  1.0000  -10.9537   0.0000   0.0000   0.0000   0.2545
  17.900   1.5744   0.08368   0.07893  -0.0528  0.0016  1.0000  -10.9774   0.0000   0.0000   0.0000   0.2548
  18.000   1.5686   0.08613   0.08144  -0.0537  0.0016  1.0000  -10.9854   0.0000   0.0000   0.0000   0.2553
  18.100   1.5637   0.08842   0.08379  -0.0546  0.0016  1.0000  -11.0027   0.0000   0.0000   0.0000   0.2557
  18.200   1.5587   0.09076   0.08620  -0.0555  0.0015  1.0000  -11.0177   0.0000   0.0000   0.0000   0.2561
  18.300   1.5522   0.09343   0.08894  -0.0567  0.0015  1.0000  -11.0132   0.0000   0.0000   0.0000   0.2568
  18.400   1.5467   0.09591   0.09148  -0.0578  0.0015  1.0000  -11.0198   0.0000   0.0000   0.0000   0.2574
  18.500   1.5409   0.09848   0.09411  -0.0589  0.0015  1.0000  -11.0210   0.0000   0.0000   0.0000   0.2580
  18.600   1.5338   0.10135   0.09705  -0.0603  0.0015  1.0000  -11.0042   0.0000   0.0000   0.0000   0.2588
  18.700   1.5279   0.10398   0.09974  -0.0615  0.0015  1.0000  -11.0008   0.0000   0.0000   0.0000   0.2596
  18.800   1.5210   0.10683   0.10267  -0.0630  0.0015  1.0000  -10.9831   0.0000   0.0000   0.0000   0.2604
  18.900   1.5136   0.10982   0.10572  -0.0645  0.0015  1.0000  -10.9564   0.0000   0.0000   0.0000   0.2614
  19.000   1.5073   0.11259   0.10855  -0.0659  0.0015  1.0000  -10.9419   0.0000   0.0000   0.0000   0.2623
  19.100   1.4991   0.11579   0.11182  -0.0676  0.0015  1.0000  -10.9000   0.0000   0.0000   0.0000   0.2634
  19.200   1.4917   0.11882   0.11492  -0.0692  0.0015  1.0000  -10.8675   0.0000   0.0000   0.0000   0.2645
  19.300   1.4848   0.12176   0.11793  -0.0708  0.0015  1.0000  -10.8378   0.0000   0.0000   0.0000   0.2656
  19.400   1.4757   0.12522   0.12146  -0.0728  0.0015  1.0000  -10.7757   0.0000   0.0000   0.0000   0.2670
  19.500   1.4683   0.12828   0.12458  -0.0745  0.0015  1.0000  -10.7358   0.0000   0.0000   0.0000   0.2682
  19.600   1.4599   0.13160   0.12797  -0.0765  0.0015  1.0000  -10.6780   0.0000   0.0000   0.0000   0.2696
  19.700   1.4512   0.13504   0.13147  -0.0785  0.0015  1.0000  -10.6113   0.0000   0.0000   0.0000   0.2711
  19.800   1.4437   0.13818   0.13467  -0.0803  0.0015  1.0000  -10.5609   0.0000   0.0000   0.0000   0.2724
  19.900   1.4341   0.14186   0.13842  -0.0826  0.0015  1.0000  -10.4744   0.0000   0.0000   0.0000   0.2742
  20.000   1.4258   0.14522   0.14184  -0.0846  0.0015  1.0000  -10.4057   0.0000   0.0000   0.0000   0.2757
  20.100   1.4182   0.14846   0.14514  -0.0866  0.0015  1.0000  -10.3426   0.0000   0.0000   0.0000   0.2772
  20.200   1.4081   0.15214   0.14889  -0.0890  0.0016  1.0000  -10.2365   0.0000   0.0000   0.0000   0.2792
  20.300   1.4007   0.15520   0.15200  -0.0911  0.0016  1.0000  -10.1672   0.0000   0.0000   0.0000   0.2808
  20.400   1.3926   0.15844   0.15530  -0.0933  0.0016  1.0000  -10.0843   0.0000   0.0000   0.0000   0.2826
  20.500   1.3829   0.16217   0.15909  -0.0958  0.0016  1.0000  -9.9711   0.0000   0.0000   0.0000   0.2847
  20.600   1.3754   0.16545   0.16243  -0.0979  0.0016  1.0000  -9.8908   0.0000   0.0000   0.0000   0.2865
  20.700   1.3667   0.16915   0.16619  -0.1003  0.0016  1.0000  -9.7849   0.0000   0.0000   0.0000   0.2885
  20.800   1.3573   0.17310   0.17021  -0.1028  0.0017  1.0000  -9.6631   0.0000   0.0000   0.0000   0.2907
  20.900   1.3501   0.17660   0.17375  -0.1050  0.0017  1.0000  -9.5757   0.0000   0.0000   0.0000   0.2926
  21.000   1.3416   0.18049   0.17770  -0.1075  0.0017  1.0000  -9.4621   0.0000   0.0000   0.0000   0.2948
  21.100   1.3318   0.18487   0.18214  -0.1101  0.0017  1.0000  -9.3182   0.0000   0.0000   0.0000   0.2972
  21.200   1.3247   0.18861   0.18593  -0.1124  0.0018  1.0000  -9.2191   0.0000   0.0000   0.0000   0.2992
  21.300   1.3173   0.19249   0.18986  -0.1147  0.0018  1.0000  -9.1124   0.0000   0.0000   0.0000   0.3013
  21.400   1.3064   0.19751   0.19495  -0.1176  0.0018  1.0000  -8.9307   0.0000   0.0000   0.0000   0.3042
  21.500   1.2994   0.20147   0.19896  -0.1198  0.0018  1.0000  -8.8216   0.0000   0.0000   0.0000   0.3063
  21.600   1.2927   0.20546   0.20299  -0.1221  0.0019  1.0000  -8.7126   0.0000   0.0000   0.0000   0.3084
  21.700   1.2821   0.21077   0.20837  -0.1250  0.0019  1.0000  -8.5172   0.0000   0.0000   0.0000   0.3114
  21.800   1.2750   0.21509   0.21272  -0.1273  0.0020  1.0000  -8.3900   0.0000   0.0000   0.0000   0.3137
  21.900   1.2691   0.21909   0.21677  -0.1294  0.0020  1.0000  -8.2841   0.0000   0.0000   0.0000   0.3157
  22.000   1.2629   0.22329   0.22101  -0.1316  0.0020  1.0000  -8.1664   0.0000   0.0000   0.0000   0.3179
  22.900   1.2125   0.26310   0.26115  -0.1500  0.0023  1.0000  -7.0295   0.0000   0.0000   0.0000   0.3368
  23.000   1.2082   0.26745   0.26554  -0.1518  0.0023  1.0000  -6.9102   0.0000   0.0000   0.0000   0.3387
  23.100   1.2020   0.27274   0.27087  -0.1538  0.0024  1.0000  -6.7335   0.0000   0.0000   0.0000   0.3410
  23.200   1.1979   0.27716   0.27531  -0.1555  0.0023  1.0000  -6.6118   0.0000   0.0000   0.0000   0.3428
  23.300   1.1949   0.28106   0.27923  -0.1570  0.0022  1.0000  -6.5213   0.0000   0.0000   0.0000   0.3443
  23.400   1.1927   0.28463   0.28281  -0.1584  0.0021  1.0000  -6.4491   0.0000   0.0000   0.0000   0.3455
  23.500   1.1911   0.28791   0.28610  -0.1596  0.0020  1.0000  -6.3973   0.0000   0.0000   0.0000   0.3466
  23.600   1.1896   0.29118   0.28939  -0.1608  0.0020  1.0000  -6.3456   0.0000   0.0000   0.0000   0.3476
  23.700   1.1879   0.29452   0.29275  -0.1620  0.0019  1.0000  -6.2887   0.0000   0.0000   0.0000   0.3487
  23.800   1.1859   0.29805   0.29630  -0.1633  0.0019  1.0000  -6.2195   0.0000   0.0000   0.0000   0.3498
  23.900   1.1831   0.30200   0.30027  -0.1646  0.0019  1.0000  -6.1225   0.0000   0.0000   0.0000   0.3512
  24.000   1.1749   0.30907   0.30738  -0.1665  0.0019  1.0000  -5.8224   0.0000   0.0000   0.0000   0.3540
  24.100   1.1656   0.31695   0.31530  -0.1685  0.0019  1.0000  -5.4620   0.0000   0.0000   0.0000   0.3571
  24.200   1.1216   0.34642   0.34472  -0.1723  0.0019  1.0000  -3.5267   0.0000   0.0000   0.0000   0.3682
  24.300   1.1133   0.35290   0.35119  -0.1728  0.0020  1.0000  -3.2091   0.0000   0.0000   0.0000   0.3700
  24.400   1.1033   0.35890   0.35720  -0.1729  0.0021  1.0000  -2.9037   0.0000   0.0000   0.0000   0.3716
  24.500   1.1017   0.36079   0.35910  -0.1731  0.0021  1.0000  -2.9156   0.0000   0.0000   0.0000   0.3719
  24.600   1.0994   0.36262   0.36094  -0.1733  0.0022  1.0000  -2.9242   0.0000   0.0000   0.0000   0.3722
  24.700   1.0959   0.36436   0.36269  -0.1733  0.0022  1.0000  -2.9261   0.0000   0.0000   0.0000   0.3725
  25.300   0.9016   0.33589   0.33441  -0.1491  0.0062  1.0000  -1.4681   0.0000   0.0000   0.0000   0.3834
  25.400   0.8991   0.33622   0.33475  -0.1492  0.0062  1.0000  -1.4500   0.0000   0.0000   0.0000   0.3839
  25.500   0.8969   0.33658   0.33511  -0.1493  0.0062  1.0000  -1.4327   0.0000   0.0000   0.0000   0.3843
  25.600   0.8947   0.33695   0.33549  -0.1494  0.0062  1.0000  -1.4160   0.0000   0.0000   0.0000   0.3846
  25.700   0.8926   0.33734   0.33588  -0.1495  0.0062  1.0000  -1.4000   0.0000   0.0000   0.0000   0.3850
  25.800   0.8907   0.33774   0.33629  -0.1496  0.0062  1.0000  -1.3845   0.0000   0.0000   0.0000   0.3854
  25.900   0.8889   0.33816   0.33671  -0.1497  0.0062  1.0000  -1.3694   0.0000   0.0000   0.0000   0.3858
  26.000   0.8871   0.33858   0.33715  -0.1499  0.0062  1.0000  -1.3547   0.0000   0.0000   0.0000   0.3862
  26.100   0.8854   0.33902   0.33759  -0.1500  0.0062  1.0000  -1.3405   0.0000   0.0000   0.0000   0.3865
  26.200   0.8838   0.33947   0.33805  -0.1502  0.0062  1.0000  -1.3267   0.0000   0.0000   0.0000   0.3869
  26.300   0.8823   0.33993   0.33851  -0.1504  0.0062  1.0000  -1.3134   0.0000   0.0000   0.0000   0.3873
  26.400   0.8808   0.34040   0.33898  -0.1506  0.0062  1.0000  -1.3003   0.0000   0.0000   0.0000   0.3876
  26.500   0.8794   0.34088   0.33946  -0.1508  0.0062  1.0000  -1.2877   0.0000   0.0000   0.0000   0.3880
  26.600   0.8781   0.34136   0.33995  -0.1510  0.0062  1.0000  -1.2754   0.0000   0.0000   0.0000   0.3883
  26.700   0.8768   0.34185   0.34045  -0.1512  0.0062  1.0000  -1.2635   0.0000   0.0000   0.0000   0.3887
  26.800   0.8755   0.34235   0.34096  -0.1514  0.0062  1.0000  -1.2518   0.0000   0.0000   0.0000   0.3890
  26.900   0.8744   0.34286   0.34147  -0.1517  0.0062  1.0000  -1.2405   0.0000   0.0000   0.0000   0.3894
  27.000   0.8732   0.34337   0.34198  -0.1519  0.0062  1.0000  -1.2294   0.0000   0.0000   0.0000   0.3897
  27.100   0.8722   0.34389   0.34251  -0.1522  0.0062  1.0000  -1.2187   0.0000   0.0000   0.0000   0.3901
  27.200   0.8711   0.34442   0.34304  -0.1524  0.0062  1.0000  -1.2082   0.0000   0.0000   0.0000   0.3904
  27.300   0.8701   0.34495   0.34358  -0.1527  0.0062  1.0000  -1.1980   0.0000   0.0000   0.0000   0.3907
  27.400   0.8692   0.34549   0.34415  -0.1529  0.0062  1.0000  -1.1875   0.0000   0.0000   0.0000   0.3911
  27.500   0.8683   0.34604   0.34470  -0.1532  0.0061  1.0000  -1.1773   0.0000   0.0000   0.0000   0.3914
  27.600   0.8674   0.34660   0.34527  -0.1535  0.0061  1.0000  -1.1674   0.0000   0.0000   0.0000   0.3917
  27.700   0.8666   0.34717   0.34584  -0.1538  0.0061  1.0000  -1.1577   0.0000   0.0000   0.0000   0.3921
  27.800   0.8658   0.34774   0.34642  -0.1541  0.0061  1.0000  -1.1482   0.0000   0.0000   0.0000   0.3924
  27.900   0.8650   0.34832   0.34700  -0.1544  0.0061  1.0000  -1.1390   0.0000   0.0000   0.0000   0.3927
  28.000   0.8643   0.34893   0.34762  -0.1547  0.0061  1.0000  -1.1283   0.0000   0.0000   0.0000   0.3931
  28.100   0.8636   0.34957   0.34826  -0.1551  0.0061  1.0000  -1.1171   0.0000   0.0000   0.0000   0.3934
  28.200   0.8630   0.35022   0.34892  -0.1554  0.0060  1.0000  -1.1060   0.0000   0.0000   0.0000   0.3938
  28.300   0.8624   0.35090   0.34960  -0.1558  0.0060  1.0000  -1.0949   0.0000   0.0000   0.0000   0.3941
  28.400   0.8619   0.35159   0.35030  -0.1561  0.0060  1.0000  -1.0836   0.0000   0.0000   0.0000   0.3945
  28.500   0.8615   0.35232   0.35103  -0.1565  0.0059  1.0000  -1.0720   0.0000   0.0000   0.0000   0.3948
  28.600   0.8612   0.35310   0.35181  -0.1569  0.0058  1.0000  -1.0596   0.0000   0.0000   0.0000   0.3952
  28.700   0.8611   0.35393   0.35265  -0.1573  0.0057  1.0000  -1.0457   0.0000   0.0000   0.0000   0.3955
  28.800   0.8610   0.35480   0.35352  -0.1577  0.0056  1.0000  -1.0302   0.0000   0.0000   0.0000   0.3958
  28.900   0.8609   0.35559   0.35432  -0.1581  0.0054  1.0000  -1.0158   0.0000   0.0000   0.0000   0.3961
  29.000   0.8605   0.35629   0.35503  -0.1584  0.0052  1.0000  -1.0044   0.0000   0.0000   0.0000   0.3964


