xflr5 v6.61

 Calculated polar for: SG6042

 1 1 Reynolds number fixed          Mach number fixed         

 xtrf =   1.000 (top)        1.000 (bottom)
 Mach =   0.000     Re =     0.500 e 6     Ncrit =   9.000

  alpha     CL        CD       CDp       Cm    Top Xtr Bot Xtr   Cpmin    Chinge    XCp    
 ------- -------- --------- --------- -------- ------- ------- -------- --------- ---------
  -9.900  -0.3550   0.11305   0.11067  -0.0339  1.0000  0.0111  -1.9420   0.0000   0.0000   0.0000   0.1445
  -9.800  -0.3596   0.11149   0.10912  -0.0334  1.0000  0.0112  -1.9975   0.0000   0.0000   0.0000   0.1472
  -9.700  -0.3633   0.11030   0.10795  -0.0328  1.0000  0.0113  -2.0291   0.0000   0.0000   0.0000   0.1500
  -9.600  -0.3637   0.10875   0.10640  -0.0332  0.9998  0.0114  -2.0548   0.0000   0.0000   0.0000   0.1492
  -9.500  -0.3599   0.10677   0.10442  -0.0348  0.9992  0.0115  -2.0717   0.0000   0.0000   0.0000   0.1440
  -9.400  -0.3558   0.10491   0.10257  -0.0363  0.9986  0.0116  -2.0804   0.0000   0.0000   0.0000   0.1386
  -9.300  -0.3514   0.10314   0.10080  -0.0378  0.9981  0.0117  -2.0846   0.0000   0.0000   0.0000   0.1330
  -9.200  -0.3470   0.10142   0.09907  -0.0393  0.9974  0.0118  -2.0861   0.0000   0.0000   0.0000   0.1274
  -9.100  -0.3425   0.09972   0.09738  -0.0408  0.9967  0.0118  -2.0862   0.0000   0.0000   0.0000   0.1215
  -9.000  -0.3379   0.09805   0.09571  -0.0423  0.9959  0.0119  -2.0854   0.0000   0.0000   0.0000   0.1153
  -8.900  -0.3330   0.09644   0.09410  -0.0438  0.9952  0.0120  -2.0785   0.0000   0.0000   0.0000   0.1090
  -8.800  -0.3278   0.09486   0.09253  -0.0453  0.9945  0.0121  -2.0690   0.0000   0.0000   0.0000   0.1023
  -8.700  -0.3224   0.09326   0.09092  -0.0469  0.9938  0.0122  -2.0598   0.0000   0.0000   0.0000   0.0949
  -8.600  -0.3168   0.09163   0.08930  -0.0486  0.9932  0.0123  -2.0514   0.0000   0.0000   0.0000   0.0869
  -8.500  -0.3110   0.08999   0.08765  -0.0504  0.9926  0.0124  -2.0439   0.0000   0.0000   0.0000   0.0783
  -8.400  -0.3062   0.08842   0.08609  -0.0519  0.9913  0.0124  -2.0378   0.0000   0.0000   0.0000   0.0709
  -8.300  -0.3012   0.08682   0.08449  -0.0535  0.9899  0.0125  -2.0328   0.0000   0.0000   0.0000   0.0627
  -8.200  -0.2958   0.08518   0.08285  -0.0552  0.9886  0.0126  -2.0290   0.0000   0.0000   0.0000   0.0535
  -8.100  -0.2901   0.08349   0.08117  -0.0572  0.9874  0.0127  -2.0266   0.0000   0.0000   0.0000   0.0432
  -8.000  -0.2841   0.08174   0.07942  -0.0593  0.9863  0.0128  -2.0258   0.0000   0.0000   0.0000   0.0314
  -7.900  -0.2777   0.07994   0.07762  -0.0616  0.9853  0.0129  -2.0269   0.0000   0.0000   0.0000   0.0184
  -7.800  -0.2711   0.07808   0.07576  -0.0640  0.9844  0.0130  -2.0303   0.0000   0.0000   0.0000   0.0037
  -7.700  -0.2655   0.07626   0.07395  -0.0663  0.9829  0.0131  -2.0376   0.0000   0.0000   0.0000  -0.0099
  -7.600  -0.2629   0.07465   0.07234  -0.0678  0.9795  0.0131  -2.0507   0.0000   0.0000   0.0000  -0.0180
  -7.500  -0.2580   0.07278   0.07047  -0.0702  0.9771  0.0132  -2.0650   0.0000   0.0000   0.0000  -0.0323
  -7.400  -0.2515   0.07065   0.06835  -0.0734  0.9752  0.0133  -2.0822   0.0000   0.0000   0.0000  -0.0519
  -7.300  -0.2419   0.06807   0.06577  -0.0778  0.9738  0.0134  -2.1028   0.0000   0.0000   0.0000  -0.0817
  -7.200  -0.2315   0.06525   0.06294  -0.0829  0.9727  0.0134  -2.1333   0.0000   0.0000   0.0000  -0.1186
  -7.100  -0.2282   0.06291   0.06059  -0.0861  0.9683  0.0134  -2.1763   0.0000   0.0000   0.0000  -0.1377
  -6.300  -0.1556   0.03495   0.03185  -0.1162  0.9492  0.0101  -3.0880   0.0000   0.0000   0.0000  -0.5120
  -6.200  -0.1500   0.02932   0.02583  -0.1187  0.9466  0.0099  -3.3967   0.0000   0.0000   0.0000  -0.5575
  -6.100  -0.1410   0.02581   0.02199  -0.1201  0.9450  0.0098  -3.5455   0.0000   0.0000   0.0000  -0.6191
  -6.000  -0.1301   0.02370   0.01964  -0.1211  0.9440  0.0099  -3.5802   0.0000   0.0000   0.0000  -0.6996
  -5.900  -0.1178   0.02239   0.01815  -0.1219  0.9431  0.0101  -3.5599   0.0000   0.0000   0.0000  -0.8050
  -5.800  -0.1047   0.02166   0.01731  -0.1226  0.9424  0.0103  -3.4865   0.0000   0.0000   0.0000  -0.9428
  -5.700  -0.0910   0.02144   0.01705  -0.1232  0.9418  0.0105  -3.3657   0.0000   0.0000   0.0000  -1.1290
  -5.600  -0.0762   0.02209   0.01775  -0.1237  0.9413  0.0107  -3.1702   0.0000   0.0000   0.0000  -1.4033
  -5.500  -0.0816   0.01717   0.01212  -0.1220  0.9351  0.0123  -3.5321   0.0000   0.0000   0.0000  -1.2744
  -5.400  -0.0710   0.01682   0.01174  -0.1221  0.9333  0.0132  -3.4245   0.0000   0.0000   0.0000  -1.5023
  -5.300  -0.0589   0.01692   0.01188  -0.1225  0.9319  0.0141  -3.2734   0.0000   0.0000   0.0000  -1.8668
  -5.200  -0.0462   0.01730   0.01229  -0.1229  0.9307  0.0156  -3.1078   0.0000   0.0000   0.0000  -2.4586
  -5.100  -0.0338   0.01709   0.01205  -0.1233  0.9295  0.0163  -2.9945   0.0000   0.0000   0.0000  -3.4551
  -5.000  -0.0214   0.01679   0.01170  -0.1236  0.9284  0.0171  -2.8905   0.0000   0.0000   0.0000  -5.6265
  -4.900  -0.0088   0.01643   0.01128  -0.1239  0.9273  0.0177  -2.7922   0.0000   0.0000   0.0000  -14.0230
  -4.800   0.0038   0.01604   0.01083  -0.1243  0.9262  0.0181  -2.6967   0.0000   0.0000   0.0000  33.3297
  -4.700   0.0165   0.01564   0.01037  -0.1246  0.9251  0.0185  -2.6027   0.0000   0.0000   0.0000   7.9162
  -4.600   0.0293   0.01524   0.00991  -0.1250  0.9241  0.0188  -2.5092   0.0000   0.0000   0.0000   4.5823
  -4.500   0.0423   0.01484   0.00945  -0.1254  0.9230  0.0191  -2.4155   0.0000   0.0000   0.0000   3.2534
  -4.400   0.0555   0.01446   0.00900  -0.1258  0.9219  0.0193  -2.3221   0.0000   0.0000   0.0000   2.5468
  -4.300   0.0641   0.01416   0.00866  -0.1253  0.9194  0.0195  -2.2733   0.0000   0.0000   0.0000   2.2319
  -4.200   0.0733   0.01386   0.00831  -0.1248  0.9169  0.0196  -2.2265   0.0000   0.0000   0.0000   1.9765
  -4.100   0.0835   0.01354   0.00795  -0.1246  0.9148  0.0198  -2.1781   0.0000   0.0000   0.0000   1.7613
  -4.000   0.0946   0.01334   0.00772  -0.1246  0.9129  0.0200  -2.1154   0.0000   0.0000   0.0000   1.5841
  -3.900   0.1064   0.01346   0.00784  -0.1247  0.9112  0.0205  -2.0218   0.0000   0.0000   0.0000   1.4361
  -3.800   0.1179   0.01311   0.00744  -0.1248  0.9095  0.0212  -1.9654   0.0000   0.0000   0.0000   1.3213
  -3.700   0.1286   0.01222   0.00645  -0.1248  0.9077  0.0220  -1.9575   0.0000   0.0000   0.0000   1.2316
  -3.600   0.1399   0.01171   0.00589  -0.1248  0.9061  0.0227  -1.9222   0.0000   0.0000   0.0000   1.1520
  -3.500   0.1517   0.01135   0.00550  -0.1249  0.9044  0.0231  -1.8775   0.0000   0.0000   0.0000   1.0823
  -3.400   0.1641   0.01106   0.00517  -0.1251  0.9029  0.0232  -1.8314   0.0000   0.0000   0.0000   1.0206
  -3.300   0.1767   0.01080   0.00487  -0.1253  0.9012  0.0231  -1.7854   0.0000   0.0000   0.0000   0.9668
  -3.200   0.1887   0.01058   0.00461  -0.1255  0.8994  0.0230  -1.7405   0.0000   0.0000   0.0000   0.9215
  -3.100   0.1978   0.01039   0.00440  -0.1250  0.8971  0.0229  -1.7020   0.0000   0.0000   0.0000   0.8880
  -3.000   0.2076   0.01020   0.00418  -0.1247  0.8947  0.0230  -1.6629   0.0000   0.0000   0.0000   0.8561
  -2.900   0.2179   0.01001   0.00396  -0.1245  0.8923  0.0231  -1.6241   0.0000   0.0000   0.0000   0.8261
  -2.800   0.2287   0.00982   0.00374  -0.1243  0.8900  0.0234  -1.5869   0.0000   0.0000   0.0000   0.7981
  -2.700   0.2399   0.00962   0.00346  -0.1242  0.8878  0.0241  -1.5605   0.0000   0.0000   0.0000   0.7721
  -2.600   0.2513   0.00945   0.00326  -0.1242  0.8858  0.0252  -1.5265   0.0000   0.0000   0.0000   0.7481
  -2.500   0.2629   0.00930   0.00308  -0.1242  0.8840  0.0274  -1.4962   0.0000   0.0000   0.0000   0.7259
  -2.400   0.2741   0.00887   0.00283  -0.1242  0.8821  0.0753  -1.5434   0.0000   0.0000   0.0000   0.7062
  -2.300   0.2861   0.00877   0.00278  -0.1244  0.8803  0.0901  -1.4839   0.0000   0.0000   0.0000   0.6877
  -2.200   0.2982   0.00866   0.00272  -0.1246  0.8784  0.1060  -1.4171   0.0000   0.0000   0.0000   0.6704
  -2.100   0.3106   0.00859   0.00268  -0.1249  0.8762  0.1221  -1.3480   0.0000   0.0000   0.0000   0.6544
  -2.000   0.3209   0.00848   0.00265  -0.1247  0.8740  0.1422  -1.2848   0.0000   0.0000   0.0000   0.6408
  -1.900   0.3306   0.00835   0.00261  -0.1245  0.8715  0.1707  -1.2238   0.0000   0.0000   0.0000   0.6284
  -1.800   0.3407   0.00819   0.00258  -0.1243  0.8688  0.2084  -1.1622   0.0000   0.0000   0.0000   0.6167
  -1.700   0.3508   0.00794   0.00254  -0.1243  0.8662  0.2735  -1.1010   0.0000   0.0000   0.0000   0.6058
  -1.600   0.3608   0.00758   0.00251  -0.1243  0.8636  0.3750  -1.0410   0.0000   0.0000   0.0000   0.5959
  -1.500   0.3704   0.00719   0.00252  -0.1242  0.8612  0.5004  -0.9821   0.0000   0.0000   0.0000   0.5866
  -1.400   0.3803   0.00697   0.00255  -0.1240  0.8589  0.5862  -0.9225   0.0000   0.0000   0.0000   0.5770
  -1.300   0.3911   0.00687   0.00255  -0.1239  0.8567  0.6297  -0.8611   0.0000   0.0000   0.0000   0.5675
  -1.200   0.4023   0.00681   0.00255  -0.1238  0.8544  0.6569  -0.7995   0.0000   0.0000   0.0000   0.5584
  -1.100   0.4139   0.00678   0.00254  -0.1238  0.8520  0.6774  -0.7374   0.0000   0.0000   0.0000   0.5496
  -0.900   0.4353   0.00674   0.00256  -0.1234  0.8470  0.7154  -0.6213   0.0000   0.0000   0.0000   0.5338
  -0.800   0.4447   0.00669   0.00258  -0.1230  0.8444  0.7334  -0.5700   0.0000   0.0000   0.0000   0.5266
  -0.700   0.4549   0.00667   0.00257  -0.1227  0.8415  0.7480  -0.5783   0.0000   0.0000   0.0000   0.5196
  -0.600   0.4648   0.00663   0.00257  -0.1223  0.8384  0.7617  -0.5864   0.0000   0.0000   0.0000   0.5129
  -0.500   0.4752   0.00660   0.00255  -0.1220  0.8353  0.7744  -0.5949   0.0000   0.0000   0.0000   0.5064
  -0.400   0.4859   0.00658   0.00252  -0.1218  0.8323  0.7859  -0.6035   0.0000   0.0000   0.0000   0.5002
  -0.300   0.4963   0.00654   0.00250  -0.1215  0.8293  0.7985  -0.6120   0.0000   0.0000   0.0000   0.4942
  -0.200   0.5072   0.00653   0.00249  -0.1213  0.8264  0.8110  -0.6216   0.0000   0.0000   0.0000   0.4885
  -0.100   0.5186   0.00653   0.00247  -0.1212  0.8234  0.8211  -0.6324   0.0000   0.0000   0.0000   0.4830
   0.000   0.5290   0.00653   0.00249  -0.1209  0.8204  0.8317  -0.6427   0.0000   0.0000   0.0000   0.4778
   0.100   0.5382   0.00650   0.00249  -0.1204  0.8178  0.8437  -0.6524   0.0000   0.0000   0.0000   0.4728
   0.200   0.5475   0.00648   0.00250  -0.1199  0.8149  0.8557  -0.6621   0.0000   0.0000   0.0000   0.4679
   0.300   0.5562   0.00644   0.00250  -0.1192  0.8117  0.8701  -0.6715   0.0000   0.0000   0.0000   0.4632
   0.400   0.5652   0.00642   0.00249  -0.1186  0.8083  0.8842  -0.6833   0.0000   0.0000   0.0000   0.4586
   0.500   0.5737   0.00637   0.00248  -0.1178  0.8049  0.8993  -0.6949   0.0000   0.0000   0.0000   0.4540
   0.600   0.5825   0.00634   0.00245  -0.1171  0.8012  0.9147  -0.7067   0.0000   0.0000   0.0000   0.4496
   0.800   0.6034   0.00629   0.00238  -0.1164  0.7935  0.9504  -0.7328   0.0000   0.0000   0.0000   0.4412
   0.900   0.6186   0.00627   0.00236  -0.1172  0.7901  0.9684  -0.7494   0.0000   0.0000   0.0000   0.4376
   1.000   0.6363   0.00623   0.00233  -0.1186  0.7870  0.9868  -0.7694   0.0000   0.0000   0.0000   0.4345
   1.100   0.6503   0.00622   0.00232  -0.1193  0.7833  1.0000  -0.7867   0.0000   0.0000   0.0000   0.4314
   1.200   0.6608   0.00623   0.00231  -0.1192  0.7789  1.0000  -0.8026   0.0000   0.0000   0.0000   0.4282
   1.300   0.6716   0.00624   0.00229  -0.1191  0.7740  1.0000  -0.8196   0.0000   0.0000   0.0000   0.4251
   1.400   0.6826   0.00626   0.00227  -0.1190  0.7690  1.0000  -0.8372   0.0000   0.0000   0.0000   0.4221
   1.500   0.6938   0.00628   0.00225  -0.1190  0.7640  1.0000  -0.8571   0.0000   0.0000   0.0000   0.4191
   1.600   0.7049   0.00632   0.00224  -0.1190  0.7593  1.0000  -0.8770   0.0000   0.0000   0.0000   0.4163
   1.700   0.7153   0.00633   0.00226  -0.1188  0.7555  1.0000  -0.8962   0.0000   0.0000   0.0000   0.4135
   1.800   0.7258   0.00635   0.00227  -0.1187  0.7509  1.0000  -0.9157   0.0000   0.0000   0.0000   0.4109
   1.900   0.7364   0.00637   0.00228  -0.1186  0.7456  1.0000  -0.9353   0.0000   0.0000   0.0000   0.4082
   2.000   0.7470   0.00639   0.00227  -0.1184  0.7399  1.0000  -0.9552   0.0000   0.0000   0.0000   0.4057
   2.100   0.7576   0.00642   0.00227  -0.1183  0.7339  1.0000  -0.9751   0.0000   0.0000   0.0000   0.4031
   2.200   0.7683   0.00648   0.00230  -0.1181  0.7274  1.0000  -0.9951   0.0000   0.0000   0.0000   0.4007
   2.300   0.7786   0.00649   0.00232  -0.1180  0.7220  1.0000  -1.0149   0.0000   0.0000   0.0000   0.3983
   2.400   0.7889   0.00652   0.00233  -0.1178  0.7153  1.0000  -1.0348   0.0000   0.0000   0.0000   0.3960
   2.500   0.7991   0.00656   0.00234  -0.1175  0.7074  1.0000  -1.0563   0.0000   0.0000   0.0000   0.3937
   2.600   0.8090   0.00662   0.00234  -0.1172  0.6989  1.0000  -1.0791   0.0000   0.0000   0.0000   0.3914
   2.700   0.8191   0.00668   0.00235  -0.1170  0.6911  1.0000  -1.1021   0.0000   0.0000   0.0000   0.3893
   2.800   0.8293   0.00672   0.00238  -0.1168  0.6831  1.0000  -1.1253   0.0000   0.0000   0.0000   0.3871
   2.900   0.8393   0.00677   0.00240  -0.1165  0.6737  1.0000  -1.1497   0.0000   0.0000   0.0000   0.3851
   3.000   0.8488   0.00686   0.00242  -0.1161  0.6642  1.0000  -1.1762   0.0000   0.0000   0.0000   0.3830
   3.100   0.8588   0.00693   0.00245  -0.1159  0.6563  1.0000  -1.2033   0.0000   0.0000   0.0000   0.3810
   3.200   0.8690   0.00698   0.00249  -0.1157  0.6482  1.0000  -1.2310   0.0000   0.0000   0.0000   0.3791
   3.300   0.8788   0.00705   0.00252  -0.1154  0.6386  1.0000  -1.2582   0.0000   0.0000   0.0000   0.3772
   3.400   0.8880   0.00715   0.00256  -0.1150  0.6285  1.0000  -1.2849   0.0000   0.0000   0.0000   0.3752
   3.500   0.8978   0.00723   0.00260  -0.1147  0.6197  1.0000  -1.3124   0.0000   0.0000   0.0000   0.3734
   3.600   0.9077   0.00730   0.00265  -0.1145  0.6095  1.0000  -1.3402   0.0000   0.0000   0.0000   0.3716
   3.700   0.9166   0.00742   0.00270  -0.1140  0.5971  1.0000  -1.3669   0.0000   0.0000   0.0000   0.3698
   3.800   0.9254   0.00754   0.00276  -0.1135  0.5852  1.0000  -1.3936   0.0000   0.0000   0.0000   0.3680
   3.900   0.9349   0.00764   0.00281  -0.1132  0.5722  1.0000  -1.4229   0.0000   0.0000   0.0000   0.3663
   4.000   0.9431   0.00779   0.00288  -0.1126  0.5572  1.0000  -1.4538   0.0000   0.0000   0.0000   0.3645
   4.100   0.9521   0.00791   0.00295  -0.1122  0.5445  1.0000  -1.4862   0.0000   0.0000   0.0000   0.3628
   4.200   0.9609   0.00804   0.00302  -0.1117  0.5296  1.0000  -1.5185   0.0000   0.0000   0.0000   0.3611
   4.300   0.9686   0.00823   0.00311  -0.1111  0.5144  1.0000  -1.5491   0.0000   0.0000   0.0000   0.3594
   4.400   0.9777   0.00835   0.00318  -0.1107  0.4995  1.0000  -1.5822   0.0000   0.0000   0.0000   0.3579
   4.500   0.9852   0.00856   0.00328  -0.1100  0.4819  1.0000  -1.6126   0.0000   0.0000   0.0000   0.3562
   4.600   0.9939   0.00870   0.00337  -0.1096  0.4668  1.0000  -1.6455   0.0000   0.0000   0.0000   0.3547
   4.700   1.0017   0.00890   0.00347  -0.1090  0.4490  1.0000  -1.6768   0.0000   0.0000   0.0000   0.3531
   4.800   1.0101   0.00907   0.00358  -0.1085  0.4347  1.0000  -1.7094   0.0000   0.0000   0.0000   0.3516
   4.900   1.0187   0.00924   0.00376  -0.1080  0.4197  1.0000  -1.7433   0.0000   0.0000   0.0000   0.3501
   5.000   1.0264   0.00944   0.00388  -0.1074  0.4048  1.0000  -1.7754   0.0000   0.0000   0.0000   0.3486
   5.100   1.0354   0.00959   0.00398  -0.1071  0.3911  1.0000  -1.8095   0.0000   0.0000   0.0000   0.3473
   5.200   1.0429   0.00982   0.00411  -0.1064  0.3741  1.0000  -1.8412   0.0000   0.0000   0.0000   0.3458
   5.300   1.0515   0.00999   0.00423  -0.1060  0.3597  1.0000  -1.8748   0.0000   0.0000   0.0000   0.3445
   5.400   1.0591   0.01022   0.00436  -0.1054  0.3426  1.0000  -1.9069   0.0000   0.0000   0.0000   0.3431
   5.500   1.0673   0.01042   0.00449  -0.1049  0.3280  1.0000  -1.9402   0.0000   0.0000   0.0000   0.3417
   5.600   1.0754   0.01064   0.00462  -0.1044  0.3128  1.0000  -1.9733   0.0000   0.0000   0.0000   0.3404
   5.700   1.0832   0.01086   0.00476  -0.1039  0.2985  1.0000  -2.0062   0.0000   0.0000   0.0000   0.3391
   5.800   1.0920   0.01102   0.00489  -0.1035  0.2868  1.0000  -2.0409   0.0000   0.0000   0.0000   0.3379
   5.900   1.0998   0.01126   0.00503  -0.1030  0.2735  1.0000  -2.0749   0.0000   0.0000   0.0000   0.3366
   6.000   1.1084   0.01143   0.00516  -0.1026  0.2626  1.0000  -2.1261   0.0000   0.0000   0.0000   0.3354
   6.100   1.1169   0.01162   0.00530  -0.1022  0.2515  1.0000  -2.1773   0.0000   0.0000   0.0000   0.3342
   6.200   1.1245   0.01186   0.00545  -0.1016  0.2388  1.0000  -2.2266   0.0000   0.0000   0.0000   0.3329
   6.300   1.1333   0.01202   0.00559  -0.1012  0.2299  1.0000  -2.2795   0.0000   0.0000   0.0000   0.3318
   6.400   1.1416   0.01221   0.00573  -0.1008  0.2200  1.0000  -2.3314   0.0000   0.0000   0.0000   0.3306
   6.500   1.1492   0.01246   0.00590  -0.1003  0.2088  1.0000  -2.3816   0.0000   0.0000   0.0000   0.3295
   6.600   1.1580   0.01261   0.00604  -0.0999  0.2012  1.0000  -2.4356   0.0000   0.0000   0.0000   0.3284
   6.700   1.1665   0.01279   0.00619  -0.0995  0.1930  1.0000  -2.4889   0.0000   0.0000   0.0000   0.3272
   6.800   1.1741   0.01303   0.00635  -0.0989  0.1836  1.0000  -2.5402   0.0000   0.0000   0.0000   0.3261
   6.900   1.1824   0.01322   0.00651  -0.0985  0.1755  1.0000  -2.5936   0.0000   0.0000   0.0000   0.3250
   7.000   1.1910   0.01339   0.00666  -0.0981  0.1695  1.0000  -2.6486   0.0000   0.0000   0.0000   0.3240
   7.100   1.1989   0.01359   0.00683  -0.0976  0.1624  1.0000  -2.7019   0.0000   0.0000   0.0000   0.3229
   7.200   1.2063   0.01384   0.00701  -0.0970  0.1541  1.0000  -2.7537   0.0000   0.0000   0.0000   0.3218
   7.300   1.2148   0.01401   0.00717  -0.0966  0.1483  1.0000  -2.8091   0.0000   0.0000   0.0000   0.3207
   7.400   1.2232   0.01418   0.00732  -0.0962  0.1432  1.0000  -2.8650   0.0000   0.0000   0.0000   0.3197
   7.500   1.2309   0.01439   0.00750  -0.0957  0.1371  1.0000  -2.9189   0.0000   0.0000   0.0000   0.3187
   7.600   1.2377   0.01465   0.00769  -0.0950  0.1302  1.0000  -2.9706   0.0000   0.0000   0.0000   0.3176
   7.700   1.2451   0.01486   0.00798  -0.0944  0.1239  1.0000  -3.0234   0.0000   0.0000   0.0000   0.3165
   7.800   1.2533   0.01501   0.00814  -0.0939  0.1204  1.0000  -3.0801   0.0000   0.0000   0.0000   0.3155
   7.900   1.2608   0.01520   0.00832  -0.0933  0.1163  1.0000  -3.1351   0.0000   0.0000   0.0000   0.3144
   8.000   1.2677   0.01544   0.00852  -0.0927  0.1118  1.0000  -3.1885   0.0000   0.0000   0.0000   0.3134
   8.100   1.2741   0.01571   0.00875  -0.0919  0.1062  1.0000  -3.2399   0.0000   0.0000   0.0000   0.3123
   8.200   1.2812   0.01593   0.00896  -0.0913  0.1020  1.0000  -3.2935   0.0000   0.0000   0.0000   0.3112
   8.300   1.2897   0.01606   0.00911  -0.0909  0.0998  1.0000  -3.3532   0.0000   0.0000   0.0000   0.3103
   8.400   1.2975   0.01622   0.00928  -0.0904  0.0967  1.0000  -3.4111   0.0000   0.0000   0.0000   0.3094
   8.500   1.3046   0.01644   0.00947  -0.0898  0.0930  1.0000  -3.4671   0.0000   0.0000   0.0000   0.3084
   8.600   1.3111   0.01670   0.00969  -0.0891  0.0890  1.0000  -3.5210   0.0000   0.0000   0.0000   0.3074
   8.700   1.3168   0.01701   0.00997  -0.0882  0.0841  1.0000  -3.5713   0.0000   0.0000   0.0000   0.3063
   8.800   1.3236   0.01724   0.01020  -0.0876  0.0813  1.0000  -3.6260   0.0000   0.0000   0.0000   0.3053
   8.900   1.3320   0.01737   0.01036  -0.0872  0.0800  1.0000  -3.6873   0.0000   0.0000   0.0000   0.3044
   9.000   1.3398   0.01753   0.01054  -0.0867  0.0781  1.0000  -3.7472   0.0000   0.0000   0.0000   0.3035
   9.100   1.3472   0.01771   0.01073  -0.0861  0.0759  1.0000  -3.8149   0.0000   0.0000   0.0000   0.3026
   9.200   1.3541   0.01793   0.01094  -0.0855  0.0736  1.0000  -3.8851   0.0000   0.0000   0.0000   0.3017
   9.300   1.3606   0.01819   0.01117  -0.0849  0.0712  1.0000  -3.9537   0.0000   0.0000   0.0000   0.3008
   9.400   1.3665   0.01847   0.01144  -0.0841  0.0684  1.0000  -4.0201   0.0000   0.0000   0.0000   0.2998
   9.500   1.3716   0.01882   0.01178  -0.0832  0.0652  1.0000  -4.0817   0.0000   0.0000   0.0000   0.2988
   9.600   1.3774   0.01911   0.01208  -0.0824  0.0630  1.0000  -4.1473   0.0000   0.0000   0.0000   0.2978
   9.700   1.3856   0.01924   0.01223  -0.0820  0.0622  1.0000  -4.2262   0.0000   0.0000   0.0000   0.2970
   9.800   1.3934   0.01939   0.01241  -0.0816  0.0609  1.0000  -4.3041   0.0000   0.0000   0.0000   0.2962
   9.900   1.4007   0.01957   0.01260  -0.0811  0.0591  1.0000  -4.3805   0.0000   0.0000   0.0000   0.2954
  10.000   1.4076   0.01978   0.01280  -0.0806  0.0571  1.0000  -4.4554   0.0000   0.0000   0.0000   0.2946
  10.100   1.4139   0.02004   0.01303  -0.0799  0.0548  1.0000  -4.5284   0.0000   0.0000   0.0000   0.2937
  10.200   1.4195   0.02034   0.01330  -0.0792  0.0522  1.0000  -4.5986   0.0000   0.0000   0.0000   0.2928
  10.300   1.4245   0.02070   0.01364  -0.0784  0.0492  1.0000  -4.6643   0.0000   0.0000   0.0000   0.2919
  10.400   1.4319   0.02087   0.01385  -0.0780  0.0462  1.0000  -4.7447   0.0000   0.0000   0.0000   0.2912
  10.500   1.4392   0.02105   0.01404  -0.0776  0.0446  1.0000  -4.8244   0.0000   0.0000   0.0000   0.2904
  10.600   1.4456   0.02129   0.01429  -0.0770  0.0431  1.0000  -4.8999   0.0000   0.0000   0.0000   0.2896
  10.700   1.4517   0.02156   0.01456  -0.0764  0.0417  1.0000  -4.9737   0.0000   0.0000   0.0000   0.2888
  10.800   1.4576   0.02184   0.01484  -0.0757  0.0403  1.0000  -5.0466   0.0000   0.0000   0.0000   0.2880
  10.900   1.4632   0.02214   0.01514  -0.0750  0.0389  1.0000  -5.1190   0.0000   0.0000   0.0000   0.2872
  11.000   1.4686   0.02246   0.01545  -0.0743  0.0374  1.0000  -5.1907   0.0000   0.0000   0.0000   0.2863
  11.100   1.4738   0.02280   0.01579  -0.0736  0.0358  1.0000  -5.2609   0.0000   0.0000   0.0000   0.2855
  11.200   1.4786   0.02316   0.01617  -0.0728  0.0342  1.0000  -5.3288   0.0000   0.0000   0.0000   0.2846
  11.300   1.4838   0.02350   0.01652  -0.0721  0.0332  1.0000  -5.3992   0.0000   0.0000   0.0000   0.2838
  11.400   1.4901   0.02375   0.01681  -0.0716  0.0327  1.0000  -5.4767   0.0000   0.0000   0.0000   0.2831
  11.500   1.4962   0.02403   0.01712  -0.0710  0.0322  1.0000  -5.5537   0.0000   0.0000   0.0000   0.2823
  11.600   1.5020   0.02432   0.01744  -0.0704  0.0315  1.0000  -5.6299   0.0000   0.0000   0.0000   0.2816
  11.700   1.5075   0.02464   0.01778  -0.0698  0.0306  1.0000  -5.7046   0.0000   0.0000   0.0000   0.2808
  11.800   1.5127   0.02498   0.01813  -0.0692  0.0297  1.0000  -5.7785   0.0000   0.0000   0.0000   0.2801
  11.900   1.5178   0.02533   0.01850  -0.0685  0.0287  1.0000  -5.8517   0.0000   0.0000   0.0000   0.2793
  12.000   1.5226   0.02571   0.01889  -0.0679  0.0276  1.0000  -5.9245   0.0000   0.0000   0.0000   0.2786
  12.100   1.5273   0.02610   0.01928  -0.0672  0.0265  1.0000  -5.9966   0.0000   0.0000   0.0000   0.2778
  12.200   1.5317   0.02652   0.01970  -0.0665  0.0254  1.0000  -6.0676   0.0000   0.0000   0.0000   0.2771
  12.300   1.5357   0.02695   0.02014  -0.0658  0.0243  1.0000  -6.1365   0.0000   0.0000   0.0000   0.2763
  12.400   1.5396   0.02740   0.02060  -0.0651  0.0232  1.0000  -6.2039   0.0000   0.0000   0.0000   0.2755
  12.500   1.5432   0.02787   0.02110  -0.0643  0.0221  1.0000  -6.2851   0.0000   0.0000   0.0000   0.2748
  12.600   1.5479   0.02827   0.02152  -0.0637  0.0217  1.0000  -6.4017   0.0000   0.0000   0.0000   0.2741
  12.700   1.5526   0.02866   0.02194  -0.0631  0.0214  1.0000  -6.5203   0.0000   0.0000   0.0000   0.2734
  12.800   1.5572   0.02907   0.02239  -0.0625  0.0210  1.0000  -6.6379   0.0000   0.0000   0.0000   0.2727
  12.900   1.5614   0.02951   0.02286  -0.0619  0.0206  1.0000  -6.7533   0.0000   0.0000   0.0000   0.2720
  13.000   1.5654   0.02997   0.02334  -0.0613  0.0201  1.0000  -6.8681   0.0000   0.0000   0.0000   0.2713
  13.100   1.5694   0.03044   0.02384  -0.0607  0.0197  1.0000  -6.9833   0.0000   0.0000   0.0000   0.2706
  13.200   1.5733   0.03092   0.02434  -0.0601  0.0192  1.0000  -7.0989   0.0000   0.0000   0.0000   0.2700
  13.300   1.5772   0.03141   0.02486  -0.0595  0.0187  1.0000  -7.2146   0.0000   0.0000   0.0000   0.2693
  13.400   1.5808   0.03193   0.02540  -0.0589  0.0181  1.0000  -7.3287   0.0000   0.0000   0.0000   0.2686
  13.500   1.5840   0.03248   0.02597  -0.0583  0.0177  1.0000  -7.4401   0.0000   0.0000   0.0000   0.2680
  13.600   1.5868   0.03307   0.02665  -0.0576  0.0175  1.0000  -7.5543   0.0000   0.0000   0.0000   0.2673
  13.700   1.5898   0.03366   0.02726  -0.0570  0.0171  1.0000  -7.6668   0.0000   0.0000   0.0000   0.2667
  13.800   1.5927   0.03425   0.02787  -0.0565  0.0166  1.0000  -7.7790   0.0000   0.0000   0.0000   0.2661
  13.900   1.5957   0.03485   0.02849  -0.0559  0.0162  1.0000  -7.8910   0.0000   0.0000   0.0000   0.2654
  14.000   1.5982   0.03549   0.02916  -0.0553  0.0157  1.0000  -7.9995   0.0000   0.0000   0.0000   0.2648
  14.100   1.6004   0.03616   0.02985  -0.0547  0.0152  1.0000  -8.1052   0.0000   0.0000   0.0000   0.2642
  14.200   1.6025   0.03684   0.03057  -0.0542  0.0147  1.0000  -8.2104   0.0000   0.0000   0.0000   0.2636
  14.300   1.6046   0.03754   0.03129  -0.0536  0.0143  1.0000  -8.3157   0.0000   0.0000   0.0000   0.2630
  14.400   1.6066   0.03825   0.03204  -0.0531  0.0138  1.0000  -8.4199   0.0000   0.0000   0.0000   0.2624
  14.500   1.6082   0.03898   0.03282  -0.0525  0.0134  1.0000  -8.5204   0.0000   0.0000   0.0000   0.2618
  14.600   1.6090   0.03979   0.03367  -0.0520  0.0130  1.0000  -8.6136   0.0000   0.0000   0.0000   0.2613
  14.700   1.6113   0.04047   0.03437  -0.0515  0.0129  1.0000  -8.7237   0.0000   0.0000   0.0000   0.2607
  14.800   1.6140   0.04112   0.03507  -0.0511  0.0128  1.0000  -8.8381   0.0000   0.0000   0.0000   0.2602
  14.900   1.6167   0.04178   0.03577  -0.0507  0.0127  1.0000  -8.9531   0.0000   0.0000   0.0000   0.2597
  15.000   1.6194   0.04246   0.03649  -0.0503  0.0126  1.0000  -9.0681   0.0000   0.0000   0.0000   0.2592
  15.100   1.6218   0.04318   0.03724  -0.0500  0.0124  1.0000  -9.1804   0.0000   0.0000   0.0000   0.2587
  15.200   1.6235   0.04397   0.03807  -0.0496  0.0122  1.0000  -9.2870   0.0000   0.0000   0.0000   0.2582
  15.300   1.6253   0.04478   0.03892  -0.0493  0.0120  1.0000  -9.3929   0.0000   0.0000   0.0000   0.2578
  15.400   1.6271   0.04559   0.03978  -0.0490  0.0118  1.0000  -9.4997   0.0000   0.0000   0.0000   0.2573
  15.500   1.6288   0.04643   0.04065  -0.0487  0.0115  1.0000  -9.6056   0.0000   0.0000   0.0000   0.2569
  15.600   1.6304   0.04729   0.04154  -0.0484  0.0112  1.0000  -9.7104   0.0000   0.0000   0.0000   0.2565
  15.700   1.6313   0.04824   0.04253  -0.0481  0.0109  1.0000  -9.8072   0.0000   0.0000   0.0000   0.2561
  15.800   1.6316   0.04927   0.04359  -0.0479  0.0105  1.0000  -9.8989   0.0000   0.0000   0.0000   0.2557
  15.900   1.6321   0.05030   0.04465  -0.0477  0.0101  1.0000  -9.9910   0.0000   0.0000   0.0000   0.2553
  16.000   1.6325   0.05134   0.04573  -0.0475  0.0097  1.0000  -10.0821   0.0000   0.0000   0.0000   0.2550
  16.100   1.6326   0.05243   0.04685  -0.0473  0.0092  1.0000  -10.1700   0.0000   0.0000   0.0000   0.2546
  16.200   1.6317   0.05368   0.04813  -0.0472  0.0087  1.0000  -10.2458   0.0000   0.0000   0.0000   0.2543
  16.300   1.6302   0.05500   0.04948  -0.0471  0.0083  1.0000  -10.3161   0.0000   0.0000   0.0000   0.2541
  16.400   1.6288   0.05634   0.05085  -0.0470  0.0077  1.0000  -10.3855   0.0000   0.0000   0.0000   0.2538
  16.500   1.6270   0.05773   0.05227  -0.0470  0.0071  1.0000  -10.4503   0.0000   0.0000   0.0000   0.2536
  16.600   1.6244   0.05926   0.05383  -0.0470  0.0065  1.0000  -10.5059   0.0000   0.0000   0.0000   0.2534
  16.700   1.6220   0.06078   0.05540  -0.0471  0.0061  1.0000  -10.5632   0.0000   0.0000   0.0000   0.2533
  16.800   1.6197   0.06231   0.05697  -0.0472  0.0056  1.0000  -10.6204   0.0000   0.0000   0.0000   0.2532
  16.900   1.6171   0.06390   0.05860  -0.0474  0.0051  1.0000  -10.6738   0.0000   0.0000   0.0000   0.2531
  17.000   1.6131   0.06572   0.06048  -0.0477  0.0047  1.0000  -10.7114   0.0000   0.0000   0.0000   0.2531
  17.100   1.6090   0.06758   0.06238  -0.0480  0.0042  1.0000  -10.7471   0.0000   0.0000   0.0000   0.2531
  17.200   1.6048   0.06946   0.06431  -0.0484  0.0038  1.0000  -10.7812   0.0000   0.0000   0.0000   0.2532
  17.300   1.5994   0.07151   0.06642  -0.0488  0.0035  1.0000  -10.8020   0.0000   0.0000   0.0000   0.2533
  17.400   1.5938   0.07363   0.06859  -0.0494  0.0032  1.0000  -10.8188   0.0000   0.0000   0.0000   0.2535
  17.500   1.5885   0.07572   0.07073  -0.0499  0.0029  1.0000  -10.8384   0.0000   0.0000   0.0000   0.2537
  17.600   1.5826   0.07798   0.07304  -0.0506  0.0027  1.0000  -10.8501   0.0000   0.0000   0.0000   0.2540
  17.700   1.5769   0.08028   0.07540  -0.0513  0.0025  1.0000  -10.8611   0.0000   0.0000   0.0000   0.2543
  17.800   1.5720   0.08245   0.07762  -0.0520  0.0023  1.0000  -10.8808   0.0000   0.0000   0.0000   0.2546
  17.900   1.5669   0.08474   0.07997  -0.0529  0.0021  1.0000  -10.8955   0.0000   0.0000   0.0000   0.2550
  18.000   1.5615   0.08710   0.08240  -0.0538  0.0021  1.0000  -10.9073   0.0000   0.0000   0.0000   0.2555
  18.100   1.5568   0.08937   0.08472  -0.0546  0.0020  1.0000  -10.9250   0.0000   0.0000   0.0000   0.2559
  18.200   1.5512   0.09183   0.08725  -0.0557  0.0020  1.0000  -10.9322   0.0000   0.0000   0.0000   0.2564
  18.300   1.5451   0.09442   0.08992  -0.0568  0.0020  1.0000  -10.9312   0.0000   0.0000   0.0000   0.2570
  18.400   1.5398   0.09687   0.09243  -0.0579  0.0020  1.0000  -10.9384   0.0000   0.0000   0.0000   0.2576
  18.500   1.5334   0.09958   0.09521  -0.0591  0.0020  1.0000  -10.9306   0.0000   0.0000   0.0000   0.2583
  18.600   1.5268   0.10234   0.09803  -0.0604  0.0019  1.0000  -10.9189   0.0000   0.0000   0.0000   0.2591
  18.700   1.5210   0.10495   0.10070  -0.0617  0.0019  1.0000  -10.9156   0.0000   0.0000   0.0000   0.2598
  18.800   1.5136   0.10793   0.10376  -0.0632  0.0019  1.0000  -10.8894   0.0000   0.0000   0.0000   0.2608
  18.900   1.5067   0.11081   0.10670  -0.0647  0.0019  1.0000  -10.8686   0.0000   0.0000   0.0000   0.2617
  19.000   1.5003   0.11359   0.10954  -0.0661  0.0019  1.0000  -10.8521   0.0000   0.0000   0.0000   0.2626
  19.100   1.4919   0.11683   0.11286  -0.0679  0.0019  1.0000  -10.8064   0.0000   0.0000   0.0000   0.2638
  19.200   1.4849   0.11979   0.11588  -0.0694  0.0019  1.0000  -10.7773   0.0000   0.0000   0.0000   0.2649
  19.300   1.4774   0.12286   0.11902  -0.0711  0.0019  1.0000  -10.7386   0.0000   0.0000   0.0000   0.2660
  19.400   1.4688   0.12621   0.12243  -0.0730  0.0019  1.0000  -10.6829   0.0000   0.0000   0.0000   0.2674
  19.500   1.4616   0.12924   0.12553  -0.0748  0.0019  1.0000  -10.6434   0.0000   0.0000   0.0000   0.2686
  19.600   1.4527   0.13269   0.12905  -0.0768  0.0019  1.0000  -10.5770   0.0000   0.0000   0.0000   0.2701
  19.700   1.4445   0.13599   0.13241  -0.0787  0.0019  1.0000  -10.5178   0.0000   0.0000   0.0000   0.2715
  19.800   1.4370   0.13913   0.13562  -0.0806  0.0019  1.0000  -10.4662   0.0000   0.0000   0.0000   0.2729
  19.900   1.4273   0.14286   0.13942  -0.0829  0.0019  1.0000  -10.3763   0.0000   0.0000   0.0000   0.2747
  20.000   1.4193   0.14616   0.14278  -0.0849  0.0020  1.0000  -10.3111   0.0000   0.0000   0.0000   0.2762
  20.100   1.4111   0.14950   0.14618  -0.0870  0.0020  1.0000  -10.2372   0.0000   0.0000   0.0000   0.2779
  20.200   1.4018   0.15300   0.14974  -0.0893  0.0020  1.0000  -10.1404   0.0000   0.0000   0.0000   0.2798
  20.300   1.3943   0.15606   0.15287  -0.0914  0.0020  1.0000  -10.0708   0.0000   0.0000   0.0000   0.2814
  20.400   1.3854   0.15956   0.15643  -0.0937  0.0020  1.0000  -9.9719   0.0000   0.0000   0.0000   0.2833
  20.500   1.3766   0.16313   0.16006  -0.0961  0.0021  1.0000  -9.8719   0.0000   0.0000   0.0000   0.2853
  20.600   1.3690   0.16646   0.16344  -0.0983  0.0021  1.0000  -9.7897   0.0000   0.0000   0.0000   0.2871
  21.200   1.3210   0.18911   0.18644  -0.1123  0.0028  1.0000  -9.1671   0.0000   0.0000   0.0000   0.2995
  21.300   1.3145   0.19276   0.19014  -0.1145  0.0029  1.0000  -9.0766   0.0000   0.0000   0.0000   0.3014
  21.400   1.3065   0.19694   0.19438  -0.1169  0.0030  1.0000  -8.9522   0.0000   0.0000   0.0000   0.3037
  21.500   1.3000   0.20074   0.19824  -0.1191  0.0031  1.0000  -8.8536   0.0000   0.0000   0.0000   0.3057
  21.600   1.2941   0.20444   0.20198  -0.1212  0.0032  1.0000  -8.7634   0.0000   0.0000   0.0000   0.3076
  21.700   1.2880   0.20830   0.20589  -0.1233  0.0033  1.0000  -8.6635   0.0000   0.0000   0.0000   0.3096
  21.800   1.2803   0.21274   0.21040  -0.1257  0.0035  1.0000  -8.5261   0.0000   0.0000   0.0000   0.3119
  21.900   1.2743   0.21675   0.21445  -0.1279  0.0036  1.0000  -8.4190   0.0000   0.0000   0.0000   0.3140
  22.000   1.2688   0.22063   0.21837  -0.1299  0.0036  1.0000  -8.3214   0.0000   0.0000   0.0000   0.3159
  22.100   1.2633   0.22459   0.22238  -0.1320  0.0037  1.0000  -8.2189   0.0000   0.0000   0.0000   0.3179
  22.200   1.2565   0.22909   0.22692  -0.1342  0.0039  1.0000  -8.0828   0.0000   0.0000   0.0000   0.3202
  22.300   1.2496   0.23376   0.23165  -0.1365  0.0040  1.0000  -7.9365   0.0000   0.0000   0.0000   0.3225
  22.400   1.2445   0.23785   0.23578  -0.1385  0.0040  1.0000  -7.8289   0.0000   0.0000   0.0000   0.3245
  22.500   1.2395   0.24195   0.23991  -0.1405  0.0040  1.0000  -7.7217   0.0000   0.0000   0.0000   0.3264
  22.600   1.2341   0.24631   0.24431  -0.1425  0.0041  1.0000  -7.5986   0.0000   0.0000   0.0000   0.3285
  22.700   1.2266   0.25165   0.24970  -0.1448  0.0043  1.0000  -7.4134   0.0000   0.0000   0.0000   0.3311
  22.800   1.2211   0.25626   0.25435  -0.1468  0.0043  1.0000  -7.2758   0.0000   0.0000   0.0000   0.3332
  22.900   1.2166   0.26053   0.25864  -0.1486  0.0042  1.0000  -7.1613   0.0000   0.0000   0.0000   0.3351
  23.000   1.2119   0.26494   0.26308  -0.1505  0.0041  1.0000  -7.0380   0.0000   0.0000   0.0000   0.3370
  23.100   1.2061   0.26997   0.26814  -0.1525  0.0041  1.0000  -6.8756   0.0000   0.0000   0.0000   0.3392
  23.200   1.1957   0.27735   0.27558  -0.1551  0.0043  1.0000  -6.5632   0.0000   0.0000   0.0000   0.3427
  23.300   1.1900   0.28266   0.28091  -0.1570  0.0042  1.0000  -6.3839   0.0000   0.0000   0.0000   0.3450
  23.400   1.1860   0.28717   0.28544  -0.1586  0.0039  1.0000  -6.2551   0.0000   0.0000   0.0000   0.3467
  23.500   1.1836   0.29085   0.28912  -0.1600  0.0036  1.0000  -6.1796   0.0000   0.0000   0.0000   0.3480
  23.600   1.1828   0.29375   0.29201  -0.1611  0.0033  1.0000  -6.1546   0.0000   0.0000   0.0000   0.3489
  23.700   1.1820   0.29668   0.29492  -0.1621  0.0030  1.0000  -6.1269   0.0000   0.0000   0.0000   0.3497
  23.800   1.1797   0.30037   0.29860  -0.1634  0.0027  1.0000  -6.0472   0.0000   0.0000   0.0000   0.3509
  23.900   1.1736   0.30623   0.30448  -0.1651  0.0025  1.0000  -5.8214   0.0000   0.0000   0.0000   0.3532
  24.000   1.1644   0.31405   0.31232  -0.1671  0.0022  1.0000  -5.4495   0.0000   0.0000   0.0000   0.3562
  24.100   1.1161   0.34617   0.34436  -0.1712  0.0021  1.0000  -3.3141   0.0000   0.0000   0.0000   0.3684
  24.200   1.1147   0.34894   0.34714  -0.1717  0.0021  1.0000  -3.2758   0.0000   0.0000   0.0000   0.3689
  24.300   1.1133   0.35157   0.34978  -0.1721  0.0022  1.0000  -3.2447   0.0000   0.0000   0.0000   0.3693
  24.400   1.1116   0.35414   0.35235  -0.1725  0.0022  1.0000  -3.2153   0.0000   0.0000   0.0000   0.3697
  24.500   1.1094   0.35672   0.35494  -0.1728  0.0023  1.0000  -3.1797   0.0000   0.0000   0.0000   0.3702
  24.600   1.1057   0.35969   0.35791  -0.1730  0.0024  1.0000  -3.1038   0.0000   0.0000   0.0000   0.3707
  25.600   0.8945   0.33657   0.33502  -0.1487  0.0063  1.0000  -1.4386   0.0000   0.0000   0.0000   0.3839
  25.700   0.8924   0.33695   0.33540  -0.1488  0.0063  1.0000  -1.4222   0.0000   0.0000   0.0000   0.3843
  25.800   0.8905   0.33735   0.33581  -0.1489  0.0063  1.0000  -1.4064   0.0000   0.0000   0.0000   0.3847
  25.900   0.8886   0.33776   0.33623  -0.1491  0.0063  1.0000  -1.3911   0.0000   0.0000   0.0000   0.3851
  26.000   0.8868   0.33819   0.33666  -0.1492  0.0063  1.0000  -1.3762   0.0000   0.0000   0.0000   0.3854
  26.100   0.8851   0.33862   0.33710  -0.1494  0.0063  1.0000  -1.3619   0.0000   0.0000   0.0000   0.3858
  26.200   0.8834   0.33906   0.33754  -0.1495  0.0063  1.0000  -1.3479   0.0000   0.0000   0.0000   0.3862
  26.300   0.8819   0.33952   0.33800  -0.1497  0.0063  1.0000  -1.3343   0.0000   0.0000   0.0000   0.3865
  26.400   0.8804   0.33998   0.33847  -0.1499  0.0063  1.0000  -1.3212   0.0000   0.0000   0.0000   0.3869
  26.500   0.8790   0.34045   0.33895  -0.1501  0.0063  1.0000  -1.3082   0.0000   0.0000   0.0000   0.3872
  26.600   0.8776   0.34093   0.33944  -0.1503  0.0063  1.0000  -1.2955   0.0000   0.0000   0.0000   0.3876
  26.700   0.8762   0.34142   0.33993  -0.1505  0.0062  1.0000  -1.2832   0.0000   0.0000   0.0000   0.3879
  26.800   0.8750   0.34191   0.34043  -0.1507  0.0062  1.0000  -1.2712   0.0000   0.0000   0.0000   0.3883
  26.900   0.8738   0.34242   0.34093  -0.1509  0.0062  1.0000  -1.2594   0.0000   0.0000   0.0000   0.3886
  27.000   0.8726   0.34292   0.34145  -0.1512  0.0062  1.0000  -1.2480   0.0000   0.0000   0.0000   0.3890
  27.100   0.8715   0.34344   0.34197  -0.1514  0.0062  1.0000  -1.2368   0.0000   0.0000   0.0000   0.3893
  27.200   0.8704   0.34396   0.34249  -0.1516  0.0062  1.0000  -1.2259   0.0000   0.0000   0.0000   0.3896
  27.300   0.8693   0.34448   0.34302  -0.1519  0.0062  1.0000  -1.2152   0.0000   0.0000   0.0000   0.3900
  27.400   0.8684   0.34501   0.34358  -0.1521  0.0062  1.0000  -1.2048   0.0000   0.0000   0.0000   0.3903
  27.500   0.8674   0.34554   0.34412  -0.1524  0.0062  1.0000  -1.1946   0.0000   0.0000   0.0000   0.3906
  27.600   0.8665   0.34608   0.34466  -0.1527  0.0062  1.0000  -1.1847   0.0000   0.0000   0.0000   0.3910
  27.700   0.8656   0.34663   0.34521  -0.1529  0.0062  1.0000  -1.1750   0.0000   0.0000   0.0000   0.3913
  27.800   0.8647   0.34718   0.34577  -0.1532  0.0062  1.0000  -1.1654   0.0000   0.0000   0.0000   0.3916
  27.900   0.8639   0.34773   0.34633  -0.1535  0.0062  1.0000  -1.1560   0.0000   0.0000   0.0000   0.3919
  28.000   0.8631   0.34830   0.34690  -0.1538  0.0062  1.0000  -1.1464   0.0000   0.0000   0.0000   0.3922
  28.100   0.8623   0.34887   0.34748  -0.1541  0.0062  1.0000  -1.1370   0.0000   0.0000   0.0000   0.3926
  28.200   0.8616   0.34945   0.34806  -0.1544  0.0062  1.0000  -1.1279   0.0000   0.0000   0.0000   0.3929
  28.300   0.8609   0.35003   0.34864  -0.1547  0.0062  1.0000  -1.1189   0.0000   0.0000   0.0000   0.3932
  28.400   0.8602   0.35061   0.34924  -0.1550  0.0061  1.0000  -1.1101   0.0000   0.0000   0.0000   0.3935
  28.500   0.8595   0.35121   0.34983  -0.1553  0.0061  1.0000  -1.1014   0.0000   0.0000   0.0000   0.3939
  28.600   0.8589   0.35181   0.35045  -0.1557  0.0061  1.0000  -1.0924   0.0000   0.0000   0.0000   0.3942
  28.700   0.8583   0.35245   0.35109  -0.1560  0.0061  1.0000  -1.0821   0.0000   0.0000   0.0000   0.3945
  28.800   0.8577   0.35309   0.35173  -0.1564  0.0061  1.0000  -1.0718   0.0000   0.0000   0.0000   0.3949
  28.900   0.8571   0.35374   0.35239  -0.1567  0.0061  1.0000  -1.0617   0.0000   0.0000   0.0000   0.3952
  29.000   0.8566   0.35441   0.35306  -0.1571  0.0060  1.0000  -1.0517   0.0000   0.0000   0.0000   0.3956
  29.100   0.8562   0.35509   0.35375  -0.1575  0.0060  1.0000  -1.0416   0.0000   0.0000   0.0000   0.3959
  29.200   0.8558   0.35579   0.35446  -0.1578  0.0060  1.0000  -1.0314   0.0000   0.0000   0.0000   0.3962
  29.300   0.8554   0.35652   0.35519  -0.1582  0.0059  1.0000  -1.0210   0.0000   0.0000   0.0000   0.3966
  29.400   0.8552   0.35728   0.35595  -0.1586  0.0059  1.0000  -1.0101   0.0000   0.0000   0.0000   0.3969
  29.500   0.8551   0.35807   0.35675  -0.1591  0.0058  1.0000  -0.9984   0.0000   0.0000   0.0000   0.3972
  29.600   0.8550   0.35891   0.35758  -0.1595  0.0057  1.0000  -0.9857   0.0000   0.0000   0.0000   0.3975


