xflr5 v6.61

 Calculated polar for: SG6043

 1 1 Reynolds number fixed          Mach number fixed         

 xtrf =   1.000 (top)        1.000 (bottom)
 Mach =   0.000     Re =     0.719 e 6     Ncrit =   9.000

  alpha     CL        CD       CDp       Cm    Top Xtr Bot Xtr   Cpmin    Chinge    XCp    
 ------- -------- --------- --------- -------- ------- ------- -------- --------- ---------
 -10.000  -0.1629   0.11233   0.11018  -0.0728  0.9858  0.0106  -1.4223   0.0000   0.0000   0.0000  -0.2239
  -9.900  -0.1572   0.11078   0.10863  -0.0742  0.9855  0.0106  -1.4269   0.0000   0.0000   0.0000  -0.2499
  -9.800  -0.1514   0.10923   0.10707  -0.0756  0.9852  0.0106  -1.4316   0.0000   0.0000   0.0000  -0.2781
  -9.700  -0.1456   0.10767   0.10552  -0.0770  0.9849  0.0106  -1.4366   0.0000   0.0000   0.0000  -0.3089
  -9.600  -0.1397   0.10611   0.10396  -0.0785  0.9846  0.0107  -1.4417   0.0000   0.0000   0.0000  -0.3427
  -9.500  -0.1360   0.10474   0.10259  -0.0793  0.9832  0.0107  -1.4476   0.0000   0.0000   0.0000  -0.3640
  -9.400  -0.1325   0.10338   0.10124  -0.0800  0.9815  0.0107  -1.4538   0.0000   0.0000   0.0000  -0.3853
  -9.300  -0.1277   0.10192   0.09978  -0.0810  0.9803  0.0107  -1.4598   0.0000   0.0000   0.0000  -0.4173
  -9.200  -0.1226   0.10042   0.09828  -0.0823  0.9793  0.0107  -1.4660   0.0000   0.0000   0.0000  -0.4552
  -9.100  -0.1171   0.09890   0.09676  -0.0836  0.9785  0.0107  -1.4724   0.0000   0.0000   0.0000  -0.4990
  -9.000  -0.1115   0.09736   0.09522  -0.0850  0.9777  0.0107  -1.4790   0.0000   0.0000   0.0000  -0.5493
  -8.900  -0.1056   0.09581   0.09367  -0.0865  0.9771  0.0107  -1.4860   0.0000   0.0000   0.0000  -0.6074
  -8.800  -0.0994   0.09422   0.09208  -0.0880  0.9764  0.0107  -1.4933   0.0000   0.0000   0.0000  -0.6759
  -8.700  -0.0931   0.09260   0.09046  -0.0896  0.9759  0.0107  -1.5008   0.0000   0.0000   0.0000  -0.7563
  -8.600  -0.0865   0.09097   0.08883  -0.0913  0.9753  0.0107  -1.5089   0.0000   0.0000   0.0000  -0.8509
  -8.500  -0.0799   0.08933   0.08719  -0.0930  0.9749  0.0107  -1.5175   0.0000   0.0000   0.0000  -0.9633
  -8.400  -0.0732   0.08768   0.08554  -0.0948  0.9744  0.0107  -1.5266   0.0000   0.0000   0.0000  -1.0986
  -8.300  -0.0664   0.08602   0.08388  -0.0966  0.9740  0.0107  -1.5365   0.0000   0.0000   0.0000  -1.2637
  -8.200  -0.0643   0.08477   0.08264  -0.0969  0.9712  0.0107  -1.5477   0.0000   0.0000   0.0000  -1.3176
  -8.100  -0.0617   0.08347   0.08134  -0.0974  0.9682  0.0106  -1.5595   0.0000   0.0000   0.0000  -1.3893
  -8.000  -0.0565   0.08190   0.07978  -0.0988  0.9666  0.0106  -1.5722   0.0000   0.0000   0.0000  -1.5655
  -7.900  -0.0506   0.08026   0.07814  -0.1004  0.9653  0.0106  -1.5862   0.0000   0.0000   0.0000  -1.8085
  -7.800  -0.0443   0.07856   0.07644  -0.1021  0.9642  0.0106  -1.6021   0.0000   0.0000   0.0000  -2.1381
  -7.700  -0.0378   0.07680   0.07468  -0.1040  0.9632  0.0106  -1.6206   0.0000   0.0000   0.0000  -2.5974
  -7.600  -0.0311   0.07497   0.07285  -0.1061  0.9624  0.0106  -1.6427   0.0000   0.0000   0.0000  -3.2733
  -7.000  -0.0074   0.05929   0.05718  -0.1241  0.9461  0.0120  -2.2019   0.0000   0.0000   0.0000  -16.9173
  -6.900   0.0043   0.05823   0.05611  -0.1268  0.9452  0.0125  -2.1161   0.0000   0.0000   0.0000  30.1979
  -6.800   0.0164   0.05768   0.05556  -0.1284  0.9444  0.0130  -1.9994   0.0000   0.0000   0.0000   8.2923
  -6.700   0.0190   0.05725   0.05513  -0.1281  0.9391  0.0133  -1.9420   0.0000   0.0000   0.0000   7.1795
  -6.600   0.0275   0.05670   0.05458  -0.1291  0.9364  0.0139  -1.8551   0.0000   0.0000   0.0000   5.0608
  -6.500   0.0380   0.05598   0.05386  -0.1308  0.9343  0.0149  -1.7720   0.0000   0.0000   0.0000   3.7694
  -6.300   0.0767   0.05464   0.05246  -0.1380  0.9308  0.0207  -1.6846   0.0000   0.0000   0.0000   2.0892
  -6.200   0.0925   0.05225   0.05004  -0.1432  0.9286  0.0208  -1.7104   0.0000   0.0000   0.0000   1.8305
  -6.100   0.1086   0.04975   0.04751  -0.1485  0.9264  0.0208  -1.7252   0.0000   0.0000   0.0000   1.6440
  -6.000   0.1157   0.04798   0.04571  -0.1507  0.9215  0.0208  -1.7397   0.0000   0.0000   0.0000   1.5773
  -5.900   0.1253   0.04601   0.04370  -0.1535  0.9171  0.0209  -1.7522   0.0000   0.0000   0.0000   1.4981
  -5.800   0.1372   0.04387   0.04150  -0.1567  0.9137  0.0209  -1.7625   0.0000   0.0000   0.0000   1.4130
  -5.700   0.1459   0.03332   0.03063  -0.1688  0.9073  0.0219  -2.1932   0.0000   0.0000   0.0000   1.4261
  -5.600   0.1556   0.03149   0.02871  -0.1709  0.9044  0.0226  -2.1646   0.0000   0.0000   0.0000   1.3661
  -5.500   0.1626   0.03065   0.02784  -0.1712  0.9014  0.0230  -2.1111   0.0000   0.0000   0.0000   1.3200
  -5.400   0.1709   0.02992   0.02707  -0.1717  0.8984  0.0233  -2.0482   0.0000   0.0000   0.0000   1.2700
  -5.300   0.1801   0.02943   0.02656  -0.1720  0.8957  0.0237  -1.9685   0.0000   0.0000   0.0000   1.2197
  -5.200   0.1902   0.02887   0.02597  -0.1726  0.8932  0.0241  -1.8906   0.0000   0.0000   0.0000   1.1706
  -5.100   0.2011   0.02824   0.02529  -0.1733  0.8907  0.0245  -1.8269   0.0000   0.0000   0.0000   1.1244
  -5.000   0.2125   0.02753   0.02453  -0.1742  0.8883  0.0251  -1.7789   0.0000   0.0000   0.0000   1.0813
  -4.900   0.2244   0.02676   0.02369  -0.1751  0.8859  0.0257  -1.7364   0.0000   0.0000   0.0000   1.0413
  -4.800   0.2368   0.02593   0.02278  -0.1762  0.8834  0.0264  -1.6992   0.0000   0.0000   0.0000   1.0039
  -4.700   0.2476   0.02519   0.02197  -0.1767  0.8810  0.0273  -1.6649   0.0000   0.0000   0.0000   0.9732
  -4.600   0.2571   0.02455   0.02128  -0.1769  0.8788  0.0285  -1.6329   0.0000   0.0000   0.0000   0.9470
  -4.500   0.2674   0.02399   0.02066  -0.1770  0.8764  0.0302  -1.6033   0.0000   0.0000   0.0000   0.9204
  -4.400   0.2788   0.02405   0.02069  -0.1767  0.8743  0.0322  -1.5566   0.0000   0.0000   0.0000   0.8918
  -4.300   0.2916   0.02539   0.02203  -0.1759  0.8724  0.0337  -1.4629   0.0000   0.0000   0.0000   0.8606
  -4.200   0.3030   0.02506   0.02161  -0.1761  0.8701  0.0339  -1.4324   0.0000   0.0000   0.0000   0.8382
  -4.100   0.3143   0.02436   0.02082  -0.1766  0.8678  0.0340  -1.4134   0.0000   0.0000   0.0000   0.8183
  -4.000   0.3258   0.02357   0.01993  -0.1771  0.8655  0.0341  -1.3963   0.0000   0.0000   0.0000   0.7998
  -3.900   0.3360   0.01813   0.01402  -0.1801  0.8628  0.0362  -1.5663   0.0000   0.0000   0.0000   0.7920
  -3.800   0.3477   0.01739   0.01322  -0.1807  0.8605  0.0371  -1.5254   0.0000   0.0000   0.0000   0.7752
  -3.700   0.3600   0.01688   0.01265  -0.1812  0.8579  0.0378  -1.4783   0.0000   0.0000   0.0000   0.7587
  -3.600   0.3707   0.01647   0.01221  -0.1813  0.8559  0.0384  -1.4325   0.0000   0.0000   0.0000   0.7440
  -3.500   0.3807   0.01610   0.01182  -0.1812  0.8540  0.0390  -1.3888   0.0000   0.0000   0.0000   0.7307
  -3.400   0.3911   0.01573   0.01142  -0.1812  0.8520  0.0397  -1.3463   0.0000   0.0000   0.0000   0.7177
  -3.300   0.4017   0.01537   0.01102  -0.1811  0.8498  0.0405  -1.3052   0.0000   0.0000   0.0000   0.7052
  -3.200   0.4125   0.01501   0.01061  -0.1812  0.8477  0.0414  -1.2660   0.0000   0.0000   0.0000   0.6931
  -3.100   0.4235   0.01464   0.01020  -0.1812  0.8454  0.0424  -1.2291   0.0000   0.0000   0.0000   0.6815
  -3.000   0.4349   0.01427   0.00977  -0.1812  0.8432  0.0433  -1.1946   0.0000   0.0000   0.0000   0.6702
  -2.900   0.4466   0.01386   0.00929  -0.1813  0.8411  0.0441  -1.1653   0.0000   0.0000   0.0000   0.6593
  -2.800   0.4586   0.01324   0.00855  -0.1815  0.8390  0.0438  -1.1529   0.0000   0.0000   0.0000   0.6488
  -2.300   0.5219   0.00906   0.00358  -0.1814  0.8288  0.0199  -1.3665   0.0000   0.0000   0.0000   0.5999
  -2.200   0.5328   0.00881   0.00330  -0.1813  0.8272  0.0197  -1.3354   0.0000   0.0000   0.0000   0.5924
  -2.100   0.5437   0.00860   0.00306  -0.1812  0.8254  0.0195  -1.3007   0.0000   0.0000   0.0000   0.5853
  -2.000   0.5548   0.00843   0.00285  -0.1812  0.8235  0.0194  -1.2633   0.0000   0.0000   0.0000   0.5783
  -1.900   0.5660   0.00828   0.00267  -0.1811  0.8214  0.0193  -1.2237   0.0000   0.0000   0.0000   0.5716
  -1.800   0.5772   0.00816   0.00251  -0.1811  0.8192  0.0193  -1.1823   0.0000   0.0000   0.0000   0.5652
  -1.700   0.5885   0.00806   0.00238  -0.1810  0.8170  0.0193  -1.1395   0.0000   0.0000   0.0000   0.5589
  -1.600   0.6000   0.00798   0.00225  -0.1810  0.8148  0.0194  -1.0957   0.0000   0.0000   0.0000   0.5529
  -1.500   0.6115   0.00791   0.00214  -0.1810  0.8125  0.0195  -1.0514   0.0000   0.0000   0.0000   0.5471
  -1.400   0.6230   0.00786   0.00205  -0.1810  0.8100  0.0198  -1.0075   0.0000   0.0000   0.0000   0.5415
  -1.300   0.6346   0.00782   0.00196  -0.1811  0.8074  0.0204  -0.9654   0.0000   0.0000   0.0000   0.5360
  -1.000   0.6701   0.00747   0.00186  -0.1816  0.7997  0.1076  -0.8550   0.0000   0.0000   0.0000   0.5212
  -0.900   0.6808   0.00742   0.00185  -0.1815  0.7980  0.1219  -0.7955   0.0000   0.0000   0.0000   0.5167
  -0.800   0.6916   0.00735   0.00185  -0.1814  0.7960  0.1424  -0.7522   0.0000   0.0000   0.0000   0.5124
  -0.700   0.7025   0.00728   0.00185  -0.1814  0.7938  0.1666  -0.7596   0.0000   0.0000   0.0000   0.5081
  -0.600   0.7134   0.00720   0.00185  -0.1814  0.7914  0.1940  -0.7670   0.0000   0.0000   0.0000   0.5040
  -0.500   0.7245   0.00713   0.00185  -0.1814  0.7889  0.2249  -0.7745   0.0000   0.0000   0.0000   0.5000
  -0.400   0.7356   0.00706   0.00185  -0.1815  0.7863  0.2551  -0.7826   0.0000   0.0000   0.0000   0.4962
  -0.300   0.7466   0.00708   0.00182  -0.1814  0.7835  0.2523  -0.7908   0.0000   0.0000   0.0000   0.4923
  -0.200   0.7579   0.00696   0.00183  -0.1815  0.7805  0.3073  -0.7996   0.0000   0.0000   0.0000   0.4887
  -0.100   0.7693   0.00685   0.00184  -0.1816  0.7773  0.3698  -0.8087   0.0000   0.0000   0.0000   0.4852
   0.000   0.7809   0.00673   0.00188  -0.1819  0.7739  0.4447  -0.8180   0.0000   0.0000   0.0000   0.4819
   0.100   0.7927   0.00664   0.00194  -0.1821  0.7705  0.5103  -0.8273   0.0000   0.0000   0.0000   0.4786
   0.200   0.8032   0.00656   0.00197  -0.1820  0.7687  0.5513  -0.8366   0.0000   0.0000   0.0000   0.4753
   0.300   0.8138   0.00649   0.00201  -0.1819  0.7666  0.5918  -0.8462   0.0000   0.0000   0.0000   0.4721
   0.400   0.8243   0.00641   0.00205  -0.1817  0.7641  0.6374  -0.8558   0.0000   0.0000   0.0000   0.4690
   0.500   0.8347   0.00632   0.00209  -0.1815  0.7614  0.6874  -0.8653   0.0000   0.0000   0.0000   0.4659
   0.600   0.8448   0.00625   0.00214  -0.1813  0.7583  0.7362  -0.8754   0.0000   0.0000   0.0000   0.4628
   0.700   0.8544   0.00617   0.00218  -0.1809  0.7550  0.7810  -0.8860   0.0000   0.0000   0.0000   0.4598
   0.800   0.8636   0.00612   0.00220  -0.1803  0.7516  0.8200  -0.8968   0.0000   0.0000   0.0000   0.4568
   0.900   0.8719   0.00607   0.00222  -0.1796  0.7480  0.8561  -0.9071   0.0000   0.0000   0.0000   0.4539
   1.000   0.8792   0.00604   0.00222  -0.1786  0.7439  0.8908  -0.9168   0.0000   0.0000   0.0000   0.4509
   1.100   0.8856   0.00599   0.00221  -0.1774  0.7393  0.9385  -0.9259   0.0000   0.0000   0.0000   0.4480
   1.200   0.8977   0.00593   0.00218  -0.1775  0.7370  1.0000  -0.9394   0.0000   0.0000   0.0000   0.4453
   1.300   0.9086   0.00595   0.00219  -0.1774  0.7341  1.0000  -0.9525   0.0000   0.0000   0.0000   0.4428
   1.400   0.9195   0.00597   0.00220  -0.1774  0.7308  1.0000  -0.9658   0.0000   0.0000   0.0000   0.4403
   1.500   0.9303   0.00599   0.00221  -0.1773  0.7271  1.0000  -0.9802   0.0000   0.0000   0.0000   0.4378
   1.600   0.9412   0.00602   0.00222  -0.1772  0.7232  1.0000  -0.9949   0.0000   0.0000   0.0000   0.4354
   1.700   0.9518   0.00606   0.00223  -0.1771  0.7189  1.0000  -1.0095   0.0000   0.0000   0.0000   0.4330
   1.800   0.9623   0.00611   0.00224  -0.1769  0.7142  1.0000  -1.0257   0.0000   0.0000   0.0000   0.4307
   1.900   0.9726   0.00617   0.00225  -0.1767  0.7088  1.0000  -1.0419   0.0000   0.0000   0.0000   0.4285
   2.000   0.9833   0.00620   0.00227  -0.1766  0.7049  1.0000  -1.0584   0.0000   0.0000   0.0000   0.4263
   2.100   0.9941   0.00623   0.00230  -0.1765  0.7012  1.0000  -1.0750   0.0000   0.0000   0.0000   0.4241
   2.200   1.0047   0.00626   0.00232  -0.1764  0.6967  1.0000  -1.0927   0.0000   0.0000   0.0000   0.4220
   2.300   1.0151   0.00630   0.00237  -0.1762  0.6913  1.0000  -1.1138   0.0000   0.0000   0.0000   0.4199
   2.400   1.0253   0.00635   0.00239  -0.1760  0.6854  1.0000  -1.1347   0.0000   0.0000   0.0000   0.4178
   2.500   1.0351   0.00642   0.00241  -0.1757  0.6792  1.0000  -1.1553   0.0000   0.0000   0.0000   0.4158
   2.600   1.0449   0.00649   0.00244  -0.1754  0.6728  1.0000  -1.1760   0.0000   0.0000   0.0000   0.4138
   2.700   1.0556   0.00652   0.00247  -0.1753  0.6687  1.0000  -1.1977   0.0000   0.0000   0.0000   0.4119
   2.800   1.0661   0.00656   0.00250  -0.1752  0.6635  1.0000  -1.2193   0.0000   0.0000   0.0000   0.4100
   2.900   1.0763   0.00662   0.00253  -0.1750  0.6575  1.0000  -1.2407   0.0000   0.0000   0.0000   0.4081
   3.000   1.0859   0.00669   0.00256  -0.1746  0.6500  1.0000  -1.2616   0.0000   0.0000   0.0000   0.4063
   3.100   1.0946   0.00680   0.00260  -0.1741  0.6409  1.0000  -1.2816   0.0000   0.0000   0.0000   0.4044
   3.200   1.1047   0.00686   0.00264  -0.1739  0.6342  1.0000  -1.3031   0.0000   0.0000   0.0000   0.4026
   3.300   1.1147   0.00692   0.00268  -0.1736  0.6261  1.0000  -1.3253   0.0000   0.0000   0.0000   0.4009
   3.400   1.1240   0.00701   0.00272  -0.1732  0.6171  1.0000  -1.3493   0.0000   0.0000   0.0000   0.3991
   3.500   1.1326   0.00713   0.00278  -0.1727  0.6080  1.0000  -1.3725   0.0000   0.0000   0.0000   0.3973
   3.600   1.1422   0.00721   0.00283  -0.1724  0.6014  1.0000  -1.3970   0.0000   0.0000   0.0000   0.3957
   3.700   1.1525   0.00727   0.00288  -0.1722  0.5952  1.0000  -1.4224   0.0000   0.0000   0.0000   0.3940
   3.800   1.1622   0.00735   0.00293  -0.1720  0.5876  1.0000  -1.4473   0.0000   0.0000   0.0000   0.3924
   3.900   1.1712   0.00746   0.00299  -0.1715  0.5790  1.0000  -1.4714   0.0000   0.0000   0.0000   0.3908
   4.000   1.1794   0.00760   0.00307  -0.1709  0.5696  1.0000  -1.4946   0.0000   0.0000   0.0000   0.3891
   4.100   1.1894   0.00767   0.00312  -0.1707  0.5628  1.0000  -1.5202   0.0000   0.0000   0.0000   0.3876
   4.200   1.1988   0.00776   0.00319  -0.1704  0.5534  1.0000  -1.5451   0.0000   0.0000   0.0000   0.3861
   4.300   1.2069   0.00791   0.00327  -0.1697  0.5419  1.0000  -1.5699   0.0000   0.0000   0.0000   0.3845
   4.400   1.2149   0.00806   0.00336  -0.1691  0.5308  1.0000  -1.5983   0.0000   0.0000   0.0000   0.3829
   4.500   1.2243   0.00816   0.00343  -0.1688  0.5211  1.0000  -1.6327   0.0000   0.0000   0.0000   0.3815
   4.600   1.2325   0.00831   0.00352  -0.1682  0.5094  1.0000  -1.6655   0.0000   0.0000   0.0000   0.3800
   4.700   1.2399   0.00849   0.00362  -0.1675  0.4975  1.0000  -1.6969   0.0000   0.0000   0.0000   0.3784
   4.800   1.2494   0.00859   0.00370  -0.1672  0.4896  1.0000  -1.7321   0.0000   0.0000   0.0000   0.3770
   4.900   1.2581   0.00871   0.00379  -0.1668  0.4793  1.0000  -1.7662   0.0000   0.0000   0.0000   0.3756
   5.000   1.2656   0.00890   0.00396  -0.1661  0.4675  1.0000  -1.7992   0.0000   0.0000   0.0000   0.3741
   5.100   1.2740   0.00904   0.00406  -0.1655  0.4576  1.0000  -1.8333   0.0000   0.0000   0.0000   0.3727
   5.200   1.2829   0.00916   0.00415  -0.1651  0.4479  1.0000  -1.8684   0.0000   0.0000   0.0000   0.3714
   5.300   1.2902   0.00936   0.00428  -0.1644  0.4347  1.0000  -1.9008   0.0000   0.0000   0.0000   0.3700
   5.400   1.2974   0.00956   0.00440  -0.1637  0.4212  1.0000  -1.9331   0.0000   0.0000   0.0000   0.3686
   5.500   1.3050   0.00975   0.00453  -0.1631  0.4065  1.0000  -1.9662   0.0000   0.0000   0.0000   0.3672
   5.600   1.3108   0.01003   0.00469  -0.1621  0.3891  1.0000  -1.9962   0.0000   0.0000   0.0000   0.3658
   5.700   1.3183   0.01021   0.00482  -0.1614  0.3749  1.0000  -2.0295   0.0000   0.0000   0.0000   0.3645
   5.800   1.3236   0.01050   0.00499  -0.1604  0.3579  1.0000  -2.0589   0.0000   0.0000   0.0000   0.3630
   5.900   1.3311   0.01067   0.00511  -0.1597  0.3462  1.0000  -2.0925   0.0000   0.0000   0.0000   0.3617
   6.000   1.3379   0.01088   0.00526  -0.1589  0.3339  1.0000  -2.1249   0.0000   0.0000   0.0000   0.3604
   6.100   1.3442   0.01112   0.00542  -0.1580  0.3211  1.0000  -2.1563   0.0000   0.0000   0.0000   0.3591
   6.200   1.3522   0.01127   0.00554  -0.1575  0.3125  1.0000  -2.1913   0.0000   0.0000   0.0000   0.3578
   6.300   1.3591   0.01148   0.00569  -0.1567  0.3016  1.0000  -2.2243   0.0000   0.0000   0.0000   0.3565
   6.400   1.3651   0.01173   0.00587  -0.1558  0.2891  1.0000  -2.2557   0.0000   0.0000   0.0000   0.3552
   6.500   1.3731   0.01189   0.00600  -0.1553  0.2813  1.0000  -2.2909   0.0000   0.0000   0.0000   0.3540
   6.600   1.3801   0.01209   0.00615  -0.1546  0.2714  1.0000  -2.3246   0.0000   0.0000   0.0000   0.3528
   6.700   1.3860   0.01235   0.00634  -0.1537  0.2599  1.0000  -2.3563   0.0000   0.0000   0.0000   0.3515
   6.800   1.3936   0.01253   0.00648  -0.1530  0.2518  1.0000  -2.3912   0.0000   0.0000   0.0000   0.3503
   6.900   1.4008   0.01272   0.00663  -0.1524  0.2433  1.0000  -2.4257   0.0000   0.0000   0.0000   0.3491
   7.000   1.4068   0.01297   0.00683  -0.1515  0.2334  1.0000  -2.4612   0.0000   0.0000   0.0000   0.3479
   7.100   1.4135   0.01320   0.00700  -0.1507  0.2242  1.0000  -2.5014   0.0000   0.0000   0.0000   0.3467
   7.200   1.4209   0.01337   0.00716  -0.1501  0.2175  1.0000  -2.5436   0.0000   0.0000   0.0000   0.3456
   7.300   1.4274   0.01359   0.00733  -0.1493  0.2094  1.0000  -2.5841   0.0000   0.0000   0.0000   0.3444
   7.400   1.4332   0.01387   0.00755  -0.1485  0.2001  1.0000  -2.6230   0.0000   0.0000   0.0000   0.3432
   7.500   1.4405   0.01405   0.00771  -0.1478  0.1936  1.0000  -2.6715   0.0000   0.0000   0.0000   0.3421
   7.600   1.4476   0.01425   0.00788  -0.1472  0.1874  1.0000  -2.7228   0.0000   0.0000   0.0000   0.3410
   7.700   1.4538   0.01450   0.00808  -0.1463  0.1799  1.0000  -2.7717   0.0000   0.0000   0.0000   0.3399
   7.800   1.4593   0.01479   0.00831  -0.1454  0.1708  1.0000  -2.8187   0.0000   0.0000   0.0000   0.3387
   7.900   1.4663   0.01498   0.00849  -0.1448  0.1652  1.0000  -2.8705   0.0000   0.0000   0.0000   0.3376
   8.000   1.4725   0.01522   0.00878  -0.1439  0.1586  1.0000  -2.9192   0.0000   0.0000   0.0000   0.3365
   8.100   1.4779   0.01551   0.00902  -0.1430  0.1514  1.0000  -2.9669   0.0000   0.0000   0.0000   0.3354
   8.200   1.4835   0.01580   0.00927  -0.1421  0.1430  1.0000  -3.0152   0.0000   0.0000   0.0000   0.3343
   8.300   1.4907   0.01599   0.00945  -0.1415  0.1392  1.0000  -3.0689   0.0000   0.0000   0.0000   0.3332
   8.400   1.4971   0.01622   0.00967  -0.1408  0.1343  1.0000  -3.1207   0.0000   0.0000   0.0000   0.3322
   8.500   1.5027   0.01650   0.00991  -0.1399  0.1288  1.0000  -3.1703   0.0000   0.0000   0.0000   0.3311
   8.600   1.5080   0.01681   0.01017  -0.1390  0.1223  1.0000  -3.2189   0.0000   0.0000   0.0000   0.3300
   8.700   1.5145   0.01704   0.01040  -0.1383  0.1178  1.0000  -3.2717   0.0000   0.0000   0.0000   0.3290
   8.800   1.5213   0.01725   0.01061  -0.1377  0.1146  1.0000  -3.3258   0.0000   0.0000   0.0000   0.3280
   8.900   1.5273   0.01751   0.01084  -0.1369  0.1107  1.0000  -3.3781   0.0000   0.0000   0.0000   0.3270
   9.000   1.5327   0.01780   0.01110  -0.1360  0.1063  1.0000  -3.4285   0.0000   0.0000   0.0000   0.3259
   9.100   1.5380   0.01811   0.01138  -0.1352  0.1011  1.0000  -3.4785   0.0000   0.0000   0.0000   0.3249
   9.200   1.5438   0.01839   0.01165  -0.1344  0.0967  1.0000  -3.5302   0.0000   0.0000   0.0000   0.3239
   9.300   1.5506   0.01859   0.01187  -0.1338  0.0949  1.0000  -3.5861   0.0000   0.0000   0.0000   0.3230
   9.400   1.5569   0.01883   0.01211  -0.1331  0.0926  1.0000  -3.6406   0.0000   0.0000   0.0000   0.3220
   9.500   1.5628   0.01910   0.01237  -0.1323  0.0898  1.0000  -3.6937   0.0000   0.0000   0.0000   0.3210
   9.600   1.5682   0.01940   0.01266  -0.1315  0.0869  1.0000  -3.7458   0.0000   0.0000   0.0000   0.3201
   9.700   1.5734   0.01973   0.01295  -0.1307  0.0838  1.0000  -3.7974   0.0000   0.0000   0.0000   0.3191
   9.800   1.5787   0.02005   0.01326  -0.1299  0.0801  1.0000  -3.8490   0.0000   0.0000   0.0000   0.3181
   9.900   1.5841   0.02036   0.01358  -0.1290  0.0769  1.0000  -3.9009   0.0000   0.0000   0.0000   0.3172
  10.000   1.5908   0.02058   0.01382  -0.1285  0.0759  1.0000  -3.9586   0.0000   0.0000   0.0000   0.3163
  10.100   1.5971   0.02083   0.01409  -0.1278  0.0745  1.0000  -4.0166   0.0000   0.0000   0.0000   0.3154
  10.200   1.6030   0.02111   0.01438  -0.1271  0.0726  1.0000  -4.0836   0.0000   0.0000   0.0000   0.3145
  10.300   1.6086   0.02142   0.01468  -0.1264  0.0706  1.0000  -4.1494   0.0000   0.0000   0.0000   0.3136
  10.400   1.6137   0.02176   0.01501  -0.1256  0.0683  1.0000  -4.2136   0.0000   0.0000   0.0000   0.3127
  10.500   1.6184   0.02213   0.01536  -0.1248  0.0659  1.0000  -4.2767   0.0000   0.0000   0.0000   0.3118
  10.600   1.6229   0.02252   0.01574  -0.1239  0.0630  1.0000  -4.3385   0.0000   0.0000   0.0000   0.3108
  10.700   1.6268   0.02293   0.01616  -0.1230  0.0600  1.0000  -4.3975   0.0000   0.0000   0.0000   0.3099
  10.800   1.6322   0.02324   0.01649  -0.1223  0.0589  1.0000  -4.4646   0.0000   0.0000   0.0000   0.3090
  10.900   1.6387   0.02348   0.01678  -0.1217  0.0577  1.0000  -4.5347   0.0000   0.0000   0.0000   0.3082
  11.000   1.6442   0.02379   0.01710  -0.1211  0.0561  1.0000  -4.6032   0.0000   0.0000   0.0000   0.3074
  11.100   1.6492   0.02415   0.01745  -0.1203  0.0540  1.0000  -4.6698   0.0000   0.0000   0.0000   0.3066
  11.200   1.6535   0.02456   0.01784  -0.1195  0.0518  1.0000  -4.7340   0.0000   0.0000   0.0000   0.3057
  11.300   1.6570   0.02503   0.01828  -0.1186  0.0495  1.0000  -4.7950   0.0000   0.0000   0.0000   0.3048
  11.400   1.6605   0.02550   0.01874  -0.1178  0.0468  1.0000  -4.8558   0.0000   0.0000   0.0000   0.3040
  11.500   1.6642   0.02598   0.01922  -0.1169  0.0442  1.0000  -4.9164   0.0000   0.0000   0.0000   0.3031
  11.600   1.6698   0.02630   0.01957  -0.1163  0.0434  1.0000  -4.9879   0.0000   0.0000   0.0000   0.3023
  11.700   1.6754   0.02663   0.01992  -0.1157  0.0427  1.0000  -5.0601   0.0000   0.0000   0.0000   0.3016
  11.800   1.6807   0.02700   0.02031  -0.1151  0.0418  1.0000  -5.1306   0.0000   0.0000   0.0000   0.3008
  11.900   1.6854   0.02740   0.02072  -0.1144  0.0408  1.0000  -5.1992   0.0000   0.0000   0.0000   0.3000
  12.000   1.6897   0.02784   0.02117  -0.1137  0.0398  1.0000  -5.2657   0.0000   0.0000   0.0000   0.2992
  12.100   1.6937   0.02830   0.02164  -0.1130  0.0387  1.0000  -5.3314   0.0000   0.0000   0.0000   0.2984
  12.200   1.6976   0.02877   0.02212  -0.1122  0.0378  1.0000  -5.3970   0.0000   0.0000   0.0000   0.2976
  12.300   1.7015   0.02926   0.02261  -0.1115  0.0368  1.0000  -5.4625   0.0000   0.0000   0.0000   0.2969
  12.400   1.7053   0.02976   0.02311  -0.1108  0.0357  1.0000  -5.5276   0.0000   0.0000   0.0000   0.2961
  12.500   1.7091   0.03026   0.02362  -0.1101  0.0345  1.0000  -5.5928   0.0000   0.0000   0.0000   0.2954
  12.600   1.7125   0.03079   0.02416  -0.1093  0.0333  1.0000  -5.6562   0.0000   0.0000   0.0000   0.2946
  12.700   1.7156   0.03135   0.02474  -0.1086  0.0322  1.0000  -5.7178   0.0000   0.0000   0.0000   0.2938
  12.800   1.7186   0.03192   0.02534  -0.1078  0.0312  1.0000  -5.7789   0.0000   0.0000   0.0000   0.2931
  12.900   1.7225   0.03242   0.02586  -0.1072  0.0306  1.0000  -5.8460   0.0000   0.0000   0.0000   0.2924
  13.000   1.7273   0.03284   0.02632  -0.1066  0.0304  1.0000  -5.9184   0.0000   0.0000   0.0000   0.2917
  13.100   1.7320   0.03328   0.02679  -0.1061  0.0302  1.0000  -5.9905   0.0000   0.0000   0.0000   0.2910
  13.200   1.7366   0.03373   0.02727  -0.1055  0.0298  1.0000  -6.0622   0.0000   0.0000   0.0000   0.2903
  13.300   1.7405   0.03423   0.02779  -0.1049  0.0294  1.0000  -6.1310   0.0000   0.0000   0.0000   0.2896
  13.400   1.7438   0.03477   0.02836  -0.1043  0.0290  1.0000  -6.1970   0.0000   0.0000   0.0000   0.2889
  13.500   1.7470   0.03532   0.02894  -0.1036  0.0284  1.0000  -6.2626   0.0000   0.0000   0.0000   0.2882
  13.600   1.7502   0.03589   0.02953  -0.1030  0.0278  1.0000  -6.3285   0.0000   0.0000   0.0000   0.2876
  13.700   1.7533   0.03647   0.03014  -0.1024  0.0271  1.0000  -6.3946   0.0000   0.0000   0.0000   0.2869
  13.800   1.7564   0.03708   0.03076  -0.1017  0.0264  1.0000  -6.4604   0.0000   0.0000   0.0000   0.2862
  13.900   1.7593   0.03771   0.03140  -0.1011  0.0256  1.0000  -6.5255   0.0000   0.0000   0.0000   0.2856
  14.000   1.7616   0.03840   0.03211  -0.1005  0.0248  1.0000  -6.5878   0.0000   0.0000   0.0000   0.2849
  14.100   1.7633   0.03916   0.03288  -0.0999  0.0240  1.0000  -6.6467   0.0000   0.0000   0.0000   0.2843
  14.200   1.7652   0.03991   0.03370  -0.0992  0.0236  1.0000  -6.7072   0.0000   0.0000   0.0000   0.2836
  14.300   1.7672   0.04068   0.03448  -0.0986  0.0229  1.0000  -6.7675   0.0000   0.0000   0.0000   0.2830
  14.400   1.7692   0.04144   0.03526  -0.0980  0.0221  1.0000  -6.8279   0.0000   0.0000   0.0000   0.2824
  14.500   1.7712   0.04221   0.03606  -0.0975  0.0212  1.0000  -6.8879   0.0000   0.0000   0.0000   0.2818
  14.600   1.7730   0.04302   0.03690  -0.0969  0.0203  1.0000  -6.9619   0.0000   0.0000   0.0000   0.2812
  14.700   1.7746   0.04385   0.03776  -0.0963  0.0199  1.0000  -7.0549   0.0000   0.0000   0.0000   0.2806
  14.800   1.7770   0.04461   0.03856  -0.0959  0.0197  1.0000  -7.1549   0.0000   0.0000   0.0000   0.2801
  14.900   1.7795   0.04536   0.03934  -0.0954  0.0195  1.0000  -7.2567   0.0000   0.0000   0.0000   0.2795
  15.000   1.7821   0.04610   0.04012  -0.0950  0.0193  1.0000  -7.3600   0.0000   0.0000   0.0000   0.2790
  15.100   1.7847   0.04686   0.04090  -0.0945  0.0190  1.0000  -7.4634   0.0000   0.0000   0.0000   0.2784
  15.200   1.7872   0.04762   0.04170  -0.0941  0.0187  1.0000  -7.5664   0.0000   0.0000   0.0000   0.2779
  15.300   1.7895   0.04842   0.04252  -0.0937  0.0183  1.0000  -7.6685   0.0000   0.0000   0.0000   0.2773
  15.400   1.7909   0.04931   0.04345  -0.0933  0.0180  1.0000  -7.7635   0.0000   0.0000   0.0000   0.2768
  15.500   1.7919   0.05028   0.04445  -0.0929  0.0176  1.0000  -7.8552   0.0000   0.0000   0.0000   0.2763
  15.600   1.7931   0.05122   0.04542  -0.0925  0.0172  1.0000  -7.9492   0.0000   0.0000   0.0000   0.2759
  15.700   1.7944   0.05215   0.04637  -0.0921  0.0168  1.0000  -8.0445   0.0000   0.0000   0.0000   0.2754
  15.800   1.7956   0.05310   0.04734  -0.0917  0.0164  1.0000  -8.1396   0.0000   0.0000   0.0000   0.2749
  15.900   1.7967   0.05406   0.04833  -0.0914  0.0159  1.0000  -8.2343   0.0000   0.0000   0.0000   0.2744
  16.000   1.7974   0.05509   0.04939  -0.0910  0.0155  1.0000  -8.3249   0.0000   0.0000   0.0000   0.2740
  16.100   1.7969   0.05627   0.05060  -0.0907  0.0151  1.0000  -8.4056   0.0000   0.0000   0.0000   0.2736
  16.200   1.7966   0.05744   0.05178  -0.0904  0.0148  1.0000  -8.4884   0.0000   0.0000   0.0000   0.2732
  16.300   1.7967   0.05856   0.05293  -0.0902  0.0143  1.0000  -8.5751   0.0000   0.0000   0.0000   0.2728
  16.400   1.7970   0.05966   0.05406  -0.0899  0.0139  1.0000  -8.6630   0.0000   0.0000   0.0000   0.2724
  16.500   1.7973   0.06078   0.05521  -0.0896  0.0134  1.0000  -8.7508   0.0000   0.0000   0.0000   0.2720
  16.600   1.7968   0.06199   0.05645  -0.0894  0.0130  1.0000  -8.8322   0.0000   0.0000   0.0000   0.2716
  16.700   1.7953   0.06337   0.05787  -0.0893  0.0126  1.0000  -8.9039   0.0000   0.0000   0.0000   0.2713
  16.800   1.7941   0.06468   0.05923  -0.0891  0.0123  1.0000  -8.9781   0.0000   0.0000   0.0000   0.2710
  16.900   1.7931   0.06596   0.06055  -0.0889  0.0119  1.0000  -9.0537   0.0000   0.0000   0.0000   0.2707
  17.000   1.7920   0.06726   0.06189  -0.0887  0.0116  1.0000  -9.1287   0.0000   0.0000   0.0000   0.2704
  17.100   1.7920   0.06845   0.06311  -0.0886  0.0115  1.0000  -9.2150   0.0000   0.0000   0.0000   0.2701
  17.200   1.7913   0.06977   0.06448  -0.0886  0.0114  1.0000  -9.2960   0.0000   0.0000   0.0000   0.2698
  17.300   1.7906   0.07109   0.06585  -0.0886  0.0114  1.0000  -9.3772   0.0000   0.0000   0.0000   0.2696
  17.400   1.7906   0.07234   0.06713  -0.0886  0.0113  1.0000  -9.4647   0.0000   0.0000   0.0000   0.2693
  17.500   1.7908   0.07355   0.06839  -0.0886  0.0112  1.0000  -9.5550   0.0000   0.0000   0.0000   0.2691
  17.600   1.7911   0.07477   0.06965  -0.0886  0.0112  1.0000  -9.6459   0.0000   0.0000   0.0000   0.2688
  17.700   1.7911   0.07605   0.07097  -0.0887  0.0111  1.0000  -9.7338   0.0000   0.0000   0.0000   0.2686
  17.800   1.7893   0.07762   0.07259  -0.0888  0.0110  1.0000  -9.8041   0.0000   0.0000   0.0000   0.2684
  17.900   1.7879   0.07914   0.07415  -0.0890  0.0109  1.0000  -9.8779   0.0000   0.0000   0.0000   0.2683
  18.000   1.7873   0.08055   0.07561  -0.0891  0.0108  1.0000  -9.9594   0.0000   0.0000   0.0000   0.2681
  18.100   1.7867   0.08195   0.07705  -0.0893  0.0106  1.0000  -10.0420   0.0000   0.0000   0.0000   0.2680
  18.200   1.7861   0.08336   0.07850  -0.0894  0.0105  1.0000  -10.1234   0.0000   0.0000   0.0000   0.2678
  18.300   1.7842   0.08499   0.08018  -0.0897  0.0104  1.0000  -10.1920   0.0000   0.0000   0.0000   0.2677
  18.400   1.7813   0.08681   0.08204  -0.0901  0.0102  1.0000  -10.2495   0.0000   0.0000   0.0000   0.2678
  18.500   1.7796   0.08844   0.08371  -0.0904  0.0101  1.0000  -10.3192   0.0000   0.0000   0.0000   0.2677
  18.600   1.7785   0.08996   0.08528  -0.0907  0.0097  1.0000  -10.3920   0.0000   0.0000   0.0000   0.2676
  18.700   1.7770   0.09153   0.08689  -0.0910  0.0095  1.0000  -10.4633   0.0000   0.0000   0.0000   0.2676
  18.800   1.7745   0.09329   0.08869  -0.0914  0.0093  1.0000  -10.5238   0.0000   0.0000   0.0000   0.2676
  18.900   1.7705   0.09534   0.09078  -0.0920  0.0091  1.0000  -10.5674   0.0000   0.0000   0.0000   0.2678
  19.000   1.7678   0.09717   0.09265  -0.0925  0.0089  1.0000  -10.6245   0.0000   0.0000   0.0000   0.2679
  19.100   1.7655   0.09891   0.09443  -0.0930  0.0087  1.0000  -10.6855   0.0000   0.0000   0.0000   0.2679
  19.200   1.7631   0.10067   0.09623  -0.0935  0.0085  1.0000  -10.7451   0.0000   0.0000   0.0000   0.2680
  19.300   1.7589   0.10277   0.09837  -0.0942  0.0084  1.0000  -10.7844   0.0000   0.0000   0.0000   0.2683
  19.400   1.7545   0.10493   0.10058  -0.0949  0.0082  1.0000  -10.8199   0.0000   0.0000   0.0000   0.2686
  19.500   1.7512   0.10688   0.10256  -0.0956  0.0080  1.0000  -10.8673   0.0000   0.0000   0.0000   0.2688
  19.600   1.7480   0.10879   0.10451  -0.0963  0.0078  1.0000  -10.9155   0.0000   0.0000   0.0000   0.2690
  19.700   1.7442   0.11081   0.10658  -0.0970  0.0076  1.0000  -10.9564   0.0000   0.0000   0.0000   0.2692
  19.800   1.7383   0.11328   0.10909  -0.0981  0.0075  1.0000  -10.9713   0.0000   0.0000   0.0000   0.2697
  19.900   1.7341   0.11542   0.11128  -0.0990  0.0073  1.0000  -11.0039   0.0000   0.0000   0.0000   0.2701
  20.000   1.7303   0.11746   0.11336  -0.0998  0.0071  1.0000  -11.0421   0.0000   0.0000   0.0000   0.2705
  20.100   1.7265   0.11951   0.11545  -0.1007  0.0070  1.0000  -11.0785   0.0000   0.0000   0.0000   0.2708
  20.200   1.7201   0.12210   0.11810  -0.1020  0.0068  1.0000  -11.0820   0.0000   0.0000   0.0000   0.2715
  20.300   1.7153   0.12439   0.12043  -0.1031  0.0067  1.0000  -11.1029   0.0000   0.0000   0.0000   0.2720
  20.400   1.7112   0.12650   0.12259  -0.1041  0.0065  1.0000  -11.1330   0.0000   0.0000   0.0000   0.2724
  20.500   1.7073   0.12860   0.12473  -0.1051  0.0063  1.0000  -11.1635   0.0000   0.0000   0.0000   0.2729
  20.600   1.7006   0.13130   0.12749  -0.1065  0.0062  1.0000  -11.1565   0.0000   0.0000   0.0000   0.2737
  20.700   1.6954   0.13369   0.12994  -0.1078  0.0060  1.0000  -11.1669   0.0000   0.0000   0.0000   0.2744
  20.800   1.6911   0.13586   0.13215  -0.1090  0.0059  1.0000  -11.1886   0.0000   0.0000   0.0000   0.2749
  20.900   1.6871   0.13791   0.13425  -0.1101  0.0057  1.0000  -11.2113   0.0000   0.0000   0.0000   0.2755
  21.000   1.6800   0.14054   0.13693  -0.1118  0.0056  1.0000  -11.1910   0.0000   0.0000   0.0000   0.2765
  21.100   1.6746   0.14283   0.13928  -0.1132  0.0055  1.0000  -11.1909   0.0000   0.0000   0.0000   0.2773
  21.200   1.6701   0.14496   0.14146  -0.1146  0.0054  1.0000  -11.2032   0.0000   0.0000   0.0000   0.2780
  21.300   1.6663   0.14701   0.14355  -0.1159  0.0053  1.0000  -11.2239   0.0000   0.0000   0.0000   0.2786
  21.400   1.6587   0.14990   0.14650  -0.1177  0.0053  1.0000  -11.1895   0.0000   0.0000   0.0000   0.2798
  21.500   1.6536   0.15231   0.14896  -0.1192  0.0053  1.0000  -11.1886   0.0000   0.0000   0.0000   0.2806
  21.600   1.6497   0.15450   0.15120  -0.1206  0.0053  1.0000  -11.2043   0.0000   0.0000   0.0000   0.2814
  21.700   1.6456   0.15676   0.15351  -0.1220  0.0052  1.0000  -11.2159   0.0000   0.0000   0.0000   0.2821
  21.800   1.6372   0.16002   0.15683  -0.1241  0.0052  1.0000  -11.1627   0.0000   0.0000   0.0000   0.2835
  21.900   1.6317   0.16269   0.15955  -0.1258  0.0052  1.0000  -11.1495   0.0000   0.0000   0.0000   0.2845
  22.000   1.6272   0.16516   0.16206  -0.1273  0.0052  1.0000  -11.1506   0.0000   0.0000   0.0000   0.2854
  22.100   1.6224   0.16772   0.16467  -0.1289  0.0051  1.0000  -11.1457   0.0000   0.0000   0.0000   0.2863
  22.200   1.6131   0.17140   0.16841  -0.1312  0.0051  1.0000  -11.0702   0.0000   0.0000   0.0000   0.2880
  22.300   1.6073   0.17430   0.17137  -0.1330  0.0051  1.0000  -11.0462   0.0000   0.0000   0.0000   0.2891
  22.400   1.6024   0.17703   0.17414  -0.1346  0.0051  1.0000  -11.0334   0.0000   0.0000   0.0000   0.2901
  22.500   1.5970   0.17989   0.17705  -0.1364  0.0050  1.0000  -11.0120   0.0000   0.0000   0.0000   0.2912
  22.600   1.5870   0.18400   0.18122  -0.1389  0.0051  1.0000  -10.9157   0.0000   0.0000   0.0000   0.2931
  22.700   1.5811   0.18710   0.18437  -0.1408  0.0050  1.0000  -10.8820   0.0000   0.0000   0.0000   0.2944
  22.800   1.5758   0.19008   0.18739  -0.1426  0.0050  1.0000  -10.8566   0.0000   0.0000   0.0000   0.2955
  22.900   1.5702   0.19318   0.19054  -0.1444  0.0049  1.0000  -10.8245   0.0000   0.0000   0.0000   0.2968
  23.000   1.5597   0.19772   0.19515  -0.1471  0.0050  1.0000  -10.7064   0.0000   0.0000   0.0000   0.2989
  23.100   1.5536   0.20107   0.19854  -0.1490  0.0049  1.0000  -10.6617   0.0000   0.0000   0.0000   0.3003
  23.200   1.5484   0.20422   0.20173  -0.1509  0.0049  1.0000  -10.6299   0.0000   0.0000   0.0000   0.3015
  23.300   1.5426   0.20758   0.20514  -0.1528  0.0048  1.0000  -10.5861   0.0000   0.0000   0.0000   0.3029
  23.400   1.5317   0.21253   0.21016  -0.1556  0.0049  1.0000  -10.4483   0.0000   0.0000   0.0000   0.3052
  23.500   1.5258   0.21606   0.21373  -0.1576  0.0049  1.0000  -10.3971   0.0000   0.0000   0.0000   0.3067
  23.600   1.5206   0.21941   0.21711  -0.1594  0.0048  1.0000  -10.3574   0.0000   0.0000   0.0000   0.3080
  23.700   1.5149   0.22293   0.22068  -0.1613  0.0047  1.0000  -10.3075   0.0000   0.0000   0.0000   0.3094
  23.800   1.5049   0.22793   0.22574  -0.1640  0.0048  1.0000  -10.1734   0.0000   0.0000   0.0000   0.3117
  23.900   1.4979   0.23204   0.22990  -0.1662  0.0048  1.0000  -10.0921   0.0000   0.0000   0.0000   0.3135
  24.000   1.4927   0.23559   0.23348  -0.1680  0.0047  1.0000  -10.0444   0.0000   0.0000   0.0000   0.3149
  24.100   1.4875   0.23917   0.23710  -0.1699  0.0046  1.0000  -9.9947   0.0000   0.0000   0.0000   0.3163
  24.200   1.4819   0.24295   0.24092  -0.1718  0.0046  1.0000  -9.9345   0.0000   0.0000   0.0000   0.3178
  24.300   1.4710   0.24869   0.24672  -0.1746  0.0047  1.0000  -9.7653   0.0000   0.0000   0.0000   0.3204
  24.400   1.4648   0.25281   0.25088  -0.1766  0.0047  1.0000  -9.6884   0.0000   0.0000   0.0000   0.3221
  24.500   1.4599   0.25650   0.25460  -0.1783  0.0046  1.0000  -9.6367   0.0000   0.0000   0.0000   0.3235
  24.600   1.4550   0.26023   0.25836  -0.1801  0.0044  1.0000  -9.5826   0.0000   0.0000   0.0000   0.3248
  24.700   1.4491   0.26437   0.26255  -0.1820  0.0044  1.0000  -9.5062   0.0000   0.0000   0.0000   0.3265
  24.800   1.4371   0.27091   0.26915  -0.1848  0.0046  1.0000  -9.2999   0.0000   0.0000   0.0000   0.3294
  24.900   1.4311   0.27522   0.27350  -0.1867  0.0045  1.0000  -9.2165   0.0000   0.0000   0.0000   0.3311
  25.000   1.4263   0.27907   0.27738  -0.1883  0.0044  1.0000  -9.1587   0.0000   0.0000   0.0000   0.3324
  25.100   1.4213   0.28302   0.28135  -0.1900  0.0042  1.0000  -9.0958   0.0000   0.0000   0.0000   0.3339
  25.200   1.4155   0.28734   0.28570  -0.1917  0.0041  1.0000  -9.0131   0.0000   0.0000   0.0000   0.3355
  25.300   1.4077   0.29251   0.29092  -0.1937  0.0041  1.0000  -8.8849   0.0000   0.0000   0.0000   0.3375
  25.400   1.3953   0.29960   0.29808  -0.1962  0.0044  1.0000  -8.6543   0.0000   0.0000   0.0000   0.3405
  25.500   1.3894   0.30403   0.30254  -0.1978  0.0042  1.0000  -8.5669   0.0000   0.0000   0.0000   0.3421
  25.600   1.3835   0.30839   0.30692  -0.1993  0.0040  1.0000  -8.4825   0.0000   0.0000   0.0000   0.3436
  25.700   1.3769   0.31308   0.31165  -0.2009  0.0039  1.0000  -8.3797   0.0000   0.0000   0.0000   0.3453
  25.800   1.3682   0.31855   0.31716  -0.2026  0.0038  1.0000  -8.2337   0.0000   0.0000   0.0000   0.3474
  25.900   1.3489   0.32827   0.32697  -0.2051  0.0044  1.0000  -7.8560   0.0000   0.0000   0.0000   0.3516
  26.000   1.3402   0.33341   0.33214  -0.2063  0.0043  1.0000  -7.7219   0.0000   0.0000   0.0000   0.3534
  26.100   1.3311   0.33838   0.33714  -0.2074  0.0041  1.0000  -7.5907   0.0000   0.0000   0.0000   0.3552
  26.200   1.3167   0.34466   0.34346  -0.2084  0.0042  1.0000  -7.3718   0.0000   0.0000   0.0000   0.3577


