xflr5 v6.61

 Calculated polar for: SG6042

 1 1 Reynolds number fixed          Mach number fixed         

 xtrf =   1.000 (top)        1.000 (bottom)
 Mach =   0.000     Re =     0.100 e 6     Ncrit =   9.000

  alpha     CL        CD       CDp       Cm    Top Xtr Bot Xtr   Cpmin    Chinge    XCp    
 ------- -------- --------- --------- -------- ------- ------- -------- --------- ---------
 -10.000  -0.3304   0.12146   0.11611  -0.0367  1.0000  0.0579  -1.2367   0.0000   0.0000   0.0000   0.1289
  -9.900  -0.3301   0.12045   0.11513  -0.0366  1.0000  0.0585  -1.2374   0.0000   0.0000   0.0000   0.1292
  -9.800  -0.3300   0.11946   0.11416  -0.0365  1.0000  0.0591  -1.2391   0.0000   0.0000   0.0000   0.1296
  -9.700  -0.3300   0.11849   0.11321  -0.0364  1.0000  0.0597  -1.2418   0.0000   0.0000   0.0000   0.1301
  -9.600  -0.3302   0.11753   0.11227  -0.0362  1.0000  0.0604  -1.2454   0.0000   0.0000   0.0000   0.1307
  -9.500  -0.3307   0.11658   0.11135  -0.0361  1.0000  0.0610  -1.2500   0.0000   0.0000   0.0000   0.1314
  -9.400  -0.3313   0.11566   0.11045  -0.0360  1.0000  0.0617  -1.2558   0.0000   0.0000   0.0000   0.1322
  -9.300  -0.3323   0.11477   0.10958  -0.0358  1.0000  0.0624  -1.2628   0.0000   0.0000   0.0000   0.1331
  -9.200  -0.3336   0.11391   0.10875  -0.0357  1.0000  0.0630  -1.2712   0.0000   0.0000   0.0000   0.1341
  -9.100  -0.3353   0.11310   0.10797  -0.0355  1.0000  0.0637  -1.2814   0.0000   0.0000   0.0000   0.1353
  -9.000  -0.3374   0.11236   0.10726  -0.0354  1.0000  0.0644  -1.2937   0.0000   0.0000   0.0000   0.1366
  -8.900  -0.3402   0.11169   0.10663  -0.0352  1.0000  0.0651  -1.3087   0.0000   0.0000   0.0000   0.1381
  -8.800  -0.3437   0.11114   0.10611  -0.0351  1.0000  0.0657  -1.3267   0.0000   0.0000   0.0000   0.1398
  -8.700  -0.3480   0.11071   0.10571  -0.0350  1.0000  0.0663  -1.3478   0.0000   0.0000   0.0000   0.1416
  -8.600  -0.3530   0.11039   0.10543  -0.0348  1.0000  0.0668  -1.3712   0.0000   0.0000   0.0000   0.1438
  -8.500  -0.3586   0.11013   0.10522  -0.0346  1.0000  0.0672  -1.3958   0.0000   0.0000   0.0000   0.1462
  -8.400  -0.3646   0.10991   0.10503  -0.0344  1.0000  0.0675  -1.4200   0.0000   0.0000   0.0000   0.1488
  -8.300  -0.3709   0.10968   0.10485  -0.0340  1.0000  0.0677  -1.4435   0.0000   0.0000   0.0000   0.1517
  -8.200  -0.3771   0.10944   0.10465  -0.0335  1.0000  0.0679  -1.4650   0.0000   0.0000   0.0000   0.1548
  -8.100  -0.3835   0.10918   0.10442  -0.0329  1.0000  0.0681  -1.4856   0.0000   0.0000   0.0000   0.1580
  -8.000  -0.3903   0.10889   0.10417  -0.0322  1.0000  0.0682  -1.5053   0.0000   0.0000   0.0000   0.1614
  -7.900  -0.3973   0.10859   0.10391  -0.0315  1.0000  0.0683  -1.5245   0.0000   0.0000   0.0000   0.1650
  -7.800  -0.4045   0.10827   0.10363  -0.0307  1.0000  0.0684  -1.5433   0.0000   0.0000   0.0000   0.1686
  -7.700  -0.4118   0.10791   0.10330  -0.0300  1.0000  0.0684  -1.5622   0.0000   0.0000   0.0000   0.1720
  -7.600  -0.4182   0.10741   0.10284  -0.0296  1.0000  0.0685  -1.5822   0.0000   0.0000   0.0000   0.1741
  -7.500  -0.4232   0.10671   0.10217  -0.0299  1.0000  0.0686  -1.6040   0.0000   0.0000   0.0000   0.1744
  -7.400  -0.4268   0.10591   0.10139  -0.0303  1.0000  0.0687  -1.6222   0.0000   0.0000   0.0000   0.1743
  -7.300  -0.4299   0.10501   0.10051  -0.0308  1.0000  0.0688  -1.6408   0.0000   0.0000   0.0000   0.1738
  -7.200  -0.4326   0.10403   0.09954  -0.0314  1.0000  0.0688  -1.6597   0.0000   0.0000   0.0000   0.1730
  -7.100  -0.4350   0.10298   0.09851  -0.0320  1.0000  0.0689  -1.6786   0.0000   0.0000   0.0000   0.1720
  -7.000  -0.4370   0.10190   0.09743  -0.0326  1.0000  0.0689  -1.6972   0.0000   0.0000   0.0000   0.1711
  -6.900  -0.4386   0.10079   0.09632  -0.0332  1.0000  0.0690  -1.7152   0.0000   0.0000   0.0000   0.1703
  -6.800  -0.4400   0.09964   0.09517  -0.0337  1.0000  0.0691  -1.7327   0.0000   0.0000   0.0000   0.1695
  -6.700  -0.4410   0.09847   0.09398  -0.0342  1.0000  0.0691  -1.7496   0.0000   0.0000   0.0000   0.1686
  -6.600  -0.4470   0.09314   0.08879  -0.0317  1.0000  0.0704  -1.7500   0.0000   0.0000   0.0000   0.1752
  -6.500  -0.4461   0.09153   0.08721  -0.0291  1.0000  0.0711  -1.7078   0.0000   0.0000   0.0000   0.1810
  -6.400  -0.4451   0.09033   0.08605  -0.0270  1.0000  0.0718  -1.6737   0.0000   0.0000   0.0000   0.1854
  -6.300  -0.4443   0.08927   0.08500  -0.0255  1.0000  0.0724  -1.6470   0.0000   0.0000   0.0000   0.1888
  -6.200  -0.4440   0.08823   0.08398  -0.0245  1.0000  0.0731  -1.6284   0.0000   0.0000   0.0000   0.1912
  -6.100  -0.4437   0.08720   0.08297  -0.0237  1.0000  0.0737  -1.6131   0.0000   0.0000   0.0000   0.1930
  -6.000  -0.4436   0.08615   0.08193  -0.0231  1.0000  0.0744  -1.6024   0.0000   0.0000   0.0000   0.1943
  -5.900  -0.4435   0.08507   0.08087  -0.0229  1.0000  0.0751  -1.5952   0.0000   0.0000   0.0000   0.1950
  -5.800  -0.4434   0.08395   0.07976  -0.0228  1.0000  0.0759  -1.5906   0.0000   0.0000   0.0000   0.1952
  -5.700  -0.4431   0.08279   0.07860  -0.0229  1.0000  0.0767  -1.5884   0.0000   0.0000   0.0000   0.1950
  -5.600  -0.4425   0.08157   0.07740  -0.0232  1.0000  0.0776  -1.5882   0.0000   0.0000   0.0000   0.1944
  -5.500  -0.4416   0.08031   0.07614  -0.0236  1.0000  0.0786  -1.5898   0.0000   0.0000   0.0000   0.1933
  -5.400  -0.4403   0.07899   0.07482  -0.0243  1.0000  0.0796  -1.5934   0.0000   0.0000   0.0000   0.1917
  -5.300  -0.4384   0.07761   0.07343  -0.0252  1.0000  0.0809  -1.5991   0.0000   0.0000   0.0000   0.1895
  -5.200  -0.4359   0.07616   0.07196  -0.0263  1.0000  0.0823  -1.6078   0.0000   0.0000   0.0000   0.1866
  -5.100  -0.4323   0.07462   0.07040  -0.0279  1.0000  0.0841  -1.6214   0.0000   0.0000   0.0000   0.1825
  -5.000  -0.4166   0.07386   0.06930  -0.0366  1.0000  0.0902  -1.7247   0.0000   0.0000   0.0000   0.1592
  -4.900  -0.4080   0.07376   0.06901  -0.0386  1.0000  0.0910  -1.7494   0.0000   0.0000   0.0000   0.1524
  -4.800  -0.4016   0.07278   0.06792  -0.0396  1.0000  0.0913  -1.7617   0.0000   0.0000   0.0000   0.1483
  -4.700  -0.4052   0.06628   0.06159  -0.0407  1.0000  0.0933  -1.7860   0.0000   0.0000   0.0000   0.1465
  -4.600  -0.4028   0.06452   0.05991  -0.0398  1.0000  0.0943  -1.7581   0.0000   0.0000   0.0000   0.1482
  -4.500  -0.3999   0.06320   0.05864  -0.0390  1.0000  0.0956  -1.7342   0.0000   0.0000   0.0000   0.1495
  -4.400  -0.3964   0.06214   0.05756  -0.0381  1.0000  0.0971  -1.7139   0.0000   0.0000   0.0000   0.1509
  -4.300  -0.3917   0.06110   0.05652  -0.0378  1.0000  0.0988  -1.6911   0.0000   0.0000   0.0000   0.1506
  -4.200  -0.3860   0.06001   0.05542  -0.0379  1.0000  0.1010  -1.6738   0.0000   0.0000   0.0000   0.1489
  -4.100  -0.3790   0.05882   0.05420  -0.0385  1.0000  0.1038  -1.6627   0.0000   0.0000   0.0000   0.1455
  -4.000  -0.3536   0.06185   0.05661  -0.0431  1.0000  0.1161  -1.6980   0.0000   0.0000   0.0000   0.1252
  -3.900  -0.3510   0.05529   0.05017  -0.0455  1.0000  0.1191  -1.7190   0.0000   0.0000   0.0000   0.1174
  -3.800  -0.3440   0.05351   0.04850  -0.0454  0.9992  0.1212  -1.6805   0.0000   0.0000   0.0000   0.1150
  -3.700  -0.3321   0.05232   0.04738  -0.0460  0.9972  0.1247  -1.6304   0.0000   0.0000   0.0000   0.1084
  -3.600  -0.3123   0.05164   0.04650  -0.0498  0.9946  0.1480  -1.5874   0.0000   0.0000   0.0000   0.0875
  -3.500  -0.3084   0.05141   0.04658  -0.0475  0.9927  0.1579  -1.4909   0.0000   0.0000   0.0000   0.0929
  -3.400  -0.2915   0.05020   0.04522  -0.0507  0.9902  0.1802  -1.4530   0.0000   0.0000   0.0000   0.0729
  -3.300  -0.2814   0.04916   0.04426  -0.0507  0.9882  0.1849  -1.4022   0.0000   0.0000   0.0000   0.0666
  -3.200  -0.2670   0.04827   0.04335  -0.0519  0.9863  0.1916  -1.3567   0.0000   0.0000   0.0000   0.0525
  -2.700  -0.1317   0.03431   0.02653  -0.0674  0.9809  0.0694  -1.7087   0.0000   0.0000   0.0000  -0.2696
  -2.600  -0.1160   0.03269   0.02476  -0.0686  0.9794  0.0678  -1.7077   0.0000   0.0000   0.0000  -0.3499
  -2.500  -0.0994   0.03139   0.02329  -0.0698  0.9777  0.0668  -1.7041   0.0000   0.0000   0.0000  -0.4627
  -2.400  -0.0820   0.03040   0.02211  -0.0710  0.9761  0.0661  -1.6960   0.0000   0.0000   0.0000  -0.6278
  -2.300  -0.0640   0.02957   0.02111  -0.0723  0.9745  0.0657  -1.6854   0.0000   0.0000   0.0000  -0.8946
  -2.200  -0.0453   0.02885   0.02023  -0.0736  0.9730  0.0656  -1.6729   0.0000   0.0000   0.0000  -1.3958
  -2.100  -0.0287   0.02825   0.01950  -0.0745  0.9711  0.0659  -1.6606   0.0000   0.0000   0.0000  -2.3756
  -2.000  -0.0157   0.02773   0.01888  -0.0748  0.9681  0.0665  -1.6498   0.0000   0.0000   0.0000  -4.5767
  -1.900  -0.0008   0.02728   0.01834  -0.0754  0.9656  0.0676  -1.6377   0.0000   0.0000   0.0000  -99.3981
  -1.800   0.0151   0.02695   0.01792  -0.0761  0.9634  0.0690  -1.6244   0.0000   0.0000   0.0000   5.3458
  -1.700   0.0318   0.02582   0.01682  -0.0772  0.9623  0.0735  -1.6359   0.0000   0.0000   0.0000   2.6979
  -1.600   0.0484   0.02543   0.01650  -0.0782  0.9607  0.0815  -1.6274   0.0000   0.0000   0.0000   1.8798
  -1.500   0.0661   0.02474   0.01590  -0.0794  0.9597  0.1032  -1.6731   0.0000   0.0000   0.0000   1.4602
  -1.400   0.0839   0.02442   0.01573  -0.0808  0.9584  0.1464  -1.6658   0.0000   0.0000   0.0000   1.2209
  -1.300   0.0961   0.02405   0.01555  -0.0815  0.9560  0.1877  -1.6309   0.0000   0.0000   0.0000   1.1039
  -1.200   0.1078   0.02361   0.01531  -0.0817  0.9531  0.2289  -1.5972   0.0000   0.0000   0.0000   1.0130
  -1.100   0.1214   0.02195   0.01548  -0.0822  0.9529  0.6393  -1.5563   0.0000   0.0000   0.0000   0.9314
  -1.000   0.1223   0.02164   0.01563  -0.0790  0.9497  0.7950  -1.5257   0.0000   0.0000   0.0000   0.8995
  -0.900   0.1289   0.02122   0.01545  -0.0770  0.9453  1.0000  -1.4772   0.0000   0.0000   0.0000   0.8511
  -0.800   0.1480   0.02143   0.01546  -0.0786  0.9431  1.0000  -1.3947   0.0000   0.0000   0.0000   0.7841
  -0.700   0.1682   0.02167   0.01554  -0.0804  0.9413  1.0000  -1.3068   0.0000   0.0000   0.0000   0.7304
  -0.600   0.1739   0.02171   0.01549  -0.0797  0.9362  1.0000  -1.2611   0.0000   0.0000   0.0000   0.7102
  -0.500   0.1860   0.02182   0.01550  -0.0801  0.9324  1.0000  -1.1965   0.0000   0.0000   0.0000   0.6822
  -0.400   0.2009   0.02197   0.01554  -0.0810  0.9293  1.0000  -1.1238   0.0000   0.0000   0.0000   0.6543
  -0.300   0.2179   0.02213   0.01559  -0.0823  0.9267  1.0000  -1.0455   0.0000   0.0000   0.0000   0.6282
  -0.200   0.2366   0.02229   0.01566  -0.0838  0.9244  1.0000  -0.9630   0.0000   0.0000   0.0000   0.6045
  -0.100   0.2567   0.02248   0.01575  -0.0856  0.9225  1.0000  -0.8777   0.0000   0.0000   0.0000   0.5834
   0.000   0.2637   0.02258   0.01580  -0.0850  0.9177  1.0000  -0.8301   0.0000   0.0000   0.0000   0.5724
   0.100   0.2729   0.02269   0.01584  -0.0849  0.9130  1.0000  -0.7765   0.0000   0.0000   0.0000   0.5608
   0.200   0.2867   0.02281   0.01590  -0.0856  0.9094  1.0000  -0.7111   0.0000   0.0000   0.0000   0.5479
   0.300   0.3026   0.02293   0.01596  -0.0866  0.9065  1.0000  -0.6407   0.0000   0.0000   0.0000   0.5354
   0.400   0.3203   0.02306   0.01602  -0.0879  0.9041  1.0000  -0.5668   0.0000   0.0000   0.0000   0.5235
   0.500   0.3395   0.02318   0.01608  -0.0894  0.9020  1.0000  -0.5260   0.0000   0.0000   0.0000   0.5123
   0.600   0.3599   0.02331   0.01615  -0.0911  0.9003  1.0000  -0.5416   0.0000   0.0000   0.0000   0.5020
   0.700   0.3600   0.02345   0.01627  -0.0894  0.8935  1.0000  -0.5444   0.0000   0.0000   0.0000   0.4970
   0.800   0.3704   0.02355   0.01630  -0.0894  0.8888  1.0000  -0.5537   0.0000   0.0000   0.0000   0.4900
   0.900   0.3852   0.02363   0.01633  -0.0902  0.8851  1.0000  -0.5660   0.0000   0.0000   0.0000   0.4825
   1.000   0.4022   0.02369   0.01635  -0.0912  0.8822  1.0000  -0.5801   0.0000   0.0000   0.0000   0.4751
   1.100   0.4206   0.02374   0.01636  -0.0925  0.8798  1.0000  -0.5962   0.0000   0.0000   0.0000   0.4682
   1.200   0.4404   0.02377   0.01635  -0.0940  0.8778  1.0000  -0.6146   0.0000   0.0000   0.0000   0.4616
   1.300   0.4616   0.02380   0.01635  -0.0957  0.8761  1.0000  -0.6346   0.0000   0.0000   0.0000   0.4554
   1.400   0.4574   0.02405   0.01659  -0.0933  0.8677  1.0000  -0.6358   0.0000   0.0000   0.0000   0.4519
   1.500   0.4684   0.02412   0.01663  -0.0934  0.8626  1.0000  -0.6484   0.0000   0.0000   0.0000   0.4471
   1.600   0.4840   0.02411   0.01661  -0.0941  0.8589  1.0000  -0.6645   0.0000   0.0000   0.0000   0.4420
   1.700   0.5019   0.02408   0.01655  -0.0952  0.8560  1.0000  -0.6833   0.0000   0.0000   0.0000   0.4372
   1.800   0.5213   0.02401   0.01646  -0.0965  0.8537  1.0000  -0.7046   0.0000   0.0000   0.0000   0.4325
   1.900   0.5421   0.02390   0.01634  -0.0980  0.8518  1.0000  -0.7273   0.0000   0.0000   0.0000   0.4281
   2.000   0.5634   0.02378   0.01621  -0.0995  0.8500  1.0000  -0.7526   0.0000   0.0000   0.0000   0.4239
   2.200   0.5673   0.02425   0.01667  -0.0967  0.8351  1.0000  -0.7691   0.0000   0.0000   0.0000   0.4174
   2.300   0.5833   0.02417   0.01659  -0.0974  0.8315  1.0000  -0.7904   0.0000   0.0000   0.0000   0.4138
   2.400   0.6018   0.02400   0.01642  -0.0984  0.8287  1.0000  -0.8162   0.0000   0.0000   0.0000   0.4103
   2.500   0.6219   0.02377   0.01620  -0.0996  0.8264  1.0000  -0.8450   0.0000   0.0000   0.0000   0.4069
   2.600   0.6427   0.02350   0.01593  -0.1009  0.8244  1.0000  -0.8748   0.0000   0.0000   0.0000   0.4036
   2.700   0.6646   0.02318   0.01563  -0.1023  0.8227  1.0000  -0.9061   0.0000   0.0000   0.0000   0.4005
   2.800   0.6810   0.02302   0.01548  -0.1029  0.8195  1.0000  -0.9316   0.0000   0.0000   0.0000   0.3976
   3.000   0.6878   0.02338   0.01593  -0.1003  0.8036  1.0000  -0.9554   0.0000   0.0000   0.0000   0.3921
   3.100   0.7066   0.02303   0.01559  -0.1012  0.8006  1.0000  -0.9842   0.0000   0.0000   0.0000   0.3893
   3.200   0.7274   0.02262   0.01519  -0.1023  0.7981  1.0000  -1.0186   0.0000   0.0000   0.0000   0.3867
   3.300   0.7495   0.02217   0.01476  -0.1036  0.7960  1.0000  -1.0560   0.0000   0.0000   0.0000   0.3842
   3.400   0.7715   0.02168   0.01429  -0.1049  0.7940  1.0000  -1.0937   0.0000   0.0000   0.0000   0.3818
   3.500   0.7942   0.02117   0.01379  -0.1062  0.7921  1.0000  -1.1345   0.0000   0.0000   0.0000   0.3795
   3.700   0.7987   0.02155   0.01421  -0.1030  0.7745  1.0000  -1.1662   0.0000   0.0000   0.0000   0.3746
   3.800   0.8166   0.02113   0.01380  -0.1036  0.7705  1.0000  -1.2049   0.0000   0.0000   0.0000   0.3723
   3.900   0.8366   0.02062   0.01332  -0.1044  0.7671  1.0000  -1.2470   0.0000   0.0000   0.0000   0.3702
   4.000   0.8576   0.02008   0.01279  -0.1054  0.7641  1.0000  -1.2910   0.0000   0.0000   0.0000   0.3682
   4.100   0.8801   0.01953   0.01225  -0.1066  0.7611  1.0000  -1.3376   0.0000   0.0000   0.0000   0.3664
   4.200   0.8788   0.01986   0.01261  -0.1045  0.7512  1.0000  -1.3489   0.0000   0.0000   0.0000   0.3640
   4.300   0.8886   0.01973   0.01251  -0.1039  0.7436  1.0000  -1.3770   0.0000   0.0000   0.0000   0.3619
   4.400   0.9054   0.01931   0.01210  -0.1043  0.7379  1.0000  -1.4159   0.0000   0.0000   0.0000   0.3600
   4.500   0.9257   0.01876   0.01157  -0.1051  0.7328  1.0000  -1.4656   0.0000   0.0000   0.0000   0.3583
   4.600   0.9474   0.01823   0.01102  -0.1062  0.7280  1.0000  -1.5205   0.0000   0.0000   0.0000   0.3568
   4.700   0.9473   0.01848   0.01132  -0.1042  0.7172  1.0000  -1.5369   0.0000   0.0000   0.0000   0.3546
   4.800   0.9588   0.01828   0.01114  -0.1038  0.7083  1.0000  -1.5743   0.0000   0.0000   0.0000   0.3527
   4.900   0.9759   0.01787   0.01073  -0.1042  0.7005  1.0000  -1.6220   0.0000   0.0000   0.0000   0.3511
   5.000   0.9941   0.01750   0.01032  -0.1048  0.6926  1.0000  -1.6721   0.0000   0.0000   0.0000   0.3496
   5.100   0.9974   0.01763   0.01050  -0.1033  0.6808  1.0000  -1.6950   0.0000   0.0000   0.0000   0.3476
   5.200   1.0092   0.01746   0.01052  -0.1029  0.6701  1.0000  -1.7346   0.0000   0.0000   0.0000   0.3460
   5.300   1.0280   0.01713   0.01011  -0.1036  0.6604  1.0000  -1.7866   0.0000   0.0000   0.0000   0.3447
   5.400   1.0323   0.01726   0.01029  -0.1023  0.6476  1.0000  -1.8118   0.0000   0.0000   0.0000   0.3428
   5.500   1.0429   0.01718   0.01020  -0.1018  0.6348  1.0000  -1.8490   0.0000   0.0000   0.0000   0.3412
   5.600   1.0574   0.01706   0.00998  -0.1019  0.6223  1.0000  -1.8938   0.0000   0.0000   0.0000   0.3399
   5.700   1.0630   0.01717   0.01013  -0.1008  0.6076  1.0000  -1.9217   0.0000   0.0000   0.0000   0.3382
   5.800   1.0751   0.01713   0.00999  -0.1005  0.5926  1.0000  -1.9624   0.0000   0.0000   0.0000   0.3367
   5.900   1.0826   0.01723   0.01008  -0.0997  0.5768  1.0000  -1.9942   0.0000   0.0000   0.0000   0.3352
   6.000   1.0915   0.01731   0.01007  -0.0989  0.5594  1.0000  -2.0332   0.0000   0.0000   0.0000   0.3337
   6.100   1.0994   0.01744   0.01014  -0.0981  0.5420  1.0000  -2.0820   0.0000   0.0000   0.0000   0.3321
   6.200   1.1069   0.01760   0.01020  -0.0972  0.5231  1.0000  -2.1302   0.0000   0.0000   0.0000   0.3306
   6.300   1.1139   0.01779   0.01032  -0.0963  0.5045  1.0000  -2.1770   0.0000   0.0000   0.0000   0.3291
   6.400   1.1207   0.01802   0.01041  -0.0954  0.4846  1.0000  -2.2238   0.0000   0.0000   0.0000   0.3276
   6.500   1.1268   0.01828   0.01060  -0.0944  0.4652  1.0000  -2.2683   0.0000   0.0000   0.0000   0.3261
   6.600   1.1329   0.01859   0.01074  -0.0934  0.4454  1.0000  -2.3136   0.0000   0.0000   0.0000   0.3246
   6.700   1.1383   0.01888   0.01098  -0.0923  0.4257  1.0000  -2.3561   0.0000   0.0000   0.0000   0.3232
   6.900   1.1486   0.01959   0.01145  -0.0901  0.3872  1.0000  -2.4412   0.0000   0.0000   0.0000   0.3203
   7.000   1.1534   0.02005   0.01169  -0.0890  0.3693  1.0000  -2.4832   0.0000   0.0000   0.0000   0.3189
   7.100   1.1584   0.02039   0.01200  -0.0880  0.3512  1.0000  -2.5246   0.0000   0.0000   0.0000   0.3175
   7.200   1.1629   0.02090   0.01229  -0.0869  0.3350  1.0000  -2.5658   0.0000   0.0000   0.0000   0.3162
   7.300   1.1683   0.02124   0.01264  -0.0859  0.3189  1.0000  -2.6079   0.0000   0.0000   0.0000   0.3149
   7.400   1.1728   0.02175   0.01297  -0.0849  0.3047  1.0000  -2.6491   0.0000   0.0000   0.0000   0.3136
   7.500   1.1788   0.02217   0.01337  -0.0841  0.2909  1.0000  -2.6922   0.0000   0.0000   0.0000   0.3124
   7.600   1.1839   0.02260   0.01372  -0.0831  0.2781  1.0000  -2.7344   0.0000   0.0000   0.0000   0.3111
   7.700   1.1896   0.02321   0.01414  -0.0823  0.2660  1.0000  -2.7776   0.0000   0.0000   0.0000   0.3100
   7.800   1.1956   0.02355   0.01454  -0.0815  0.2549  1.0000  -2.8209   0.0000   0.0000   0.0000   0.3088
   7.900   1.2009   0.02401   0.01491  -0.0806  0.2447  1.0000  -2.8640   0.0000   0.0000   0.0000   0.3077
   8.000   1.2075   0.02466   0.01540  -0.0800  0.2343  1.0000  -2.9092   0.0000   0.0000   0.0000   0.3067
   8.100   1.2130   0.02503   0.01602  -0.0791  0.2242  1.0000  -2.9506   0.0000   0.0000   0.0000   0.3055
   8.200   1.2182   0.02545   0.01640  -0.0783  0.2158  1.0000  -2.9944   0.0000   0.0000   0.0000   0.3044
   8.300   1.2261   0.02628   0.01700  -0.0780  0.2060  1.0000  -3.0439   0.0000   0.0000   0.0000   0.3036
   8.400   1.2320   0.02657   0.01741  -0.0771  0.1998  1.0000  -3.0868   0.0000   0.0000   0.0000   0.3024
   8.500   1.2383   0.02697   0.01784  -0.0764  0.1931  1.0000  -3.1315   0.0000   0.0000   0.0000   0.3014
   8.600   1.2445   0.02741   0.01827  -0.0757  0.1870  1.0000  -3.1770   0.0000   0.0000   0.0000   0.3004
   8.700   1.2528   0.02815   0.01886  -0.0754  0.1804  1.0000  -3.2276   0.0000   0.0000   0.0000   0.2997
   8.800   1.2625   0.02885   0.01958  -0.0753  0.1745  1.0000  -3.2775   0.0000   0.0000   0.0000   0.2990
   8.900   1.2694   0.02927   0.02009  -0.0746  0.1696  1.0000  -3.3217   0.0000   0.0000   0.0000   0.2980
   9.000   1.2764   0.02972   0.02058  -0.0740  0.1647  1.0000  -3.3672   0.0000   0.0000   0.0000   0.2970
   9.100   1.2831   0.03019   0.02104  -0.0734  0.1601  1.0000  -3.4136   0.0000   0.0000   0.0000   0.2961
   9.200   1.2908   0.03081   0.02160  -0.0731  0.1553  1.0000  -3.4635   0.0000   0.0000   0.0000   0.2954
   9.300   1.3038   0.03196   0.02266  -0.0736  0.1491  1.0000  -3.5204   0.0000   0.0000   0.0000   0.2951
   9.400   1.3085   0.03228   0.02311  -0.0727  0.1458  1.0000  -3.5593   0.0000   0.0000   0.0000   0.2940
   9.500   1.3137   0.03267   0.02358  -0.0718  0.1418  1.0000  -3.6003   0.0000   0.0000   0.0000   0.2930
   9.600   1.3190   0.03306   0.02401  -0.0710  0.1378  1.0000  -3.6432   0.0000   0.0000   0.0000   0.2920
   9.700   1.3246   0.03349   0.02443  -0.0703  0.1342  1.0000  -3.6881   0.0000   0.0000   0.0000   0.2911
   9.800   1.3324   0.03411   0.02501  -0.0699  0.1306  1.0000  -3.7377   0.0000   0.0000   0.0000   0.2904
   9.900   1.3498   0.03591   0.02673  -0.0714  0.1251  1.0000  -3.8053   0.0000   0.0000   0.0000   0.2906
  10.000   1.3550   0.03634   0.02729  -0.0705  0.1232  1.0000  -3.8550   0.0000   0.0000   0.0000   0.2896
  10.100   1.3605   0.03685   0.02792  -0.0696  0.1207  1.0000  -3.9052   0.0000   0.0000   0.0000   0.2886
  10.200   1.3657   0.03738   0.02856  -0.0688  0.1178  1.0000  -3.9554   0.0000   0.0000   0.0000   0.2877
  10.300   1.3708   0.03788   0.02912  -0.0680  0.1149  1.0000  -4.0076   0.0000   0.0000   0.0000   0.2868
  10.400   1.3754   0.03831   0.02957  -0.0671  0.1120  1.0000  -4.0620   0.0000   0.0000   0.0000   0.2858
  10.500   1.3800   0.03873   0.02997  -0.0663  0.1091  1.0000  -4.1195   0.0000   0.0000   0.0000   0.2849
  10.600   1.3866   0.03946   0.03062  -0.0660  0.1059  1.0000  -4.1842   0.0000   0.0000   0.0000   0.2843
  10.700   1.3971   0.04128   0.03248  -0.0665  0.1018  1.0000  -4.2432   0.0000   0.0000   0.0000   0.2842
  10.800   1.3985   0.04160   0.03293  -0.0651  0.1002  1.0000  -4.2821   0.0000   0.0000   0.0000   0.2830
  10.900   1.4010   0.04212   0.03357  -0.0639  0.0983  1.0000  -4.3218   0.0000   0.0000   0.0000   0.2819
  11.000   1.4049   0.04277   0.03444  -0.0630  0.0965  1.0000  -4.3633   0.0000   0.0000   0.0000   0.2809
  11.100   1.4082   0.04347   0.03525  -0.0620  0.0946  1.0000  -4.4033   0.0000   0.0000   0.0000   0.2800
  11.200   1.4117   0.04418   0.03605  -0.0610  0.0927  1.0000  -4.4446   0.0000   0.0000   0.0000   0.2791
  11.300   1.4154   0.04488   0.03681  -0.0602  0.0908  1.0000  -4.4885   0.0000   0.0000   0.0000   0.2782
  11.400   1.4191   0.04557   0.03754  -0.0593  0.0890  1.0000  -4.5345   0.0000   0.0000   0.0000   0.2773
  11.500   1.4235   0.04629   0.03827  -0.0586  0.0873  1.0000  -4.5839   0.0000   0.0000   0.0000   0.2766
  11.600   1.4292   0.04721   0.03919  -0.0582  0.0855  1.0000  -4.6375   0.0000   0.0000   0.0000   0.2759
  11.700   1.4375   0.04917   0.04118  -0.0584  0.0833  1.0000  -4.6848   0.0000   0.0000   0.0000   0.2757
  11.800   1.4388   0.05205   0.04425  -0.0580  0.0817  1.0000  -4.7014   0.0000   0.0000   0.0000   0.2752
  11.900   1.4370   0.05275   0.04508  -0.0564  0.0811  1.0000  -4.7330   0.0000   0.0000   0.0000   0.2740
  12.000   1.4349   0.05356   0.04603  -0.0548  0.0806  1.0000  -4.7613   0.0000   0.0000   0.0000   0.2729
  12.100   1.4324   0.05449   0.04710  -0.0533  0.0800  1.0000  -4.7863   0.0000   0.0000   0.0000   0.2718
  12.200   1.4294   0.05551   0.04826  -0.0519  0.0793  1.0000  -4.8078   0.0000   0.0000   0.0000   0.2707
  12.300   1.4261   0.05662   0.04951  -0.0504  0.0788  1.0000  -4.8259   0.0000   0.0000   0.0000   0.2696
  12.400   1.4221   0.05780   0.05083  -0.0491  0.0782  1.0000  -4.8405   0.0000   0.0000   0.0000   0.2686
  12.500   1.4176   0.05904   0.05221  -0.0477  0.0777  1.0000  -4.8515   0.0000   0.0000   0.0000   0.2676
  12.600   1.4126   0.06035   0.05365  -0.0464  0.0772  1.0000  -4.8591   0.0000   0.0000   0.0000   0.2666
  12.700   1.4069   0.06172   0.05515  -0.0451  0.0768  1.0000  -4.8632   0.0000   0.0000   0.0000   0.2657
  12.800   1.4008   0.06317   0.05672  -0.0439  0.0764  1.0000  -4.8639   0.0000   0.0000   0.0000   0.2649
  12.900   1.3940   0.06467   0.05834  -0.0428  0.0761  1.0000  -4.8611   0.0000   0.0000   0.0000   0.2641
  13.000   1.3867   0.06622   0.06002  -0.0418  0.0758  1.0000  -4.8550   0.0000   0.0000   0.0000   0.2633
  13.100   1.3787   0.06783   0.06175  -0.0408  0.0756  1.0000  -4.8450   0.0000   0.0000   0.0000   0.2626
  13.200   1.3702   0.06952   0.06356  -0.0399  0.0754  1.0000  -4.8316   0.0000   0.0000   0.0000   0.2620
  13.300   1.3611   0.07131   0.06547  -0.0392  0.0752  1.0000  -4.8138   0.0000   0.0000   0.0000   0.2615
  13.400   1.3514   0.07321   0.06748  -0.0386  0.0751  1.0000  -4.7919   0.0000   0.0000   0.0000   0.2611
  13.500   1.3410   0.07524   0.06962  -0.0382  0.0750  1.0000  -4.7645   0.0000   0.0000   0.0000   0.2609
  13.600   1.3299   0.07740   0.07189  -0.0379  0.0750  1.0000  -4.7316   0.0000   0.0000   0.0000   0.2608
  13.700   1.3179   0.07971   0.07431  -0.0378  0.0751  1.0000  -4.6923   0.0000   0.0000   0.0000   0.2608
  13.800   1.3051   0.08221   0.07692  -0.0380  0.0752  1.0000  -4.6458   0.0000   0.0000   0.0000   0.2610
  13.900   1.2913   0.08488   0.07969  -0.0383  0.0754  1.0000  -4.5919   0.0000   0.0000   0.0000   0.2614
  14.000   1.2765   0.08776   0.08267  -0.0390  0.0757  1.0000  -4.5298   0.0000   0.0000   0.0000   0.2621
  14.100   1.2609   0.09092   0.08593  -0.0399  0.0761  1.0000  -4.4594   0.0000   0.0000   0.0000   0.2631
  14.200   1.2446   0.09438   0.08948  -0.0413  0.0765  1.0000  -4.3801   0.0000   0.0000   0.0000   0.2644
  14.300   1.2273   0.09819   0.09338  -0.0430  0.0770  1.0000  -4.2907   0.0000   0.0000   0.0000   0.2661
  14.400   1.2090   0.10242   0.09768  -0.0453  0.0775  1.0000  -4.1891   0.0000   0.0000   0.0000   0.2684
  14.500   1.1895   0.10719   0.10252  -0.0480  0.0781  1.0000  -4.0711   0.0000   0.0000   0.0000   0.2712
  14.600   1.1687   0.11263   0.10801  -0.0514  0.0788  1.0000  -3.9329   0.0000   0.0000   0.0000   0.2747
  14.700   1.1468   0.11884   0.11426  -0.0553  0.0796  1.0000  -3.7713   0.0000   0.0000   0.0000   0.2789
  14.800   1.1240   0.12592   0.12125  -0.0597  0.0804  1.0000  -3.5963   0.0000   0.0000   0.0000   0.2837
  14.900   1.1055   0.13258   0.12792  -0.0635  0.0810  1.0000  -3.4532   0.0000   0.0000   0.0000   0.2882
  15.000   1.0911   0.13865   0.13399  -0.0667  0.0815  1.0000  -3.3298   0.0000   0.0000   0.0000   0.2918
  15.200   1.0071   0.17364   0.16882  -0.0886  0.0992  1.0000  -2.3400   0.0000   0.0000   0.0000   0.3200
  15.300   1.0119   0.17553   0.17073  -0.0881  0.1006  1.0000  -2.3614   0.0000   0.0000   0.0000   0.3190
  15.400   0.9724   0.19057   0.18570  -0.1008  0.1350  1.0000  -1.8598   0.0000   0.0000   0.0000   0.3364
  15.500   0.9750   0.19214   0.18727  -0.1013  0.1338  1.0000  -1.8664   0.0000   0.0000   0.0000   0.3364
  15.600   0.9785   0.19369   0.18884  -0.1016  0.1326  1.0000  -1.8781   0.0000   0.0000   0.0000   0.3362
  15.700   0.9829   0.19527   0.19043  -0.1017  0.1315  1.0000  -1.8955   0.0000   0.0000   0.0000   0.3356
  15.800   0.9881   0.19691   0.19209  -0.1016  0.1304  1.0000  -1.9185   0.0000   0.0000   0.0000   0.3348
  15.900   0.9940   0.19861   0.19382  -0.1013  0.1295  1.0000  -1.9463   0.0000   0.0000   0.0000   0.3338
  16.000   1.0007   0.20046   0.19570  -0.1008  0.1287  1.0000  -1.9787   0.0000   0.0000   0.0000   0.3325
  16.100   1.0080   0.20256   0.19783  -0.1001  0.1279  1.0000  -2.0154   0.0000   0.0000   0.0000   0.3309
  16.200   1.0189   0.20567   0.20099  -0.0984  0.1268  1.0000  -2.0777   0.0000   0.0000   0.0000   0.3279
  16.300   1.0229   0.21287   0.20818  -0.0976  0.1255  1.0000  -2.0879   0.0000   0.0000   0.0000   0.3267
  16.400   1.0220   0.21453   0.20984  -0.0991  0.1253  1.0000  -2.0719   0.0000   0.0000   0.0000   0.3282
  16.500   1.0195   0.21595   0.21125  -0.1009  0.1251  1.0000  -2.0454   0.0000   0.0000   0.0000   0.3300
  16.600   1.0154   0.21704   0.21233  -0.1031  0.1248  1.0000  -2.0064   0.0000   0.0000   0.0000   0.3324
  16.700   1.0097   0.21764   0.21289  -0.1057  0.1242  1.0000  -1.9531   0.0000   0.0000   0.0000   0.3355
  16.800   1.0004   0.21759   0.21281  -0.1092  0.1230  1.0000  -1.8723   0.0000   0.0000   0.0000   0.3398
  16.900   0.9925   0.21779   0.21298  -0.1122  0.1205  1.0000  -1.8053   0.0000   0.0000   0.0000   0.3435
  17.000   0.9911   0.21900   0.21418  -0.1138  0.1175  1.0000  -1.7888   0.0000   0.0000   0.0000   0.3452
  17.100   0.9924   0.22035   0.21554  -0.1147  0.1145  1.0000  -1.7990   0.0000   0.0000   0.0000   0.3457
  17.200   0.9956   0.22160   0.21680  -0.1150  0.1117  1.0000  -1.8285   0.0000   0.0000   0.0000   0.3455
  17.300   1.0009   0.22271   0.21794  -0.1148  0.1091  1.0000  -1.8804   0.0000   0.0000   0.0000   0.3444
  17.400   1.0078   0.22403   0.21929  -0.1141  0.1072  1.0000  -1.9461   0.0000   0.0000   0.0000   0.3428
  17.500   1.0147   0.22583   0.22112  -0.1135  0.1060  1.0000  -2.0056   0.0000   0.0000   0.0000   0.3413
  17.600   1.0248   0.22825   0.22359  -0.1122  0.1049  1.0000  -2.0915   0.0000   0.0000   0.0000   0.3387
  17.700   1.0369   0.23193   0.22733  -0.1100  0.1037  1.0000  -2.1999   0.0000   0.0000   0.0000   0.3351
  17.900   1.0413   0.24148   0.23688  -0.1104  0.1025  1.0000  -2.2156   0.0000   0.0000   0.0000   0.3348
  18.000   1.0406   0.24322   0.23861  -0.1119  0.1023  1.0000  -2.1954   0.0000   0.0000   0.0000   0.3361
  18.100   1.0388   0.24474   0.24013  -0.1136  0.1022  1.0000  -2.1672   0.0000   0.0000   0.0000   0.3378
  18.200   1.0367   0.24600   0.24138  -0.1154  0.1020  1.0000  -2.1346   0.0000   0.0000   0.0000   0.3396
  18.300   1.0332   0.24681   0.24217  -0.1176  0.1016  1.0000  -2.0909   0.0000   0.0000   0.0000   0.3420
  18.400   1.0266   0.24676   0.24209  -0.1204  0.1009  1.0000  -2.0252   0.0000   0.0000   0.0000   0.3452
  18.500   1.0197   0.24669   0.24199  -0.1235  0.0992  1.0000  -1.9505   0.0000   0.0000   0.0000   0.3490
  18.600   1.0180   0.24797   0.24327  -0.1255  0.0969  1.0000  -1.9192   0.0000   0.0000   0.0000   0.3509
  18.700   1.0187   0.24968   0.24498  -0.1266  0.0950  1.0000  -1.9124   0.0000   0.0000   0.0000   0.3518
  18.800   1.0201   0.25145   0.24676  -0.1275  0.0933  1.0000  -1.9148   0.0000   0.0000   0.0000   0.3523
  18.900   1.0219   0.25322   0.24854  -0.1282  0.0918  1.0000  -1.9224   0.0000   0.0000   0.0000   0.3526
  19.000   1.0240   0.25498   0.25031  -0.1288  0.0905  1.0000  -1.9342   0.0000   0.0000   0.0000   0.3528
  19.100   1.0264   0.25672   0.25207  -0.1293  0.0892  1.0000  -1.9495   0.0000   0.0000   0.0000   0.3528
  19.200   1.0290   0.25847   0.25383  -0.1298  0.0881  1.0000  -1.9685   0.0000   0.0000   0.0000   0.3527
  19.300   1.0319   0.26023   0.25560  -0.1301  0.0871  1.0000  -1.9913   0.0000   0.0000   0.0000   0.3524
  19.400   1.0352   0.26203   0.25742  -0.1303  0.0863  1.0000  -2.0184   0.0000   0.0000   0.0000   0.3520
  19.500   1.0389   0.26393   0.25934  -0.1303  0.0854  1.0000  -2.0505   0.0000   0.0000   0.0000   0.3514
  19.600   1.0432   0.26600   0.26144  -0.1302  0.0847  1.0000  -2.0889   0.0000   0.0000   0.0000   0.3506
  19.700   1.0485   0.26842   0.26389  -0.1298  0.0840  1.0000  -2.1360   0.0000   0.0000   0.0000   0.3494
  19.800   1.0556   0.27156   0.26715  -0.1290  0.0834  1.0000  -2.2019   0.0000   0.0000   0.0000   0.3476
  19.900   1.0656   0.27660   0.27224  -0.1274  0.0827  1.0000  -2.2899   0.0000   0.0000   0.0000   0.3449
  20.000   1.0709   0.28533   0.28097  -0.1264  0.0818  1.0000  -2.3242   0.0000   0.0000   0.0000   0.3432
  20.100   1.0713   0.28727   0.28292  -0.1275  0.0817  1.0000  -2.3125   0.0000   0.0000   0.0000   0.3440
  20.200   1.0709   0.28905   0.28470  -0.1287  0.0817  1.0000  -2.2936   0.0000   0.0000   0.0000   0.3451
  20.300   1.0703   0.29071   0.28636  -0.1300  0.0816  1.0000  -2.2735   0.0000   0.0000   0.0000   0.3462
  20.400   1.0696   0.29224   0.28789  -0.1314  0.0815  1.0000  -2.2517   0.0000   0.0000   0.0000   0.3473
  20.500   1.0685   0.29359   0.28924  -0.1327  0.0814  1.0000  -2.2272   0.0000   0.0000   0.0000   0.3486
  20.600   1.0665   0.29460   0.29024  -0.1343  0.0812  1.0000  -2.1956   0.0000   0.0000   0.0000   0.3501
  20.700   1.0631   0.29514   0.29078  -0.1361  0.0810  1.0000  -2.1553   0.0000   0.0000   0.0000   0.3520
  20.800   1.0595   0.29551   0.29114  -0.1381  0.0806  1.0000  -2.1096   0.0000   0.0000   0.0000   0.3541
  20.900   1.0559   0.29586   0.29147  -0.1403  0.0800  1.0000  -2.0582   0.0000   0.0000   0.0000   0.3565
  21.000   1.0539   0.29676   0.29237  -0.1424  0.0788  1.0000  -2.0132   0.0000   0.0000   0.0000   0.3585
  21.100   1.0537   0.29841   0.29402  -0.1438  0.0774  1.0000  -1.9883   0.0000   0.0000   0.0000   0.3597
  21.200   1.0543   0.30036   0.29598  -0.1449  0.0761  1.0000  -1.9748   0.0000   0.0000   0.0000   0.3605
  21.300   1.0552   0.30239   0.29802  -0.1457  0.0749  1.0000  -1.9754   0.0000   0.0000   0.0000   0.3610
  21.400   1.0562   0.30446   0.30010  -0.1465  0.0737  1.0000  -1.9805   0.0000   0.0000   0.0000   0.3614
  21.500   1.0574   0.30645   0.30211  -0.1471  0.0722  1.0000  -1.9902   0.0000   0.0000   0.0000   0.3616
  21.600   1.0592   0.30824   0.30392  -0.1475  0.0702  1.0000  -2.0123   0.0000   0.0000   0.0000   0.3616
  21.700   1.0624   0.30971   0.30541  -0.1473  0.0677  1.0000  -2.0659   0.0000   0.0000   0.0000   0.3607
  21.800   1.0692   0.31167   0.30742  -0.1457  0.0654  1.0000  -2.1758   0.0000   0.0000   0.0000   0.3580
  21.900   1.0871   0.32487   0.32069  -0.1408  0.0632  1.0000  -2.3484   0.0000   0.0000   0.0000   0.3512
  22.000   1.0849   0.32643   0.32224  -0.1421  0.0631  1.0000  -2.3042   0.0000   0.0000   0.0000   0.3525
  22.100   1.0825   0.32778   0.32358  -0.1435  0.0630  1.0000  -2.2585   0.0000   0.0000   0.0000   0.3539
  22.200   1.0788   0.32872   0.32451  -0.1450  0.0628  1.0000  -2.2065   0.0000   0.0000   0.0000   0.3556
  22.300   1.0745   0.32943   0.32521  -0.1467  0.0626  1.0000  -2.1502   0.0000   0.0000   0.0000   0.3575
  22.400   1.0702   0.33004   0.32581  -0.1485  0.0623  1.0000  -2.0895   0.0000   0.0000   0.0000   0.3596
  22.500   1.0662   0.33066   0.32642  -0.1507  0.0617  1.0000  -2.0223   0.0000   0.0000   0.0000   0.3620
  22.600   1.0638   0.33189   0.32764  -0.1527  0.0603  1.0000  -1.9596   0.0000   0.0000   0.0000   0.3641
  22.700   1.0632   0.33392   0.32967  -0.1540  0.0582  1.0000  -1.9253   0.0000   0.0000   0.0000   0.3652
  22.800   1.0631   0.33602   0.33178  -0.1547  0.0559  1.0000  -1.9112   0.0000   0.0000   0.0000   0.3656
  22.900   1.0635   0.33788   0.33365  -0.1550  0.0535  1.0000  -1.9157   0.0000   0.0000   0.0000   0.3657
  23.000   1.0658   0.33906   0.33485  -0.1545  0.0505  1.0000  -1.9700   0.0000   0.0000   0.0000   0.3647
  23.100   1.0788   0.34695   0.34278  -0.1496  0.0469  1.0000  -2.1600   0.0000   0.0000   0.0000   0.3581
  23.200   1.0745   0.34840   0.34423  -0.1507  0.0468  1.0000  -2.1067   0.0000   0.0000   0.0000   0.3595
  23.300   1.0699   0.34981   0.34564  -0.1518  0.0466  1.0000  -2.0520   0.0000   0.0000   0.0000   0.3610
  23.400   1.0649   0.35114   0.34697  -0.1529  0.0464  1.0000  -1.9947   0.0000   0.0000   0.0000   0.3625
  23.500   1.0596   0.35240   0.34823  -0.1540  0.0462  1.0000  -1.9335   0.0000   0.0000   0.0000   0.3642
  23.600   1.0542   0.35368   0.34951  -0.1552  0.0457  1.0000  -1.8676   0.0000   0.0000   0.0000   0.3660
  23.700   1.0491   0.35521   0.35105  -0.1562  0.0446  1.0000  -1.8030   0.0000   0.0000   0.0000   0.3676
  23.800   1.0432   0.35686   0.35271  -0.1565  0.0433  1.0000  -1.7542   0.0000   0.0000   0.0000   0.3686
  23.900   0.9356   0.33480   0.33094  -0.1394  0.0458  1.0000  -1.5612   0.0000   0.0000   0.0000   0.3694
  24.000   0.9287   0.33442   0.33058  -0.1399  0.0450  1.0000  -1.5009   0.0000   0.0000   0.0000   0.3711
  24.100   0.9236   0.33452   0.33070  -0.1402  0.0438  1.0000  -1.4538   0.0000   0.0000   0.0000   0.3722
  24.200   0.9189   0.33460   0.33079  -0.1402  0.0425  1.0000  -1.4205   0.0000   0.0000   0.0000   0.3730
  24.300   0.9146   0.33462   0.33083  -0.1401  0.0414  1.0000  -1.3946   0.0000   0.0000   0.0000   0.3735
  24.400   0.9107   0.33465   0.33087  -0.1399  0.0404  1.0000  -1.3733   0.0000   0.0000   0.0000   0.3739
  24.500   0.9072   0.33467   0.33092  -0.1398  0.0395  1.0000  -1.3556   0.0000   0.0000   0.0000   0.3743
  24.600   0.9040   0.33470   0.33097  -0.1397  0.0386  1.0000  -1.3411   0.0000   0.0000   0.0000   0.3746
  24.700   0.9011   0.33474   0.33102  -0.1395  0.0379  1.0000  -1.3297   0.0000   0.0000   0.0000   0.3748
  24.800   0.8984   0.33476   0.33106  -0.1394  0.0372  1.0000  -1.3215   0.0000   0.0000   0.0000   0.3750
  24.900   0.8960   0.33478   0.33110  -0.1392  0.0365  1.0000  -1.3165   0.0000   0.0000   0.0000   0.3751
  25.000   0.8938   0.33478   0.33111  -0.1390  0.0359  1.0000  -1.3153   0.0000   0.0000   0.0000   0.3751
  25.100   0.8918   0.33477   0.33112  -0.1387  0.0354  1.0000  -1.3182   0.0000   0.0000   0.0000   0.3750
  25.200   0.8902   0.33477   0.33115  -0.1384  0.0349  1.0000  -1.3265   0.0000   0.0000   0.0000   0.3747
  25.300   0.8889   0.33490   0.33130  -0.1378  0.0344  1.0000  -1.3424   0.0000   0.0000   0.0000   0.3741
  25.400   0.8892   0.33574   0.33217  -0.1369  0.0339  1.0000  -1.3744   0.0000   0.0000   0.0000   0.3728
  25.500   0.8973   0.34245   0.33887  -0.1353  0.0333  1.0000  -1.4318   0.0000   0.0000   0.0000   0.3696
  25.600   0.8934   0.34215   0.33858  -0.1355  0.0332  1.0000  -1.4033   0.0000   0.0000   0.0000   0.3704
  25.700   0.8894   0.34178   0.33823  -0.1358  0.0332  1.0000  -1.3744   0.0000   0.0000   0.0000   0.3712
  25.800   0.8857   0.34146   0.33792  -0.1360  0.0332  1.0000  -1.3463   0.0000   0.0000   0.0000   0.3721
  25.900   0.8822   0.34119   0.33765  -0.1363  0.0331  1.0000  -1.3190   0.0000   0.0000   0.0000   0.3729
  26.000   0.8788   0.34095   0.33743  -0.1366  0.0331  1.0000  -1.2925   0.0000   0.0000   0.0000   0.3738
  26.100   0.8757   0.34076   0.33725  -0.1370  0.0331  1.0000  -1.2666   0.0000   0.0000   0.0000   0.3746
  26.200   0.8728   0.34062   0.33711  -0.1373  0.0330  1.0000  -1.2412   0.0000   0.0000   0.0000   0.3754
  26.300   0.8700   0.34053   0.33703  -0.1377  0.0329  1.0000  -1.2162   0.0000   0.0000   0.0000   0.3763
  26.400   0.8674   0.34050   0.33701  -0.1382  0.0329  1.0000  -1.1916   0.0000   0.0000   0.0000   0.3771
  26.500   0.8651   0.34054   0.33707  -0.1386  0.0328  1.0000  -1.1672   0.0000   0.0000   0.0000   0.3780
  26.600   0.8630   0.34068   0.33721  -0.1392  0.0327  1.0000  -1.1430   0.0000   0.0000   0.0000   0.3788
  26.700   0.8611   0.34091   0.33745  -0.1397  0.0326  1.0000  -1.1190   0.0000   0.0000   0.0000   0.3797
  26.800   0.8595   0.34127   0.33782  -0.1403  0.0324  1.0000  -1.0951   0.0000   0.0000   0.0000   0.3805
  26.900   0.8582   0.34177   0.33833  -0.1410  0.0321  1.0000  -1.0717   0.0000   0.0000   0.0000   0.3814
  27.000   0.8573   0.34241   0.33897  -0.1416  0.0318  1.0000  -1.0497   0.0000   0.0000   0.0000   0.3821
  27.100   0.8564   0.34310   0.33968  -0.1421  0.0314  1.0000  -1.0304   0.0000   0.0000   0.0000   0.3828
  27.200   0.8557   0.34378   0.34037  -0.1426  0.0309  1.0000  -1.0145   0.0000   0.0000   0.0000   0.3833
  27.300   0.8549   0.34442   0.34102  -0.1430  0.0304  1.0000  -1.0016   0.0000   0.0000   0.0000   0.3837
  27.400   0.8541   0.34501   0.34162  -0.1433  0.0299  1.0000  -0.9910   0.0000   0.0000   0.0000   0.3841
  27.500   0.8533   0.34558   0.34220  -0.1436  0.0294  1.0000  -0.9819   0.0000   0.0000   0.0000   0.3845
  27.600   0.8525   0.34611   0.34275  -0.1439  0.0290  1.0000  -0.9740   0.0000   0.0000   0.0000   0.3848
  27.700   0.8518   0.34664   0.34329  -0.1442  0.0285  1.0000  -0.9670   0.0000   0.0000   0.0000   0.3851
  27.800   0.8511   0.34716   0.34382  -0.1445  0.0281  1.0000  -0.9608   0.0000   0.0000   0.0000   0.3854
  27.900   0.8504   0.34768   0.34435  -0.1447  0.0276  1.0000  -0.9553   0.0000   0.0000   0.0000   0.3857
  28.000   0.8497   0.34818   0.34486  -0.1450  0.0272  1.0000  -0.9505   0.0000   0.0000   0.0000   0.3860
  28.200   0.8484   0.34917   0.34593  -0.1456  0.0265  1.0000  -0.9458   0.0000   0.0000   0.0000   0.3865
  28.300   0.8478   0.34964   0.34642  -0.1458  0.0262  1.0000  -0.9429   0.0000   0.0000   0.0000   0.3867
  28.400   0.8472   0.35012   0.34691  -0.1461  0.0258  1.0000  -0.9405   0.0000   0.0000   0.0000   0.3870
  28.500   0.8466   0.35058   0.34738  -0.1463  0.0255  1.0000  -0.9387   0.0000   0.0000   0.0000   0.3872
  28.600   0.8460   0.35104   0.34785  -0.1466  0.0252  1.0000  -0.9374   0.0000   0.0000   0.0000   0.3874
  28.700   0.8455   0.35149   0.34831  -0.1469  0.0249  1.0000  -0.9369   0.0000   0.0000   0.0000   0.3876
  28.800   0.8450   0.35192   0.34876  -0.1471  0.0246  1.0000  -0.9370   0.0000   0.0000   0.0000   0.3878
  28.900   0.8445   0.35234   0.34919  -0.1473  0.0243  1.0000  -0.9379   0.0000   0.0000   0.0000   0.3880
  29.000   0.8440   0.35275   0.34962  -0.1476  0.0240  1.0000  -0.9398   0.0000   0.0000   0.0000   0.3881
  29.100   0.8435   0.35314   0.35002  -0.1478  0.0238  1.0000  -0.9426   0.0000   0.0000   0.0000   0.3883
  29.200   0.8430   0.35351   0.35040  -0.1479  0.0235  1.0000  -0.9466   0.0000   0.0000   0.0000   0.3884
  29.300   0.8425   0.35386   0.35076  -0.1481  0.0233  1.0000  -0.9518   0.0000   0.0000   0.0000   0.3884
  29.400   0.8420   0.35419   0.35111  -0.1482  0.0231  1.0000  -0.9587   0.0000   0.0000   0.0000   0.3884
  29.500   0.8416   0.35453   0.35147  -0.1483  0.0229  1.0000  -0.9675   0.0000   0.0000   0.0000   0.3884
  29.600   0.8412   0.35492   0.35187  -0.1483  0.0226  1.0000  -0.9789   0.0000   0.0000   0.0000   0.3882
  29.700   0.8410   0.35548   0.35245  -0.1481  0.0224  1.0000  -0.9941   0.0000   0.0000   0.0000   0.3878
  29.800   0.8415   0.35669   0.35368  -0.1477  0.0222  1.0000  -1.0163   0.0000   0.0000   0.0000   0.3871


