xflr5 v6.61

 Calculated polar for: SG6041

 1 1 Reynolds number fixed          Mach number fixed         

 xtrf =   1.000 (top)        1.000 (bottom)
 Mach =   0.000     Re =     0.450 e 6     Ncrit =   9.000

  alpha     CL        CD       CDp       Cm    Top Xtr Bot Xtr   Cpmin    Chinge    XCp    
 ------- -------- --------- --------- -------- ------- ------- -------- --------- ---------
 -10.000  -0.4155   0.10445   0.10181  -0.0310  1.0000  0.0174  -1.7543   0.0000   0.0000   0.0000   0.1672
  -9.900  -0.4150   0.10296   0.10034  -0.0315  1.0000  0.0176  -1.7690   0.0000   0.0000   0.0000   0.1658
  -9.800  -0.4146   0.10147   0.09885  -0.0321  1.0000  0.0178  -1.7849   0.0000   0.0000   0.0000   0.1644
  -9.700  -0.4142   0.09997   0.09736  -0.0327  1.0000  0.0180  -1.8021   0.0000   0.0000   0.0000   0.1631
  -9.600  -0.4140   0.09846   0.09586  -0.0333  1.0000  0.0182  -1.8207   0.0000   0.0000   0.0000   0.1617
  -9.500  -0.4139   0.09695   0.09436  -0.0339  1.0000  0.0184  -1.8407   0.0000   0.0000   0.0000   0.1603
  -9.400  -0.4140   0.09544   0.09286  -0.0345  1.0000  0.0186  -1.8623   0.0000   0.0000   0.0000   0.1589
  -9.300  -0.4141   0.09393   0.09136  -0.0352  1.0000  0.0188  -1.8850   0.0000   0.0000   0.0000   0.1575
  -9.200  -0.4144   0.09242   0.08986  -0.0358  1.0000  0.0190  -1.9092   0.0000   0.0000   0.0000   0.1561
  -9.100  -0.4146   0.09094   0.08840  -0.0364  1.0000  0.0192  -1.9327   0.0000   0.0000   0.0000   0.1547
  -9.000  -0.4149   0.08947   0.08694  -0.0371  1.0000  0.0194  -1.9572   0.0000   0.0000   0.0000   0.1533
  -8.900  -0.4152   0.08801   0.08549  -0.0378  1.0000  0.0196  -1.9816   0.0000   0.0000   0.0000   0.1519
  -8.800  -0.4150   0.08667   0.08417  -0.0383  1.0000  0.0198  -1.9975   0.0000   0.0000   0.0000   0.1506
  -8.700  -0.4150   0.08535   0.08287  -0.0389  1.0000  0.0200  -2.0130   0.0000   0.0000   0.0000   0.1493
  -8.600  -0.4156   0.08402   0.08155  -0.0394  1.0000  0.0201  -2.0298   0.0000   0.0000   0.0000   0.1483
  -8.500  -0.4169   0.08266   0.08021  -0.0399  1.0000  0.0202  -2.0488   0.0000   0.0000   0.0000   0.1476
  -8.400  -0.4191   0.08129   0.07886  -0.0403  1.0000  0.0203  -2.0703   0.0000   0.0000   0.0000   0.1472
  -8.300  -0.4224   0.07992   0.07751  -0.0406  1.0000  0.0203  -2.0944   0.0000   0.0000   0.0000   0.1474
  -8.200  -0.4270   0.07860   0.07621  -0.0408  1.0000  0.0204  -2.1215   0.0000   0.0000   0.0000   0.1483
  -8.100  -0.4338   0.07737   0.07500  -0.0407  1.0000  0.0204  -2.1519   0.0000   0.0000   0.0000   0.1503
  -8.000  -0.4437   0.07632   0.07399  -0.0400  1.0000  0.0203  -2.1862   0.0000   0.0000   0.0000   0.1540
  -7.900  -0.4575   0.07555   0.07325  -0.0387  1.0000  0.0202  -2.2236   0.0000   0.0000   0.0000   0.1600
  -7.800  -0.4742   0.07503   0.07275  -0.0365  1.0000  0.0200  -2.2618   0.0000   0.0000   0.0000   0.1677
  -7.700  -0.4859   0.07410   0.07183  -0.0355  0.9998  0.0199  -2.2964   0.0000   0.0000   0.0000   0.1718
  -7.600  -0.4747   0.07131   0.06898  -0.0401  0.9981  0.0202  -2.3228   0.0000   0.0000   0.0000   0.1605
  -7.500  -0.4657   0.06870   0.06632  -0.0437  0.9962  0.0204  -2.3491   0.0000   0.0000   0.0000   0.1510
  -7.400  -0.4581   0.06623   0.06379  -0.0468  0.9945  0.0205  -2.3762   0.0000   0.0000   0.0000   0.1428
  -7.300  -0.4505   0.06381   0.06130  -0.0495  0.9931  0.0206  -2.4023   0.0000   0.0000   0.0000   0.1350
  -7.200  -0.4436   0.06152   0.05893  -0.0518  0.9916  0.0206  -2.4263   0.0000   0.0000   0.0000   0.1281
  -7.100  -0.4379   0.05942   0.05676  -0.0535  0.9895  0.0207  -2.4475   0.0000   0.0000   0.0000   0.1227
  -7.000  -0.4314   0.05731   0.05457  -0.0552  0.9877  0.0207  -2.4667   0.0000   0.0000   0.0000   0.1170
  -6.900  -0.4241   0.05520   0.05238  -0.0568  0.9861  0.0207  -2.4834   0.0000   0.0000   0.0000   0.1109
  -6.800  -0.4162   0.05312   0.05020  -0.0584  0.9848  0.0207  -2.4972   0.0000   0.0000   0.0000   0.1044
  -6.700  -0.4076   0.05106   0.04803  -0.0600  0.9838  0.0208  -2.5081   0.0000   0.0000   0.0000   0.0975
  -6.600  -0.4002   0.04920   0.04607  -0.0611  0.9822  0.0208  -2.5158   0.0000   0.0000   0.0000   0.0921
  -6.500  -0.3948   0.04756   0.04434  -0.0614  0.9794  0.0208  -2.5215   0.0000   0.0000   0.0000   0.0891
  -6.400  -0.4040   0.03979   0.03621  -0.0634  0.9754  0.0217  -2.8340   0.0000   0.0000   0.0000   0.0877
  -6.300  -0.3975   0.03724   0.03354  -0.0645  0.9740  0.0223  -2.8352   0.0000   0.0000   0.0000   0.0824
  -6.200  -0.3877   0.03570   0.03192  -0.0654  0.9731  0.0228  -2.7897   0.0000   0.0000   0.0000   0.0759
  -6.100  -0.3769   0.03443   0.03058  -0.0663  0.9723  0.0232  -2.7326   0.0000   0.0000   0.0000   0.0687
  -6.000  -0.3655   0.03337   0.02946  -0.0671  0.9717  0.0236  -2.6650   0.0000   0.0000   0.0000   0.0609
  -5.900  -0.3537   0.03232   0.02835  -0.0679  0.9712  0.0240  -2.6005   0.0000   0.0000   0.0000   0.0525
  -5.800  -0.3481   0.03153   0.02750  -0.0673  0.9682  0.0244  -2.5575   0.0000   0.0000   0.0000   0.0513
  -5.700  -0.3403   0.03061   0.02648  -0.0671  0.9658  0.0248  -2.5114   0.0000   0.0000   0.0000   0.0474
  -5.600  -0.3302   0.02967   0.02545  -0.0673  0.9642  0.0253  -2.4622   0.0000   0.0000   0.0000   0.0406
  -5.500  -0.3191   0.02867   0.02436  -0.0676  0.9628  0.0259  -2.4161   0.0000   0.0000   0.0000   0.0324
  -5.300  -0.2986   0.01964   0.01408  -0.0652  0.9601  0.0118  -3.2170   0.0000   0.0000   0.0000   0.0253
  -5.200  -0.2841   0.01948   0.01389  -0.0658  0.9595  0.0115  -3.1085   0.0000   0.0000   0.0000   0.0119
  -4.900  -0.2443   0.01693   0.01104  -0.0670  0.9579  0.0104  -2.9787   0.0000   0.0000   0.0000  -0.0314
  -4.800  -0.2317   0.01593   0.00992  -0.0673  0.9574  0.0103  -2.9539   0.0000   0.0000   0.0000  -0.0476
  -4.700  -0.2188   0.01513   0.00902  -0.0676  0.9568  0.0102  -2.9098   0.0000   0.0000   0.0000  -0.0664
  -4.600  -0.2058   0.01446   0.00827  -0.0679  0.9563  0.0101  -2.8531   0.0000   0.0000   0.0000  -0.0879
  -4.500  -0.1926   0.01388   0.00762  -0.0683  0.9557  0.0101  -2.7867   0.0000   0.0000   0.0000  -0.1127
  -4.400  -0.1892   0.01358   0.00728  -0.0667  0.9515  0.0102  -2.7436   0.0000   0.0000   0.0000  -0.1102
  -4.300  -0.1794   0.01318   0.00683  -0.0663  0.9494  0.0102  -2.6784   0.0000   0.0000   0.0000  -0.1279
  -4.200  -0.1683   0.01281   0.00641  -0.0663  0.9477  0.0103  -2.6113   0.0000   0.0000   0.0000  -0.1521
  -4.100  -0.1566   0.01248   0.00604  -0.0664  0.9463  0.0104  -2.5371   0.0000   0.0000   0.0000  -0.1827
  -4.000  -0.1443   0.01219   0.00572  -0.0666  0.9450  0.0106  -2.4554   0.0000   0.0000   0.0000  -0.2205
  -3.900  -0.1317   0.01196   0.00547  -0.0668  0.9438  0.0108  -2.3648   0.0000   0.0000   0.0000  -0.2672
  -3.800  -0.1202   0.01144   0.00484  -0.0668  0.9425  0.0119  -2.3373   0.0000   0.0000   0.0000  -0.3160
  -3.700  -0.1080   0.01105   0.00438  -0.0669  0.9414  0.0151  -2.2998   0.0000   0.0000   0.0000  -0.3811
  -3.600  -0.0950   0.01083   0.00419  -0.0673  0.9404  0.0188  -2.2125   0.0000   0.0000   0.0000  -0.4708
  -3.500  -0.0823   0.01055   0.00399  -0.0676  0.9394  0.0332  -2.1363   0.0000   0.0000   0.0000  -0.5840
  -3.400  -0.0695   0.01036   0.00388  -0.0680  0.9384  0.0475  -2.0311   0.0000   0.0000   0.0000  -0.7424
  -3.300  -0.0595   0.01026   0.00381  -0.0678  0.9364  0.0555  -1.9336   0.0000   0.0000   0.0000  -0.9060
  -3.200  -0.0514   0.01017   0.00376  -0.0671  0.9336  0.0626  -1.8443   0.0000   0.0000   0.0000  -1.0745
  -3.100  -0.0414   0.01010   0.00369  -0.0669  0.9312  0.0680  -1.7505   0.0000   0.0000   0.0000  -1.3883
  -3.000  -0.0308   0.00997   0.00361  -0.0668  0.9291  0.0783  -1.6808   0.0000   0.0000   0.0000  -1.9441
  -2.900  -0.0196   0.00985   0.00353  -0.0668  0.9272  0.0887  -1.6100   0.0000   0.0000   0.0000  -3.2071
  -2.800  -0.0078   0.00973   0.00338  -0.0669  0.9254  0.0986  -1.5520   0.0000   0.0000   0.0000  -8.3784
  -2.600   0.0155   0.00940   0.00321  -0.0672  0.9222  0.1390  -1.4097   0.0000   0.0000   0.0000   4.6249
  -2.500   0.0264   0.00910   0.00311  -0.0673  0.9206  0.1889  -1.3431   0.0000   0.0000   0.0000   2.8269
  -2.400   0.0361   0.00864   0.00300  -0.0673  0.9188  0.2795  -1.2812   0.0000   0.0000   0.0000   2.1330
  -2.300   0.0434   0.00806   0.00291  -0.0669  0.9166  0.4139  -1.2273   0.0000   0.0000   0.0000   1.8050
  -2.200   0.0467   0.00752   0.00290  -0.0655  0.9131  0.5482  -1.1850   0.0000   0.0000   0.0000   1.6649
  -2.100   0.0528   0.00725   0.00296  -0.0644  0.9100  0.6434  -1.1341   0.0000   0.0000   0.0000   1.4797
  -2.000   0.0619   0.00715   0.00299  -0.0638  0.9074  0.6879  -1.0753   0.0000   0.0000   0.0000   1.2889
  -1.900   0.0718   0.00708   0.00300  -0.0633  0.9050  0.7132  -1.0153   0.0000   0.0000   0.0000   1.1393
  -1.800   0.0831   0.00705   0.00296  -0.0632  0.9028  0.7253  -0.9523   0.0000   0.0000   0.0000   1.0162
  -1.700   0.0941   0.00699   0.00294  -0.0630  0.9007  0.7362  -0.8912   0.0000   0.0000   0.0000   0.9242
  -1.600   0.1054   0.00696   0.00291  -0.0629  0.8987  0.7473  -0.8304   0.0000   0.0000   0.0000   0.8505
  -1.500   0.1169   0.00694   0.00288  -0.0628  0.8967  0.7575  -0.7698   0.0000   0.0000   0.0000   0.7903
  -1.400   0.1286   0.00692   0.00287  -0.0628  0.8945  0.7668  -0.7100   0.0000   0.0000   0.0000   0.7406
  -1.300   0.1378   0.00690   0.00288  -0.0622  0.8917  0.7754  -0.6574   0.0000   0.0000   0.0000   0.7036
  -1.200   0.1474   0.00689   0.00288  -0.0618  0.8887  0.7828  -0.6047   0.0000   0.0000   0.0000   0.6709
  -1.100   0.1576   0.00688   0.00286  -0.0615  0.8856  0.7895  -0.5513   0.0000   0.0000   0.0000   0.6414
  -1.000   0.1682   0.00687   0.00283  -0.0612  0.8825  0.7957  -0.4979   0.0000   0.0000   0.0000   0.6151
  -0.900   0.1786   0.00682   0.00281  -0.0609  0.8797  0.8027  -0.4455   0.0000   0.0000   0.0000   0.5918
  -0.800   0.1893   0.00679   0.00278  -0.0607  0.8770  0.8090  -0.4068   0.0000   0.0000   0.0000   0.5709
  -0.700   0.2002   0.00677   0.00276  -0.0604  0.8743  0.8158  -0.4162   0.0000   0.0000   0.0000   0.5521
  -0.600   0.2114   0.00677   0.00274  -0.0603  0.8717  0.8234  -0.4258   0.0000   0.0000   0.0000   0.5352
  -0.400   0.2308   0.00675   0.00277  -0.0592  0.8657  0.8416  -0.4467   0.0000   0.0000   0.0000   0.5064
  -0.300   0.2397   0.00675   0.00277  -0.0586  0.8621  0.8508  -0.4572   0.0000   0.0000   0.0000   0.4940
  -0.200   0.2493   0.00675   0.00276  -0.0581  0.8584  0.8577  -0.4683   0.0000   0.0000   0.0000   0.4825
  -0.100   0.2590   0.00670   0.00274  -0.0576  0.8548  0.8644  -0.4794   0.0000   0.0000   0.0000   0.4717
   0.000   0.2689   0.00667   0.00272  -0.0571  0.8514  0.8703  -0.4907   0.0000   0.0000   0.0000   0.4616
   0.100   0.2793   0.00665   0.00269  -0.0568  0.8480  0.8760  -0.5030   0.0000   0.0000   0.0000   0.4524
   0.200   0.2903   0.00665   0.00266  -0.0566  0.8448  0.8811  -0.5164   0.0000   0.0000   0.0000   0.4440
   0.300   0.3015   0.00666   0.00264  -0.0565  0.8412  0.8852  -0.5302   0.0000   0.0000   0.0000   0.4363
   0.400   0.3109   0.00662   0.00262  -0.0561  0.8376  0.8895  -0.5433   0.0000   0.0000   0.0000   0.4290
   0.500   0.3206   0.00659   0.00261  -0.0556  0.8334  0.8935  -0.5577   0.0000   0.0000   0.0000   0.4221
   0.600   0.3306   0.00656   0.00258  -0.0553  0.8289  0.8974  -0.5724   0.0000   0.0000   0.0000   0.4157
   0.700   0.3408   0.00653   0.00255  -0.0549  0.8242  0.9015  -0.5873   0.0000   0.0000   0.0000   0.4096
   0.800   0.3514   0.00651   0.00251  -0.0547  0.8196  0.9054  -0.6027   0.0000   0.0000   0.0000   0.4040
   0.900   0.3624   0.00651   0.00246  -0.0546  0.8152  0.9092  -0.6195   0.0000   0.0000   0.0000   0.3988
   1.000   0.3733   0.00650   0.00244  -0.0544  0.8110  0.9128  -0.6374   0.0000   0.0000   0.0000   0.3940
   1.100   0.3833   0.00647   0.00244  -0.0541  0.8066  0.9166  -0.6545   0.0000   0.0000   0.0000   0.3892
   1.200   0.3934   0.00645   0.00244  -0.0538  0.8017  0.9205  -0.6718   0.0000   0.0000   0.0000   0.3847
   1.300   0.4038   0.00643   0.00242  -0.0535  0.7963  0.9245  -0.6895   0.0000   0.0000   0.0000   0.3805
   1.400   0.4143   0.00642   0.00239  -0.0533  0.7906  0.9288  -0.7075   0.0000   0.0000   0.0000   0.3765
   1.500   0.4248   0.00642   0.00235  -0.0531  0.7849  0.9332  -0.7255   0.0000   0.0000   0.0000   0.3727
   1.600   0.4363   0.00641   0.00233  -0.0530  0.7791  0.9368  -0.7444   0.0000   0.0000   0.0000   0.3692
   1.700   0.4475   0.00640   0.00234  -0.0530  0.7726  0.9410  -0.7631   0.0000   0.0000   0.0000   0.3660
   1.800   0.4588   0.00640   0.00233  -0.0529  0.7652  0.9456  -0.7821   0.0000   0.0000   0.0000   0.3628
   1.900   0.4698   0.00640   0.00230  -0.0528  0.7574  0.9506  -0.8024   0.0000   0.0000   0.0000   0.3598
   2.000   0.4818   0.00642   0.00227  -0.0529  0.7495  0.9545  -0.8274   0.0000   0.0000   0.0000   0.3571
   2.100   0.4952   0.00643   0.00228  -0.0533  0.7417  0.9577  -0.8559   0.0000   0.0000   0.0000   0.3550
   2.200   0.5085   0.00644   0.00231  -0.0538  0.7320  0.9612  -0.8847   0.0000   0.0000   0.0000   0.3529
   2.300   0.5211   0.00648   0.00228  -0.0540  0.7213  0.9651  -0.9128   0.0000   0.0000   0.0000   0.3508
   2.400   0.5332   0.00652   0.00228  -0.0542  0.7114  0.9696  -0.9404   0.0000   0.0000   0.0000   0.3487
   2.500   0.5478   0.00655   0.00229  -0.0549  0.6996  0.9720  -0.9712   0.0000   0.0000   0.0000   0.3473
   2.600   0.5619   0.00661   0.00229  -0.0556  0.6874  0.9748  -1.0017   0.0000   0.0000   0.0000   0.3458
   2.700   0.5757   0.00666   0.00230  -0.0562  0.6763  0.9783  -1.0319   0.0000   0.0000   0.0000   0.3444
   2.900   0.6038   0.00680   0.00233  -0.0575  0.6487  0.9846  -1.0936   0.0000   0.0000   0.0000   0.3419
   3.000   0.6188   0.00687   0.00235  -0.0583  0.6341  0.9871  -1.1259   0.0000   0.0000   0.0000   0.3409
   3.100   0.6327   0.00699   0.00237  -0.0590  0.6148  0.9903  -1.1572   0.0000   0.0000   0.0000   0.3398
   3.200   0.6469   0.00710   0.00240  -0.0598  0.5945  0.9931  -1.1890   0.0000   0.0000   0.0000   0.3388
   3.300   0.6608   0.00727   0.00244  -0.0605  0.5694  0.9961  -1.2233   0.0000   0.0000   0.0000   0.3379
   3.400   0.6749   0.00742   0.00248  -0.0613  0.5440  0.9991  -1.2616   0.0000   0.0000   0.0000   0.3370
   3.500   0.6825   0.00755   0.00253  -0.0607  0.5252  1.0000  -1.2899   0.0000   0.0000   0.0000   0.3351
   3.600   0.6878   0.00768   0.00257  -0.0596  0.5060  1.0000  -1.3148   0.0000   0.0000   0.0000   0.3328
   3.700   0.6938   0.00782   0.00262  -0.0587  0.4891  1.0000  -1.3409   0.0000   0.0000   0.0000   0.3306
   3.800   0.7004   0.00795   0.00267  -0.0579  0.4712  1.0000  -1.3682   0.0000   0.0000   0.0000   0.3286
   3.900   0.7071   0.00810   0.00274  -0.0571  0.4548  1.0000  -1.3956   0.0000   0.0000   0.0000   0.3266
   4.000   0.7147   0.00823   0.00280  -0.0564  0.4379  1.0000  -1.4247   0.0000   0.0000   0.0000   0.3247
   4.100   0.7217   0.00841   0.00288  -0.0557  0.4205  1.0000  -1.4529   0.0000   0.0000   0.0000   0.3228
   4.200   0.7300   0.00854   0.00295  -0.0552  0.4047  1.0000  -1.4835   0.0000   0.0000   0.0000   0.3212
   4.400   0.7458   0.00886   0.00312  -0.0541  0.3714  1.0000  -1.5438   0.0000   0.0000   0.0000   0.3179
   4.500   0.7534   0.00906   0.00321  -0.0535  0.3529  1.0000  -1.5735   0.0000   0.0000   0.0000   0.3163
   4.600   0.7620   0.00921   0.00330  -0.0531  0.3373  1.0000  -1.6051   0.0000   0.0000   0.0000   0.3148
   4.700   0.7698   0.00941   0.00340  -0.0525  0.3191  1.0000  -1.6355   0.0000   0.0000   0.0000   0.3133
   4.800   0.7785   0.00957   0.00349  -0.0521  0.3039  1.0000  -1.6676   0.0000   0.0000   0.0000   0.3120
   4.900   0.7866   0.00977   0.00371  -0.0516  0.2865  1.0000  -1.7153   0.0000   0.0000   0.0000   0.3106
   5.000   0.7954   0.00993   0.00381  -0.0513  0.2731  1.0000  -1.7657   0.0000   0.0000   0.0000   0.3093
   5.100   0.8042   0.01009   0.00392  -0.0509  0.2600  1.0000  -1.8159   0.0000   0.0000   0.0000   0.3080
   5.200   0.8126   0.01029   0.00403  -0.0505  0.2463  1.0000  -1.8651   0.0000   0.0000   0.0000   0.3068
   5.300   0.8220   0.01041   0.00413  -0.0502  0.2366  1.0000  -1.9173   0.0000   0.0000   0.0000   0.3056
   5.400   0.8307   0.01059   0.00425  -0.0498  0.2250  1.0000  -1.9680   0.0000   0.0000   0.0000   0.3045
   5.500   0.8395   0.01077   0.00436  -0.0495  0.2137  1.0000  -2.0191   0.0000   0.0000   0.0000   0.3033
   5.600   0.8489   0.01090   0.00447  -0.0492  0.2052  1.0000  -2.0724   0.0000   0.0000   0.0000   0.3022
   5.700   0.8576   0.01108   0.00460  -0.0489  0.1952  1.0000  -2.1242   0.0000   0.0000   0.0000   0.3011
   5.800   0.8664   0.01127   0.00473  -0.0485  0.1849  1.0000  -2.1762   0.0000   0.0000   0.0000   0.3001
   5.900   0.8760   0.01139   0.00484  -0.0483  0.1784  1.0000  -2.2310   0.0000   0.0000   0.0000   0.2991
   6.000   0.8850   0.01156   0.00496  -0.0480  0.1705  1.0000  -2.2846   0.0000   0.0000   0.0000   0.2981
   6.100   0.8935   0.01177   0.00511  -0.0476  0.1612  1.0000  -2.3369   0.0000   0.0000   0.0000   0.2970
   6.200   0.9029   0.01191   0.00524  -0.0473  0.1551  1.0000  -2.3921   0.0000   0.0000   0.0000   0.2961
   6.300   0.9124   0.01204   0.00536  -0.0471  0.1496  1.0000  -2.4481   0.0000   0.0000   0.0000   0.2952
   6.400   0.9213   0.01222   0.00550  -0.0468  0.1431  1.0000  -2.5029   0.0000   0.0000   0.0000   0.2942
   6.500   0.9296   0.01245   0.00567  -0.0464  0.1350  1.0000  -2.5558   0.0000   0.0000   0.0000   0.2932
   6.600   0.9389   0.01259   0.00581  -0.0461  0.1298  1.0000  -2.6122   0.0000   0.0000   0.0000   0.2923
   6.700   0.9485   0.01272   0.00593  -0.0459  0.1250  1.0000  -2.6703   0.0000   0.0000   0.0000   0.2915
   6.800   0.9574   0.01289   0.00606  -0.0456  0.1190  1.0000  -2.7269   0.0000   0.0000   0.0000   0.2906
   6.900   0.9656   0.01314   0.00625  -0.0452  0.1116  1.0000  -2.7810   0.0000   0.0000   0.0000   0.2897
   7.000   0.9745   0.01331   0.00641  -0.0449  0.1068  1.0000  -2.8374   0.0000   0.0000   0.0000   0.2888
   7.100   0.9842   0.01342   0.00654  -0.0447  0.1039  1.0000  -2.8974   0.0000   0.0000   0.0000   0.2880
   7.200   0.9935   0.01357   0.00668  -0.0444  0.1004  1.0000  -2.9562   0.0000   0.0000   0.0000   0.2872
   7.300   1.0024   0.01375   0.00683  -0.0441  0.0966  1.0000  -3.0140   0.0000   0.0000   0.0000   0.2864
   7.400   1.0103   0.01402   0.00713  -0.0436  0.0912  1.0000  -3.0674   0.0000   0.0000   0.0000   0.2855
   7.500   1.0178   0.01433   0.00742  -0.0431  0.0862  1.0000  -3.1182   0.0000   0.0000   0.0000   0.2845
   7.600   1.0275   0.01443   0.00755  -0.0429  0.0850  1.0000  -3.1803   0.0000   0.0000   0.0000   0.2838
   7.700   1.0371   0.01454   0.00769  -0.0426  0.0832  1.0000  -3.2416   0.0000   0.0000   0.0000   0.2831
   7.800   1.0463   0.01468   0.00785  -0.0424  0.0810  1.0000  -3.3025   0.0000   0.0000   0.0000   0.2823
   7.900   1.0554   0.01484   0.00801  -0.0421  0.0786  1.0000  -3.3626   0.0000   0.0000   0.0000   0.2816
   8.000   1.0641   0.01503   0.00818  -0.0418  0.0760  1.0000  -3.4221   0.0000   0.0000   0.0000   0.2808
   8.100   1.0723   0.01526   0.00839  -0.0414  0.0731  1.0000  -3.4799   0.0000   0.0000   0.0000   0.2800
   8.200   1.0795   0.01558   0.00869  -0.0408  0.0694  1.0000  -3.5436   0.0000   0.0000   0.0000   0.2791
   8.300   1.0869   0.01588   0.00901  -0.0402  0.0667  1.0000  -3.6108   0.0000   0.0000   0.0000   0.2782
   8.400   1.0967   0.01596   0.00912  -0.0401  0.0658  1.0000  -3.6924   0.0000   0.0000   0.0000   0.2776
   8.500   1.1061   0.01607   0.00926  -0.0399  0.0643  1.0000  -3.7731   0.0000   0.0000   0.0000   0.2770
   8.600   1.1152   0.01621   0.00942  -0.0396  0.0626  1.0000  -3.8532   0.0000   0.0000   0.0000   0.2763
   8.700   1.1241   0.01636   0.00958  -0.0393  0.0605  1.0000  -3.9328   0.0000   0.0000   0.0000   0.2756
   8.800   1.1326   0.01655   0.00975  -0.0390  0.0582  1.0000  -4.0113   0.0000   0.0000   0.0000   0.2750
   8.900   1.1405   0.01679   0.00997  -0.0386  0.0557  1.0000  -4.0969   0.0000   0.0000   0.0000   0.2742
   9.000   1.1468   0.01717   0.01034  -0.0379  0.0523  1.0000  -4.1843   0.0000   0.0000   0.0000   0.2733
   9.100   1.1531   0.01755   0.01073  -0.0372  0.0499  1.0000  -4.2717   0.0000   0.0000   0.0000   0.2724
   9.200   1.1629   0.01760   0.01082  -0.0370  0.0490  1.0000  -4.3873   0.0000   0.0000   0.0000   0.2718
   9.300   1.1723   0.01770   0.01093  -0.0368  0.0475  1.0000  -4.5012   0.0000   0.0000   0.0000   0.2713
   9.400   1.1813   0.01782   0.01107  -0.0366  0.0455  1.0000  -4.6145   0.0000   0.0000   0.0000   0.2707
   9.500   1.1898   0.01798   0.01121  -0.0363  0.0431  1.0000  -4.7263   0.0000   0.0000   0.0000   0.2701
   9.600   1.1976   0.01820   0.01139  -0.0359  0.0405  1.0000  -4.8345   0.0000   0.0000   0.0000   0.2694
   9.700   1.2029   0.01865   0.01182  -0.0351  0.0370  1.0000  -4.9207   0.0000   0.0000   0.0000   0.2685
   9.800   1.2099   0.01892   0.01211  -0.0345  0.0353  1.0000  -5.0228   0.0000   0.0000   0.0000   0.2677
   9.900   1.2195   0.01897   0.01217  -0.0344  0.0343  1.0000  -5.1483   0.0000   0.0000   0.0000   0.2672
  10.000   1.2305   0.01889   0.01211  -0.0346  0.0319  1.0000  -5.3063   0.0000   0.0000   0.0000   0.2670
  10.100   1.2382   0.01908   0.01227  -0.0342  0.0299  1.0000  -5.4251   0.0000   0.0000   0.0000   0.2663
  10.200   1.2451   0.01932   0.01249  -0.0337  0.0282  1.0000  -5.5363   0.0000   0.0000   0.0000   0.2656
  10.300   1.2515   0.01960   0.01275  -0.0330  0.0265  1.0000  -5.6424   0.0000   0.0000   0.0000   0.2648
  10.400   1.2573   0.01992   0.01309  -0.0323  0.0250  1.0000  -5.7419   0.0000   0.0000   0.0000   0.2639
  10.500   1.2621   0.02031   0.01350  -0.0314  0.0237  1.0000  -5.8326   0.0000   0.0000   0.0000   0.2630
  10.600   1.2692   0.02052   0.01373  -0.0308  0.0235  1.0000  -5.9464   0.0000   0.0000   0.0000   0.2623
  10.700   1.2761   0.02073   0.01398  -0.0303  0.0232  1.0000  -6.0595   0.0000   0.0000   0.0000   0.2615
  10.800   1.2829   0.02096   0.01424  -0.0297  0.0228  1.0000  -6.1720   0.0000   0.0000   0.0000   0.2608
  10.900   1.2895   0.02120   0.01451  -0.0291  0.0225  1.0000  -6.2841   0.0000   0.0000   0.0000   0.2601
  11.000   1.2959   0.02144   0.01479  -0.0285  0.0221  1.0000  -6.3959   0.0000   0.0000   0.0000   0.2594
  11.100   1.3022   0.02170   0.01508  -0.0279  0.0217  1.0000  -6.5075   0.0000   0.0000   0.0000   0.2586
  11.200   1.3084   0.02196   0.01538  -0.0273  0.0213  1.0000  -6.6191   0.0000   0.0000   0.0000   0.2579
  11.300   1.3145   0.02224   0.01568  -0.0266  0.0208  1.0000  -6.7307   0.0000   0.0000   0.0000   0.2572
  11.400   1.3204   0.02251   0.01599  -0.0260  0.0204  1.0000  -6.8424   0.0000   0.0000   0.0000   0.2564
  11.500   1.3262   0.02280   0.01631  -0.0254  0.0200  1.0000  -6.9536   0.0000   0.0000   0.0000   0.2557
  11.600   1.3318   0.02310   0.01663  -0.0247  0.0196  1.0000  -7.0649   0.0000   0.0000   0.0000   0.2550
  11.700   1.3374   0.02341   0.01697  -0.0241  0.0192  1.0000  -7.1762   0.0000   0.0000   0.0000   0.2543
  11.800   1.3427   0.02373   0.01731  -0.0234  0.0188  1.0000  -7.2871   0.0000   0.0000   0.0000   0.2535
  11.900   1.3479   0.02406   0.01766  -0.0227  0.0184  1.0000  -7.3973   0.0000   0.0000   0.0000   0.2528
  12.000   1.3529   0.02440   0.01802  -0.0221  0.0179  1.0000  -7.5069   0.0000   0.0000   0.0000   0.2521
  12.100   1.3578   0.02476   0.01840  -0.0214  0.0175  1.0000  -7.6156   0.0000   0.0000   0.0000   0.2514
  12.200   1.3624   0.02513   0.01881  -0.0207  0.0171  1.0000  -7.7233   0.0000   0.0000   0.0000   0.2506
  12.300   1.3668   0.02553   0.01924  -0.0200  0.0167  1.0000  -7.8287   0.0000   0.0000   0.0000   0.2499
  12.400   1.3708   0.02596   0.01970  -0.0193  0.0162  1.0000  -7.9313   0.0000   0.0000   0.0000   0.2492
  12.500   1.3744   0.02641   0.02019  -0.0185  0.0158  1.0000  -8.0305   0.0000   0.0000   0.0000   0.2484
  12.600   1.3775   0.02690   0.02073  -0.0177  0.0154  1.0000  -8.1256   0.0000   0.0000   0.0000   0.2476
  12.700   1.3799   0.02744   0.02131  -0.0168  0.0150  1.0000  -8.2150   0.0000   0.0000   0.0000   0.2468
  12.800   1.3818   0.02803   0.02196  -0.0160  0.0146  1.0000  -8.2992   0.0000   0.0000   0.0000   0.2460
  12.900   1.3831   0.02867   0.02266  -0.0151  0.0143  1.0000  -8.3786   0.0000   0.0000   0.0000   0.2451
  13.000   1.3875   0.02908   0.02310  -0.0145  0.0142  1.0000  -8.4906   0.0000   0.0000   0.0000   0.2445
  13.200   1.3943   0.03006   0.02422  -0.0132  0.0141  1.0000  -8.6803   0.0000   0.0000   0.0000   0.2432
  13.300   1.3988   0.03047   0.02468  -0.0127  0.0140  1.0000  -8.7935   0.0000   0.0000   0.0000   0.2426
  13.400   1.4035   0.03088   0.02512  -0.0123  0.0139  1.0000  -8.9102   0.0000   0.0000   0.0000   0.2421
  13.500   1.4080   0.03129   0.02558  -0.0118  0.0138  1.0000  -9.0267   0.0000   0.0000   0.0000   0.2416
  13.600   1.4123   0.03172   0.02605  -0.0113  0.0136  1.0000  -9.1570   0.0000   0.0000   0.0000   0.2410
  13.700   1.4165   0.03215   0.02652  -0.0109  0.0134  1.0000  -9.2964   0.0000   0.0000   0.0000   0.2405
  13.800   1.4207   0.03259   0.02700  -0.0104  0.0132  1.0000  -9.4364   0.0000   0.0000   0.0000   0.2400
  13.900   1.4248   0.03304   0.02749  -0.0100  0.0130  1.0000  -9.5766   0.0000   0.0000   0.0000   0.2394
  14.000   1.4286   0.03353   0.02801  -0.0096  0.0127  1.0000  -9.7138   0.0000   0.0000   0.0000   0.2389
  14.100   1.4320   0.03405   0.02858  -0.0091  0.0124  1.0000  -9.8463   0.0000   0.0000   0.0000   0.2384
  14.200   1.4351   0.03461   0.02918  -0.0087  0.0120  1.0000  -9.9763   0.0000   0.0000   0.0000   0.2379
  14.300   1.4383   0.03517   0.02978  -0.0083  0.0117  1.0000  -10.1072   0.0000   0.0000   0.0000   0.2374
  14.400   1.4414   0.03575   0.03040  -0.0079  0.0113  1.0000  -10.2384   0.0000   0.0000   0.0000   0.2369
  14.500   1.4442   0.03637   0.03106  -0.0075  0.0109  1.0000  -10.3655   0.0000   0.0000   0.0000   0.2364
  14.600   1.4463   0.03705   0.03177  -0.0072  0.0105  1.0000  -10.4862   0.0000   0.0000   0.0000   0.2360
  14.700   1.4483   0.03776   0.03251  -0.0068  0.0101  1.0000  -10.6054   0.0000   0.0000   0.0000   0.2355
  14.800   1.4501   0.03849   0.03327  -0.0065  0.0096  1.0000  -10.7234   0.0000   0.0000   0.0000   0.2351
  14.900   1.4516   0.03928   0.03408  -0.0062  0.0091  1.0000  -10.8368   0.0000   0.0000   0.0000   0.2347
  15.000   1.4521   0.04016   0.03499  -0.0059  0.0086  1.0000  -10.9395   0.0000   0.0000   0.0000   0.2343
  15.100   1.4522   0.04112   0.03596  -0.0056  0.0081  1.0000  -11.0357   0.0000   0.0000   0.0000   0.2339
  15.200   1.4518   0.04213   0.03702  -0.0053  0.0076  1.0000  -11.1247   0.0000   0.0000   0.0000   0.2335
  15.300   1.4502   0.04330   0.03824  -0.0051  0.0071  1.0000  -11.1959   0.0000   0.0000   0.0000   0.2331
  15.400   1.4503   0.04429   0.03928  -0.0050  0.0070  1.0000  -11.2912   0.0000   0.0000   0.0000   0.2328
  15.500   1.4501   0.04531   0.04034  -0.0048  0.0067  1.0000  -11.3831   0.0000   0.0000   0.0000   0.2325
  15.600   1.4492   0.04642   0.04151  -0.0047  0.0064  1.0000  -11.4645   0.0000   0.0000   0.0000   0.2322
  15.700   1.4473   0.04767   0.04281  -0.0047  0.0061  1.0000  -11.5338   0.0000   0.0000   0.0000   0.2320
  15.800   1.4455   0.04896   0.04414  -0.0048  0.0058  1.0000  -11.6017   0.0000   0.0000   0.0000   0.2318
  15.900   1.4431   0.05035   0.04558  -0.0049  0.0054  1.0000  -11.6627   0.0000   0.0000   0.0000   0.2316
  16.000   1.4399   0.05189   0.04717  -0.0051  0.0051  1.0000  -11.7118   0.0000   0.0000   0.0000   0.2315
  16.100   1.4367   0.05347   0.04880  -0.0053  0.0048  1.0000  -11.7599   0.0000   0.0000   0.0000   0.2315
  16.200   1.4327   0.05523   0.05060  -0.0057  0.0045  1.0000  -11.7954   0.0000   0.0000   0.0000   0.2316
  16.300   1.4283   0.05707   0.05249  -0.0062  0.0043  1.0000  -11.8251   0.0000   0.0000   0.0000   0.2317
  16.400   1.4236   0.05901   0.05448  -0.0068  0.0040  1.0000  -11.8492   0.0000   0.0000   0.0000   0.2319
  16.500   1.4182   0.06112   0.05665  -0.0076  0.0038  1.0000  -11.8611   0.0000   0.0000   0.0000   0.2322
  16.600   1.4128   0.06327   0.05885  -0.0083  0.0037  1.0000  -11.8716   0.0000   0.0000   0.0000   0.2325
  16.700   1.4065   0.06564   0.06128  -0.0093  0.0035  1.0000  -11.8676   0.0000   0.0000   0.0000   0.2330
  16.800   1.4005   0.06801   0.06371  -0.0104  0.0034  1.0000  -11.8635   0.0000   0.0000   0.0000   0.2335
  16.900   1.3934   0.07062   0.06640  -0.0116  0.0033  1.0000  -11.8438   0.0000   0.0000   0.0000   0.2342
  17.000   1.3866   0.07324   0.06908  -0.0128  0.0032  1.0000  -11.8234   0.0000   0.0000   0.0000   0.2349
  17.100   1.3787   0.07612   0.07203  -0.0143  0.0031  1.0000  -11.7877   0.0000   0.0000   0.0000   0.2358
  17.200   1.3710   0.07900   0.07499  -0.0158  0.0031  1.0000  -11.7506   0.0000   0.0000   0.0000   0.2367
  17.300   1.3626   0.08207   0.07814  -0.0174  0.0031  1.0000  -11.7026   0.0000   0.0000   0.0000   0.2378
  17.400   1.3540   0.08518   0.08132  -0.0191  0.0031  1.0000  -11.6505   0.0000   0.0000   0.0000   0.2388
  17.500   1.3450   0.08835   0.08456  -0.0208  0.0032  1.0000  -11.5909   0.0000   0.0000   0.0000   0.2400
  17.600   1.3356   0.09166   0.08794  -0.0226  0.0032  1.0000  -11.5231   0.0000   0.0000   0.0000   0.2412
  17.700   1.3263   0.09499   0.09135  -0.0244  0.0033  1.0000  -11.4531   0.0000   0.0000   0.0000   0.2425
  17.800   1.3163   0.09857   0.09501  -0.0264  0.0034  1.0000  -11.3674   0.0000   0.0000   0.0000   0.2440
  17.900   1.3067   0.10207   0.09857  -0.0283  0.0035  1.0000  -11.2860   0.0000   0.0000   0.0000   0.2454
  18.000   1.2962   0.10585   0.10244  -0.0304  0.0037  1.0000  -11.1843   0.0000   0.0000   0.0000   0.2470
  18.100   1.2865   0.10945   0.10611  -0.0324  0.0038  1.0000  -11.0916   0.0000   0.0000   0.0000   0.2485
  18.200   1.2756   0.11337   0.11012  -0.0346  0.0040  1.0000  -10.9753   0.0000   0.0000   0.0000   0.2503
  18.300   1.2657   0.11706   0.11388  -0.0366  0.0042  1.0000  -10.8713   0.0000   0.0000   0.0000   0.2520
  18.400   1.2547   0.12107   0.11797  -0.0389  0.0044  1.0000  -10.7419   0.0000   0.0000   0.0000   0.2539
  18.500   1.2445   0.12487   0.12184  -0.0410  0.0046  1.0000  -10.6243   0.0000   0.0000   0.0000   0.2557
  18.600   1.2336   0.12889   0.12594  -0.0433  0.0048  1.0000  -10.4876   0.0000   0.0000   0.0000   0.2577
  18.700   1.2229   0.13291   0.13003  -0.0456  0.0050  1.0000  -10.3479   0.0000   0.0000   0.0000   0.2597
  18.800   1.2129   0.13674   0.13392  -0.0478  0.0052  1.0000  -10.2193   0.0000   0.0000   0.0000   0.2617
  18.900   1.2007   0.14119   0.13845  -0.0504  0.0056  1.0000  -10.0390   0.0000   0.0000   0.0000   0.2641
  19.000   1.1905   0.14517   0.14248  -0.0527  0.0058  1.0000  -9.8933   0.0000   0.0000   0.0000   0.2663
  19.100   1.1793   0.14947   0.14685  -0.0552  0.0061  1.0000  -9.7181   0.0000   0.0000   0.0000   0.2688
  19.200   1.1662   0.15428   0.15172  -0.0581  0.0064  1.0000  -9.4963   0.0000   0.0000   0.0000   0.2717
  19.300   1.1557   0.15850   0.15598  -0.0606  0.0066  1.0000  -9.3212   0.0000   0.0000   0.0000   0.2742
  19.400   1.1401   0.16407   0.16161  -0.0639  0.0069  1.0000  -9.0226   0.0000   0.0000   0.0000   0.2779
  19.500   1.1297   0.16819   0.16577  -0.0665  0.0070  1.0000  -8.8260   0.0000   0.0000   0.0000   0.2807
  19.600   1.1210   0.17197   0.16959  -0.0689  0.0070  1.0000  -8.6552   0.0000   0.0000   0.0000   0.2832
  19.700   1.0356   0.19850   0.19642  -0.0833  0.0094  1.0000  -6.4590   0.0000   0.0000   0.0000   0.3039
  19.800   1.0382   0.19969   0.19761  -0.0841  0.0092  1.0000  -6.5403   0.0000   0.0000   0.0000   0.3042
  19.900   1.0528   0.19686   0.19482  -0.0829  0.0090  1.0000  -6.9678   0.0000   0.0000   0.0000   0.3014
  20.000   1.0561   0.19782   0.19576  -0.0836  0.0087  1.0000  -7.0716   0.0000   0.0000   0.0000   0.3015
  20.100   1.0628   0.19766   0.19557  -0.0837  0.0082  1.0000  -7.2732   0.0000   0.0000   0.0000   0.3008
  20.500   0.9721   0.24537   0.24319  -0.1027  0.0056  1.0000  -3.9742   0.0000   0.0000   0.0000   0.3305
  20.600   0.9679   0.25117   0.24897  -0.1044  0.0047  1.0000  -3.6607   0.0000   0.0000   0.0000   0.3330
  20.700   0.9677   0.25446   0.25225  -0.1056  0.0043  1.0000  -3.5564   0.0000   0.0000   0.0000   0.3341
  20.800   0.9685   0.25707   0.25486  -0.1066  0.0040  1.0000  -3.5094   0.0000   0.0000   0.0000   0.3350
  20.900   0.9698   0.25936   0.25715  -0.1075  0.0038  1.0000  -3.4895   0.0000   0.0000   0.0000   0.3356
  21.000   0.9713   0.26145   0.25924  -0.1084  0.0036  1.0000  -3.4863   0.0000   0.0000   0.0000   0.3362
  21.100   0.9730   0.26343   0.26122  -0.1093  0.0035  1.0000  -3.4939   0.0000   0.0000   0.0000   0.3368
  21.200   0.9748   0.26534   0.26313  -0.1101  0.0034  1.0000  -3.5075   0.0000   0.0000   0.0000   0.3372
  21.300   0.9765   0.26725   0.26504  -0.1110  0.0032  1.0000  -3.5223   0.0000   0.0000   0.0000   0.3377
  21.400   0.9782   0.26922   0.26702  -0.1119  0.0031  1.0000  -3.5319   0.0000   0.0000   0.0000   0.3382
  21.500   0.9795   0.27138   0.26918  -0.1128  0.0031  1.0000  -3.5268   0.0000   0.0000   0.0000   0.3388
  21.600   0.9805   0.27384   0.27163  -0.1137  0.0030  1.0000  -3.5029   0.0000   0.0000   0.0000   0.3395
  21.700   0.9811   0.27664   0.27443  -0.1146  0.0029  1.0000  -3.4494   0.0000   0.0000   0.0000   0.3403
  21.800   0.9814   0.27968   0.27746  -0.1156  0.0029  1.0000  -3.3749   0.0000   0.0000   0.0000   0.3412
  21.900   0.9818   0.28277   0.28055  -0.1166  0.0029  1.0000  -3.2931   0.0000   0.0000   0.0000   0.3420
  22.000   0.9822   0.28593   0.28370  -0.1175  0.0029  1.0000  -3.2047   0.0000   0.0000   0.0000   0.3428
  22.100   0.9820   0.28988   0.28764  -0.1184  0.0030  1.0000  -3.0467   0.0000   0.0000   0.0000   0.3438
  22.200   0.9743   0.30258   0.30030  -0.1200  0.0048  1.0000  -2.1818   0.0000   0.0000   0.0000   0.3471
  22.300   0.9753   0.30532   0.30304  -0.1208  0.0053  1.0000  -2.1319   0.0000   0.0000   0.0000   0.3476
  22.400   0.9764   0.30770   0.30542  -0.1215  0.0057  1.0000  -2.1099   0.0000   0.0000   0.0000   0.3480
  22.500   0.9775   0.30973   0.30745  -0.1221  0.0062  1.0000  -2.1169   0.0000   0.0000   0.0000   0.3483
  22.600   0.9756   0.31312   0.31084  -0.1220  0.0070  1.0000  -2.0884   0.0000   0.0000   0.0000   0.3482
  22.700   0.9768   0.31557   0.31329  -0.1227  0.0071  1.0000  -2.0737   0.0000   0.0000   0.0000   0.3486
  22.800   0.9780   0.31799   0.31572  -0.1234  0.0071  1.0000  -2.0599   0.0000   0.0000   0.0000   0.3490
  22.900   0.9791   0.32041   0.31814  -0.1240  0.0071  1.0000  -2.0467   0.0000   0.0000   0.0000   0.3494
  23.000   0.9803   0.32282   0.32055  -0.1247  0.0071  1.0000  -2.0338   0.0000   0.0000   0.0000   0.3498
  23.100   0.9814   0.32522   0.32295  -0.1254  0.0071  1.0000  -2.0213   0.0000   0.0000   0.0000   0.3502
  23.200   0.9824   0.32762   0.32535  -0.1261  0.0071  1.0000  -2.0090   0.0000   0.0000   0.0000   0.3506
  23.300   0.9834   0.33001   0.32775  -0.1268  0.0071  1.0000  -1.9969   0.0000   0.0000   0.0000   0.3510
  23.400   0.9843   0.33240   0.33014  -0.1274  0.0071  1.0000  -1.9851   0.0000   0.0000   0.0000   0.3514
  23.500   0.9852   0.33479   0.33253  -0.1281  0.0071  1.0000  -1.9733   0.0000   0.0000   0.0000   0.3518
  23.600   0.9860   0.33717   0.33492  -0.1288  0.0071  1.0000  -1.9617   0.0000   0.0000   0.0000   0.3522
  23.700   0.9868   0.33955   0.33730  -0.1294  0.0071  1.0000  -1.9502   0.0000   0.0000   0.0000   0.3526
  23.800   0.9875   0.34192   0.33968  -0.1300  0.0071  1.0000  -1.9387   0.0000   0.0000   0.0000   0.3530
  23.900   0.9881   0.34429   0.34205  -0.1307  0.0071  1.0000  -1.9272   0.0000   0.0000   0.0000   0.3534
  24.000   0.9885   0.34665   0.34441  -0.1313  0.0071  1.0000  -1.9158   0.0000   0.0000   0.0000   0.3538
  24.100   0.9889   0.34901   0.34677  -0.1319  0.0071  1.0000  -1.9043   0.0000   0.0000   0.0000   0.3542
  24.200   0.9892   0.35135   0.34912  -0.1325  0.0070  1.0000  -1.8927   0.0000   0.0000   0.0000   0.3546
  24.300   0.9894   0.35368   0.35145  -0.1330  0.0070  1.0000  -1.8810   0.0000   0.0000   0.0000   0.3550
  24.400   0.9894   0.35600   0.35378  -0.1336  0.0070  1.0000  -1.8691   0.0000   0.0000   0.0000   0.3554
  24.500   0.9892   0.35830   0.35608  -0.1341  0.0070  1.0000  -1.8568   0.0000   0.0000   0.0000   0.3558
  24.600   0.9888   0.36058   0.35837  -0.1346  0.0070  1.0000  -1.8441   0.0000   0.0000   0.0000   0.3562
  24.700   0.9883   0.36283   0.36062  -0.1351  0.0070  1.0000  -1.8311   0.0000   0.0000   0.0000   0.3567
  24.800   0.9874   0.36505   0.36285  -0.1356  0.0070  1.0000  -1.8176   0.0000   0.0000   0.0000   0.3571
  24.900   0.9861   0.36721   0.36502  -0.1359  0.0070  1.0000  -1.8033   0.0000   0.0000   0.0000   0.3575
  25.000   0.9844   0.36932   0.36713  -0.1363  0.0070  1.0000  -1.7881   0.0000   0.0000   0.0000   0.3580
  25.100   0.9821   0.37132   0.36915  -0.1365  0.0070  1.0000  -1.7713   0.0000   0.0000   0.0000   0.3584
  25.200   0.9786   0.37316   0.37100  -0.1366  0.0070  1.0000  -1.7521   0.0000   0.0000   0.0000   0.3590
  25.300   0.8572   0.34398   0.34201  -0.1207  0.0070  1.0000  -1.4429   0.0000   0.0000   0.0000   0.3630
  25.400   0.8531   0.34381   0.34185  -0.1206  0.0070  1.0000  -1.4233   0.0000   0.0000   0.0000   0.3635
  25.500   0.8495   0.34372   0.34178  -0.1206  0.0070  1.0000  -1.4049   0.0000   0.0000   0.0000   0.3641
  25.600   0.8461   0.34368   0.34175  -0.1206  0.0070  1.0000  -1.3874   0.0000   0.0000   0.0000   0.3646
  25.700   0.8431   0.34370   0.34178  -0.1206  0.0070  1.0000  -1.3708   0.0000   0.0000   0.0000   0.3651
  25.800   0.8403   0.34378   0.34186  -0.1207  0.0070  1.0000  -1.3547   0.0000   0.0000   0.0000   0.3656
  25.900   0.8377   0.34389   0.34198  -0.1208  0.0070  1.0000  -1.3391   0.0000   0.0000   0.0000   0.3661
  26.000   0.8353   0.34405   0.34215  -0.1210  0.0070  1.0000  -1.3240   0.0000   0.0000   0.0000   0.3666
  26.100   0.8331   0.34423   0.34234  -0.1211  0.0070  1.0000  -1.3095   0.0000   0.0000   0.0000   0.3671
  26.200   0.8311   0.34444   0.34256  -0.1213  0.0069  1.0000  -1.2955   0.0000   0.0000   0.0000   0.3676
  26.300   0.8292   0.34469   0.34281  -0.1215  0.0069  1.0000  -1.2820   0.0000   0.0000   0.0000   0.3681
  26.400   0.8274   0.34496   0.34309  -0.1217  0.0069  1.0000  -1.2680   0.0000   0.0000   0.0000   0.3686
  26.500   0.8257   0.34527   0.34341  -0.1220  0.0069  1.0000  -1.2530   0.0000   0.0000   0.0000   0.3691
  26.600   0.8241   0.34561   0.34376  -0.1223  0.0069  1.0000  -1.2382   0.0000   0.0000   0.0000   0.3696
  26.700   0.8226   0.34598   0.34413  -0.1225  0.0068  1.0000  -1.2237   0.0000   0.0000   0.0000   0.3702
  26.800   0.8213   0.34637   0.34453  -0.1229  0.0068  1.0000  -1.2093   0.0000   0.0000   0.0000   0.3707
  26.900   0.8201   0.34679   0.34499  -0.1232  0.0068  1.0000  -1.1951   0.0000   0.0000   0.0000   0.3712
  27.000   0.8191   0.34726   0.34545  -0.1235  0.0067  1.0000  -1.1807   0.0000   0.0000   0.0000   0.3717
  27.100   0.8182   0.34776   0.34596  -0.1239  0.0067  1.0000  -1.1660   0.0000   0.0000   0.0000   0.3722
  27.200   0.8174   0.34831   0.34653  -0.1243  0.0066  1.0000  -1.1505   0.0000   0.0000   0.0000   0.3727
  27.300   0.8169   0.34892   0.34714  -0.1247  0.0065  1.0000  -1.1341   0.0000   0.0000   0.0000   0.3732
  27.400   0.8164   0.34955   0.34778  -0.1251  0.0064  1.0000  -1.1170   0.0000   0.0000   0.0000   0.3736
  27.500   0.8158   0.35016   0.34839  -0.1254  0.0062  1.0000  -1.1007   0.0000   0.0000   0.0000   0.3741
  27.600   0.8151   0.35069   0.34893  -0.1257  0.0060  1.0000  -1.0867   0.0000   0.0000   0.0000   0.3745
  27.700   0.8143   0.35117   0.34941  -0.1260  0.0058  1.0000  -1.0752   0.0000   0.0000   0.0000   0.3749
  27.800   0.8135   0.35162   0.34987  -0.1263  0.0057  1.0000  -1.0655   0.0000   0.0000   0.0000   0.3753
  27.900   0.8127   0.35204   0.35029  -0.1266  0.0055  1.0000  -1.0571   0.0000   0.0000   0.0000   0.3756
  28.000   0.8119   0.35246   0.35073  -0.1269  0.0054  1.0000  -1.0498   0.0000   0.0000   0.0000   0.3760
  28.100   0.8111   0.35288   0.35115  -0.1272  0.0052  1.0000  -1.0433   0.0000   0.0000   0.0000   0.3764
  28.200   0.8103   0.35330   0.35158  -0.1275  0.0051  1.0000  -1.0374   0.0000   0.0000   0.0000   0.3768
  28.300   0.8096   0.35372   0.35200  -0.1278  0.0050  1.0000  -1.0321   0.0000   0.0000   0.0000   0.3772
  28.400   0.8089   0.35414   0.35243  -0.1281  0.0049  1.0000  -1.0273   0.0000   0.0000   0.0000   0.3775
  28.500   0.8082   0.35455   0.35285  -0.1284  0.0048  1.0000  -1.0229   0.0000   0.0000   0.0000   0.3779
  28.600   0.8075   0.35498   0.35328  -0.1288  0.0046  1.0000  -1.0190   0.0000   0.0000   0.0000   0.3783
  28.700   0.8069   0.35540   0.35371  -0.1291  0.0045  1.0000  -1.0155   0.0000   0.0000   0.0000   0.3787
  28.800   0.8063   0.35582   0.35414  -0.1294  0.0044  1.0000  -1.0123   0.0000   0.0000   0.0000   0.3790
  28.900   0.8057   0.35625   0.35457  -0.1297  0.0044  1.0000  -1.0094   0.0000   0.0000   0.0000   0.3794
  29.000   0.8051   0.35668   0.35501  -0.1301  0.0043  1.0000  -1.0070   0.0000   0.0000   0.0000   0.3798
  29.100   0.8046   0.35711   0.35545  -0.1304  0.0042  1.0000  -1.0048   0.0000   0.0000   0.0000   0.3801
  29.200   0.8041   0.35754   0.35589  -0.1308  0.0041  1.0000  -1.0030   0.0000   0.0000   0.0000   0.3805
  29.300   0.8036   0.35798   0.35633  -0.1311  0.0040  1.0000  -1.0015   0.0000   0.0000   0.0000   0.3808
  29.400   0.8031   0.35841   0.35677  -0.1315  0.0039  1.0000  -1.0004   0.0000   0.0000   0.0000   0.3812
  29.500   0.8026   0.35885   0.35721  -0.1318  0.0039  1.0000  -0.9996   0.0000   0.0000   0.0000   0.3815
  29.600   0.8022   0.35928   0.35765  -0.1322  0.0038  1.0000  -0.9991   0.0000   0.0000   0.0000   0.3819
  29.700   0.8017   0.35972   0.35809  -0.1325  0.0037  1.0000  -0.9990   0.0000   0.0000   0.0000   0.3822
  29.800   0.8013   0.36016   0.35854  -0.1329  0.0037  1.0000  -0.9992   0.0000   0.0000   0.0000   0.3826
  29.900   0.8009   0.36059   0.35898  -0.1332  0.0036  1.0000  -0.9997   0.0000   0.0000   0.0000   0.3829
  30.000   0.8005   0.36103   0.35942  -0.1336  0.0035  1.0000  -1.0007   0.0000   0.0000   0.0000   0.3833


