xflr5 v6.61

 Calculated polar for: SG6041

 1 1 Reynolds number fixed          Mach number fixed         

 xtrf =   1.000 (top)        1.000 (bottom)
 Mach =   0.000     Re =     0.160 e 6     Ncrit =   9.000

  alpha     CL        CD       CDp       Cm    Top Xtr Bot Xtr   Cpmin    Chinge    XCp    
 ------- -------- --------- --------- -------- ------- ------- -------- --------- ---------
 -10.000  -0.4132   0.11012   0.10579  -0.0297  1.0000  0.0438  -1.4603   0.0000   0.0000   0.0000   0.1701
  -9.900  -0.4127   0.10876   0.10444  -0.0303  1.0000  0.0443  -1.4709   0.0000   0.0000   0.0000   0.1687
  -9.800  -0.4123   0.10738   0.10308  -0.0309  1.0000  0.0449  -1.4836   0.0000   0.0000   0.0000   0.1671
  -9.700  -0.4121   0.10601   0.10173  -0.0317  1.0000  0.0455  -1.4992   0.0000   0.0000   0.0000   0.1654
  -9.600  -0.4123   0.10464   0.10038  -0.0325  1.0000  0.0461  -1.5185   0.0000   0.0000   0.0000   0.1636
  -9.500  -0.4128   0.10330   0.09906  -0.0335  1.0000  0.0467  -1.5430   0.0000   0.0000   0.0000   0.1614
  -9.400  -0.4138   0.10200   0.09778  -0.0347  1.0000  0.0473  -1.5736   0.0000   0.0000   0.0000   0.1589
  -9.300  -0.4153   0.10078   0.09658  -0.0360  1.0000  0.0479  -1.6097   0.0000   0.0000   0.0000   0.1560
  -9.200  -0.4170   0.09961   0.09544  -0.0374  1.0000  0.0483  -1.6465   0.0000   0.0000   0.0000   0.1531
  -9.100  -0.4191   0.09838   0.09423  -0.0388  1.0000  0.0486  -1.6818   0.0000   0.0000   0.0000   0.1505
  -9.000  -0.4205   0.09715   0.09302  -0.0399  1.0000  0.0488  -1.7089   0.0000   0.0000   0.0000   0.1483
  -8.900  -0.4220   0.09587   0.09177  -0.0409  1.0000  0.0490  -1.7325   0.0000   0.0000   0.0000   0.1465
  -8.800  -0.4240   0.09453   0.09045  -0.0418  1.0000  0.0491  -1.7566   0.0000   0.0000   0.0000   0.1449
  -8.700  -0.4265   0.09315   0.08910  -0.0427  1.0000  0.0491  -1.7821   0.0000   0.0000   0.0000   0.1435
  -8.600  -0.4299   0.09172   0.08770  -0.0437  1.0000  0.0492  -1.8095   0.0000   0.0000   0.0000   0.1423
  -8.500  -0.4344   0.09030   0.08630  -0.0446  1.0000  0.0492  -1.8391   0.0000   0.0000   0.0000   0.1414
  -8.400  -0.4400   0.08902   0.08504  -0.0451  1.0000  0.0493  -1.8680   0.0000   0.0000   0.0000   0.1417
  -8.300  -0.4467   0.08798   0.08402  -0.0450  1.0000  0.0493  -1.8937   0.0000   0.0000   0.0000   0.1436
  -8.200  -0.4538   0.08707   0.08312  -0.0445  1.0000  0.0493  -1.9173   0.0000   0.0000   0.0000   0.1465
  -8.100  -0.4598   0.08609   0.08214  -0.0440  1.0000  0.0493  -1.9397   0.0000   0.0000   0.0000   0.1490
  -8.000  -0.4654   0.08508   0.08114  -0.0435  1.0000  0.0493  -1.9610   0.0000   0.0000   0.0000   0.1513
  -7.900  -0.4710   0.08412   0.08017  -0.0429  1.0000  0.0494  -1.9814   0.0000   0.0000   0.0000   0.1539
  -7.800  -0.4765   0.08318   0.07923  -0.0422  1.0000  0.0494  -2.0006   0.0000   0.0000   0.0000   0.1565
  -7.700  -0.4818   0.08225   0.07829  -0.0415  1.0000  0.0494  -2.0188   0.0000   0.0000   0.0000   0.1592
  -7.600  -0.4869   0.08132   0.07734  -0.0406  1.0000  0.0494  -2.0359   0.0000   0.0000   0.0000   0.1619
  -7.500  -0.4917   0.08037   0.07638  -0.0398  1.0000  0.0495  -2.0521   0.0000   0.0000   0.0000   0.1645
  -7.400  -0.4961   0.07941   0.07539  -0.0390  1.0000  0.0495  -2.0673   0.0000   0.0000   0.0000   0.1669
  -7.300  -0.5002   0.07842   0.07438  -0.0382  1.0000  0.0495  -2.0814   0.0000   0.0000   0.0000   0.1693
  -7.200  -0.5038   0.07741   0.07334  -0.0374  1.0000  0.0495  -2.0946   0.0000   0.0000   0.0000   0.1715
  -7.100  -0.5070   0.07637   0.07227  -0.0366  1.0000  0.0496  -2.1067   0.0000   0.0000   0.0000   0.1736
  -7.000  -0.5233   0.07060   0.06656  -0.0368  1.0000  0.0506  -2.2158   0.0000   0.0000   0.0000   0.1755
  -6.900  -0.5273   0.06848   0.06443  -0.0362  1.0000  0.0511  -2.2247   0.0000   0.0000   0.0000   0.1772
  -6.800  -0.5267   0.06695   0.06294  -0.0355  1.0000  0.0515  -2.1993   0.0000   0.0000   0.0000   0.1787
  -6.700  -0.5263   0.06567   0.06168  -0.0347  1.0000  0.0519  -2.1747   0.0000   0.0000   0.0000   0.1802
  -6.600  -0.5261   0.06449   0.06052  -0.0339  1.0000  0.0522  -2.1521   0.0000   0.0000   0.0000   0.1817
  -6.500  -0.5258   0.06337   0.05940  -0.0332  1.0000  0.0526  -2.1311   0.0000   0.0000   0.0000   0.1831
  -6.400  -0.5254   0.06227   0.05830  -0.0325  1.0000  0.0530  -2.1118   0.0000   0.0000   0.0000   0.1845
  -6.300  -0.5250   0.06118   0.05720  -0.0318  1.0000  0.0535  -2.0939   0.0000   0.0000   0.0000   0.1858
  -6.200  -0.5241   0.06011   0.05611  -0.0312  1.0000  0.0539  -2.0758   0.0000   0.0000   0.0000   0.1870
  -6.100  -0.5230   0.05904   0.05502  -0.0305  1.0000  0.0544  -2.0581   0.0000   0.0000   0.0000   0.1881
  -6.000  -0.5217   0.05795   0.05391  -0.0300  1.0000  0.0550  -2.0420   0.0000   0.0000   0.0000   0.1891
  -5.900  -0.5201   0.05684   0.05278  -0.0294  1.0000  0.0556  -2.0273   0.0000   0.0000   0.0000   0.1900
  -5.800  -0.5182   0.05572   0.05162  -0.0290  1.0000  0.0563  -2.0140   0.0000   0.0000   0.0000   0.1907
  -5.700  -0.5160   0.05458   0.05044  -0.0285  1.0000  0.0570  -2.0020   0.0000   0.0000   0.0000   0.1914
  -5.600  -0.5134   0.05342   0.04922  -0.0281  1.0000  0.0579  -1.9915   0.0000   0.0000   0.0000   0.1920
  -5.500  -0.5104   0.05224   0.04799  -0.0277  1.0000  0.0588  -1.9824   0.0000   0.0000   0.0000   0.1924
  -5.400  -0.5070   0.05105   0.04673  -0.0274  1.0000  0.0598  -1.9749   0.0000   0.0000   0.0000   0.1928
  -5.300  -0.5031   0.04987   0.04546  -0.0270  1.0000  0.0610  -1.9691   0.0000   0.0000   0.0000   0.1930
  -5.200  -0.4986   0.04870   0.04413  -0.0267  1.0000  0.0624  -1.9658   0.0000   0.0000   0.0000   0.1932
  -4.700  -0.4656   0.03530   0.02931  -0.0248  1.0000  0.0360  -2.4679   0.0000   0.0000   0.0000   0.1931
  -4.600  -0.4561   0.03421   0.02815  -0.0242  1.0000  0.0308  -2.4740   0.0000   0.0000   0.0000   0.1933
  -4.500  -0.4482   0.03239   0.02615  -0.0240  1.0000  0.0292  -2.4959   0.0000   0.0000   0.0000   0.1927
  -4.400  -0.4347   0.03023   0.02370  -0.0246  0.9991  0.0272  -2.5442   0.0000   0.0000   0.0000   0.1897
  -4.300  -0.4206   0.02776   0.02079  -0.0247  0.9984  0.0250  -2.6513   0.0000   0.0000   0.0000   0.1874
  -4.200  -0.4060   0.02582   0.01845  -0.0248  0.9978  0.0234  -2.7372   0.0000   0.0000   0.0000   0.1850
  -4.100  -0.3916   0.02471   0.01709  -0.0251  0.9967  0.0227  -2.7442   0.0000   0.0000   0.0000   0.1819
  -4.000  -0.3776   0.02385   0.01605  -0.0255  0.9956  0.0224  -2.7217   0.0000   0.0000   0.0000   0.1784
  -3.900  -0.3636   0.02304   0.01510  -0.0259  0.9946  0.0224  -2.6908   0.0000   0.0000   0.0000   0.1745
  -3.800  -0.3496   0.02224   0.01417  -0.0264  0.9936  0.0224  -2.6572   0.0000   0.0000   0.0000   0.1703
  -3.700  -0.3352   0.02145   0.01329  -0.0269  0.9927  0.0227  -2.6204   0.0000   0.0000   0.0000   0.1654
  -3.600  -0.3213   0.02075   0.01251  -0.0274  0.9916  0.0232  -2.5785   0.0000   0.0000   0.0000   0.1604
  -3.500  -0.3078   0.02015   0.01188  -0.0279  0.9901  0.0240  -2.5292   0.0000   0.0000   0.0000   0.1551
  -3.400  -0.2937   0.01968   0.01138  -0.0285  0.9884  0.0251  -2.4722   0.0000   0.0000   0.0000   0.1487
  -3.300  -0.2791   0.01927   0.01095  -0.0291  0.9868  0.0267  -2.4138   0.0000   0.0000   0.0000   0.1411
  -3.200  -0.2638   0.01891   0.01056  -0.0299  0.9853  0.0289  -2.3576   0.0000   0.0000   0.0000   0.1321
  -3.100  -0.2481   0.01862   0.01023  -0.0308  0.9840  0.0318  -2.2997   0.0000   0.0000   0.0000   0.1213
  -3.000  -0.2335   0.01812   0.00971  -0.0315  0.9827  0.0354  -2.2552   0.0000   0.0000   0.0000   0.1105
  -2.900  -0.2215   0.01770   0.00934  -0.0318  0.9805  0.0415  -2.1980   0.0000   0.0000   0.0000   0.1018
  -2.800  -0.2086   0.01744   0.00914  -0.0323  0.9786  0.0538  -2.1304   0.0000   0.0000   0.0000   0.0905
  -2.700  -0.1952   0.01712   0.00902  -0.0330  0.9768  0.0828  -2.0597   0.0000   0.0000   0.0000   0.0759
  -2.600  -0.1810   0.01677   0.00878  -0.0338  0.9751  0.1095  -1.9801   0.0000   0.0000   0.0000   0.0579
  -2.500  -0.1660   0.01648   0.00862  -0.0348  0.9735  0.1363  -1.8951   0.0000   0.0000   0.0000   0.0348
  -2.400  -0.1507   0.01604   0.00839  -0.0359  0.9722  0.1772  -1.8326   0.0000   0.0000   0.0000   0.0059
  -2.300  -0.1387   0.01475   0.00820  -0.0370  0.9714  0.3907  -1.7773   0.0000   0.0000   0.0000  -0.0223
  -2.200  -0.1340   0.01391   0.00851  -0.0354  0.9696  0.6562  -1.7304   0.0000   0.0000   0.0000  -0.0198
  -2.100  -0.1267   0.01385   0.00860  -0.0342  0.9663  0.7250  -1.6751   0.0000   0.0000   0.0000  -0.0257
  -2.000  -0.1169   0.01387   0.00870  -0.0335  0.9635  0.7636  -1.6125   0.0000   0.0000   0.0000  -0.0424
  -1.800  -0.0944   0.01398   0.00879  -0.0326  0.9590  0.8192  -1.4889   0.0000   0.0000   0.0000  -0.1023
  -1.700  -0.0820   0.01406   0.00889  -0.0324  0.9571  0.8416  -1.4164   0.0000   0.0000   0.0000  -0.1521
  -1.600  -0.0696   0.01415   0.00897  -0.0322  0.9552  0.8618  -1.3449   0.0000   0.0000   0.0000  -0.2206
  -1.500  -0.0651   0.01412   0.00896  -0.0306  0.9510  0.8768  -1.2980   0.0000   0.0000   0.0000  -0.2274
  -1.400  -0.0554   0.01414   0.00897  -0.0300  0.9477  0.8917  -1.2359   0.0000   0.0000   0.0000  -0.3000
  -1.300  -0.0430   0.01417   0.00898  -0.0299  0.9450  0.9069  -1.1669   0.0000   0.0000   0.0000  -0.4544
  -1.200  -0.0273   0.01422   0.00901  -0.0304  0.9431  0.9217  -1.0890   0.0000   0.0000   0.0000  -0.8770
  -1.100  -0.0093   0.01429   0.00905  -0.0314  0.9415  0.9368  -1.0061   0.0000   0.0000   0.0000  -3.1586
  -1.000   0.0127   0.01437   0.00909  -0.0333  0.9406  0.9506  -0.9135   0.0000   0.0000   0.0000   2.8912
  -0.900   0.0402   0.01447   0.00915  -0.0363  0.9403  0.9640  -0.8082   0.0000   0.0000   0.0000   1.1595
  -0.800   0.0793   0.01463   0.00925  -0.0414  0.9417  0.9827  -0.6746   0.0000   0.0000   0.0000   0.7748
  -0.700   0.1278   0.01473   0.00928  -0.0485  0.9446  0.9948  -0.5227   0.0000   0.0000   0.0000   0.6311
  -0.600   0.1583   0.01474   0.00923  -0.0525  0.9448  1.0000  -0.4218   0.0000   0.0000   0.0000   0.5824
  -0.500   0.1758   0.01470   0.00917  -0.0540  0.9425  1.0000  -0.4042   0.0000   0.0000   0.0000   0.5575
  -0.400   0.1952   0.01467   0.00910  -0.0558  0.9406  1.0000  -0.4191   0.0000   0.0000   0.0000   0.5358
  -0.300   0.2161   0.01462   0.00903  -0.0578  0.9390  1.0000  -0.4361   0.0000   0.0000   0.0000   0.5175
  -0.200   0.2236   0.01459   0.00896  -0.0574  0.9342  1.0000  -0.4452   0.0000   0.0000   0.0000   0.5065
  -0.100   0.2306   0.01454   0.00889  -0.0569  0.9287  1.0000  -0.4542   0.0000   0.0000   0.0000   0.4963
   0.000   0.2471   0.01448   0.00881  -0.0581  0.9257  1.0000  -0.4692   0.0000   0.0000   0.0000   0.4845
   0.100   0.2662   0.01441   0.00871  -0.0597  0.9233  1.0000  -0.4861   0.0000   0.0000   0.0000   0.4736
   0.200   0.2873   0.01432   0.00861  -0.0617  0.9216  1.0000  -0.5062   0.0000   0.0000   0.0000   0.4639
   0.300   0.3099   0.01423   0.00849  -0.0640  0.9202  1.0000  -0.5277   0.0000   0.0000   0.0000   0.4554
   0.400   0.3337   0.01411   0.00836  -0.0664  0.9190  1.0000  -0.5518   0.0000   0.0000   0.0000   0.4479
   0.500   0.3569   0.01397   0.00821  -0.0687  0.9177  1.0000  -0.5767   0.0000   0.0000   0.0000   0.4413
   0.700   0.3628   0.01391   0.00814  -0.0659  0.9043  1.0000  -0.5946   0.0000   0.0000   0.0000   0.4301
   0.800   0.3815   0.01376   0.00798  -0.0673  0.9016  1.0000  -0.6163   0.0000   0.0000   0.0000   0.4247
   0.900   0.4015   0.01359   0.00780  -0.0689  0.8993  1.0000  -0.6418   0.0000   0.0000   0.0000   0.4198
   1.000   0.4219   0.01340   0.00762  -0.0705  0.8972  1.0000  -0.6684   0.0000   0.0000   0.0000   0.4153
   1.100   0.4424   0.01321   0.00742  -0.0721  0.8952  1.0000  -0.6953   0.0000   0.0000   0.0000   0.4111
   1.200   0.4391   0.01326   0.00747  -0.0695  0.8870  1.0000  -0.7004   0.0000   0.0000   0.0000   0.4063
   1.300   0.4474   0.01317   0.00738  -0.0689  0.8813  1.0000  -0.7162   0.0000   0.0000   0.0000   0.4019
   1.400   0.4623   0.01300   0.00721  -0.0694  0.8774  1.0000  -0.7384   0.0000   0.0000   0.0000   0.3981
   1.500   0.4792   0.01279   0.00700  -0.0703  0.8741  1.0000  -0.7626   0.0000   0.0000   0.0000   0.3945
   1.600   0.4971   0.01258   0.00679  -0.0712  0.8711  1.0000  -0.7883   0.0000   0.0000   0.0000   0.3911
   1.700   0.5079   0.01247   0.00668  -0.0710  0.8664  1.0000  -0.8100   0.0000   0.0000   0.0000   0.3875
   1.800   0.5066   0.01250   0.00672  -0.0687  0.8579  1.0000  -0.8187   0.0000   0.0000   0.0000   0.3832
   1.900   0.5164   0.01238   0.00660  -0.0682  0.8524  1.0000  -0.8408   0.0000   0.0000   0.0000   0.3797
   2.000   0.5299   0.01221   0.00642  -0.0684  0.8480  1.0000  -0.8699   0.0000   0.0000   0.0000   0.3766
   2.100   0.5451   0.01202   0.00628  -0.0689  0.8441  1.0000  -0.9015   0.0000   0.0000   0.0000   0.3737
   2.200   0.5556   0.01193   0.00618  -0.0686  0.8392  1.0000  -0.9271   0.0000   0.0000   0.0000   0.3707
   2.300   0.5564   0.01196   0.00622  -0.0666  0.8308  1.0000  -0.9405   0.0000   0.0000   0.0000   0.3669
   2.400   0.5654   0.01186   0.00612  -0.0660  0.8242  1.0000  -0.9644   0.0000   0.0000   0.0000   0.3638
   2.500   0.5777   0.01171   0.00595  -0.0659  0.8186  1.0000  -0.9929   0.0000   0.0000   0.0000   0.3611
   2.600   0.5920   0.01153   0.00575  -0.0661  0.8136  1.0000  -1.0243   0.0000   0.0000   0.0000   0.3587
   2.700   0.5970   0.01153   0.00576  -0.0648  0.8056  1.0000  -1.0434   0.0000   0.0000   0.0000   0.3555
   2.800   0.6034   0.01149   0.00573  -0.0638  0.7971  1.0000  -1.0645   0.0000   0.0000   0.0000   0.3525
   2.900   0.6136   0.01139   0.00561  -0.0633  0.7897  1.0000  -1.0909   0.0000   0.0000   0.0000   0.3500
   3.000   0.6272   0.01124   0.00543  -0.0635  0.7832  1.0000  -1.1220   0.0000   0.0000   0.0000   0.3479
   3.100   0.6339   0.01123   0.00543  -0.0625  0.7742  1.0000  -1.1438   0.0000   0.0000   0.0000   0.3452
   3.200   0.6412   0.01120   0.00540  -0.0616  0.7642  1.0000  -1.1666   0.0000   0.0000   0.0000   0.3426
   3.300   0.6526   0.01111   0.00528  -0.0613  0.7552  1.0000  -1.1951   0.0000   0.0000   0.0000   0.3404
   3.400   0.6638   0.01104   0.00518  -0.0611  0.7461  1.0000  -1.2243   0.0000   0.0000   0.0000   0.3384
   3.500   0.6708   0.01105   0.00519  -0.0602  0.7342  1.0000  -1.2515   0.0000   0.0000   0.0000   0.3360
   3.600   0.6814   0.01100   0.00510  -0.0598  0.7227  1.0000  -1.2849   0.0000   0.0000   0.0000   0.3339
   3.700   0.6918   0.01098   0.00503  -0.0594  0.7115  1.0000  -1.3182   0.0000   0.0000   0.0000   0.3320
   3.800   0.6999   0.01100   0.00505  -0.0587  0.6982  1.0000  -1.3475   0.0000   0.0000   0.0000   0.3299
   3.900   0.7104   0.01100   0.00498  -0.0583  0.6849  1.0000  -1.3813   0.0000   0.0000   0.0000   0.3280
   4.000   0.7190   0.01105   0.00500  -0.0577  0.6706  1.0000  -1.4120   0.0000   0.0000   0.0000   0.3261
   4.100   0.7281   0.01109   0.00498  -0.0571  0.6540  1.0000  -1.4437   0.0000   0.0000   0.0000   0.3242
   4.200   0.7371   0.01116   0.00498  -0.0565  0.6372  1.0000  -1.4754   0.0000   0.0000   0.0000   0.3223
   4.300   0.7455   0.01125   0.00499  -0.0558  0.6178  1.0000  -1.5064   0.0000   0.0000   0.0000   0.3204
   4.400   0.7537   0.01136   0.00501  -0.0551  0.5983  1.0000  -1.5372   0.0000   0.0000   0.0000   0.3186
   4.500   0.7615   0.01151   0.00504  -0.0543  0.5763  1.0000  -1.5675   0.0000   0.0000   0.0000   0.3167
   4.600   0.7692   0.01165   0.00510  -0.0536  0.5545  1.0000  -1.5974   0.0000   0.0000   0.0000   0.3149
   4.700   0.7764   0.01186   0.00515  -0.0527  0.5323  1.0000  -1.6269   0.0000   0.0000   0.0000   0.3131
   4.800   0.7836   0.01203   0.00524  -0.0519  0.5088  1.0000  -1.6605   0.0000   0.0000   0.0000   0.3113
   4.900   0.7905   0.01226   0.00552  -0.0511  0.4851  1.0000  -1.7020   0.0000   0.0000   0.0000   0.3096
   5.000   0.7969   0.01251   0.00562  -0.0501  0.4617  1.0000  -1.7465   0.0000   0.0000   0.0000   0.3078
   5.100   0.8040   0.01272   0.00575  -0.0494  0.4390  1.0000  -1.7922   0.0000   0.0000   0.0000   0.3062
   5.200   0.8104   0.01300   0.00589  -0.0485  0.4174  1.0000  -1.8360   0.0000   0.0000   0.0000   0.3046
   5.300   0.8173   0.01324   0.00603  -0.0478  0.3954  1.0000  -1.8810   0.0000   0.0000   0.0000   0.3031
   5.400   0.8242   0.01351   0.00620  -0.0470  0.3755  1.0000  -1.9259   0.0000   0.0000   0.0000   0.3016
   5.500   0.8307   0.01379   0.00636  -0.0463  0.3553  1.0000  -1.9703   0.0000   0.0000   0.0000   0.3001
   5.600   0.8380   0.01405   0.00655  -0.0456  0.3368  1.0000  -2.0163   0.0000   0.0000   0.0000   0.2987
   5.700   0.8444   0.01437   0.00673  -0.0449  0.3184  1.0000  -2.0606   0.0000   0.0000   0.0000   0.2973
   5.800   0.8519   0.01463   0.00693  -0.0443  0.3016  1.0000  -2.1076   0.0000   0.0000   0.0000   0.2960
   5.900   0.8585   0.01495   0.00713  -0.0436  0.2852  1.0000  -2.1524   0.0000   0.0000   0.0000   0.2947
   6.000   0.8661   0.01523   0.00736  -0.0430  0.2704  1.0000  -2.1998   0.0000   0.0000   0.0000   0.2935
   6.100   0.8732   0.01553   0.00757  -0.0424  0.2560  1.0000  -2.2464   0.0000   0.0000   0.0000   0.2923
   6.200   0.8802   0.01587   0.00781  -0.0418  0.2430  1.0000  -2.2923   0.0000   0.0000   0.0000   0.2911
   6.300   0.8883   0.01611   0.00803  -0.0413  0.2308  1.0000  -2.3418   0.0000   0.0000   0.0000   0.2901
   6.400   0.8948   0.01649   0.00828  -0.0406  0.2193  1.0000  -2.3872   0.0000   0.0000   0.0000   0.2889
   6.500   0.9030   0.01676   0.00854  -0.0402  0.2095  1.0000  -2.4363   0.0000   0.0000   0.0000   0.2878
   6.600   0.9112   0.01701   0.00878  -0.0397  0.2001  1.0000  -2.4865   0.0000   0.0000   0.0000   0.2869
   6.700   0.9181   0.01737   0.00905  -0.0391  0.1914  1.0000  -2.5332   0.0000   0.0000   0.0000   0.2858
   6.800   0.9256   0.01778   0.00940  -0.0386  0.1833  1.0000  -2.5797   0.0000   0.0000   0.0000   0.2847
   6.900   0.9344   0.01799   0.00965  -0.0382  0.1767  1.0000  -2.6312   0.0000   0.0000   0.0000   0.2838
   7.000   0.9425   0.01826   0.00991  -0.0378  0.1699  1.0000  -2.6813   0.0000   0.0000   0.0000   0.2829
   7.100   0.9496   0.01867   0.01023  -0.0372  0.1633  1.0000  -2.7284   0.0000   0.0000   0.0000   0.2819
   7.200   0.9571   0.01922   0.01072  -0.0367  0.1566  1.0000  -2.7734   0.0000   0.0000   0.0000   0.2809
   7.300   0.9660   0.01942   0.01098  -0.0364  0.1521  1.0000  -2.8250   0.0000   0.0000   0.0000   0.2801
   7.400   0.9745   0.01967   0.01126  -0.0360  0.1469  1.0000  -2.8761   0.0000   0.0000   0.0000   0.2793
   7.500   0.9825   0.01994   0.01152  -0.0355  0.1419  1.0000  -2.9273   0.0000   0.0000   0.0000   0.2784
   7.600   0.9894   0.02043   0.01204  -0.0350  0.1358  1.0000  -2.9734   0.0000   0.0000   0.0000   0.2775
   7.700   0.9975   0.02103   0.01261  -0.0346  0.1304  1.0000  -3.0195   0.0000   0.0000   0.0000   0.2767
   7.800   1.0061   0.02120   0.01285  -0.0342  0.1268  1.0000  -3.0720   0.0000   0.0000   0.0000   0.2759
   7.900   1.0144   0.02143   0.01313  -0.0338  0.1227  1.0000  -3.1238   0.0000   0.0000   0.0000   0.2751
   8.000   1.0224   0.02169   0.01340  -0.0334  0.1187  1.0000  -3.1757   0.0000   0.0000   0.0000   0.2743
   8.100   1.0299   0.02198   0.01367  -0.0329  0.1149  1.0000  -3.2274   0.0000   0.0000   0.0000   0.2735
   8.200   1.0372   0.02264   0.01424  -0.0325  0.1101  1.0000  -3.2740   0.0000   0.0000   0.0000   0.2728
   8.300   1.0456   0.02315   0.01478  -0.0322  0.1064  1.0000  -3.3218   0.0000   0.0000   0.0000   0.2721
   8.400   1.0537   0.02329   0.01501  -0.0317  0.1035  1.0000  -3.3737   0.0000   0.0000   0.0000   0.2713
   8.500   1.0616   0.02352   0.01528  -0.0313  0.1002  1.0000  -3.4278   0.0000   0.0000   0.0000   0.2705
   8.600   1.0694   0.02379   0.01558  -0.0308  0.0970  1.0000  -3.4941   0.0000   0.0000   0.0000   0.2697
   8.700   1.0769   0.02410   0.01590  -0.0304  0.0941  1.0000  -3.5599   0.0000   0.0000   0.0000   0.2690
   8.800   1.0840   0.02453   0.01630  -0.0299  0.0912  1.0000  -3.6240   0.0000   0.0000   0.0000   0.2682
   8.900   1.0926   0.02572   0.01743  -0.0298  0.0868  1.0000  -3.7040   0.0000   0.0000   0.0000   0.2678
   9.000   1.1007   0.02611   0.01789  -0.0294  0.0849  1.0000  -3.7919   0.0000   0.0000   0.0000   0.2671
   9.100   1.1083   0.02638   0.01826  -0.0288  0.0829  1.0000  -3.8800   0.0000   0.0000   0.0000   0.2663
   9.200   1.1159   0.02673   0.01868  -0.0283  0.0804  1.0000  -3.9672   0.0000   0.0000   0.0000   0.2655
   9.300   1.1233   0.02711   0.01911  -0.0278  0.0778  1.0000  -4.0548   0.0000   0.0000   0.0000   0.2648
   9.400   1.1304   0.02748   0.01951  -0.0273  0.0753  1.0000  -4.1434   0.0000   0.0000   0.0000   0.2640
   9.500   1.1372   0.02788   0.01991  -0.0268  0.0731  1.0000  -4.2324   0.0000   0.0000   0.0000   0.2633
   9.600   1.1441   0.02844   0.02046  -0.0263  0.0709  1.0000  -4.3201   0.0000   0.0000   0.0000   0.2626
   9.700   1.1535   0.03070   0.02273  -0.0265  0.0670  1.0000  -4.3846   0.0000   0.0000   0.0000   0.2625
   9.800   1.1604   0.03101   0.02314  -0.0259  0.0661  1.0000  -4.4694   0.0000   0.0000   0.0000   0.2617
   9.900   1.1673   0.03147   0.02370  -0.0253  0.0649  1.0000  -4.5517   0.0000   0.0000   0.0000   0.2609
  10.000   1.1742   0.03202   0.02436  -0.0247  0.0636  1.0000  -4.6326   0.0000   0.0000   0.0000   0.2601
  10.100   1.1809   0.03259   0.02502  -0.0241  0.0621  1.0000  -4.7139   0.0000   0.0000   0.0000   0.2594
  10.200   1.1871   0.03315   0.02566  -0.0235  0.0606  1.0000  -4.7949   0.0000   0.0000   0.0000   0.2586
  10.300   1.1930   0.03366   0.02624  -0.0229  0.0591  1.0000  -4.8782   0.0000   0.0000   0.0000   0.2579
  10.400   1.1988   0.03412   0.02674  -0.0222  0.0578  1.0000  -4.9646   0.0000   0.0000   0.0000   0.2571
  10.500   1.2046   0.03452   0.02727  -0.0216  0.0566  1.0000  -5.0657   0.0000   0.0000   0.0000   0.2564
  10.600   1.2101   0.03493   0.02769  -0.0211  0.0554  1.0000  -5.1629   0.0000   0.0000   0.0000   0.2557
  10.700   1.2156   0.03541   0.02818  -0.0205  0.0542  1.0000  -5.2573   0.0000   0.0000   0.0000   0.2550
  10.800   1.2208   0.03613   0.02893  -0.0199  0.0530  1.0000  -5.3439   0.0000   0.0000   0.0000   0.2543
  10.900   1.2254   0.03739   0.03025  -0.0194  0.0519  1.0000  -5.4130   0.0000   0.0000   0.0000   0.2537
  11.000   1.2286   0.03930   0.03232  -0.0189  0.0509  1.0000  -5.4537   0.0000   0.0000   0.0000   0.2531
  11.100   1.2286   0.04170   0.03493  -0.0180  0.0503  1.0000  -5.4629   0.0000   0.0000   0.0000   0.2523
  11.200   1.2303   0.04277   0.03611  -0.0171  0.0500  1.0000  -5.5112   0.0000   0.0000   0.0000   0.2514
  11.300   1.2325   0.04348   0.03694  -0.0161  0.0497  1.0000  -5.5705   0.0000   0.0000   0.0000   0.2505
  11.400   1.2338   0.04424   0.03781  -0.0150  0.0495  1.0000  -5.6234   0.0000   0.0000   0.0000   0.2494
  11.500   1.2343   0.04505   0.03873  -0.0138  0.0492  1.0000  -5.6708   0.0000   0.0000   0.0000   0.2483
  11.600   1.2342   0.04591   0.03971  -0.0126  0.0490  1.0000  -5.7134   0.0000   0.0000   0.0000   0.2472
  11.700   1.2334   0.04681   0.04073  -0.0114  0.0487  1.0000  -5.7511   0.0000   0.0000   0.0000   0.2461
  11.800   1.2320   0.04777   0.04180  -0.0102  0.0485  1.0000  -5.7839   0.0000   0.0000   0.0000   0.2450
  11.900   1.2299   0.04878   0.04292  -0.0090  0.0482  1.0000  -5.8116   0.0000   0.0000   0.0000   0.2439
  12.000   1.2271   0.04983   0.04409  -0.0078  0.0480  1.0000  -5.8345   0.0000   0.0000   0.0000   0.2428
  12.100   1.2237   0.05094   0.04531  -0.0066  0.0478  1.0000  -5.8523   0.0000   0.0000   0.0000   0.2417
  12.200   1.2196   0.05210   0.04658  -0.0054  0.0476  1.0000  -5.8652   0.0000   0.0000   0.0000   0.2407
  12.300   1.2149   0.05332   0.04792  -0.0044  0.0474  1.0000  -5.8733   0.0000   0.0000   0.0000   0.2397
  12.400   1.2096   0.05462   0.04932  -0.0034  0.0472  1.0000  -5.8767   0.0000   0.0000   0.0000   0.2387
  12.500   1.2036   0.05597   0.05078  -0.0024  0.0470  1.0000  -5.8748   0.0000   0.0000   0.0000   0.2378
  12.600   1.1970   0.05740   0.05231  -0.0016  0.0469  1.0000  -5.8682   0.0000   0.0000   0.0000   0.2370
  12.700   1.1899   0.05892   0.05394  -0.0009  0.0468  1.0000  -5.8567   0.0000   0.0000   0.0000   0.2362
  12.800   1.1823   0.06053   0.05566  -0.0004  0.0467  1.0000  -5.8405   0.0000   0.0000   0.0000   0.2356
  12.900   1.1740   0.06225   0.05748   0.0000  0.0466  1.0000  -5.8191   0.0000   0.0000   0.0000   0.2351
  13.000   1.1651   0.06407   0.05940   0.0003  0.0466  1.0000  -5.7919   0.0000   0.0000   0.0000   0.2347
  13.100   1.1556   0.06600   0.06143   0.0004  0.0466  1.0000  -5.7592   0.0000   0.0000   0.0000   0.2345
  13.200   1.1456   0.06809   0.06360   0.0002  0.0466  1.0000  -5.7204   0.0000   0.0000   0.0000   0.2344
  13.300   1.1349   0.07034   0.06595  -0.0002  0.0466  1.0000  -5.6753   0.0000   0.0000   0.0000   0.2346
  13.400   1.1237   0.07279   0.06849  -0.0008  0.0467  1.0000  -5.6232   0.0000   0.0000   0.0000   0.2350
  13.500   1.1119   0.07545   0.07123  -0.0018  0.0468  1.0000  -5.5632   0.0000   0.0000   0.0000   0.2357
  13.600   1.0993   0.07836   0.07423  -0.0030  0.0470  1.0000  -5.4939   0.0000   0.0000   0.0000   0.2367
  13.700   1.0859   0.08156   0.07751  -0.0047  0.0472  1.0000  -5.4136   0.0000   0.0000   0.0000   0.2381
  13.800   1.0714   0.08512   0.08114  -0.0067  0.0475  1.0000  -5.3197   0.0000   0.0000   0.0000   0.2398
  13.900   1.0558   0.08911   0.08521  -0.0092  0.0478  1.0000  -5.2086   0.0000   0.0000   0.0000   0.2421
  14.000   1.0385   0.09363   0.08979  -0.0121  0.0482  1.0000  -5.0743   0.0000   0.0000   0.0000   0.2450
  14.100   1.0188   0.09900   0.09521  -0.0157  0.0486  1.0000  -4.9053   0.0000   0.0000   0.0000   0.2486
  14.200   0.9958   0.10561   0.10186  -0.0201  0.0492  1.0000  -4.6834   0.0000   0.0000   0.0000   0.2533
  14.300   0.9693   0.11369   0.10994  -0.0250  0.0499  1.0000  -4.3925   0.0000   0.0000   0.0000   0.2590
  14.400   0.8633   0.15172   0.14777  -0.0478  0.0619  1.0000  -2.7061   0.0000   0.0000   0.0000   0.2904
  14.500   0.8620   0.15428   0.15032  -0.0488  0.0628  1.0000  -2.6809   0.0000   0.0000   0.0000   0.2916
  14.600   0.8618   0.15659   0.15264  -0.0495  0.0636  1.0000  -2.6696   0.0000   0.0000   0.0000   0.2924
  14.700   0.8626   0.15867   0.15472  -0.0500  0.0645  1.0000  -2.6741   0.0000   0.0000   0.0000   0.2927
  15.300   0.8403   0.18017   0.17617  -0.0620  0.0800  1.0000  -2.1502   0.0000   0.0000   0.0000   0.3086
  15.400   0.8405   0.18180   0.17781  -0.0631  0.0783  1.0000  -2.1402   0.0000   0.0000   0.0000   0.3098
  15.500   0.8417   0.18331   0.17932  -0.0640  0.0768  1.0000  -2.1416   0.0000   0.0000   0.0000   0.3106
  15.600   0.8435   0.18473   0.18074  -0.0647  0.0755  1.0000  -2.1503   0.0000   0.0000   0.0000   0.3111
  15.700   0.8459   0.18609   0.18211  -0.0653  0.0744  1.0000  -2.1649   0.0000   0.0000   0.0000   0.3115
  15.800   0.8486   0.18741   0.18344  -0.0658  0.0733  1.0000  -2.1847   0.0000   0.0000   0.0000   0.3116
  15.900   0.8517   0.18871   0.18475  -0.0661  0.0725  1.0000  -2.2095   0.0000   0.0000   0.0000   0.3116
  16.000   0.8553   0.19001   0.18606  -0.0664  0.0717  1.0000  -2.2394   0.0000   0.0000   0.0000   0.3115
  16.100   0.8593   0.19133   0.18740  -0.0666  0.0710  1.0000  -2.2749   0.0000   0.0000   0.0000   0.3111
  16.200   0.8639   0.19271   0.18878  -0.0666  0.0703  1.0000  -2.3170   0.0000   0.0000   0.0000   0.3105
  16.300   0.8690   0.19415   0.19024  -0.0664  0.0698  1.0000  -2.3655   0.0000   0.0000   0.0000   0.3098
  16.400   0.8741   0.19564   0.19175  -0.0662  0.0692  1.0000  -2.4157   0.0000   0.0000   0.0000   0.3089
  16.500   0.8793   0.19730   0.19343  -0.0659  0.0687  1.0000  -2.4687   0.0000   0.0000   0.0000   0.3079
  16.600   0.8844   0.19939   0.19554  -0.0654  0.0682  1.0000  -2.5218   0.0000   0.0000   0.0000   0.3068
  16.900   0.8840   0.21024   0.20637  -0.0677  0.0669  1.0000  -2.4598   0.0000   0.0000   0.0000   0.3091
  17.000   0.8853   0.21211   0.20824  -0.0687  0.0669  1.0000  -2.4482   0.0000   0.0000   0.0000   0.3101
  17.100   0.8865   0.21393   0.21007  -0.0698  0.0668  1.0000  -2.4364   0.0000   0.0000   0.0000   0.3111
  17.200   0.8878   0.21571   0.21184  -0.0709  0.0667  1.0000  -2.4240   0.0000   0.0000   0.0000   0.3121
  17.300   0.8890   0.21742   0.21356  -0.0720  0.0667  1.0000  -2.4109   0.0000   0.0000   0.0000   0.3131
  17.400   0.8902   0.21905   0.21519  -0.0731  0.0666  1.0000  -2.3966   0.0000   0.0000   0.0000   0.3141
  17.500   0.8906   0.22053   0.21667  -0.0745  0.0664  1.0000  -2.3729   0.0000   0.0000   0.0000   0.3155
  17.600   0.8903   0.22180   0.21793  -0.0760  0.0662  1.0000  -2.3404   0.0000   0.0000   0.0000   0.3171
  17.700   0.8890   0.22270   0.21883  -0.0779  0.0658  1.0000  -2.2955   0.0000   0.0000   0.0000   0.3193
  17.800   0.8852   0.22304   0.21915  -0.0805  0.0651  1.0000  -2.2259   0.0000   0.0000   0.0000   0.3224
  17.900   0.8832   0.22395   0.22005  -0.0829  0.0636  1.0000  -2.1644   0.0000   0.0000   0.0000   0.3251
  18.000   0.8838   0.22546   0.22155  -0.0844  0.0619  1.0000  -2.1360   0.0000   0.0000   0.0000   0.3266
  18.100   0.8855   0.22700   0.22309  -0.0854  0.0598  1.0000  -2.1280   0.0000   0.0000   0.0000   0.3275
  18.200   0.8882   0.22829   0.22440  -0.0860  0.0574  1.0000  -2.1421   0.0000   0.0000   0.0000   0.3277
  18.300   0.8924   0.22920   0.22533  -0.0861  0.0549  1.0000  -2.1875   0.0000   0.0000   0.0000   0.3271
  18.400   0.8970   0.23037   0.22652  -0.0860  0.0536  1.0000  -2.2291   0.0000   0.0000   0.0000   0.3263
  18.500   0.9064   0.23168   0.22787  -0.0842  0.0519  1.0000  -2.3316   0.0000   0.0000   0.0000   0.3231
  19.000   0.9143   0.24702   0.24319  -0.0872  0.0496  1.0000  -2.1348   0.0000   0.0000   0.0000   0.3250
  19.100   0.9133   0.24811   0.24427  -0.0890  0.0493  1.0000  -2.0774   0.0000   0.0000   0.0000   0.3269
  19.200   0.9111   0.24886   0.24500  -0.0912  0.0488  1.0000  -2.0085   0.0000   0.0000   0.0000   0.3295
  19.300   0.9095   0.24982   0.24594  -0.0938  0.0476  1.0000  -1.9291   0.0000   0.0000   0.0000   0.3323
  19.400   0.9104   0.25158   0.24770  -0.0954  0.0460  1.0000  -1.8818   0.0000   0.0000   0.0000   0.3339
  19.500   0.9121   0.25348   0.24960  -0.0964  0.0446  1.0000  -1.8576   0.0000   0.0000   0.0000   0.3347
  19.600   0.9140   0.25536   0.25148  -0.0972  0.0434  1.0000  -1.8438   0.0000   0.0000   0.0000   0.3352
  19.700   0.9162   0.25713   0.25326  -0.0980  0.0422  1.0000  -1.8516   0.0000   0.0000   0.0000   0.3356
  19.800   0.9187   0.25873   0.25486  -0.0986  0.0409  1.0000  -1.8726   0.0000   0.0000   0.0000   0.3358
  19.900   0.9222   0.25990   0.25604  -0.0988  0.0393  1.0000  -1.9256   0.0000   0.0000   0.0000   0.3354
  20.000   0.9319   0.26441   0.26063  -0.0948  0.0354  1.0000  -2.1429   0.0000   0.0000   0.0000   0.3296
  20.100   0.9330   0.26614   0.26236  -0.0959  0.0353  1.0000  -2.1174   0.0000   0.0000   0.0000   0.3306
  20.200   0.9337   0.26795   0.26416  -0.0972  0.0352  1.0000  -2.0866   0.0000   0.0000   0.0000   0.3317
  20.300   0.9338   0.26961   0.26582  -0.0986  0.0350  1.0000  -2.0476   0.0000   0.0000   0.0000   0.3331
  20.400   0.9334   0.27110   0.26730  -0.1004  0.0348  1.0000  -1.9978   0.0000   0.0000   0.0000   0.3349
  20.500   0.9328   0.27250   0.26868  -0.1025  0.0341  1.0000  -1.9296   0.0000   0.0000   0.0000   0.3372
  20.600   0.9335   0.27437   0.27054  -0.1046  0.0322  1.0000  -1.8667   0.0000   0.0000   0.0000   0.3392
  20.700   0.9353   0.27633   0.27250  -0.1056  0.0304  1.0000  -1.8536   0.0000   0.0000   0.0000   0.3399
  20.800   0.9374   0.27812   0.27429  -0.1063  0.0289  1.0000  -1.8575   0.0000   0.0000   0.0000   0.3403
  20.900   0.9397   0.27973   0.27592  -0.1069  0.0277  1.0000  -1.8737   0.0000   0.0000   0.0000   0.3404
  21.000   0.9424   0.28117   0.27736  -0.1073  0.0266  1.0000  -1.9039   0.0000   0.0000   0.0000   0.3403
  21.100   0.9455   0.28239   0.27860  -0.1074  0.0257  1.0000  -1.9548   0.0000   0.0000   0.0000   0.3398
  21.200   0.9500   0.28348   0.27970  -0.1068  0.0248  1.0000  -2.0508   0.0000   0.0000   0.0000   0.3383
  21.300   0.9523   0.28955   0.28576  -0.1051  0.0237  1.0000  -2.0974   0.0000   0.0000   0.0000   0.3361
  21.400   0.9537   0.29192   0.28813  -0.1059  0.0237  1.0000  -2.0721   0.0000   0.0000   0.0000   0.3367
  21.500   0.9550   0.29428   0.29049  -0.1068  0.0237  1.0000  -2.0479   0.0000   0.0000   0.0000   0.3372
  21.600   0.9564   0.29663   0.29284  -0.1076  0.0237  1.0000  -2.0250   0.0000   0.0000   0.0000   0.3378
  21.700   0.9578   0.29896   0.29517  -0.1084  0.0236  1.0000  -2.0032   0.0000   0.0000   0.0000   0.3383
  21.800   0.9591   0.30126   0.29748  -0.1092  0.0236  1.0000  -1.9824   0.0000   0.0000   0.0000   0.3388
  21.900   0.9604   0.30355   0.29976  -0.1100  0.0236  1.0000  -1.9623   0.0000   0.0000   0.0000   0.3394
  22.000   0.9617   0.30581   0.30202  -0.1108  0.0236  1.0000  -1.9430   0.0000   0.0000   0.0000   0.3399
  22.100   0.9629   0.30805   0.30426  -0.1116  0.0235  1.0000  -1.9243   0.0000   0.0000   0.0000   0.3405
  22.200   0.9641   0.31025   0.30647  -0.1124  0.0235  1.0000  -1.9060   0.0000   0.0000   0.0000   0.3410
  22.300   0.9653   0.31243   0.30865  -0.1133  0.0235  1.0000  -1.8880   0.0000   0.0000   0.0000   0.3416
  22.400   0.9661   0.31456   0.31078  -0.1142  0.0234  1.0000  -1.8665   0.0000   0.0000   0.0000   0.3423
  22.500   0.9667   0.31663   0.31285  -0.1151  0.0234  1.0000  -1.8426   0.0000   0.0000   0.0000   0.3430
  22.600   0.9672   0.31867   0.31489  -0.1161  0.0233  1.0000  -1.8173   0.0000   0.0000   0.0000   0.3439
  22.700   0.9677   0.32068   0.31690  -0.1172  0.0233  1.0000  -1.7913   0.0000   0.0000   0.0000   0.3447
  22.800   0.9682   0.32267   0.31888  -0.1182  0.0232  1.0000  -1.7641   0.0000   0.0000   0.0000   0.3456
  22.900   0.9687   0.32462   0.32084  -0.1193  0.0231  1.0000  -1.7350   0.0000   0.0000   0.0000   0.3466
  23.000   0.9692   0.32657   0.32279  -0.1205  0.0229  1.0000  -1.7042   0.0000   0.0000   0.0000   0.3476
  23.100   0.9700   0.32857   0.32479  -0.1218  0.0226  1.0000  -1.6694   0.0000   0.0000   0.0000   0.3486
  23.200   0.9709   0.33070   0.32692  -0.1229  0.0221  1.0000  -1.6358   0.0000   0.0000   0.0000   0.3496
  23.300   0.9720   0.33294   0.32916  -0.1239  0.0215  1.0000  -1.6125   0.0000   0.0000   0.0000   0.3503
  23.400   0.9730   0.33519   0.33141  -0.1247  0.0210  1.0000  -1.5977   0.0000   0.0000   0.0000   0.3508
  23.500   0.9738   0.33742   0.33365  -0.1254  0.0206  1.0000  -1.5872   0.0000   0.0000   0.0000   0.3513
  23.600   0.9746   0.33964   0.33587  -0.1260  0.0201  1.0000  -1.5791   0.0000   0.0000   0.0000   0.3517
  23.700   0.9752   0.34183   0.33807  -0.1266  0.0198  1.0000  -1.5725   0.0000   0.0000   0.0000   0.3521
  23.800   0.9758   0.34401   0.34026  -0.1272  0.0194  1.0000  -1.5668   0.0000   0.0000   0.0000   0.3524
  23.900   0.9762   0.34617   0.34243  -0.1278  0.0191  1.0000  -1.5619   0.0000   0.0000   0.0000   0.3528
  24.000   0.9766   0.34832   0.34458  -0.1284  0.0188  1.0000  -1.5574   0.0000   0.0000   0.0000   0.3532
  24.100   0.9768   0.35045   0.34671  -0.1289  0.0185  1.0000  -1.5533   0.0000   0.0000   0.0000   0.3535
  24.200   0.9769   0.35255   0.34883  -0.1294  0.0183  1.0000  -1.5495   0.0000   0.0000   0.0000   0.3539
  24.300   0.9768   0.35464   0.35092  -0.1299  0.0180  1.0000  -1.5459   0.0000   0.0000   0.0000   0.3542
  24.400   0.9765   0.35670   0.35299  -0.1303  0.0178  1.0000  -1.5424   0.0000   0.0000   0.0000   0.3545
  24.500   0.9760   0.35873   0.35503  -0.1307  0.0176  1.0000  -1.5390   0.0000   0.0000   0.0000   0.3549
  24.600   0.9753   0.36071   0.35703  -0.1311  0.0174  1.0000  -1.5354   0.0000   0.0000   0.0000   0.3552
  24.700   0.9742   0.36265   0.35898  -0.1314  0.0172  1.0000  -1.5316   0.0000   0.0000   0.0000   0.3555
  24.800   0.9727   0.36453   0.36087  -0.1317  0.0170  1.0000  -1.5272   0.0000   0.0000   0.0000   0.3559
  24.900   0.9706   0.36631   0.36266  -0.1318  0.0168  1.0000  -1.5219   0.0000   0.0000   0.0000   0.3562
  25.000   0.9676   0.36795   0.36432  -0.1319  0.0167  1.0000  -1.5149   0.0000   0.0000   0.0000   0.3566
  25.100   0.9630   0.36933   0.36572  -0.1317  0.0165  1.0000  -1.5041   0.0000   0.0000   0.0000   0.3569
  25.200   0.8575   0.34512   0.34176  -0.1173  0.0172  1.0000  -1.2358   0.0000   0.0000   0.0000   0.3595
  25.300   0.8529   0.34475   0.34141  -0.1171  0.0170  1.0000  -1.2238   0.0000   0.0000   0.0000   0.3599
  25.400   0.8488   0.34449   0.34117  -0.1169  0.0168  1.0000  -1.2135   0.0000   0.0000   0.0000   0.3604
  25.500   0.8452   0.34430   0.34100  -0.1168  0.0167  1.0000  -1.2048   0.0000   0.0000   0.0000   0.3608
  25.600   0.8418   0.34415   0.34087  -0.1167  0.0165  1.0000  -1.1974   0.0000   0.0000   0.0000   0.3612
  25.700   0.8388   0.34405   0.34078  -0.1167  0.0163  1.0000  -1.1912   0.0000   0.0000   0.0000   0.3615
  25.800   0.8360   0.34399   0.34073  -0.1166  0.0162  1.0000  -1.1863   0.0000   0.0000   0.0000   0.3619
  25.900   0.8334   0.34395   0.34071  -0.1166  0.0160  1.0000  -1.1826   0.0000   0.0000   0.0000   0.3622
  26.000   0.8310   0.34394   0.34072  -0.1166  0.0159  1.0000  -1.1801   0.0000   0.0000   0.0000   0.3626
  26.100   0.8287   0.34394   0.34073  -0.1167  0.0157  1.0000  -1.1789   0.0000   0.0000   0.0000   0.3629
  26.200   0.8266   0.34395   0.34075  -0.1167  0.0156  1.0000  -1.1790   0.0000   0.0000   0.0000   0.3632
  26.300   0.8246   0.34396   0.34078  -0.1167  0.0154  1.0000  -1.1804   0.0000   0.0000   0.0000   0.3634
  26.400   0.8227   0.34398   0.34081  -0.1167  0.0153  1.0000  -1.1832   0.0000   0.0000   0.0000   0.3637
  26.500   0.8208   0.34400   0.34085  -0.1167  0.0152  1.0000  -1.1877   0.0000   0.0000   0.0000   0.3639
  26.600   0.8191   0.34402   0.34089  -0.1167  0.0150  1.0000  -1.1939   0.0000   0.0000   0.0000   0.3640
  26.700   0.8174   0.34407   0.34095  -0.1166  0.0149  1.0000  -1.2020   0.0000   0.0000   0.0000   0.3641
  26.800   0.8158   0.34416   0.34105  -0.1165  0.0148  1.0000  -1.2126   0.0000   0.0000   0.0000   0.3641
  26.900   0.8143   0.34440   0.34135  -0.1162  0.0146  1.0000  -1.2239   0.0000   0.0000   0.0000   0.3639
  27.000   0.8133   0.34518   0.34215  -0.1157  0.0144  1.0000  -1.2424   0.0000   0.0000   0.0000   0.3634
  27.100   0.8119   0.34752   0.34448  -0.1150  0.0142  1.0000  -1.2314   0.0000   0.0000   0.0000   0.3628
  27.200   0.8104   0.34777   0.34474  -0.1153  0.0142  1.0000  -1.2195   0.0000   0.0000   0.0000   0.3633
  27.300   0.8090   0.34803   0.34501  -0.1156  0.0142  1.0000  -1.2078   0.0000   0.0000   0.0000   0.3638
  27.400   0.8077   0.34829   0.34529  -0.1159  0.0142  1.0000  -1.1964   0.0000   0.0000   0.0000   0.3643
  27.500   0.8064   0.34855   0.34555  -0.1162  0.0142  1.0000  -1.1847   0.0000   0.0000   0.0000   0.3648
  27.600   0.8051   0.34881   0.34582  -0.1165  0.0142  1.0000  -1.1730   0.0000   0.0000   0.0000   0.3653
  27.700   0.8038   0.34905   0.34607  -0.1169  0.0142  1.0000  -1.1603   0.0000   0.0000   0.0000   0.3659
  27.800   0.8024   0.34926   0.34629  -0.1172  0.0142  1.0000  -1.1467   0.0000   0.0000   0.0000   0.3664
  27.900   0.8011   0.34949   0.34653  -0.1176  0.0141  1.0000  -1.1334   0.0000   0.0000   0.0000   0.3670
  28.000   0.7998   0.34973   0.34678  -0.1180  0.0141  1.0000  -1.1203   0.0000   0.0000   0.0000   0.3676
  28.100   0.7986   0.34999   0.34705  -0.1184  0.0141  1.0000  -1.1074   0.0000   0.0000   0.0000   0.3682
  28.200   0.7975   0.35026   0.34733  -0.1188  0.0141  1.0000  -1.0948   0.0000   0.0000   0.0000   0.3687
  28.300   0.7965   0.35054   0.34762  -0.1192  0.0141  1.0000  -1.0823   0.0000   0.0000   0.0000   0.3693
  28.400   0.7955   0.35084   0.34793  -0.1196  0.0141  1.0000  -1.0700   0.0000   0.0000   0.0000   0.3699
  28.500   0.7945   0.35115   0.34825  -0.1200  0.0140  1.0000  -1.0578   0.0000   0.0000   0.0000   0.3704
  28.600   0.7936   0.35148   0.34859  -0.1204  0.0140  1.0000  -1.0458   0.0000   0.0000   0.0000   0.3710
  28.700   0.7928   0.35183   0.34895  -0.1208  0.0140  1.0000  -1.0340   0.0000   0.0000   0.0000   0.3715
  28.800   0.7920   0.35220   0.34932  -0.1213  0.0140  1.0000  -1.0222   0.0000   0.0000   0.0000   0.3721
  28.900   0.7913   0.35258   0.34972  -0.1217  0.0140  1.0000  -1.0106   0.0000   0.0000   0.0000   0.3727
  29.000   0.7906   0.35299   0.35013  -0.1222  0.0139  1.0000  -0.9990   0.0000   0.0000   0.0000   0.3732
  29.100   0.7900   0.35342   0.35057  -0.1227  0.0139  1.0000  -0.9874   0.0000   0.0000   0.0000   0.3738
  29.200   0.7895   0.35387   0.35104  -0.1231  0.0139  1.0000  -0.9759   0.0000   0.0000   0.0000   0.3743
  29.300   0.7890   0.35436   0.35153  -0.1236  0.0138  1.0000  -0.9644   0.0000   0.0000   0.0000   0.3749
  29.400   0.7886   0.35487   0.35205  -0.1241  0.0138  1.0000  -0.9529   0.0000   0.0000   0.0000   0.3754
  29.500   0.7883   0.35542   0.35261  -0.1246  0.0137  1.0000  -0.9414   0.0000   0.0000   0.0000   0.3759
  29.600   0.7881   0.35600   0.35319  -0.1251  0.0137  1.0000  -0.9299   0.0000   0.0000   0.0000   0.3765
  29.700   0.7879   0.35661   0.35381  -0.1256  0.0136  1.0000  -0.9184   0.0000   0.0000   0.0000   0.3770
  29.800   0.7878   0.35725   0.35446  -0.1261  0.0135  1.0000  -0.9073   0.0000   0.0000   0.0000   0.3775
  29.900   0.7877   0.35790   0.35513  -0.1266  0.0134  1.0000  -0.8965   0.0000   0.0000   0.0000   0.3779
  30.000   0.7877   0.35856   0.35579  -0.1271  0.0133  1.0000  -0.8862   0.0000   0.0000   0.0000   0.3784


