xflr5 v6.61

 Calculated polar for: SG6041

 1 1 Reynolds number fixed          Mach number fixed         

 xtrf =   1.000 (top)        1.000 (bottom)
 Mach =   0.000     Re =     0.200 e 6     Ncrit =   9.000

  alpha     CL        CD       CDp       Cm    Top Xtr Bot Xtr   Cpmin    Chinge    XCp    
 ------- -------- --------- --------- -------- ------- ------- -------- --------- ---------
 -10.000  -0.4186   0.11028   0.10640  -0.0362  1.0000  0.0336  -1.7464   0.0000   0.0000   0.0000   0.1555
  -9.900  -0.4180   0.10878   0.10492  -0.0369  1.0000  0.0337  -1.7612   0.0000   0.0000   0.0000   0.1539
  -9.800  -0.4176   0.10727   0.10342  -0.0376  1.0000  0.0337  -1.7767   0.0000   0.0000   0.0000   0.1522
  -9.700  -0.4172   0.10574   0.10191  -0.0383  1.0000  0.0337  -1.7927   0.0000   0.0000   0.0000   0.1506
  -9.600  -0.4276   0.10088   0.09711  -0.0390  1.0000  0.0344  -1.9016   0.0000   0.0000   0.0000   0.1512
  -9.500  -0.4296   0.09870   0.09494  -0.0391  1.0000  0.0348  -1.9113   0.0000   0.0000   0.0000   0.1516
  -9.400  -0.4277   0.09729   0.09353  -0.0385  1.0000  0.0352  -1.8790   0.0000   0.0000   0.0000   0.1527
  -9.300  -0.4262   0.09601   0.09227  -0.0381  1.0000  0.0355  -1.8530   0.0000   0.0000   0.0000   0.1532
  -9.200  -0.4249   0.09478   0.09105  -0.0380  1.0000  0.0358  -1.8320   0.0000   0.0000   0.0000   0.1534
  -9.100  -0.4235   0.09361   0.08989  -0.0378  1.0000  0.0361  -1.8105   0.0000   0.0000   0.0000   0.1537
  -9.000  -0.4225   0.09243   0.08873  -0.0377  1.0000  0.0364  -1.7933   0.0000   0.0000   0.0000   0.1538
  -8.900  -0.4218   0.09124   0.08755  -0.0377  1.0000  0.0367  -1.7810   0.0000   0.0000   0.0000   0.1538
  -8.800  -0.4216   0.09003   0.08636  -0.0377  1.0000  0.0370  -1.7726   0.0000   0.0000   0.0000   0.1538
  -8.700  -0.4217   0.08882   0.08517  -0.0378  1.0000  0.0373  -1.7667   0.0000   0.0000   0.0000   0.1538
  -8.600  -0.4221   0.08760   0.08396  -0.0379  1.0000  0.0376  -1.7640   0.0000   0.0000   0.0000   0.1538
  -8.500  -0.4231   0.08637   0.08276  -0.0380  1.0000  0.0379  -1.7644   0.0000   0.0000   0.0000   0.1538
  -8.400  -0.4245   0.08513   0.08154  -0.0381  1.0000  0.0381  -1.7676   0.0000   0.0000   0.0000   0.1540
  -8.300  -0.4265   0.08389   0.08032  -0.0382  1.0000  0.0384  -1.7737   0.0000   0.0000   0.0000   0.1542
  -8.200  -0.4291   0.08265   0.07911  -0.0383  1.0000  0.0386  -1.7826   0.0000   0.0000   0.0000   0.1547
  -8.100  -0.4325   0.08143   0.07792  -0.0384  1.0000  0.0388  -1.7946   0.0000   0.0000   0.0000   0.1554
  -8.000  -0.4371   0.08024   0.07676  -0.0384  1.0000  0.0390  -1.8101   0.0000   0.0000   0.0000   0.1566
  -7.900  -0.4431   0.07910   0.07566  -0.0382  1.0000  0.0391  -1.8300   0.0000   0.0000   0.0000   0.1583
  -7.800  -0.4512   0.07805   0.07465  -0.0378  1.0000  0.0391  -1.8555   0.0000   0.0000   0.0000   0.1609
  -7.700  -0.4620   0.07710   0.07374  -0.0373  1.0000  0.0390  -1.8886   0.0000   0.0000   0.0000   0.1643
  -7.600  -0.4726   0.07610   0.07276  -0.0367  1.0000  0.0389  -1.9219   0.0000   0.0000   0.0000   0.1674
  -7.500  -0.4799   0.07502   0.07169  -0.0362  1.0000  0.0389  -1.9444   0.0000   0.0000   0.0000   0.1698
  -7.400  -0.4867   0.07397   0.07064  -0.0356  1.0000  0.0390  -1.9641   0.0000   0.0000   0.0000   0.1723
  -7.300  -0.4931   0.07291   0.06959  -0.0350  1.0000  0.0391  -1.9821   0.0000   0.0000   0.0000   0.1747
  -7.200  -0.4989   0.07184   0.06852  -0.0343  1.0000  0.0393  -1.9984   0.0000   0.0000   0.0000   0.1769
  -7.100  -0.5041   0.07075   0.06742  -0.0337  1.0000  0.0394  -2.0130   0.0000   0.0000   0.0000   0.1789
  -7.000  -0.5088   0.06963   0.06630  -0.0331  1.0000  0.0396  -2.0259   0.0000   0.0000   0.0000   0.1808
  -6.900  -0.5128   0.06849   0.06514  -0.0326  1.0000  0.0398  -2.0375   0.0000   0.0000   0.0000   0.1825
  -6.800  -0.5164   0.06732   0.06396  -0.0320  1.0000  0.0401  -2.0478   0.0000   0.0000   0.0000   0.1840
  -6.700  -0.5193   0.06613   0.06275  -0.0316  1.0000  0.0404  -2.0569   0.0000   0.0000   0.0000   0.1854
  -6.600  -0.5217   0.06492   0.06151  -0.0311  1.0000  0.0407  -2.0652   0.0000   0.0000   0.0000   0.1866
  -6.500  -0.5236   0.06368   0.06024  -0.0306  1.0000  0.0411  -2.0728   0.0000   0.0000   0.0000   0.1878
  -6.400  -0.5249   0.06241   0.05895  -0.0302  1.0000  0.0415  -2.0799   0.0000   0.0000   0.0000   0.1887
  -6.300  -0.5257   0.06114   0.05763  -0.0298  1.0000  0.0420  -2.0865   0.0000   0.0000   0.0000   0.1896
  -6.200  -0.5260   0.05984   0.05629  -0.0295  1.0000  0.0425  -2.0928   0.0000   0.0000   0.0000   0.1904
  -6.100  -0.5256   0.05853   0.05493  -0.0291  1.0000  0.0430  -2.0991   0.0000   0.0000   0.0000   0.1911
  -6.000  -0.5247   0.05722   0.05356  -0.0288  1.0000  0.0437  -2.1057   0.0000   0.0000   0.0000   0.1917
  -5.900  -0.5232   0.05590   0.05218  -0.0284  1.0000  0.0444  -2.1134   0.0000   0.0000   0.0000   0.1922
  -5.800  -0.5208   0.05463   0.05082  -0.0281  1.0000  0.0453  -2.1233   0.0000   0.0000   0.0000   0.1926
  -5.700  -0.4996   0.05514   0.05099  -0.0299  0.9981  0.0489  -2.1344   0.0000   0.0000   0.0000   0.1867
  -5.600  -0.4869   0.05443   0.05010  -0.0310  0.9963  0.0493  -2.1199   0.0000   0.0000   0.0000   0.1827
  -5.300  -0.4685   0.04410   0.03933  -0.0352  0.9921  0.0517  -2.2085   0.0000   0.0000   0.0000   0.1713
  -5.200  -0.4598   0.04243   0.03759  -0.0357  0.9907  0.0525  -2.1652   0.0000   0.0000   0.0000   0.1687
  -4.900  -0.4237   0.03506   0.02958  -0.0359  0.9868  0.0314  -2.4066   0.0000   0.0000   0.0000   0.1613
  -4.800  -0.4142   0.02897   0.02271  -0.0351  0.9862  0.0224  -2.8245   0.0000   0.0000   0.0000   0.1610
  -4.700  -0.3986   0.02887   0.02243  -0.0355  0.9849  0.0214  -2.7608   0.0000   0.0000   0.0000   0.1565
  -4.500  -0.3713   0.02643   0.01972  -0.0367  0.9832  0.0200  -2.7127   0.0000   0.0000   0.0000   0.1466
  -4.400  -0.3604   0.02501   0.01809  -0.0368  0.9817  0.0197  -2.7174   0.0000   0.0000   0.0000   0.1435
  -4.300  -0.3486   0.02383   0.01674  -0.0368  0.9802  0.0194  -2.7087   0.0000   0.0000   0.0000   0.1397
  -4.200  -0.3361   0.02281   0.01555  -0.0370  0.9789  0.0192  -2.6910   0.0000   0.0000   0.0000   0.1351
  -4.100  -0.3230   0.02190   0.01449  -0.0373  0.9776  0.0191  -2.6659   0.0000   0.0000   0.0000   0.1298
  -4.000  -0.3097   0.02109   0.01356  -0.0376  0.9765  0.0191  -2.6347   0.0000   0.0000   0.0000   0.1237
  -3.900  -0.2962   0.02038   0.01274  -0.0379  0.9755  0.0192  -2.5982   0.0000   0.0000   0.0000   0.1170
  -3.800  -0.2826   0.01974   0.01201  -0.0383  0.9745  0.0195  -2.5570   0.0000   0.0000   0.0000   0.1094
  -3.700  -0.2685   0.01917   0.01137  -0.0388  0.9735  0.0198  -2.5105   0.0000   0.0000   0.0000   0.1005
  -3.600  -0.2539   0.01869   0.01083  -0.0394  0.9725  0.0203  -2.4567   0.0000   0.0000   0.0000   0.0896
  -3.500  -0.2387   0.01830   0.01041  -0.0401  0.9716  0.0209  -2.3957   0.0000   0.0000   0.0000   0.0765
  -3.400  -0.2253   0.01717   0.00921  -0.0406  0.9710  0.0233  -2.4029   0.0000   0.0000   0.0000   0.0642
  -3.300  -0.2157   0.01684   0.00889  -0.0404  0.9684  0.0257  -2.3466   0.0000   0.0000   0.0000   0.0573
  -3.200  -0.2040   0.01663   0.00869  -0.0405  0.9659  0.0290  -2.2784   0.0000   0.0000   0.0000   0.0457
  -3.100  -0.1907   0.01645   0.00848  -0.0409  0.9639  0.0330  -2.2096   0.0000   0.0000   0.0000   0.0298
  -3.000  -0.1774   0.01589   0.00798  -0.0414  0.9623  0.0464  -2.1773   0.0000   0.0000   0.0000   0.0110
  -2.900  -0.1637   0.01552   0.00776  -0.0420  0.9608  0.0736  -2.1047   0.0000   0.0000   0.0000  -0.0129
  -2.800  -0.1494   0.01535   0.00770  -0.0429  0.9594  0.0957  -1.9937   0.0000   0.0000   0.0000  -0.0436
  -2.700  -0.1346   0.01514   0.00764  -0.0439  0.9582  0.1210  -1.8844   0.0000   0.0000   0.0000  -0.0831
  -2.600  -0.1195   0.01479   0.00750  -0.0450  0.9571  0.1565  -1.8096   0.0000   0.0000   0.0000  -0.1337
  -2.500  -0.1056   0.01404   0.00731  -0.0461  0.9562  0.2707  -1.7429   0.0000   0.0000   0.0000  -0.1946
  -2.400  -0.0996   0.01293   0.00727  -0.0457  0.9543  0.5106  -1.6941   0.0000   0.0000   0.0000  -0.2173
  -2.300  -0.0957   0.01257   0.00744  -0.0440  0.9509  0.6456  -1.6483   0.0000   0.0000   0.0000  -0.2177
  -2.200  -0.0867   0.01249   0.00752  -0.0432  0.9481  0.7036  -1.5880   0.0000   0.0000   0.0000  -0.2572
  -2.100  -0.0756   0.01247   0.00750  -0.0429  0.9457  0.7408  -1.5329   0.0000   0.0000   0.0000  -0.3258
  -2.000  -0.0629   0.01248   0.00752  -0.0429  0.9438  0.7654  -1.4596   0.0000   0.0000   0.0000  -0.4425
  -1.900  -0.0499   0.01249   0.00756  -0.0430  0.9420  0.7863  -1.3856   0.0000   0.0000   0.0000  -0.6233
  -1.800  -0.0363   0.01250   0.00759  -0.0431  0.9405  0.8049  -1.3106   0.0000   0.0000   0.0000  -0.9534
  -1.700  -0.0222   0.01253   0.00762  -0.0434  0.9391  0.8235  -1.2350   0.0000   0.0000   0.0000  -1.7319
  -1.600  -0.0079   0.01255   0.00765  -0.0436  0.9379  0.8380  -1.1598   0.0000   0.0000   0.0000  -5.3309
  -1.500  -0.0061   0.01255   0.00766  -0.0416  0.9328  0.8488  -1.1226   0.0000   0.0000   0.0000  -6.6339
  -1.400   0.0033   0.01255   0.00765  -0.0410  0.9295  0.8599  -1.0638   0.0000   0.0000   0.0000  12.9711
  -1.300   0.0143   0.01254   0.00765  -0.0406  0.9269  0.8705  -1.0007   0.0000   0.0000   0.0000   3.1273
  -1.200   0.0266   0.01254   0.00762  -0.0406  0.9247  0.8823  -0.9352   0.0000   0.0000   0.0000   1.7916
  -1.100   0.0398   0.01252   0.00761  -0.0406  0.9229  0.8925  -0.8679   0.0000   0.0000   0.0000   1.2790
  -1.000   0.0538   0.01251   0.00758  -0.0408  0.9213  0.9033  -0.7995   0.0000   0.0000   0.0000   1.0135
  -0.900   0.0690   0.01249   0.00755  -0.0413  0.9199  0.9138  -0.7296   0.0000   0.0000   0.0000   0.8520
  -0.800   0.0855   0.01250   0.00756  -0.0418  0.9190  0.9264  -0.6567   0.0000   0.0000   0.0000   0.7415
  -0.700   0.1052   0.01255   0.00760  -0.0429  0.9185  0.9417  -0.5770   0.0000   0.0000   0.0000   0.6595
  -0.600   0.1300   0.01262   0.00765  -0.0451  0.9185  0.9562  -0.4869   0.0000   0.0000   0.0000   0.5977
  -0.500   0.1589   0.01265   0.00766  -0.0483  0.9187  0.9638  -0.3979   0.0000   0.0000   0.0000   0.5544
  -0.400   0.1822   0.01262   0.00760  -0.0506  0.9182  0.9681  -0.4146   0.0000   0.0000   0.0000   0.5277
  -0.300   0.2057   0.01256   0.00751  -0.0530  0.9176  0.9702  -0.4328   0.0000   0.0000   0.0000   0.5073
  -0.200   0.2269   0.01252   0.00743  -0.0550  0.9158  0.9721  -0.4507   0.0000   0.0000   0.0000   0.4921
  -0.100   0.2441   0.01248   0.00738  -0.0563  0.9124  0.9748  -0.4661   0.0000   0.0000   0.0000   0.4802
   0.000   0.2621   0.01242   0.00729  -0.0577  0.9095  0.9772  -0.4822   0.0000   0.0000   0.0000   0.4696
   0.100   0.2805   0.01233   0.00719  -0.0592  0.9070  0.9793  -0.4994   0.0000   0.0000   0.0000   0.4602
   0.200   0.2991   0.01223   0.00707  -0.0607  0.9047  0.9813  -0.5181   0.0000   0.0000   0.0000   0.4518
   0.300   0.3183   0.01210   0.00693  -0.0622  0.9026  0.9828  -0.5373   0.0000   0.0000   0.0000   0.4443
   0.400   0.3389   0.01196   0.00676  -0.0640  0.9007  0.9836  -0.5599   0.0000   0.0000   0.0000   0.4377
   0.500   0.3592   0.01180   0.00659  -0.0657  0.8988  0.9844  -0.5826   0.0000   0.0000   0.0000   0.4317
   0.600   0.3789   0.01163   0.00642  -0.0673  0.8969  0.9853  -0.6051   0.0000   0.0000   0.0000   0.4263
   0.700   0.3984   0.01148   0.00624  -0.0688  0.8950  0.9861  -0.6279   0.0000   0.0000   0.0000   0.4213
   0.800   0.4133   0.01141   0.00617  -0.0697  0.8909  0.9886  -0.6492   0.0000   0.0000   0.0000   0.4170
   0.900   0.4272   0.01134   0.00611  -0.0703  0.8859  0.9917  -0.6697   0.0000   0.0000   0.0000   0.4129
   1.000   0.4441   0.01121   0.00598  -0.0714  0.8817  0.9934  -0.6931   0.0000   0.0000   0.0000   0.4090
   1.100   0.4617   0.01105   0.00581  -0.0726  0.8779  0.9951  -0.7175   0.0000   0.0000   0.0000   0.4054
   1.200   0.4797   0.01087   0.00562  -0.0738  0.8744  0.9967  -0.7424   0.0000   0.0000   0.0000   0.4019
   1.300   0.4976   0.01069   0.00544  -0.0750  0.8710  0.9981  -0.7675   0.0000   0.0000   0.0000   0.3987
   1.400   0.5133   0.01058   0.00532  -0.0758  0.8667  1.0000  -0.7905   0.0000   0.0000   0.0000   0.3957
   1.500   0.5166   0.01057   0.00532  -0.0744  0.8595  1.0000  -0.8032   0.0000   0.0000   0.0000   0.3919
   1.600   0.5243   0.01049   0.00524  -0.0737  0.8536  1.0000  -0.8216   0.0000   0.0000   0.0000   0.3884
   1.700   0.5342   0.01037   0.00511  -0.0733  0.8484  1.0000  -0.8439   0.0000   0.0000   0.0000   0.3850
   1.800   0.5452   0.01026   0.00498  -0.0732  0.8440  1.0000  -0.8698   0.0000   0.0000   0.0000   0.3818
   1.900   0.5535   0.01020   0.00496  -0.0726  0.8387  1.0000  -0.8925   0.0000   0.0000   0.0000   0.3787
   2.000   0.5573   0.01019   0.00496  -0.0712  0.8311  1.0000  -0.9095   0.0000   0.0000   0.0000   0.3752
   2.100   0.5645   0.01012   0.00488  -0.0704  0.8242  1.0000  -0.9311   0.0000   0.0000   0.0000   0.3721
   2.200   0.5738   0.01002   0.00476  -0.0699  0.8181  1.0000  -0.9554   0.0000   0.0000   0.0000   0.3691
   2.300   0.5855   0.00991   0.00462  -0.0697  0.8128  1.0000  -0.9829   0.0000   0.0000   0.0000   0.3664
   2.400   0.5894   0.00991   0.00464  -0.0684  0.8049  1.0000  -1.0004   0.0000   0.0000   0.0000   0.3632
   2.500   0.5952   0.00988   0.00461  -0.0673  0.7967  1.0000  -1.0204   0.0000   0.0000   0.0000   0.3602
   2.600   0.6038   0.00981   0.00452  -0.0667  0.7893  1.0000  -1.0444   0.0000   0.0000   0.0000   0.3575
   2.700   0.6149   0.00973   0.00439  -0.0665  0.7826  1.0000  -1.0718   0.0000   0.0000   0.0000   0.3550
   2.800   0.6205   0.00973   0.00441  -0.0654  0.7738  1.0000  -1.0918   0.0000   0.0000   0.0000   0.3522
   2.900   0.6274   0.00971   0.00438  -0.0645  0.7644  1.0000  -1.1138   0.0000   0.0000   0.0000   0.3495
   3.000   0.6370   0.00966   0.00429  -0.0640  0.7553  1.0000  -1.1396   0.0000   0.0000   0.0000   0.3472
   3.100   0.6466   0.00964   0.00423  -0.0635  0.7463  1.0000  -1.1655   0.0000   0.0000   0.0000   0.3449
   3.200   0.6533   0.00965   0.00423  -0.0626  0.7354  1.0000  -1.1875   0.0000   0.0000   0.0000   0.3424
   3.300   0.6624   0.00964   0.00418  -0.0621  0.7242  1.0000  -1.2130   0.0000   0.0000   0.0000   0.3401
   3.400   0.6723   0.00964   0.00412  -0.0617  0.7137  1.0000  -1.2437   0.0000   0.0000   0.0000   0.3381
   3.500   0.6797   0.00967   0.00415  -0.0609  0.7018  1.0000  -1.2716   0.0000   0.0000   0.0000   0.3358
   3.600   0.6887   0.00970   0.00413  -0.0603  0.6889  1.0000  -1.3025   0.0000   0.0000   0.0000   0.3338
   3.700   0.6977   0.00975   0.00412  -0.0598  0.6759  1.0000  -1.3335   0.0000   0.0000   0.0000   0.3318
   3.800   0.7058   0.00981   0.00414  -0.0591  0.6604  1.0000  -1.3631   0.0000   0.0000   0.0000   0.3297
   3.900   0.7146   0.00989   0.00411  -0.0585  0.6444  1.0000  -1.3943   0.0000   0.0000   0.0000   0.3277
   4.000   0.7225   0.00997   0.00415  -0.0578  0.6266  1.0000  -1.4238   0.0000   0.0000   0.0000   0.3258
   4.100   0.7305   0.01010   0.00415  -0.0570  0.6077  1.0000  -1.4540   0.0000   0.0000   0.0000   0.3238
   4.200   0.7382   0.01021   0.00421  -0.0563  0.5873  1.0000  -1.4836   0.0000   0.0000   0.0000   0.3219
   4.300   0.7457   0.01038   0.00424  -0.0555  0.5668  1.0000  -1.5130   0.0000   0.0000   0.0000   0.3200
   4.400   0.7530   0.01053   0.00431  -0.0547  0.5448  1.0000  -1.5423   0.0000   0.0000   0.0000   0.3181
   4.500   0.7603   0.01071   0.00438  -0.0539  0.5239  1.0000  -1.5716   0.0000   0.0000   0.0000   0.3163
   4.600   0.7670   0.01092   0.00446  -0.0531  0.5011  1.0000  -1.6001   0.0000   0.0000   0.0000   0.3144
   4.700   0.7744   0.01110   0.00455  -0.0524  0.4794  1.0000  -1.6296   0.0000   0.0000   0.0000   0.3128
   4.800   0.7808   0.01135   0.00465  -0.0515  0.4577  1.0000  -1.6603   0.0000   0.0000   0.0000   0.3110
   4.900   0.7882   0.01155   0.00493  -0.0508  0.4353  1.0000  -1.7040   0.0000   0.0000   0.0000   0.3094
   5.000   0.7951   0.01178   0.00506  -0.0500  0.4158  1.0000  -1.7496   0.0000   0.0000   0.0000   0.3078
   5.100   0.8024   0.01200   0.00519  -0.0493  0.3954  1.0000  -1.7957   0.0000   0.0000   0.0000   0.3062
   5.200   0.8096   0.01224   0.00533  -0.0486  0.3767  1.0000  -1.8414   0.0000   0.0000   0.0000   0.3048
   5.300   0.8167   0.01248   0.00547  -0.0480  0.3571  1.0000  -1.8872   0.0000   0.0000   0.0000   0.3033
   5.400   0.8241   0.01272   0.00563  -0.0474  0.3393  1.0000  -1.9337   0.0000   0.0000   0.0000   0.3019
   5.500   0.8311   0.01298   0.00579  -0.0467  0.3207  1.0000  -1.9795   0.0000   0.0000   0.0000   0.3005
   5.600   0.8387   0.01322   0.00595  -0.0461  0.3039  1.0000  -2.0269   0.0000   0.0000   0.0000   0.2993
   5.700   0.8458   0.01350   0.00613  -0.0455  0.2868  1.0000  -2.0733   0.0000   0.0000   0.0000   0.2980
   5.800   0.8535   0.01375   0.00631  -0.0450  0.2716  1.0000  -2.1213   0.0000   0.0000   0.0000   0.2967
   5.900   0.8610   0.01401   0.00649  -0.0444  0.2565  1.0000  -2.1691   0.0000   0.0000   0.0000   0.2955
   6.000   0.8684   0.01429   0.00669  -0.0438  0.2430  1.0000  -2.2166   0.0000   0.0000   0.0000   0.2943
   6.100   0.8766   0.01451   0.00687  -0.0434  0.2305  1.0000  -2.2668   0.0000   0.0000   0.0000   0.2933
   6.200   0.8835   0.01485   0.00709  -0.0428  0.2181  1.0000  -2.3133   0.0000   0.0000   0.0000   0.2921
   6.300   0.8921   0.01505   0.00729  -0.0424  0.2085  1.0000  -2.3646   0.0000   0.0000   0.0000   0.2911
   6.400   0.9002   0.01530   0.00749  -0.0419  0.1989  1.0000  -2.4150   0.0000   0.0000   0.0000   0.2900
   6.500   0.9072   0.01564   0.00774  -0.0413  0.1893  1.0000  -2.4620   0.0000   0.0000   0.0000   0.2889
   6.600   0.9155   0.01590   0.00799  -0.0409  0.1816  1.0000  -2.5124   0.0000   0.0000   0.0000   0.2879
   6.700   0.9242   0.01610   0.00820  -0.0405  0.1744  1.0000  -2.5648   0.0000   0.0000   0.0000   0.2870
   6.800   0.9320   0.01638   0.00843  -0.0401  0.1672  1.0000  -2.6150   0.0000   0.0000   0.0000   0.2860
   6.900   0.9383   0.01685   0.00879  -0.0394  0.1590  1.0000  -2.6592   0.0000   0.0000   0.0000   0.2848
   7.000   0.9472   0.01705   0.00903  -0.0390  0.1541  1.0000  -2.7119   0.0000   0.0000   0.0000   0.2840
   7.100   0.9561   0.01725   0.00926  -0.0387  0.1488  1.0000  -2.7651   0.0000   0.0000   0.0000   0.2831
   7.200   0.9644   0.01749   0.00950  -0.0383  0.1433  1.0000  -2.8174   0.0000   0.0000   0.0000   0.2822
   7.300   0.9716   0.01785   0.00978  -0.0377  0.1376  1.0000  -2.8665   0.0000   0.0000   0.0000   0.2813
   7.400   0.9781   0.01840   0.01026  -0.0371  0.1312  1.0000  -2.9100   0.0000   0.0000   0.0000   0.2802
   7.500   0.9874   0.01851   0.01044  -0.0368  0.1278  1.0000  -2.9661   0.0000   0.0000   0.0000   0.2795
   7.600   0.9960   0.01870   0.01077  -0.0364  0.1227  1.0000  -3.0197   0.0000   0.0000   0.0000   0.2787
   7.700   1.0043   0.01892   0.01099  -0.0360  0.1184  1.0000  -3.0740   0.0000   0.0000   0.0000   0.2779
   7.800   1.0116   0.01925   0.01127  -0.0355  0.1140  1.0000  -3.1253   0.0000   0.0000   0.0000   0.2770
   7.900   1.0176   0.01994   0.01189  -0.0349  0.1084  1.0000  -3.1665   0.0000   0.0000   0.0000   0.2760
   8.000   1.0265   0.02008   0.01208  -0.0346  0.1059  1.0000  -3.2228   0.0000   0.0000   0.0000   0.2753
   8.100   1.0353   0.02023   0.01228  -0.0342  0.1029  1.0000  -3.2790   0.0000   0.0000   0.0000   0.2746
   8.200   1.0437   0.02042   0.01250  -0.0339  0.0996  1.0000  -3.3341   0.0000   0.0000   0.0000   0.2738
   8.300   1.0518   0.02065   0.01275  -0.0335  0.0965  1.0000  -3.3881   0.0000   0.0000   0.0000   0.2731
   8.400   1.0593   0.02095   0.01304  -0.0330  0.0935  1.0000  -3.4402   0.0000   0.0000   0.0000   0.2723
   8.500   1.0660   0.02139   0.01345  -0.0324  0.0903  1.0000  -3.4979   0.0000   0.0000   0.0000   0.2714
   8.600   1.0725   0.02232   0.01433  -0.0319  0.0862  1.0000  -3.5494   0.0000   0.0000   0.0000   0.2706
   8.700   1.0809   0.02245   0.01454  -0.0315  0.0847  1.0000  -3.6201   0.0000   0.0000   0.0000   0.2699
   8.800   1.0892   0.02266   0.01482  -0.0311  0.0826  1.0000  -3.6891   0.0000   0.0000   0.0000   0.2691
   8.900   1.0971   0.02291   0.01512  -0.0306  0.0802  1.0000  -3.7718   0.0000   0.0000   0.0000   0.2684
   9.000   1.1048   0.02319   0.01543  -0.0301  0.0777  1.0000  -3.8638   0.0000   0.0000   0.0000   0.2676
   9.100   1.1121   0.02347   0.01573  -0.0296  0.0752  1.0000  -3.9555   0.0000   0.0000   0.0000   0.2669
   9.200   1.1188   0.02380   0.01606  -0.0291  0.0728  1.0000  -4.0457   0.0000   0.0000   0.0000   0.2661
   9.300   1.1250   0.02441   0.01663  -0.0285  0.0700  1.0000  -4.1279   0.0000   0.0000   0.0000   0.2653
   9.400   1.1321   0.02564   0.01787  -0.0281  0.0666  1.0000  -4.1990   0.0000   0.0000   0.0000   0.2647
   9.500   1.1396   0.02585   0.01816  -0.0276  0.0653  1.0000  -4.2917   0.0000   0.0000   0.0000   0.2639
   9.600   1.1469   0.02617   0.01856  -0.0270  0.0636  1.0000  -4.3813   0.0000   0.0000   0.0000   0.2632
   9.700   1.1540   0.02655   0.01900  -0.0265  0.0617  1.0000  -4.4698   0.0000   0.0000   0.0000   0.2624
   9.800   1.1608   0.02693   0.01942  -0.0259  0.0598  1.0000  -4.5589   0.0000   0.0000   0.0000   0.2616
   9.900   1.1673   0.02728   0.01980  -0.0253  0.0580  1.0000  -4.6493   0.0000   0.0000   0.0000   0.2609
  10.000   1.1734   0.02762   0.02015  -0.0247  0.0563  1.0000  -4.7403   0.0000   0.0000   0.0000   0.2601
  10.100   1.1789   0.02801   0.02054  -0.0240  0.0548  1.0000  -4.8291   0.0000   0.0000   0.0000   0.2593
  10.200   1.1844   0.02866   0.02119  -0.0234  0.0530  1.0000  -4.9137   0.0000   0.0000   0.0000   0.2585
  10.300   1.1918   0.03089   0.02350  -0.0234  0.0501  1.0000  -4.9683   0.0000   0.0000   0.0000   0.2583
  10.400   1.1979   0.03107   0.02375  -0.0228  0.0495  1.0000  -5.0618   0.0000   0.0000   0.0000   0.2575
  10.500   1.2038   0.03135   0.02418  -0.0221  0.0490  1.0000  -5.1676   0.0000   0.0000   0.0000   0.2567
  10.600   1.2095   0.03175   0.02466  -0.0214  0.0483  1.0000  -5.2580   0.0000   0.0000   0.0000   0.2559
  10.700   1.2153   0.03230   0.02528  -0.0207  0.0476  1.0000  -5.3442   0.0000   0.0000   0.0000   0.2551
  10.800   1.2210   0.03290   0.02598  -0.0201  0.0469  1.0000  -5.4280   0.0000   0.0000   0.0000   0.2544
  10.900   1.2265   0.03355   0.02671  -0.0194  0.0463  1.0000  -5.5100   0.0000   0.0000   0.0000   0.2536
  11.000   1.2316   0.03422   0.02746  -0.0187  0.0457  1.0000  -5.5901   0.0000   0.0000   0.0000   0.2529
  11.100   1.2363   0.03491   0.02824  -0.0180  0.0451  1.0000  -5.6675   0.0000   0.0000   0.0000   0.2521
  11.200   1.2407   0.03561   0.02904  -0.0172  0.0445  1.0000  -5.7429   0.0000   0.0000   0.0000   0.2513
  11.300   1.2447   0.03633   0.02984  -0.0164  0.0440  1.0000  -5.8165   0.0000   0.0000   0.0000   0.2504
  11.400   1.2482   0.03705   0.03065  -0.0156  0.0435  1.0000  -5.8878   0.0000   0.0000   0.0000   0.2496
  11.500   1.2514   0.03778   0.03146  -0.0147  0.0430  1.0000  -5.9573   0.0000   0.0000   0.0000   0.2487
  11.600   1.2542   0.03850   0.03227  -0.0139  0.0425  1.0000  -6.0252   0.0000   0.0000   0.0000   0.2479
  11.700   1.2566   0.03914   0.03298  -0.0130  0.0420  1.0000  -6.0953   0.0000   0.0000   0.0000   0.2470
  11.800   1.2588   0.03967   0.03356  -0.0121  0.0414  1.0000  -6.1700   0.0000   0.0000   0.0000   0.2461
  11.900   1.2611   0.04009   0.03400  -0.0112  0.0407  1.0000  -6.2509   0.0000   0.0000   0.0000   0.2453
  12.000   1.2635   0.04040   0.03432  -0.0104  0.0399  1.0000  -6.3385   0.0000   0.0000   0.0000   0.2444
  12.100   1.2657   0.04072   0.03463  -0.0097  0.0391  1.0000  -6.4287   0.0000   0.0000   0.0000   0.2437
  12.200   1.2671   0.04124   0.03515  -0.0089  0.0382  1.0000  -6.5088   0.0000   0.0000   0.0000   0.2429
  12.300   1.2666   0.04226   0.03622  -0.0081  0.0374  1.0000  -6.5618   0.0000   0.0000   0.0000   0.2421
  12.400   1.2635   0.04388   0.03795  -0.0071  0.0367  1.0000  -6.5784   0.0000   0.0000   0.0000   0.2412
  12.500   1.2577   0.04588   0.04010  -0.0060  0.0362  1.0000  -6.5647   0.0000   0.0000   0.0000   0.2402
  12.600   1.2501   0.04798   0.04237  -0.0049  0.0358  1.0000  -6.5353   0.0000   0.0000   0.0000   0.2392
  12.700   1.2454   0.04919   0.04367  -0.0039  0.0355  1.0000  -6.5497   0.0000   0.0000   0.0000   0.2383
  12.800   1.2498   0.04866   0.04316  -0.0034  0.0350  1.0000  -6.6717   0.0000   0.0000   0.0000   0.2377
  12.900   1.2525   0.04860   0.04314  -0.0029  0.0344  1.0000  -6.7725   0.0000   0.0000   0.0000   0.2371
  13.000   1.2543   0.04881   0.04339  -0.0024  0.0336  1.0000  -6.8618   0.0000   0.0000   0.0000   0.2365
  13.100   1.2559   0.04914   0.04377  -0.0020  0.0328  1.0000  -6.9477   0.0000   0.0000   0.0000   0.2360
  13.200   1.2574   0.04953   0.04419  -0.0017  0.0320  1.0000  -7.0335   0.0000   0.0000   0.0000   0.2355
  13.300   1.2584   0.04998   0.04469  -0.0013  0.0311  1.0000  -7.1161   0.0000   0.0000   0.0000   0.2350
  13.400   1.2599   0.05038   0.04511  -0.0011  0.0303  1.0000  -7.2066   0.0000   0.0000   0.0000   0.2346
  13.500   1.2621   0.05069   0.04542  -0.0009  0.0294  1.0000  -7.3078   0.0000   0.0000   0.0000   0.2343
  13.600   1.2652   0.05088   0.04559  -0.0008  0.0285  1.0000  -7.4219   0.0000   0.0000   0.0000   0.2340
  13.700   1.2684   0.05106   0.04575  -0.0008  0.0276  1.0000  -7.5396   0.0000   0.0000   0.0000   0.2337
  13.800   1.2702   0.05149   0.04616  -0.0007  0.0269  1.0000  -7.6408   0.0000   0.0000   0.0000   0.2335
  13.900   1.2704   0.05221   0.04688  -0.0006  0.0264  1.0000  -7.7212   0.0000   0.0000   0.0000   0.2332
  14.000   1.2690   0.05322   0.04792  -0.0006  0.0258  1.0000  -7.7796   0.0000   0.0000   0.0000   0.2329
  14.100   1.2661   0.05453   0.04927  -0.0005  0.0254  1.0000  -7.8163   0.0000   0.0000   0.0000   0.2327
  14.200   1.2617   0.05612   0.05092  -0.0005  0.0250  1.0000  -7.8322   0.0000   0.0000   0.0000   0.2325
  14.300   1.2560   0.05795   0.05283  -0.0006  0.0247  1.0000  -7.8304   0.0000   0.0000   0.0000   0.2324
  14.400   1.2492   0.05998   0.05495  -0.0008  0.0244  1.0000  -7.8149   0.0000   0.0000   0.0000   0.2323
  14.500   1.2417   0.06216   0.05723  -0.0011  0.0242  1.0000  -7.7899   0.0000   0.0000   0.0000   0.2324
  14.600   1.2337   0.06446   0.05964  -0.0016  0.0241  1.0000  -7.7578   0.0000   0.0000   0.0000   0.2326
  14.700   1.2254   0.06686   0.06215  -0.0022  0.0240  1.0000  -7.7211   0.0000   0.0000   0.0000   0.2330
  14.800   1.2168   0.06935   0.06474  -0.0030  0.0239  1.0000  -7.6812   0.0000   0.0000   0.0000   0.2334
  14.900   1.2083   0.07191   0.06740  -0.0040  0.0238  1.0000  -7.6390   0.0000   0.0000   0.0000   0.2340
  15.000   1.1997   0.07453   0.07012  -0.0051  0.0238  1.0000  -7.5952   0.0000   0.0000   0.0000   0.2348
  15.100   1.1912   0.07723   0.07291  -0.0063  0.0238  1.0000  -7.5501   0.0000   0.0000   0.0000   0.2357
  15.200   1.1827   0.07995   0.07572  -0.0077  0.0238  1.0000  -7.5041   0.0000   0.0000   0.0000   0.2366
  15.300   1.1744   0.08274   0.07860  -0.0092  0.0238  1.0000  -7.4570   0.0000   0.0000   0.0000   0.2378
  15.400   1.1661   0.08561   0.08156  -0.0107  0.0238  1.0000  -7.4082   0.0000   0.0000   0.0000   0.2390
  15.500   1.1580   0.08859   0.08462  -0.0125  0.0239  1.0000  -7.3578   0.0000   0.0000   0.0000   0.2404
  15.600   1.1500   0.09166   0.08776  -0.0143  0.0239  1.0000  -7.3049   0.0000   0.0000   0.0000   0.2419
  15.700   1.1421   0.09483   0.09101  -0.0163  0.0240  1.0000  -7.2495   0.0000   0.0000   0.0000   0.2435
  15.800   1.1342   0.09810   0.09435  -0.0184  0.0241  1.0000  -7.1900   0.0000   0.0000   0.0000   0.2453
  15.900   1.1261   0.10150   0.09784  -0.0206  0.0243  1.0000  -7.1245   0.0000   0.0000   0.0000   0.2472
  16.000   1.1176   0.10517   0.10158  -0.0230  0.0245  1.0000  -7.0461   0.0000   0.0000   0.0000   0.2493
  16.100   0.8556   0.19118   0.18763  -0.0680  0.0625  1.0000  -2.2304   0.0000   0.0000   0.0000   0.3131
  16.200   0.8560   0.19286   0.18931  -0.0693  0.0612  1.0000  -2.2127   0.0000   0.0000   0.0000   0.3145
  16.300   0.8571   0.19450   0.19095  -0.0703  0.0602  1.0000  -2.2064   0.0000   0.0000   0.0000   0.3154
  16.400   0.8586   0.19610   0.19255  -0.0713  0.0593  1.0000  -2.2057   0.0000   0.0000   0.0000   0.3163
  16.500   0.8603   0.19768   0.19414  -0.0721  0.0585  1.0000  -2.2088   0.0000   0.0000   0.0000   0.3169
  16.600   0.8622   0.19924   0.19570  -0.0729  0.0578  1.0000  -2.2146   0.0000   0.0000   0.0000   0.3175
  16.700   0.8642   0.20079   0.19725  -0.0737  0.0571  1.0000  -2.2228   0.0000   0.0000   0.0000   0.3181
  16.800   0.8664   0.20231   0.19878  -0.0744  0.0565  1.0000  -2.2329   0.0000   0.0000   0.0000   0.3185
  16.900   0.8687   0.20382   0.20030  -0.0751  0.0560  1.0000  -2.2450   0.0000   0.0000   0.0000   0.3190
  17.000   0.8711   0.20532   0.20180  -0.0757  0.0555  1.0000  -2.2590   0.0000   0.0000   0.0000   0.3193
  17.100   0.8736   0.20681   0.20330  -0.0763  0.0550  1.0000  -2.2748   0.0000   0.0000   0.0000   0.3196
  17.200   0.8763   0.20830   0.20479  -0.0769  0.0545  1.0000  -2.2926   0.0000   0.0000   0.0000   0.3198
  17.300   0.8791   0.20977   0.20627  -0.0774  0.0541  1.0000  -2.3125   0.0000   0.0000   0.0000   0.3200
  17.400   0.8820   0.21124   0.20775  -0.0779  0.0537  1.0000  -2.3350   0.0000   0.0000   0.0000   0.3200
  17.500   0.8853   0.21272   0.20924  -0.0782  0.0533  1.0000  -2.3603   0.0000   0.0000   0.0000   0.3200
  17.600   0.8893   0.21411   0.21065  -0.0784  0.0528  1.0000  -2.3990   0.0000   0.0000   0.0000   0.3195
  17.700   0.9003   0.21495   0.21154  -0.0764  0.0516  1.0000  -2.5563   0.0000   0.0000   0.0000   0.3159
  17.800   0.8982   0.22189   0.21846  -0.0760  0.0501  1.0000  -2.5290   0.0000   0.0000   0.0000   0.3156
  17.900   0.8992   0.22373   0.22030  -0.0771  0.0500  1.0000  -2.5036   0.0000   0.0000   0.0000   0.3167
  18.000   0.9005   0.22566   0.22224  -0.0783  0.0500  1.0000  -2.4765   0.0000   0.0000   0.0000   0.3177
  18.100   0.9016   0.22751   0.22409  -0.0794  0.0499  1.0000  -2.4424   0.0000   0.0000   0.0000   0.3188
  18.200   0.9026   0.22921   0.22579  -0.0807  0.0497  1.0000  -2.3983   0.0000   0.0000   0.0000   0.3200
  18.300   0.9024   0.23055   0.22712  -0.0825  0.0494  1.0000  -2.3343   0.0000   0.0000   0.0000   0.3219
  18.400   0.8991   0.23128   0.22784  -0.0853  0.0486  1.0000  -2.2376   0.0000   0.0000   0.0000   0.3252
  18.500   0.8968   0.23262   0.22915  -0.0884  0.0459  1.0000  -2.1274   0.0000   0.0000   0.0000   0.3288
  18.600   0.8984   0.23439   0.23092  -0.0895  0.0432  1.0000  -2.0897   0.0000   0.0000   0.0000   0.3298
  18.700   0.9009   0.23592   0.23246  -0.0901  0.0413  1.0000  -2.0793   0.0000   0.0000   0.0000   0.3300
  18.800   0.9040   0.23729   0.23384  -0.0905  0.0399  1.0000  -2.0852   0.0000   0.0000   0.0000   0.3299
  18.900   0.9076   0.23854   0.23509  -0.0907  0.0388  1.0000  -2.1067   0.0000   0.0000   0.0000   0.3295
  19.000   0.9143   0.23908   0.23565  -0.0897  0.0375  1.0000  -2.2037   0.0000   0.0000   0.0000   0.3274
  19.100   0.9175   0.24509   0.24167  -0.0877  0.0356  1.0000  -2.2527   0.0000   0.0000   0.0000   0.3247
  19.200   0.9187   0.24713   0.24370  -0.0888  0.0355  1.0000  -2.2218   0.0000   0.0000   0.0000   0.3257
  19.300   0.9196   0.24879   0.24541  -0.0902  0.0354  1.0000  -2.1846   0.0000   0.0000   0.0000   0.3269
  19.400   0.9207   0.25031   0.24693  -0.0916  0.0352  1.0000  -2.1534   0.0000   0.0000   0.0000   0.3282
  19.500   0.9210   0.25190   0.24851  -0.0932  0.0349  1.0000  -2.1143   0.0000   0.0000   0.0000   0.3298
  19.600   0.9209   0.25363   0.25017  -0.0948  0.0346  1.0000  -2.0778   0.0000   0.0000   0.0000   0.3314
  19.700   0.9197   0.25526   0.25178  -0.0977  0.0330  1.0000  -1.9764   0.0000   0.0000   0.0000   0.3347
  19.800   0.9216   0.25689   0.25342  -0.0990  0.0297  1.0000  -1.9693   0.0000   0.0000   0.0000   0.3358
  19.900   0.9302   0.25596   0.25257  -0.0953  0.0237  1.0000  -2.3387   0.0000   0.0000   0.0000   0.3301
  20.000   0.9317   0.25835   0.25496  -0.0962  0.0237  1.0000  -2.3118   0.0000   0.0000   0.0000   0.3308
  20.100   0.9331   0.26074   0.25735  -0.0972  0.0236  1.0000  -2.2845   0.0000   0.0000   0.0000   0.3315
  20.200   0.9346   0.26313   0.25973  -0.0981  0.0236  1.0000  -2.2568   0.0000   0.0000   0.0000   0.3322
  20.300   0.9361   0.26551   0.26211  -0.0990  0.0236  1.0000  -2.2277   0.0000   0.0000   0.0000   0.3328
  20.400   0.9376   0.26789   0.26449  -0.0999  0.0235  1.0000  -2.1978   0.0000   0.0000   0.0000   0.3335
  20.500   0.9391   0.27024   0.26685  -0.1008  0.0235  1.0000  -2.1674   0.0000   0.0000   0.0000   0.3342
  20.600   0.9406   0.27259   0.26919  -0.1017  0.0235  1.0000  -2.1368   0.0000   0.0000   0.0000   0.3348
  20.700   0.9421   0.27491   0.27151  -0.1026  0.0234  1.0000  -2.1060   0.0000   0.0000   0.0000   0.3355
  20.800   0.9436   0.27719   0.27379  -0.1035  0.0234  1.0000  -2.0755   0.0000   0.0000   0.0000   0.3361
  20.900   0.9450   0.27942   0.27601  -0.1044  0.0233  1.0000  -2.0451   0.0000   0.0000   0.0000   0.3368
  21.000   0.9462   0.28159   0.27819  -0.1055  0.0232  1.0000  -2.0098   0.0000   0.0000   0.0000   0.3377
  21.100   0.9469   0.28371   0.28030  -0.1068  0.0231  1.0000  -1.9653   0.0000   0.0000   0.0000   0.3389
  21.200   0.9473   0.28574   0.28232  -0.1085  0.0227  1.0000  -1.9035   0.0000   0.0000   0.0000   0.3405
  21.300   0.9483   0.28810   0.28467  -0.1107  0.0206  1.0000  -1.8162   0.0000   0.0000   0.0000   0.3427
  21.400   0.9500   0.29029   0.28685  -0.1116  0.0197  1.0000  -1.8002   0.0000   0.0000   0.0000   0.3432
  21.500   0.9518   0.29240   0.28897  -0.1124  0.0191  1.0000  -1.7908   0.0000   0.0000   0.0000   0.3437
  21.600   0.9535   0.29449   0.29106  -0.1131  0.0186  1.0000  -1.7848   0.0000   0.0000   0.0000   0.3441
  21.700   0.9552   0.29655   0.29312  -0.1139  0.0181  1.0000  -1.7812   0.0000   0.0000   0.0000   0.3445
  21.800   0.9570   0.29858   0.29516  -0.1146  0.0177  1.0000  -1.7797   0.0000   0.0000   0.0000   0.3448
  21.900   0.9587   0.30060   0.29718  -0.1153  0.0174  1.0000  -1.7802   0.0000   0.0000   0.0000   0.3452
  22.000   0.9604   0.30259   0.29918  -0.1159  0.0171  1.0000  -1.7823   0.0000   0.0000   0.0000   0.3455
  22.100   0.9621   0.30458   0.30117  -0.1166  0.0168  1.0000  -1.7878   0.0000   0.0000   0.0000   0.3458
  22.200   0.9638   0.30654   0.30314  -0.1172  0.0165  1.0000  -1.7959   0.0000   0.0000   0.0000   0.3460
  22.300   0.9654   0.30850   0.30510  -0.1179  0.0163  1.0000  -1.8054   0.0000   0.0000   0.0000   0.3463
  22.400   0.9671   0.31044   0.30705  -0.1185  0.0161  1.0000  -1.8163   0.0000   0.0000   0.0000   0.3465
  22.500   0.9687   0.31238   0.30899  -0.1191  0.0159  1.0000  -1.8287   0.0000   0.0000   0.0000   0.3467
  22.600   0.9703   0.31431   0.31092  -0.1196  0.0157  1.0000  -1.8426   0.0000   0.0000   0.0000   0.3469
  22.700   0.9719   0.31624   0.31286  -0.1201  0.0155  1.0000  -1.8580   0.0000   0.0000   0.0000   0.3470
  22.800   0.9734   0.31817   0.31480  -0.1206  0.0154  1.0000  -1.8751   0.0000   0.0000   0.0000   0.3471
  22.900   0.9750   0.32013   0.31676  -0.1211  0.0152  1.0000  -1.8939   0.0000   0.0000   0.0000   0.3472
  23.000   0.9765   0.32211   0.31875  -0.1214  0.0151  1.0000  -1.9148   0.0000   0.0000   0.0000   0.3472
  23.100   0.9780   0.32416   0.32081  -0.1218  0.0149  1.0000  -1.9379   0.0000   0.0000   0.0000   0.3471
  23.200   0.9796   0.32635   0.32301  -0.1220  0.0148  1.0000  -1.9632   0.0000   0.0000   0.0000   0.3469
  23.300   0.9811   0.32887   0.32554  -0.1220  0.0146  1.0000  -1.9901   0.0000   0.0000   0.0000   0.3466
  24.700   0.9773   0.36411   0.36083  -0.1291  0.0141  1.0000  -1.7599   0.0000   0.0000   0.0000   0.3524
  24.800   0.9756   0.36610   0.36283  -0.1294  0.0141  1.0000  -1.7447   0.0000   0.0000   0.0000   0.3528
  24.900   0.9732   0.36797   0.36472  -0.1296  0.0141  1.0000  -1.7278   0.0000   0.0000   0.0000   0.3533
  25.000   0.9697   0.36968   0.36644  -0.1297  0.0141  1.0000  -1.7088   0.0000   0.0000   0.0000   0.3538
  25.100   0.9644   0.37105   0.36783  -0.1296  0.0141  1.0000  -1.6854   0.0000   0.0000   0.0000   0.3543
  25.200   0.8556   0.34387   0.34089  -0.1148  0.0141  1.0000  -1.4231   0.0000   0.0000   0.0000   0.3568
  25.300   0.8511   0.34358   0.34062  -0.1147  0.0141  1.0000  -1.4026   0.0000   0.0000   0.0000   0.3573
  25.400   0.8470   0.34340   0.34044  -0.1147  0.0141  1.0000  -1.3833   0.0000   0.0000   0.0000   0.3578
  25.500   0.8434   0.34328   0.34034  -0.1147  0.0141  1.0000  -1.3650   0.0000   0.0000   0.0000   0.3584
  25.600   0.8401   0.34322   0.34029  -0.1147  0.0141  1.0000  -1.3472   0.0000   0.0000   0.0000   0.3589
  25.700   0.8369   0.34318   0.34027  -0.1148  0.0141  1.0000  -1.3297   0.0000   0.0000   0.0000   0.3595
  25.800   0.8339   0.34317   0.34027  -0.1149  0.0141  1.0000  -1.3110   0.0000   0.0000   0.0000   0.3601
  25.900   0.8310   0.34319   0.34031  -0.1151  0.0141  1.0000  -1.2921   0.0000   0.0000   0.0000   0.3607
  26.000   0.8284   0.34325   0.34038  -0.1153  0.0140  1.0000  -1.2738   0.0000   0.0000   0.0000   0.3613
  26.100   0.8259   0.34335   0.34049  -0.1155  0.0140  1.0000  -1.2559   0.0000   0.0000   0.0000   0.3619
  26.200   0.8236   0.34348   0.34063  -0.1157  0.0140  1.0000  -1.2384   0.0000   0.0000   0.0000   0.3625
  26.300   0.8215   0.34365   0.34080  -0.1160  0.0140  1.0000  -1.2212   0.0000   0.0000   0.0000   0.3632
  26.400   0.8195   0.34384   0.34101  -0.1163  0.0139  1.0000  -1.2043   0.0000   0.0000   0.0000   0.3638
  26.500   0.8177   0.34407   0.34125  -0.1166  0.0139  1.0000  -1.1877   0.0000   0.0000   0.0000   0.3644
  26.600   0.8160   0.34434   0.34152  -0.1170  0.0139  1.0000  -1.1712   0.0000   0.0000   0.0000   0.3650
  26.700   0.8144   0.34463   0.34183  -0.1173  0.0138  1.0000  -1.1548   0.0000   0.0000   0.0000   0.3656
  26.800   0.8130   0.34497   0.34218  -0.1177  0.0138  1.0000  -1.1384   0.0000   0.0000   0.0000   0.3662
  26.900   0.8117   0.34535   0.34257  -0.1181  0.0137  1.0000  -1.1220   0.0000   0.0000   0.0000   0.3669
  27.000   0.8107   0.34580   0.34306  -0.1185  0.0137  1.0000  -1.1057   0.0000   0.0000   0.0000   0.3675
  27.100   0.8096   0.34626   0.34353  -0.1189  0.0136  1.0000  -1.0892   0.0000   0.0000   0.0000   0.3681
  27.200   0.8088   0.34679   0.34407  -0.1194  0.0135  1.0000  -1.0723   0.0000   0.0000   0.0000   0.3687
  27.300   0.8082   0.34737   0.34466  -0.1199  0.0134  1.0000  -1.0555   0.0000   0.0000   0.0000   0.3692
  27.400   0.8076   0.34797   0.34527  -0.1203  0.0132  1.0000  -1.0394   0.0000   0.0000   0.0000   0.3698
  27.500   0.8070   0.34855   0.34586  -0.1207  0.0130  1.0000  -1.0248   0.0000   0.0000   0.0000   0.3703
  27.600   0.8063   0.34910   0.34642  -0.1211  0.0128  1.0000  -1.0121   0.0000   0.0000   0.0000   0.3707
  27.700   0.8056   0.34961   0.34694  -0.1214  0.0126  1.0000  -1.0011   0.0000   0.0000   0.0000   0.3712
  27.800   0.8049   0.35009   0.34743  -0.1217  0.0123  1.0000  -0.9916   0.0000   0.0000   0.0000   0.3716
  27.900   0.8041   0.35055   0.34790  -0.1220  0.0121  1.0000  -0.9832   0.0000   0.0000   0.0000   0.3720
  28.000   0.8034   0.35099   0.34835  -0.1223  0.0119  1.0000  -0.9757   0.0000   0.0000   0.0000   0.3724
  28.100   0.8026   0.35143   0.34879  -0.1227  0.0117  1.0000  -0.9689   0.0000   0.0000   0.0000   0.3728
  28.200   0.8019   0.35186   0.34924  -0.1230  0.0115  1.0000  -0.9627   0.0000   0.0000   0.0000   0.3732
  28.300   0.8012   0.35229   0.34968  -0.1233  0.0113  1.0000  -0.9570   0.0000   0.0000   0.0000   0.3735
  28.400   0.8005   0.35272   0.35012  -0.1236  0.0111  1.0000  -0.9517   0.0000   0.0000   0.0000   0.3739
  28.500   0.7998   0.35315   0.35056  -0.1239  0.0110  1.0000  -0.9468   0.0000   0.0000   0.0000   0.3743
  28.600   0.7992   0.35358   0.35100  -0.1242  0.0108  1.0000  -0.9423   0.0000   0.0000   0.0000   0.3747
  28.700   0.7986   0.35401   0.35144  -0.1245  0.0106  1.0000  -0.9381   0.0000   0.0000   0.0000   0.3750
  28.800   0.7980   0.35444   0.35188  -0.1249  0.0105  1.0000  -0.9342   0.0000   0.0000   0.0000   0.3754
  28.900   0.7974   0.35488   0.35232  -0.1252  0.0103  1.0000  -0.9306   0.0000   0.0000   0.0000   0.3758
  29.000   0.7969   0.35531   0.35276  -0.1255  0.0102  1.0000  -0.9273   0.0000   0.0000   0.0000   0.3761
  29.100   0.7964   0.35575   0.35321  -0.1259  0.0100  1.0000  -0.9243   0.0000   0.0000   0.0000   0.3765
  29.200   0.7958   0.35618   0.35365  -0.1262  0.0099  1.0000  -0.9215   0.0000   0.0000   0.0000   0.3768
  29.300   0.7954   0.35662   0.35410  -0.1265  0.0098  1.0000  -0.9191   0.0000   0.0000   0.0000   0.3772
  29.400   0.7949   0.35705   0.35455  -0.1269  0.0096  1.0000  -0.9169   0.0000   0.0000   0.0000   0.3775
  29.500   0.7944   0.35749   0.35499  -0.1272  0.0095  1.0000  -0.9150   0.0000   0.0000   0.0000   0.3779
  29.600   0.7940   0.35793   0.35544  -0.1276  0.0094  1.0000  -0.9134   0.0000   0.0000   0.0000   0.3782
  29.700   0.7936   0.35837   0.35589  -0.1279  0.0093  1.0000  -0.9122   0.0000   0.0000   0.0000   0.3786
  29.800   0.7931   0.35880   0.35633  -0.1283  0.0091  1.0000  -0.9112   0.0000   0.0000   0.0000   0.3789
  29.900   0.7927   0.35924   0.35677  -0.1286  0.0090  1.0000  -0.9106   0.0000   0.0000   0.0000   0.3792
  30.000   0.7924   0.35967   0.35722  -0.1290  0.0089  1.0000  -0.9103   0.0000   0.0000   0.0000   0.3796


