xflr5 v6.61

 Calculated polar for: SG6043

 1 1 Reynolds number fixed          Mach number fixed         

 xtrf =   1.000 (top)        1.000 (bottom)
 Mach =   0.000     Re =     1.000 e 6     Ncrit =   9.000

  alpha     CL        CD       CDp       Cm    Top Xtr Bot Xtr   Cpmin    Chinge    XCp    
 ------- -------- --------- --------- -------- ------- ------- -------- --------- ---------
 -10.000  -0.1399   0.10924   0.10738  -0.0788  0.9859  0.0105  -1.3772   0.0000   0.0000   0.0000  -0.3460
  -9.900  -0.1343   0.10772   0.10586  -0.0802  0.9856  0.0105  -1.3822   0.0000   0.0000   0.0000  -0.3803
  -9.800  -0.1287   0.10619   0.10433  -0.0815  0.9853  0.0105  -1.3875   0.0000   0.0000   0.0000  -0.4183
  -9.700  -0.1230   0.10465   0.10279  -0.0829  0.9851  0.0105  -1.3930   0.0000   0.0000   0.0000  -0.4605
  -9.600  -0.1172   0.10311   0.10125  -0.0844  0.9849  0.0105  -1.3988   0.0000   0.0000   0.0000  -0.5077
  -9.500  -0.1113   0.10156   0.09970  -0.0858  0.9846  0.0105  -1.4049   0.0000   0.0000   0.0000  -0.5608
  -9.400  -0.1076   0.10020   0.09835  -0.0866  0.9834  0.0105  -1.4119   0.0000   0.0000   0.0000  -0.5944
  -9.300  -0.1051   0.09894   0.09709  -0.0869  0.9813  0.0105  -1.4195   0.0000   0.0000   0.0000  -0.6178
  -9.200  -0.1005   0.09749   0.09564  -0.0880  0.9802  0.0105  -1.4270   0.0000   0.0000   0.0000  -0.6680
  -9.100  -0.0955   0.09601   0.09416  -0.0892  0.9793  0.0105  -1.4350   0.0000   0.0000   0.0000  -0.7288
  -9.000  -0.0902   0.09449   0.09264  -0.0905  0.9785  0.0105  -1.4437   0.0000   0.0000   0.0000  -0.8004
  -8.900  -0.0846   0.09294   0.09109  -0.0919  0.9778  0.0105  -1.4531   0.0000   0.0000   0.0000  -0.8855
  -8.800  -0.0788   0.09135   0.08950  -0.0934  0.9771  0.0105  -1.4637   0.0000   0.0000   0.0000  -0.9870
  -8.700  -0.0730   0.08973   0.08788  -0.0949  0.9766  0.0105  -1.4761   0.0000   0.0000   0.0000  -1.1064
  -8.600  -0.0672   0.08807   0.08622  -0.0965  0.9760  0.0104  -1.4913   0.0000   0.0000   0.0000  -1.2470
  -8.500  -0.0615   0.08633   0.08448  -0.0982  0.9755  0.0104  -1.5125   0.0000   0.0000   0.0000  -1.4116
  -8.400  -0.0570   0.08423   0.08239  -0.0999  0.9750  0.0102  -1.5613   0.0000   0.0000   0.0000  -1.5737
  -8.300  -0.0558   0.08133   0.07948  -0.1021  0.9745  0.0095  -1.6795   0.0000   0.0000   0.0000  -1.6515
  -8.200  -0.0504   0.07934   0.07749  -0.1042  0.9740  0.0091  -1.7232   0.0000   0.0000   0.0000  -1.8951
  -8.100  -0.0515   0.07812   0.07628  -0.1039  0.9698  0.0089  -1.7547   0.0000   0.0000   0.0000  -1.8433
  -8.000  -0.0486   0.07649   0.07466  -0.1051  0.9672  0.0087  -1.7925   0.0000   0.0000   0.0000  -1.9901
  -7.900  -0.0440   0.07467   0.07284  -0.1068  0.9655  0.0086  -1.8353   0.0000   0.0000   0.0000  -2.2650
  -7.800  -0.0387   0.07274   0.07090  -0.1089  0.9641  0.0084  -1.8828   0.0000   0.0000   0.0000  -2.6629
  -7.700  -0.0328   0.07068   0.06884  -0.1112  0.9627  0.0083  -1.9358   0.0000   0.0000   0.0000  -3.2573
  -7.600  -0.0262   0.06845   0.06662  -0.1141  0.9615  0.0082  -1.9991   0.0000   0.0000   0.0000  -4.2541
  -7.500  -0.0185   0.06601   0.06417  -0.1174  0.9603  0.0083  -2.0838   0.0000   0.0000   0.0000  -6.2822
  -7.400  -0.0236   0.06497   0.06314  -0.1164  0.9518  0.0083  -2.1329   0.0000   0.0000   0.0000  -4.8448
  -6.800   0.0358   0.05034   0.04844  -0.1420  0.9310  0.0122  -2.4134   0.0000   0.0000   0.0000   4.3069
  -5.900   0.1429   0.04417   0.04207  -0.1580  0.9016  0.0207  -1.7080   0.0000   0.0000   0.0000   1.3753
  -5.800   0.1520   0.04244   0.04029  -0.1602  0.8973  0.0207  -1.7115   0.0000   0.0000   0.0000   1.3228
  -5.700   0.1617   0.04065   0.03846  -0.1625  0.8933  0.0207  -1.7143   0.0000   0.0000   0.0000   1.2717
  -5.600   0.1720   0.03885   0.03659  -0.1647  0.8895  0.0208  -1.7161   0.0000   0.0000   0.0000   1.2234
  -5.500   0.1825   0.03707   0.03472  -0.1668  0.8857  0.0208  -1.7164   0.0000   0.0000   0.0000   1.1784
  -5.400   0.1933   0.03531   0.03288  -0.1688  0.8819  0.0208  -1.7148   0.0000   0.0000   0.0000   1.1365
  -5.300   0.2017   0.03376   0.03128  -0.1699  0.8792  0.0208  -1.7125   0.0000   0.0000   0.0000   1.1052
  -5.200   0.2106   0.03224   0.02969  -0.1710  0.8762  0.0209  -1.7070   0.0000   0.0000   0.0000   1.0744
  -5.100   0.2199   0.03077   0.02814  -0.1721  0.8731  0.0209  -1.7201   0.0000   0.0000   0.0000   1.0441
  -4.900   0.2344   0.02076   0.01744  -0.1787  0.8652  0.0225  -2.1501   0.0000   0.0000   0.0000   1.0233
  -4.800   0.2448   0.02001   0.01662  -0.1792  0.8626  0.0230  -2.1021   0.0000   0.0000   0.0000   0.9924
  -4.700   0.2557   0.01950   0.01606  -0.1796  0.8600  0.0235  -2.0433   0.0000   0.0000   0.0000   0.9622
  -4.500   0.2773   0.01871   0.01518  -0.1802  0.8557  0.0243  -1.9216   0.0000   0.0000   0.0000   0.9085
  -4.400   0.2873   0.01839   0.01485  -0.1803  0.8541  0.0248  -1.8597   0.0000   0.0000   0.0000   0.8854
  -4.300   0.2975   0.01815   0.01459  -0.1803  0.8522  0.0254  -1.7927   0.0000   0.0000   0.0000   0.8636
  -4.200   0.3078   0.01793   0.01435  -0.1804  0.8502  0.0261  -1.7262   0.0000   0.0000   0.0000   0.8431
  -4.100   0.3184   0.01768   0.01406  -0.1805  0.8479  0.0271  -1.6651   0.0000   0.0000   0.0000   0.8235
  -4.000   0.3292   0.01738   0.01372  -0.1806  0.8455  0.0283  -1.6115   0.0000   0.0000   0.0000   0.8048
  -3.900   0.3402   0.01707   0.01335  -0.1806  0.8431  0.0296  -1.5645   0.0000   0.0000   0.0000   0.7869
  -3.800   0.3514   0.01683   0.01307  -0.1807  0.8407  0.0309  -1.5189   0.0000   0.0000   0.0000   0.7697
  -3.700   0.3628   0.01679   0.01298  -0.1806  0.8382  0.0321  -1.4675   0.0000   0.0000   0.0000   0.7531
  -3.600   0.3743   0.01710   0.01328  -0.1804  0.8356  0.0331  -1.4016   0.0000   0.0000   0.0000   0.7369
  -3.500   0.3861   0.01764   0.01380  -0.1802  0.8328  0.0338  -1.3278   0.0000   0.0000   0.0000   0.7213
  -3.300   0.4091   0.01705   0.01308  -0.1804  0.8287  0.0340  -1.2556   0.0000   0.0000   0.0000   0.6951
  -3.200   0.4202   0.01325   0.00887  -0.1819  0.8274  0.0363  -1.3719   0.0000   0.0000   0.0000   0.6868
  -3.100   0.4310   0.01267   0.00826  -0.1820  0.8260  0.0374  -1.3323   0.0000   0.0000   0.0000   0.6760
  -3.000   0.4420   0.01232   0.00789  -0.1821  0.8244  0.0382  -1.2872   0.0000   0.0000   0.0000   0.6654
  -2.800   0.4669   0.00949   0.00462  -0.1816  0.8211  0.0230  -1.5062   0.0000   0.0000   0.0000   0.6422
  -2.700   0.4781   0.00956   0.00467  -0.1815  0.8190  0.0220  -1.4498   0.0000   0.0000   0.0000   0.6326
  -2.600   0.4893   0.00966   0.00477  -0.1814  0.8168  0.0215  -1.3840   0.0000   0.0000   0.0000   0.6235
  -2.500   0.5009   0.00870   0.00370  -0.1814  0.8147  0.0196  -1.4317   0.0000   0.0000   0.0000   0.6148
  -2.400   0.5124   0.00833   0.00328  -0.1814  0.8124  0.0191  -1.4129   0.0000   0.0000   0.0000   0.6066
  -2.300   0.5238   0.00807   0.00295  -0.1814  0.8100  0.0186  -1.3856   0.0000   0.0000   0.0000   0.5987
  -2.200   0.5353   0.00787   0.00268  -0.1815  0.8074  0.0182  -1.3531   0.0000   0.0000   0.0000   0.5911
  -2.100   0.5471   0.00771   0.00247  -0.1816  0.8045  0.0179  -1.3162   0.0000   0.0000   0.0000   0.5838
  -1.900   0.5706   0.00747   0.00213  -0.1817  0.8001  0.0175  -1.2341   0.0000   0.0000   0.0000   0.5701
  -1.800   0.5817   0.00736   0.00200  -0.1816  0.7988  0.0173  -1.1913   0.0000   0.0000   0.0000   0.5637
  -1.700   0.5929   0.00727   0.00189  -0.1816  0.7971  0.0172  -1.1471   0.0000   0.0000   0.0000   0.5575
  -1.600   0.6041   0.00720   0.00179  -0.1815  0.7953  0.0171  -1.1018   0.0000   0.0000   0.0000   0.5516
  -1.500   0.6153   0.00714   0.00171  -0.1815  0.7932  0.0171  -1.0555   0.0000   0.0000   0.0000   0.5459
  -1.400   0.6265   0.00709   0.00164  -0.1814  0.7910  0.0172  -1.0081   0.0000   0.0000   0.0000   0.5404
  -1.300   0.6377   0.00706   0.00158  -0.1814  0.7887  0.0175  -0.9604   0.0000   0.0000   0.0000   0.5351
  -1.200   0.6489   0.00703   0.00152  -0.1813  0.7862  0.0179  -0.9137   0.0000   0.0000   0.0000   0.5300
  -1.100   0.6601   0.00700   0.00146  -0.1813  0.7836  0.0191  -0.8714   0.0000   0.0000   0.0000   0.5250
  -1.000   0.6717   0.00679   0.00141  -0.1814  0.7809  0.0689  -0.8514   0.0000   0.0000   0.0000   0.5203
  -0.900   0.6827   0.00675   0.00141  -0.1814  0.7780  0.0856  -0.7931   0.0000   0.0000   0.0000   0.5158
  -0.800   0.6939   0.00674   0.00141  -0.1814  0.7747  0.0971  -0.7540   0.0000   0.0000   0.0000   0.5114
  -0.700   0.7055   0.00672   0.00141  -0.1816  0.7708  0.1129  -0.7618   0.0000   0.0000   0.0000   0.5072
  -0.600   0.7164   0.00667   0.00141  -0.1815  0.7694  0.1280  -0.7692   0.0000   0.0000   0.0000   0.5031
  -0.500   0.7274   0.00662   0.00141  -0.1815  0.7677  0.1442  -0.7767   0.0000   0.0000   0.0000   0.4991
  -0.400   0.7385   0.00657   0.00141  -0.1815  0.7657  0.1605  -0.7847   0.0000   0.0000   0.0000   0.4952
  -0.200   0.7605   0.00653   0.00139  -0.1814  0.7607  0.1745  -0.8016   0.0000   0.0000   0.0000   0.4877
  -0.100   0.7717   0.00647   0.00140  -0.1814  0.7578  0.2052  -0.8106   0.0000   0.0000   0.0000   0.4842
   0.000   0.7828   0.00640   0.00141  -0.1815  0.7549  0.2401  -0.8196   0.0000   0.0000   0.0000   0.4808
   0.100   0.7938   0.00633   0.00142  -0.1815  0.7517  0.2812  -0.8285   0.0000   0.0000   0.0000   0.4775
   0.200   0.8048   0.00624   0.00143  -0.1815  0.7482  0.3335  -0.8380   0.0000   0.0000   0.0000   0.4743
   0.300   0.8156   0.00615   0.00146  -0.1816  0.7443  0.3951  -0.8477   0.0000   0.0000   0.0000   0.4712
   0.400   0.8268   0.00605   0.00151  -0.1817  0.7399  0.4644  -0.8576   0.0000   0.0000   0.0000   0.4683
   0.500   0.8379   0.00596   0.00155  -0.1818  0.7379  0.5188  -0.8675   0.0000   0.0000   0.0000   0.4653
   0.600   0.8490   0.00588   0.00158  -0.1818  0.7356  0.5641  -0.8782   0.0000   0.0000   0.0000   0.4624
   0.700   0.8600   0.00581   0.00162  -0.1818  0.7326  0.6112  -0.8899   0.0000   0.0000   0.0000   0.4595
   0.800   0.8708   0.00574   0.00166  -0.1817  0.7290  0.6563  -0.9017   0.0000   0.0000   0.0000   0.4567
   1.000   0.8917   0.00564   0.00174  -0.1814  0.7213  0.7402  -0.9250   0.0000   0.0000   0.0000   0.4512
   1.100   0.9014   0.00560   0.00178  -0.1810  0.7170  0.7823  -0.9363   0.0000   0.0000   0.0000   0.4485
   1.200   0.9104   0.00557   0.00182  -0.1805  0.7124  0.8215  -0.9483   0.0000   0.0000   0.0000   0.4458
   1.300   0.9191   0.00555   0.00186  -0.1799  0.7071  0.8546  -0.9600   0.0000   0.0000   0.0000   0.4431
   1.400   0.9276   0.00550   0.00188  -0.1792  0.7046  0.8875  -0.9718   0.0000   0.0000   0.0000   0.4405
   1.500   0.9334   0.00541   0.00188  -0.1779  0.7014  0.9377  -0.9828   0.0000   0.0000   0.0000   0.4378
   1.600   0.9451   0.00537   0.00186  -0.1779  0.6970  1.0000  -0.9982   0.0000   0.0000   0.0000   0.4353
   1.700   0.9558   0.00541   0.00187  -0.1778  0.6920  1.0000  -1.0132   0.0000   0.0000   0.0000   0.4330
   1.800   0.9662   0.00546   0.00189  -0.1776  0.6865  1.0000  -1.0294   0.0000   0.0000   0.0000   0.4307
   1.900   0.9761   0.00553   0.00191  -0.1774  0.6801  1.0000  -1.0453   0.0000   0.0000   0.0000   0.4284
   2.000   0.9858   0.00560   0.00193  -0.1771  0.6731  1.0000  -1.0610   0.0000   0.0000   0.0000   0.4262
   2.100   0.9969   0.00563   0.00196  -0.1770  0.6694  1.0000  -1.0779   0.0000   0.0000   0.0000   0.4241
   2.200   1.0077   0.00566   0.00198  -0.1770  0.6646  1.0000  -1.0966   0.0000   0.0000   0.0000   0.4220
   2.300   1.0182   0.00571   0.00203  -0.1768  0.6585  1.0000  -1.1177   0.0000   0.0000   0.0000   0.4199
   2.400   1.0282   0.00578   0.00206  -0.1766  0.6519  1.0000  -1.1385   0.0000   0.0000   0.0000   0.4179
   2.500   1.0377   0.00586   0.00209  -0.1762  0.6449  1.0000  -1.1588   0.0000   0.0000   0.0000   0.4158
   2.600   1.0475   0.00594   0.00213  -0.1759  0.6381  1.0000  -1.1795   0.0000   0.0000   0.0000   0.4139
   2.700   1.0583   0.00598   0.00216  -0.1759  0.6327  1.0000  -1.2013   0.0000   0.0000   0.0000   0.4120
   2.800   1.0683   0.00604   0.00219  -0.1756  0.6243  1.0000  -1.2225   0.0000   0.0000   0.0000   0.4101
   2.900   1.0773   0.00615   0.00224  -0.1752  0.6136  1.0000  -1.2426   0.0000   0.0000   0.0000   0.4082
   3.000   1.0860   0.00627   0.00229  -0.1747  0.6030  1.0000  -1.2625   0.0000   0.0000   0.0000   0.4063
   3.100   1.0965   0.00633   0.00233  -0.1745  0.5965  1.0000  -1.2844   0.0000   0.0000   0.0000   0.4045
   3.200   1.1065   0.00640   0.00237  -0.1743  0.5889  1.0000  -1.3058   0.0000   0.0000   0.0000   0.4027
   3.300   1.1159   0.00650   0.00242  -0.1740  0.5808  1.0000  -1.3281   0.0000   0.0000   0.0000   0.4010
   3.400   1.1248   0.00662   0.00248  -0.1735  0.5715  1.0000  -1.3515   0.0000   0.0000   0.0000   0.3992
   3.500   1.1349   0.00668   0.00253  -0.1733  0.5653  1.0000  -1.3765   0.0000   0.0000   0.0000   0.3975
   3.600   1.1452   0.00675   0.00258  -0.1731  0.5588  1.0000  -1.4018   0.0000   0.0000   0.0000   0.3959
   3.700   1.1547   0.00685   0.00264  -0.1728  0.5499  1.0000  -1.4264   0.0000   0.0000   0.0000   0.3942
   3.800   1.1630   0.00699   0.00271  -0.1723  0.5386  1.0000  -1.4496   0.0000   0.0000   0.0000   0.3926
   3.900   1.1723   0.00710   0.00278  -0.1719  0.5291  1.0000  -1.4741   0.0000   0.0000   0.0000   0.3910
   4.000   1.1819   0.00720   0.00284  -0.1716  0.5192  1.0000  -1.4990   0.0000   0.0000   0.0000   0.3894
   4.100   1.1901   0.00736   0.00293  -0.1710  0.5062  1.0000  -1.5223   0.0000   0.0000   0.0000   0.3878
   4.200   1.1986   0.00750   0.00301  -0.1705  0.4946  1.0000  -1.5462   0.0000   0.0000   0.0000   0.3862
   4.300   1.2083   0.00760   0.00308  -0.1703  0.4860  1.0000  -1.5725   0.0000   0.0000   0.0000   0.3847
   4.400   1.2171   0.00773   0.00316  -0.1698  0.4755  1.0000  -1.6040   0.0000   0.0000   0.0000   0.3832
   4.500   1.2251   0.00791   0.00326  -0.1692  0.4630  1.0000  -1.6361   0.0000   0.0000   0.0000   0.3817
   4.600   1.2347   0.00800   0.00333  -0.1690  0.4554  1.0000  -1.6712   0.0000   0.0000   0.0000   0.3803
   4.700   1.2438   0.00812   0.00341  -0.1686  0.4455  1.0000  -1.7057   0.0000   0.0000   0.0000   0.3789
   4.800   1.2518   0.00831   0.00352  -0.1680  0.4330  1.0000  -1.7382   0.0000   0.0000   0.0000   0.3774
   4.900   1.2604   0.00845   0.00361  -0.1675  0.4218  1.0000  -1.7721   0.0000   0.0000   0.0000   0.3760
   5.000   1.2692   0.00859   0.00376  -0.1671  0.4105  1.0000  -1.8075   0.0000   0.0000   0.0000   0.3746
   5.100   1.2761   0.00884   0.00390  -0.1663  0.3939  1.0000  -1.8390   0.0000   0.0000   0.0000   0.3731
   5.200   1.2844   0.00899   0.00400  -0.1658  0.3810  1.0000  -1.8732   0.0000   0.0000   0.0000   0.3718
   5.300   1.2912   0.00925   0.00415  -0.1651  0.3638  1.0000  -1.9046   0.0000   0.0000   0.0000   0.3704
   5.400   1.2990   0.00944   0.00427  -0.1644  0.3490  1.0000  -1.9379   0.0000   0.0000   0.0000   0.3690
   5.500   1.3063   0.00966   0.00441  -0.1638  0.3344  1.0000  -1.9706   0.0000   0.0000   0.0000   0.3676
   5.600   1.3137   0.00988   0.00455  -0.1631  0.3202  1.0000  -2.0034   0.0000   0.0000   0.0000   0.3663
   5.700   1.3224   0.01002   0.00465  -0.1627  0.3119  1.0000  -2.0388   0.0000   0.0000   0.0000   0.3650
   5.800   1.3299   0.01021   0.00478  -0.1620  0.3010  1.0000  -2.0723   0.0000   0.0000   0.0000   0.3637
   5.900   1.3369   0.01042   0.00492  -0.1613  0.2883  1.0000  -2.1049   0.0000   0.0000   0.0000   0.3624
   6.000   1.3453   0.01055   0.00502  -0.1608  0.2814  1.0000  -2.1405   0.0000   0.0000   0.0000   0.3611
   6.100   1.3529   0.01072   0.00515  -0.1602  0.2719  1.0000  -2.1745   0.0000   0.0000   0.0000   0.3599
   6.200   1.3594   0.01096   0.00530  -0.1594  0.2600  1.0000  -2.2068   0.0000   0.0000   0.0000   0.3586
   6.300   1.3676   0.01110   0.00542  -0.1588  0.2524  1.0000  -2.2423   0.0000   0.0000   0.0000   0.3573
   6.400   1.3754   0.01126   0.00555  -0.1582  0.2444  1.0000  -2.2773   0.0000   0.0000   0.0000   0.3561
   6.500   1.3821   0.01148   0.00570  -0.1575  0.2346  1.0000  -2.3103   0.0000   0.0000   0.0000   0.3548
   6.600   1.3892   0.01168   0.00585  -0.1568  0.2248  1.0000  -2.3443   0.0000   0.0000   0.0000   0.3536
   6.700   1.3973   0.01182   0.00597  -0.1562  0.2189  1.0000  -2.3803   0.0000   0.0000   0.0000   0.3524
   6.800   1.4044   0.01202   0.00612  -0.1555  0.2109  1.0000  -2.4146   0.0000   0.0000   0.0000   0.3512
   6.900   1.4107   0.01226   0.00630  -0.1547  0.2007  1.0000  -2.4484   0.0000   0.0000   0.0000   0.3500
   7.000   1.4184   0.01243   0.00643  -0.1541  0.1936  1.0000  -2.4910   0.0000   0.0000   0.0000   0.3488
   7.100   1.4258   0.01260   0.00658  -0.1535  0.1868  1.0000  -2.5333   0.0000   0.0000   0.0000   0.3477
   7.200   1.4319   0.01285   0.00677  -0.1526  0.1778  1.0000  -2.5727   0.0000   0.0000   0.0000   0.3465
   7.300   1.4382   0.01309   0.00695  -0.1518  0.1681  1.0000  -2.6128   0.0000   0.0000   0.0000   0.3453
   7.400   1.4456   0.01326   0.00709  -0.1511  0.1622  1.0000  -2.6556   0.0000   0.0000   0.0000   0.3442
   7.500   1.4517   0.01351   0.00728  -0.1503  0.1544  1.0000  -2.7038   0.0000   0.0000   0.0000   0.3430
   7.600   1.4574   0.01378   0.00749  -0.1494  0.1446  1.0000  -2.7510   0.0000   0.0000   0.0000   0.3418
   7.700   1.4648   0.01395   0.00765  -0.1488  0.1396  1.0000  -2.8038   0.0000   0.0000   0.0000   0.3408
   7.800   1.4718   0.01416   0.00782  -0.1481  0.1341  1.0000  -2.8556   0.0000   0.0000   0.0000   0.3397
   7.900   1.4788   0.01435   0.00806  -0.1474  0.1303  1.0000  -2.9069   0.0000   0.0000   0.0000   0.3386
   8.000   1.4849   0.01460   0.00827  -0.1466  0.1244  1.0000  -2.9563   0.0000   0.0000   0.0000   0.3374
   8.100   1.4916   0.01481   0.00846  -0.1458  0.1185  1.0000  -3.0079   0.0000   0.0000   0.0000   0.3364
   8.200   1.4989   0.01498   0.00862  -0.1452  0.1157  1.0000  -3.0622   0.0000   0.0000   0.0000   0.3353
   8.300   1.5057   0.01518   0.00881  -0.1445  0.1118  1.0000  -3.1152   0.0000   0.0000   0.0000   0.3343
   8.400   1.5120   0.01541   0.00901  -0.1438  0.1074  1.0000  -3.1670   0.0000   0.0000   0.0000   0.3332
   8.500   1.5179   0.01567   0.00923  -0.1429  0.1024  1.0000  -3.2179   0.0000   0.0000   0.0000   0.3321
   8.600   1.5245   0.01590   0.00945  -0.1422  0.0972  1.0000  -3.2708   0.0000   0.0000   0.0000   0.3311
   8.700   1.5321   0.01606   0.00961  -0.1417  0.0956  1.0000  -3.3274   0.0000   0.0000   0.0000   0.3301
   8.800   1.5392   0.01624   0.00980  -0.1410  0.0937  1.0000  -3.3833   0.0000   0.0000   0.0000   0.3291
   8.900   1.5460   0.01644   0.00999  -0.1404  0.0913  1.0000  -3.4383   0.0000   0.0000   0.0000   0.3281
   9.000   1.5524   0.01667   0.01020  -0.1397  0.0887  1.0000  -3.4923   0.0000   0.0000   0.0000   0.3271
   9.100   1.5585   0.01692   0.01043  -0.1389  0.0858  1.0000  -3.5456   0.0000   0.0000   0.0000   0.3261
   9.200   1.5644   0.01718   0.01067  -0.1381  0.0824  1.0000  -3.5985   0.0000   0.0000   0.0000   0.3251
   9.300   1.5706   0.01742   0.01091  -0.1373  0.0787  1.0000  -3.6523   0.0000   0.0000   0.0000   0.3241
   9.400   1.5775   0.01762   0.01112  -0.1367  0.0767  1.0000  -3.7087   0.0000   0.0000   0.0000   0.3232
   9.500   1.5846   0.01780   0.01132  -0.1361  0.0757  1.0000  -3.7669   0.0000   0.0000   0.0000   0.3222
   9.600   1.5913   0.01801   0.01153  -0.1355  0.0742  1.0000  -3.8238   0.0000   0.0000   0.0000   0.3213
   9.700   1.5975   0.01825   0.01176  -0.1348  0.0722  1.0000  -3.8794   0.0000   0.0000   0.0000   0.3204
   9.800   1.6033   0.01851   0.01202  -0.1340  0.0698  1.0000  -3.9337   0.0000   0.0000   0.0000   0.3194
   9.900   1.6088   0.01880   0.01229  -0.1332  0.0674  1.0000  -3.9939   0.0000   0.0000   0.0000   0.3185
  10.000   1.6142   0.01911   0.01257  -0.1324  0.0646  1.0000  -4.0587   0.0000   0.0000   0.0000   0.3175
  10.100   1.6197   0.01940   0.01287  -0.1316  0.0614  1.0000  -4.1243   0.0000   0.0000   0.0000   0.3166
  10.200   1.6259   0.01966   0.01314  -0.1309  0.0591  1.0000  -4.1927   0.0000   0.0000   0.0000   0.3157
  10.300   1.6324   0.01989   0.01337  -0.1303  0.0583  1.0000  -4.2641   0.0000   0.0000   0.0000   0.3148
  10.400   1.6385   0.02014   0.01364  -0.1296  0.0569  1.0000  -4.3337   0.0000   0.0000   0.0000   0.3139
  10.500   1.6440   0.02044   0.01392  -0.1288  0.0551  1.0000  -4.4015   0.0000   0.0000   0.0000   0.3130
  10.600   1.6490   0.02077   0.01424  -0.1280  0.0529  1.0000  -4.4676   0.0000   0.0000   0.0000   0.3121
  10.700   1.6512   0.02130   0.01471  -0.1268  0.0461  1.0000  -4.5203   0.0000   0.0000   0.0000   0.3111
  10.800   1.6567   0.02161   0.01502  -0.1261  0.0435  1.0000  -4.5883   0.0000   0.0000   0.0000   0.3102
  10.900   1.6627   0.02189   0.01531  -0.1255  0.0426  1.0000  -4.6595   0.0000   0.0000   0.0000   0.3094
  11.000   1.6682   0.02219   0.01562  -0.1248  0.0417  1.0000  -4.7289   0.0000   0.0000   0.0000   0.3085
  11.100   1.6733   0.02250   0.01594  -0.1240  0.0407  1.0000  -4.7974   0.0000   0.0000   0.0000   0.3077
  11.200   1.6783   0.02283   0.01628  -0.1232  0.0396  1.0000  -4.8652   0.0000   0.0000   0.0000   0.3068
  11.300   1.6832   0.02318   0.01663  -0.1225  0.0386  1.0000  -4.9330   0.0000   0.0000   0.0000   0.3060
  11.400   1.6880   0.02354   0.01699  -0.1217  0.0374  1.0000  -5.0009   0.0000   0.0000   0.0000   0.3051
  11.500   1.6927   0.02392   0.01735  -0.1209  0.0363  1.0000  -5.0688   0.0000   0.0000   0.0000   0.3043
  11.600   1.6974   0.02430   0.01773  -0.1202  0.0350  1.0000  -5.1366   0.0000   0.0000   0.0000   0.3034
  11.700   1.7019   0.02468   0.01813  -0.1194  0.0337  1.0000  -5.2040   0.0000   0.0000   0.0000   0.3026
  11.800   1.7065   0.02508   0.01853  -0.1186  0.0324  1.0000  -5.2715   0.0000   0.0000   0.0000   0.3018
  11.900   1.7111   0.02547   0.01894  -0.1179  0.0313  1.0000  -5.3398   0.0000   0.0000   0.0000   0.3010
  12.000   1.7163   0.02583   0.01932  -0.1172  0.0307  1.0000  -5.4109   0.0000   0.0000   0.0000   0.3002
  12.100   1.7219   0.02616   0.01967  -0.1166  0.0305  1.0000  -5.4854   0.0000   0.0000   0.0000   0.2994
  12.200   1.7274   0.02649   0.02003  -0.1160  0.0303  1.0000  -5.5598   0.0000   0.0000   0.0000   0.2987
  12.300   1.7327   0.02685   0.02041  -0.1154  0.0300  1.0000  -5.6335   0.0000   0.0000   0.0000   0.2979
  12.400   1.7375   0.02724   0.02082  -0.1148  0.0296  1.0000  -5.7052   0.0000   0.0000   0.0000   0.2972
  12.500   1.7421   0.02764   0.02125  -0.1141  0.0291  1.0000  -5.7761   0.0000   0.0000   0.0000   0.2964
  12.600   1.7466   0.02806   0.02168  -0.1134  0.0286  1.0000  -5.8471   0.0000   0.0000   0.0000   0.2957
  12.700   1.7511   0.02849   0.02213  -0.1128  0.0279  1.0000  -5.9182   0.0000   0.0000   0.0000   0.2949
  12.800   1.7555   0.02893   0.02258  -0.1121  0.0271  1.0000  -5.9891   0.0000   0.0000   0.0000   0.2942
  12.900   1.7596   0.02940   0.02306  -0.1114  0.0262  1.0000  -6.0589   0.0000   0.0000   0.0000   0.2934
  13.000   1.7633   0.02990   0.02356  -0.1107  0.0253  1.0000  -6.1273   0.0000   0.0000   0.0000   0.2927
  13.100   1.7662   0.03046   0.02412  -0.1099  0.0243  1.0000  -6.1919   0.0000   0.0000   0.0000   0.2920
  13.200   1.7689   0.03104   0.02470  -0.1091  0.0233  1.0000  -6.2557   0.0000   0.0000   0.0000   0.2912
  13.300   1.7719   0.03160   0.02527  -0.1084  0.0223  1.0000  -6.3210   0.0000   0.0000   0.0000   0.2905
  13.400   1.7754   0.03213   0.02581  -0.1077  0.0212  1.0000  -6.3885   0.0000   0.0000   0.0000   0.2898
  13.500   1.7791   0.03265   0.02634  -0.1070  0.0202  1.0000  -6.4574   0.0000   0.0000   0.0000   0.2891
  13.600   1.7832   0.03314   0.02686  -0.1064  0.0198  1.0000  -6.5287   0.0000   0.0000   0.0000   0.2884
  13.700   1.7869   0.03364   0.02739  -0.1058  0.0195  1.0000  -6.5989   0.0000   0.0000   0.0000   0.2877
  13.800   1.7898   0.03421   0.02798  -0.1051  0.0192  1.0000  -6.6652   0.0000   0.0000   0.0000   0.2870
  13.900   1.7926   0.03479   0.02858  -0.1044  0.0189  1.0000  -6.7312   0.0000   0.0000   0.0000   0.2863
  14.000   1.7959   0.03534   0.02921  -0.1038  0.0189  1.0000  -6.8005   0.0000   0.0000   0.0000   0.2856
  14.100   1.7992   0.03592   0.02981  -0.1032  0.0186  1.0000  -6.8692   0.0000   0.0000   0.0000   0.2850
  14.200   1.8024   0.03650   0.03041  -0.1026  0.0182  1.0000  -6.9381   0.0000   0.0000   0.0000   0.2843
  14.300   1.8055   0.03710   0.03104  -0.1020  0.0177  1.0000  -7.0081   0.0000   0.0000   0.0000   0.2837
  14.400   1.8083   0.03775   0.03170  -0.1014  0.0172  1.0000  -7.1117   0.0000   0.0000   0.0000   0.2830
  14.500   1.8101   0.03849   0.03246  -0.1007  0.0167  1.0000  -7.2086   0.0000   0.0000   0.0000   0.2824
  14.600   1.8118   0.03925   0.03324  -0.1001  0.0162  1.0000  -7.3052   0.0000   0.0000   0.0000   0.2818
  14.700   1.8137   0.04001   0.03401  -0.0995  0.0156  1.0000  -7.4036   0.0000   0.0000   0.0000   0.2812
  14.800   1.8157   0.04077   0.03478  -0.0989  0.0151  1.0000  -7.5028   0.0000   0.0000   0.0000   0.2806
  14.900   1.8177   0.04153   0.03556  -0.0983  0.0145  1.0000  -7.6028   0.0000   0.0000   0.0000   0.2800
  15.000   1.8198   0.04230   0.03634  -0.0978  0.0139  1.0000  -7.7040   0.0000   0.0000   0.0000   0.2794
  15.100   1.8214   0.04312   0.03718  -0.0972  0.0133  1.0000  -7.8016   0.0000   0.0000   0.0000   0.2788
  15.200   1.8226   0.04400   0.03808  -0.0967  0.0128  1.0000  -7.8959   0.0000   0.0000   0.0000   0.2782
  15.300   1.8242   0.04483   0.03894  -0.0962  0.0122  1.0000  -7.9946   0.0000   0.0000   0.0000   0.2777
  15.400   1.8263   0.04563   0.03977  -0.0957  0.0118  1.0000  -8.0969   0.0000   0.0000   0.0000   0.2771
  15.500   1.8287   0.04641   0.04057  -0.0952  0.0115  1.0000  -8.2028   0.0000   0.0000   0.0000   0.2766
  15.600   1.8313   0.04715   0.04135  -0.0948  0.0114  1.0000  -8.3122   0.0000   0.0000   0.0000   0.2761
  15.700   1.8339   0.04791   0.04214  -0.0944  0.0113  1.0000  -8.4210   0.0000   0.0000   0.0000   0.2755
  15.800   1.8357   0.04876   0.04302  -0.0940  0.0112  1.0000  -8.5245   0.0000   0.0000   0.0000   0.2750
  15.900   1.8367   0.04972   0.04401  -0.0936  0.0111  1.0000  -8.6206   0.0000   0.0000   0.0000   0.2745
  16.000   1.8380   0.05065   0.04497  -0.0932  0.0109  1.0000  -8.7198   0.0000   0.0000   0.0000   0.2740
  16.100   1.8396   0.05154   0.04589  -0.0929  0.0107  1.0000  -8.8222   0.0000   0.0000   0.0000   0.2736
  16.200   1.8412   0.05244   0.04682  -0.0925  0.0106  1.0000  -8.9259   0.0000   0.0000   0.0000   0.2731
  16.300   1.8429   0.05334   0.04775  -0.0922  0.0104  1.0000  -9.0294   0.0000   0.0000   0.0000   0.2726
  16.400   1.8443   0.05427   0.04870  -0.0918  0.0101  1.0000  -9.1317   0.0000   0.0000   0.0000   0.2721
  16.500   1.8444   0.05536   0.04983  -0.0915  0.0099  1.0000  -9.2226   0.0000   0.0000   0.0000   0.2717
  16.600   1.8442   0.05652   0.05102  -0.0912  0.0097  1.0000  -9.3099   0.0000   0.0000   0.0000   0.2713
  16.700   1.8445   0.05761   0.05215  -0.0909  0.0095  1.0000  -9.4026   0.0000   0.0000   0.0000   0.2709
  16.800   1.8450   0.05868   0.05324  -0.0907  0.0092  1.0000  -9.4975   0.0000   0.0000   0.0000   0.2705
  16.900   1.8455   0.05976   0.05434  -0.0904  0.0090  1.0000  -9.5924   0.0000   0.0000   0.0000   0.2701
  17.000   1.8458   0.06086   0.05547  -0.0902  0.0087  1.0000  -9.6860   0.0000   0.0000   0.0000   0.2697
  17.100   1.8448   0.06216   0.05680  -0.0900  0.0085  1.0000  -9.7670   0.0000   0.0000   0.0000   0.2694
  17.200   1.8432   0.06354   0.05821  -0.0898  0.0082  1.0000  -9.8426   0.0000   0.0000   0.0000   0.2691
  17.300   1.8421   0.06481   0.05952  -0.0897  0.0080  1.0000  -9.9237   0.0000   0.0000   0.0000   0.2688
  17.400   1.8413   0.06604   0.06078  -0.0895  0.0077  1.0000  -10.0069   0.0000   0.0000   0.0000   0.2684
  17.500   1.8406   0.06728   0.06204  -0.0894  0.0075  1.0000  -10.0912   0.0000   0.0000   0.0000   0.2681
  17.600   1.8395   0.06860   0.06339  -0.0893  0.0072  1.0000  -10.1715   0.0000   0.0000   0.0000   0.2678
  17.700   1.8367   0.07020   0.06502  -0.0893  0.0070  1.0000  -10.2353   0.0000   0.0000   0.0000   0.2677
  17.800   1.8350   0.07166   0.06652  -0.0893  0.0067  1.0000  -10.3093   0.0000   0.0000   0.0000   0.2674
  17.900   1.8342   0.07301   0.06790  -0.0892  0.0064  1.0000  -10.3923   0.0000   0.0000   0.0000   0.2672
  18.000   1.8335   0.07435   0.06930  -0.0893  0.0060  1.0000  -10.4738   0.0000   0.0000   0.0000   0.2669
  18.100   1.8330   0.07568   0.07066  -0.0893  0.0056  1.0000  -10.5567   0.0000   0.0000   0.0000   0.2667
  18.200   1.8308   0.07730   0.07232  -0.0894  0.0054  1.0000  -10.6240   0.0000   0.0000   0.0000   0.2666
  18.300   1.8287   0.07892   0.07398  -0.0896  0.0053  1.0000  -10.6935   0.0000   0.0000   0.0000   0.2665
  18.400   1.8277   0.08037   0.07547  -0.0898  0.0053  1.0000  -10.7742   0.0000   0.0000   0.0000   0.2663
  18.500   1.8270   0.08178   0.07692  -0.0899  0.0052  1.0000  -10.8575   0.0000   0.0000   0.0000   0.2661
  18.600   1.8262   0.08321   0.07838  -0.0901  0.0051  1.0000  -10.9402   0.0000   0.0000   0.0000   0.2660
  18.700   1.8244   0.08481   0.08002  -0.0903  0.0051  1.0000  -11.0117   0.0000   0.0000   0.0000   0.2659
  18.800   1.8209   0.08673   0.08199  -0.0907  0.0050  1.0000  -11.0644   0.0000   0.0000   0.0000   0.2659
  18.900   1.8189   0.08840   0.08370  -0.0911  0.0049  1.0000  -11.1322   0.0000   0.0000   0.0000   0.2659
  19.000   1.8172   0.09000   0.08533  -0.0914  0.0048  1.0000  -11.2045   0.0000   0.0000   0.0000   0.2658
  19.100   1.8155   0.09160   0.08697  -0.0917  0.0047  1.0000  -11.2756   0.0000   0.0000   0.0000   0.2657
  19.200   1.8128   0.09339   0.08880  -0.0921  0.0045  1.0000  -11.3343   0.0000   0.0000   0.0000   0.2658
  19.300   1.8079   0.09558   0.09105  -0.0927  0.0044  1.0000  -11.3694   0.0000   0.0000   0.0000   0.2660
  19.400   1.8045   0.09752   0.09302  -0.0933  0.0042  1.0000  -11.4188   0.0000   0.0000   0.0000   0.2661
  19.500   1.8009   0.09945   0.09498  -0.0938  0.0038  1.0000  -11.4662   0.0000   0.0000   0.0000   0.2662
  19.600   1.7960   0.10158   0.09715  -0.0945  0.0034  1.0000  -11.4984   0.0000   0.0000   0.0000   0.2664
  19.700   1.7896   0.10410   0.09972  -0.0954  0.0032  1.0000  -11.5105   0.0000   0.0000   0.0000   0.2668
  19.800   1.7808   0.10695   0.10261  -0.0964  0.0027  1.0000  -11.4958   0.0000   0.0000   0.0000   0.2674
  19.900   1.7716   0.10982   0.10552  -0.0975  0.0022  1.0000  -11.4763   0.0000   0.0000   0.0000   0.2680
  20.000   1.7621   0.11289   0.10865  -0.0988  0.0019  1.0000  -11.4491   0.0000   0.0000   0.0000   0.2687
  20.100   1.7536   0.11577   0.11157  -0.1000  0.0016  1.0000  -11.4314   0.0000   0.0000   0.0000   0.2694
  20.200   1.7486   0.11801   0.11385  -0.1009  0.0015  1.0000  -11.4527   0.0000   0.0000   0.0000   0.2699
  20.300   1.7430   0.12039   0.11627  -0.1020  0.0014  1.0000  -11.4657   0.0000   0.0000   0.0000   0.2704
  20.400   1.7351   0.12329   0.11924  -0.1034  0.0014  1.0000  -11.4476   0.0000   0.0000   0.0000   0.2712
  20.500   1.7289   0.12580   0.12179  -0.1046  0.0013  1.0000  -11.4497   0.0000   0.0000   0.0000   0.2718
  20.600   1.7230   0.12825   0.12428  -0.1058  0.0013  1.0000  -11.4530   0.0000   0.0000   0.0000   0.2724
  20.700   1.7151   0.13116   0.12725  -0.1074  0.0012  1.0000  -11.4307   0.0000   0.0000   0.0000   0.2733
  20.800   1.7077   0.13397   0.13011  -0.1089  0.0012  1.0000  -11.4111   0.0000   0.0000   0.0000   0.2742
  20.900   1.7013   0.13655   0.13273  -0.1103  0.0011  1.0000  -11.4017   0.0000   0.0000   0.0000   0.2750
  21.000   1.6946   0.13908   0.13532  -0.1118  0.0011  1.0000  -11.3856   0.0000   0.0000   0.0000   0.2759
  21.100   1.6862   0.14194   0.13824  -0.1137  0.0011  1.0000  -11.3457   0.0000   0.0000   0.0000   0.2770
  21.200   1.6796   0.14441   0.14076  -0.1152  0.0010  1.0000  -11.3268   0.0000   0.0000   0.0000   0.2779
  21.300   1.6733   0.14690   0.14328  -0.1168  0.0010  1.0000  -11.3088   0.0000   0.0000   0.0000   0.2788
  21.400   1.6647   0.14998   0.14643  -0.1188  0.0010  1.0000  -11.2595   0.0000   0.0000   0.0000   0.2802
  21.500   1.6576   0.15277   0.14927  -0.1206  0.0010  1.0000  -11.2279   0.0000   0.0000   0.0000   0.2813
  21.600   1.6513   0.15545   0.15200  -0.1223  0.0009  1.0000  -11.2034   0.0000   0.0000   0.0000   0.2823
  21.700   1.6434   0.15857   0.15518  -0.1243  0.0009  1.0000  -11.1563   0.0000   0.0000   0.0000   0.2836
  21.800   1.6352   0.16180   0.15847  -0.1263  0.0009  1.0000  -11.1050   0.0000   0.0000   0.0000   0.2850
  21.900   1.6288   0.16469   0.16140  -0.1281  0.0009  1.0000  -11.0729   0.0000   0.0000   0.0000   0.2861
  22.000   1.6222   0.16766   0.16442  -0.1300  0.0008  1.0000  -11.0363   0.0000   0.0000   0.0000   0.2873
  22.100   1.6124   0.17147   0.16830  -0.1324  0.0009  1.0000  -10.9581   0.0000   0.0000   0.0000   0.2890
  22.200   1.6056   0.17461   0.17149  -0.1343  0.0008  1.0000  -10.9153   0.0000   0.0000   0.0000   0.2903
  22.300   1.5991   0.17773   0.17466  -0.1362  0.0008  1.0000  -10.8738   0.0000   0.0000   0.0000   0.2916
  22.400   1.5895   0.18172   0.17872  -0.1387  0.0008  1.0000  -10.7890   0.0000   0.0000   0.0000   0.2934
  22.500   1.5819   0.18524   0.18229  -0.1408  0.0008  1.0000  -10.7292   0.0000   0.0000   0.0000   0.2950
  22.600   1.5753   0.18855   0.18564  -0.1428  0.0008  1.0000  -10.6806   0.0000   0.0000   0.0000   0.2964
  22.700   1.5679   0.19212   0.18927  -0.1450  0.0008  1.0000  -10.6195   0.0000   0.0000   0.0000   0.2979
  22.800   1.5579   0.19655   0.19376  -0.1476  0.0009  1.0000  -10.5161   0.0000   0.0000   0.0000   0.3000
  22.900   1.5510   0.20011   0.19737  -0.1497  0.0009  1.0000  -10.4570   0.0000   0.0000   0.0000   0.3015
  23.000   1.5444   0.20366   0.20097  -0.1517  0.0008  1.0000  -10.3994   0.0000   0.0000   0.0000   0.3030
  23.100   1.5344   0.20830   0.20568  -0.1543  0.0009  1.0000  -10.2870   0.0000   0.0000   0.0000   0.3052
  23.200   1.5267   0.21232   0.20976  -0.1566  0.0009  1.0000  -10.2070   0.0000   0.0000   0.0000   0.3069
  23.300   1.5203   0.21601   0.21349  -0.1587  0.0009  1.0000  -10.1453   0.0000   0.0000   0.0000   0.3085
  23.400   1.5135   0.21986   0.21738  -0.1608  0.0009  1.0000  -10.0759   0.0000   0.0000   0.0000   0.3101
  23.500   1.5032   0.22493   0.22253  -0.1635  0.0010  1.0000  -9.9444   0.0000   0.0000   0.0000   0.3125
  23.600   1.4964   0.22899   0.22662  -0.1656  0.0010  1.0000  -9.8667   0.0000   0.0000   0.0000   0.3142
  23.700   1.4902   0.23287   0.23054  -0.1677  0.0010  1.0000  -9.7988   0.0000   0.0000   0.0000   0.3158
  23.800   1.4836   0.23691   0.23463  -0.1698  0.0010  1.0000  -9.7227   0.0000   0.0000   0.0000   0.3175
  23.900   1.4739   0.24217   0.23996  -0.1724  0.0010  1.0000  -9.5851   0.0000   0.0000   0.0000   0.3199
  24.000   1.4667   0.24659   0.24443  -0.1746  0.0010  1.0000  -9.4918   0.0000   0.0000   0.0000   0.3218
  24.100   1.4607   0.25067   0.24854  -0.1766  0.0010  1.0000  -9.4174   0.0000   0.0000   0.0000   0.3234
  24.200   1.4549   0.25472   0.25262  -0.1785  0.0010  1.0000  -9.3448   0.0000   0.0000   0.0000   0.3251
  24.300   1.4482   0.25918   0.25712  -0.1806  0.0010  1.0000  -9.2519   0.0000   0.0000   0.0000   0.3269
  24.400   1.4375   0.26519   0.26321  -0.1832  0.0011  1.0000  -9.0804   0.0000   0.0000   0.0000   0.3296
  24.500   1.4317   0.26945   0.26750  -0.1851  0.0011  1.0000  -8.9998   0.0000   0.0000   0.0000   0.3312
  24.600   1.4264   0.27352   0.27160  -0.1869  0.0010  1.0000  -8.9294   0.0000   0.0000   0.0000   0.3328
  24.700   1.4210   0.27769   0.27580  -0.1887  0.0010  1.0000  -8.8541   0.0000   0.0000   0.0000   0.3343
  24.800   1.4146   0.28229   0.28043  -0.1906  0.0010  1.0000  -8.7576   0.0000   0.0000   0.0000   0.3361
  24.900   1.4034   0.28890   0.28713  -0.1931  0.0011  1.0000  -8.5595   0.0000   0.0000   0.0000   0.3389
  25.000   1.3971   0.29355   0.29181  -0.1949  0.0011  1.0000  -8.4617   0.0000   0.0000   0.0000   0.3407
  25.100   1.3917   0.29783   0.29612  -0.1965  0.0010  1.0000  -8.3828   0.0000   0.0000   0.0000   0.3422
  25.200   1.3864   0.30209   0.30040  -0.1981  0.0010  1.0000  -8.3047   0.0000   0.0000   0.0000   0.3437
  25.300   1.3807   0.30654   0.30487  -0.1996  0.0010  1.0000  -8.2166   0.0000   0.0000   0.0000   0.3453
  25.400   1.3732   0.31171   0.31009  -0.2013  0.0010  1.0000  -8.0913   0.0000   0.0000   0.0000   0.3472
  25.500   1.3605   0.31905   0.31751  -0.2035  0.0011  1.0000  -7.8563   0.0000   0.0000   0.0000   0.3502
  25.600   1.3536   0.32386   0.32235  -0.2049  0.0010  1.0000  -7.7488   0.0000   0.0000   0.0000   0.3518
  25.700   1.3472   0.32837   0.32688  -0.2062  0.0010  1.0000  -7.6540   0.0000   0.0000   0.0000   0.3534
  25.800   1.3405   0.33283   0.33137  -0.2073  0.0010  1.0000  -7.5583   0.0000   0.0000   0.0000   0.3548
  25.900   1.3320   0.33778   0.33635  -0.2084  0.0010  1.0000  -7.4345   0.0000   0.0000   0.0000   0.3566
  26.100   1.2976   0.35154   0.35024  -0.2101  0.0011  1.0000  -6.9291   0.0000   0.0000   0.0000   0.3623


