xflr5 v6.61

 Calculated polar for: SG6042

 1 1 Reynolds number fixed          Mach number fixed         

 xtrf =   1.000 (top)        1.000 (bottom)
 Mach =   0.000     Re =     0.719 e 6     Ncrit =   9.000

  alpha     CL        CD       CDp       Cm    Top Xtr Bot Xtr   Cpmin    Chinge    XCp    
 ------- -------- --------- --------- -------- ------- ------- -------- --------- ---------
 -10.000  -0.3359   0.11581   0.11378  -0.0348  0.9992  0.0107  -1.6593   0.0000   0.0000   0.0000   0.1360
  -9.900  -0.3313   0.11411   0.11208  -0.0362  0.9988  0.0107  -1.6668   0.0000   0.0000   0.0000   0.1304
  -9.800  -0.3264   0.11239   0.11036  -0.0376  0.9984  0.0107  -1.6744   0.0000   0.0000   0.0000   0.1244
  -9.700  -0.3215   0.11067   0.10864  -0.0390  0.9980  0.0107  -1.6823   0.0000   0.0000   0.0000   0.1181
  -9.600  -0.3168   0.10894   0.10691  -0.0404  0.9975  0.0107  -1.6904   0.0000   0.0000   0.0000   0.1119
  -9.500  -0.3120   0.10722   0.10519  -0.0418  0.9970  0.0107  -1.6989   0.0000   0.0000   0.0000   0.1054
  -9.400  -0.3073   0.10551   0.10348  -0.0432  0.9964  0.0107  -1.7077   0.0000   0.0000   0.0000   0.0987
  -9.300  -0.3025   0.10379   0.10176  -0.0446  0.9958  0.0107  -1.7168   0.0000   0.0000   0.0000   0.0916
  -9.200  -0.2977   0.10206   0.10004  -0.0461  0.9953  0.0107  -1.7263   0.0000   0.0000   0.0000   0.0842
  -9.100  -0.2928   0.10033   0.09831  -0.0476  0.9947  0.0107  -1.7362   0.0000   0.0000   0.0000   0.0765
  -9.000  -0.2879   0.09860   0.09658  -0.0492  0.9942  0.0107  -1.7466   0.0000   0.0000   0.0000   0.0683
  -8.900  -0.2830   0.09687   0.09484  -0.0507  0.9937  0.0107  -1.7573   0.0000   0.0000   0.0000   0.0596
  -8.800  -0.2780   0.09512   0.09309  -0.0524  0.9932  0.0107  -1.7685   0.0000   0.0000   0.0000   0.0504
  -8.700  -0.2726   0.09333   0.09131  -0.0541  0.9928  0.0107  -1.7802   0.0000   0.0000   0.0000   0.0403
  -8.600  -0.2676   0.09156   0.08954  -0.0557  0.9920  0.0107  -1.7924   0.0000   0.0000   0.0000   0.0304
  -8.500  -0.2631   0.08982   0.08781  -0.0572  0.9907  0.0107  -1.8052   0.0000   0.0000   0.0000   0.0210
  -8.400  -0.2582   0.08805   0.08603  -0.0589  0.9896  0.0107  -1.8186   0.0000   0.0000   0.0000   0.0104
  -8.300  -0.2531   0.08623   0.08422  -0.0607  0.9885  0.0107  -1.8328   0.0000   0.0000   0.0000  -0.0014
  -8.200  -0.2477   0.08439   0.08238  -0.0626  0.9875  0.0107  -1.8478   0.0000   0.0000   0.0000  -0.0144
  -8.100  -0.2420   0.08250   0.08049  -0.0646  0.9866  0.0107  -1.8638   0.0000   0.0000   0.0000  -0.0290
  -8.000  -0.2360   0.08056   0.07855  -0.0669  0.9857  0.0107  -1.8808   0.0000   0.0000   0.0000  -0.0453
  -7.900  -0.2297   0.07857   0.07656  -0.0692  0.9850  0.0107  -1.8991   0.0000   0.0000   0.0000  -0.0635
  -7.800  -0.2232   0.07653   0.07452  -0.0717  0.9843  0.0107  -1.9189   0.0000   0.0000   0.0000  -0.0838
  -7.700  -0.2184   0.07463   0.07263  -0.0738  0.9825  0.0107  -1.9399   0.0000   0.0000   0.0000  -0.1003
  -7.600  -0.2150   0.07284   0.07084  -0.0755  0.9794  0.0107  -1.9622   0.0000   0.0000   0.0000  -0.1135
  -7.500  -0.2096   0.07079   0.06880  -0.0780  0.9773  0.0107  -1.9874   0.0000   0.0000   0.0000  -0.1346
  -7.400  -0.2032   0.06855   0.06656  -0.0811  0.9755  0.0107  -2.0161   0.0000   0.0000   0.0000  -0.1618
  -7.300  -0.1949   0.06594   0.06395  -0.0852  0.9741  0.0107  -2.0505   0.0000   0.0000   0.0000  -0.2003
  -7.200  -0.1846   0.06294   0.06094  -0.0905  0.9731  0.0107  -2.0945   0.0000   0.0000   0.0000  -0.2535
  -7.100  -0.1730   0.05936   0.05735  -0.0971  0.9723  0.0107  -2.1570   0.0000   0.0000   0.0000  -0.3257
  -7.000  -0.1790   0.05138   0.04928  -0.1069  0.9637  0.0098  -2.5561   0.0000   0.0000   0.0000  -0.3606
  -6.900  -0.1719   0.04533   0.04309  -0.1143  0.9608  0.0093  -2.8115   0.0000   0.0000   0.0000  -0.4291
  -6.800  -0.1639   0.03969   0.03727  -0.1199  0.9586  0.0089  -3.0631   0.0000   0.0000   0.0000  -0.4965
  -6.700  -0.1640   0.03563   0.03303  -0.1212  0.9526  0.0086  -3.2794   0.0000   0.0000   0.0000  -0.5045
  -6.600  -0.1654   0.02753   0.02445  -0.1238  0.9469  0.0080  -3.8428   0.0000   0.0000   0.0000  -0.5148
  -6.500  -0.1631   0.02091   0.01716  -0.1251  0.9435  0.0077  -4.3317   0.0000   0.0000   0.0000  -0.5340
  -6.400  -0.1534   0.01858   0.01451  -0.1257  0.9419  0.0077  -4.4049   0.0000   0.0000   0.0000  -0.5877
  -6.300  -0.1444   0.01723   0.01295  -0.1257  0.9397  0.0078  -4.3931   0.0000   0.0000   0.0000  -0.6390
  -6.200  -0.1370   0.01632   0.01190  -0.1252  0.9367  0.0080  -4.3654   0.0000   0.0000   0.0000  -0.6834
  -6.100  -0.1275   0.01560   0.01105  -0.1250  0.9342  0.0083  -4.3179   0.0000   0.0000   0.0000  -0.7505
  -6.000  -0.1170   0.01510   0.01048  -0.1249  0.9321  0.0087  -4.2386   0.0000   0.0000   0.0000  -0.8399
  -5.900  -0.1058   0.01482   0.01015  -0.1250  0.9303  0.0091  -4.1299   0.0000   0.0000   0.0000  -0.9556
  -5.800  -0.0939   0.01471   0.01003  -0.1252  0.9286  0.0095  -3.9982   0.0000   0.0000   0.0000  -1.1085
  -5.700  -0.0815   0.01473   0.01004  -0.1255  0.9271  0.0099  -3.8501   0.0000   0.0000   0.0000  -1.3190
  -5.600  -0.0687   0.01485   0.01018  -0.1258  0.9257  0.0101  -3.6909   0.0000   0.0000   0.0000  -1.6146
  -5.500  -0.0557   0.01513   0.01049  -0.1262  0.9244  0.0104  -3.5203   0.0000   0.0000   0.0000  -2.0578
  -5.400  -0.0419   0.01585   0.01131  -0.1266  0.9232  0.0106  -3.3150   0.0000   0.0000   0.0000  -2.8234
  -5.300  -0.0346   0.01346   0.00854  -0.1266  0.9208  0.0130  -3.3772   0.0000   0.0000   0.0000  -3.4745
  -5.200  -0.0250   0.01332   0.00839  -0.1264  0.9186  0.0135  -3.2624   0.0000   0.0000   0.0000  -4.8818
  -5.100  -0.0149   0.01322   0.00829  -0.1262  0.9163  0.0140  -3.1430   0.0000   0.0000   0.0000  -8.3736
  -5.000  -0.0044   0.01311   0.00817  -0.1262  0.9141  0.0145  -3.0261   0.0000   0.0000   0.0000  -29.1566
  -4.900   0.0064   0.01295   0.00799  -0.1261  0.9119  0.0149  -2.9143   0.0000   0.0000   0.0000  20.3608
  -4.800   0.0173   0.01275   0.00777  -0.1261  0.9097  0.0154  -2.8077   0.0000   0.0000   0.0000   7.6562
  -4.700   0.0286   0.01252   0.00750  -0.1261  0.9077  0.0157  -2.7042   0.0000   0.0000   0.0000   4.7277
  -4.600   0.0401   0.01227   0.00720  -0.1262  0.9058  0.0161  -2.6036   0.0000   0.0000   0.0000   3.4439
  -4.500   0.0517   0.01200   0.00688  -0.1263  0.9040  0.0163  -2.5054   0.0000   0.0000   0.0000   2.7265
  -4.400   0.0635   0.01172   0.00656  -0.1265  0.9022  0.0166  -2.4302   0.0000   0.0000   0.0000   2.2695
  -4.300   0.0754   0.01145   0.00624  -0.1266  0.9003  0.0168  -2.3699   0.0000   0.0000   0.0000   1.9523
  -4.200   0.0858   0.01119   0.00595  -0.1265  0.8984  0.0170  -2.3157   0.0000   0.0000   0.0000   1.7440
  -4.100   0.0957   0.01094   0.00567  -0.1262  0.8964  0.0171  -2.2639   0.0000   0.0000   0.0000   1.5851
  -4.000   0.1059   0.01069   0.00539  -0.1260  0.8943  0.0173  -2.2126   0.0000   0.0000   0.0000   1.4542
  -3.900   0.1163   0.01044   0.00511  -0.1258  0.8920  0.0174  -2.1617   0.0000   0.0000   0.0000   1.3448
  -3.800   0.1268   0.01020   0.00483  -0.1256  0.8898  0.0175  -2.1111   0.0000   0.0000   0.0000   1.2525
  -3.700   0.1375   0.01000   0.00461  -0.1255  0.8875  0.0177  -2.0542   0.0000   0.0000   0.0000   1.1734
  -3.600   0.1485   0.00987   0.00446  -0.1255  0.8853  0.0182  -1.9874   0.0000   0.0000   0.0000   1.1040
  -3.500   0.1598   0.00975   0.00432  -0.1255  0.8831  0.0187  -1.9179   0.0000   0.0000   0.0000   1.0434
  -3.400   0.1713   0.00965   0.00419  -0.1255  0.8810  0.0192  -1.8497   0.0000   0.0000   0.0000   0.9903
  -3.300   0.1829   0.00953   0.00405  -0.1256  0.8789  0.0196  -1.7853   0.0000   0.0000   0.0000   0.9435
  -3.200   0.1947   0.00939   0.00388  -0.1257  0.8765  0.0199  -1.7267   0.0000   0.0000   0.0000   0.9019
  -3.100   0.2055   0.00922   0.00368  -0.1256  0.8746  0.0200  -1.6776   0.0000   0.0000   0.0000   0.8670
  -3.000   0.2157   0.00902   0.00345  -0.1254  0.8729  0.0200  -1.6361   0.0000   0.0000   0.0000   0.8364
  -2.900   0.2262   0.00882   0.00322  -0.1252  0.8711  0.0200  -1.5978   0.0000   0.0000   0.0000   0.8084
  -2.800   0.2368   0.00863   0.00298  -0.1250  0.8691  0.0200  -1.5642   0.0000   0.0000   0.0000   0.7825
  -2.700   0.2475   0.00848   0.00278  -0.1249  0.8670  0.0201  -1.5229   0.0000   0.0000   0.0000   0.7586
  -2.600   0.2583   0.00834   0.00261  -0.1248  0.8648  0.0202  -1.4807   0.0000   0.0000   0.0000   0.7366
  -2.500   0.2692   0.00822   0.00245  -0.1246  0.8624  0.0203  -1.4377   0.0000   0.0000   0.0000   0.7162
  -2.300   0.2913   0.00766   0.00198  -0.1244  0.8574  0.0678  -1.4670   0.0000   0.0000   0.0000   0.6799
  -2.200   0.3026   0.00757   0.00194  -0.1245  0.8549  0.0833  -1.4075   0.0000   0.0000   0.0000   0.6638
  -2.100   0.3142   0.00753   0.00191  -0.1245  0.8522  0.0936  -1.3407   0.0000   0.0000   0.0000   0.6487
  -1.900   0.3364   0.00738   0.00185  -0.1246  0.8477  0.1255  -1.2093   0.0000   0.0000   0.0000   0.6221
  -1.700   0.3575   0.00716   0.00180  -0.1244  0.8439  0.1736  -1.0829   0.0000   0.0000   0.0000   0.5995
  -1.600   0.3680   0.00702   0.00178  -0.1244  0.8416  0.2102  -1.0208   0.0000   0.0000   0.0000   0.5892
  -1.500   0.3785   0.00684   0.00175  -0.1244  0.8392  0.2602  -0.9598   0.0000   0.0000   0.0000   0.5796
  -1.400   0.3887   0.00659   0.00173  -0.1243  0.8367  0.3354  -0.9002   0.0000   0.0000   0.0000   0.5707
  -1.300   0.3988   0.00629   0.00171  -0.1243  0.8340  0.4341  -0.8417   0.0000   0.0000   0.0000   0.5625
  -1.200   0.4088   0.00600   0.00172  -0.1242  0.8312  0.5362  -0.7839   0.0000   0.0000   0.0000   0.5545
  -1.100   0.4193   0.00588   0.00173  -0.1241  0.8283  0.5929  -0.7250   0.0000   0.0000   0.0000   0.5464
  -1.000   0.4302   0.00582   0.00174  -0.1240  0.8252  0.6268  -0.6660   0.0000   0.0000   0.0000   0.5385
  -0.900   0.4415   0.00579   0.00175  -0.1240  0.8215  0.6485  -0.6068   0.0000   0.0000   0.0000   0.5310
  -0.800   0.4519   0.00576   0.00175  -0.1238  0.8193  0.6671  -0.5745   0.0000   0.0000   0.0000   0.5239
  -0.700   0.4624   0.00572   0.00176  -0.1236  0.8170  0.6821  -0.5828   0.0000   0.0000   0.0000   0.5171
  -0.600   0.4728   0.00568   0.00176  -0.1233  0.8144  0.6995  -0.5913   0.0000   0.0000   0.0000   0.5107
  -0.500   0.4835   0.00567   0.00176  -0.1232  0.8116  0.7132  -0.5998   0.0000   0.0000   0.0000   0.5045
  -0.400   0.4947   0.00567   0.00172  -0.1232  0.8088  0.7096  -0.6087   0.0000   0.0000   0.0000   0.4985
  -0.300   0.5049   0.00562   0.00174  -0.1229  0.8057  0.7333  -0.6170   0.0000   0.0000   0.0000   0.4928
  -0.100   0.5259   0.00558   0.00175  -0.1224  0.7994  0.7676  -0.6372   0.0000   0.0000   0.0000   0.4820
   0.000   0.5367   0.00559   0.00175  -0.1223  0.7959  0.7798  -0.6478   0.0000   0.0000   0.0000   0.4769
   0.100   0.5478   0.00561   0.00175  -0.1222  0.7917  0.7888  -0.6585   0.0000   0.0000   0.0000   0.4720
   0.200   0.5580   0.00558   0.00176  -0.1219  0.7891  0.7979  -0.6687   0.0000   0.0000   0.0000   0.4674
   0.300   0.5682   0.00555   0.00176  -0.1216  0.7860  0.8088  -0.6800   0.0000   0.0000   0.0000   0.4628
   0.500   0.5883   0.00551   0.00178  -0.1210  0.7788  0.8332  -0.7052   0.0000   0.0000   0.0000   0.4542
   0.600   0.5984   0.00550   0.00178  -0.1207  0.7750  0.8466  -0.7179   0.0000   0.0000   0.0000   0.4501
   0.700   0.6083   0.00549   0.00178  -0.1203  0.7712  0.8585  -0.7305   0.0000   0.0000   0.0000   0.4461
   0.800   0.6178   0.00548   0.00178  -0.1198  0.7668  0.8721  -0.7429   0.0000   0.0000   0.0000   0.4422
   0.900   0.6273   0.00549   0.00178  -0.1193  0.7616  0.8852  -0.7562   0.0000   0.0000   0.0000   0.4384
   1.000   0.6362   0.00547   0.00179  -0.1187  0.7577  0.8996  -0.7697   0.0000   0.0000   0.0000   0.4347
   1.100   0.6450   0.00543   0.00180  -0.1181  0.7535  0.9143  -0.7832   0.0000   0.0000   0.0000   0.4311
   1.300   0.6636   0.00538   0.00178  -0.1170  0.7438  0.9497  -0.8137   0.0000   0.0000   0.0000   0.4241
   1.500   0.6948   0.00538   0.00174  -0.1189  0.7333  0.9905  -0.8593   0.0000   0.0000   0.0000   0.4187
   1.600   0.7070   0.00542   0.00173  -0.1191  0.7272  1.0000  -0.8802   0.0000   0.0000   0.0000   0.4160
   1.700   0.7179   0.00544   0.00175  -0.1191  0.7227  1.0000  -0.9000   0.0000   0.0000   0.0000   0.4133
   1.800   0.7287   0.00546   0.00176  -0.1190  0.7167  1.0000  -0.9198   0.0000   0.0000   0.0000   0.4106
   1.900   0.7392   0.00550   0.00176  -0.1189  0.7095  1.0000  -0.9394   0.0000   0.0000   0.0000   0.4080
   2.000   0.7494   0.00556   0.00177  -0.1187  0.7019  1.0000  -0.9588   0.0000   0.0000   0.0000   0.4054
   2.100   0.7592   0.00563   0.00178  -0.1184  0.6936  1.0000  -0.9780   0.0000   0.0000   0.0000   0.4029
   2.200   0.7699   0.00566   0.00183  -0.1183  0.6867  1.0000  -0.9981   0.0000   0.0000   0.0000   0.4005
   2.300   0.7801   0.00571   0.00184  -0.1181  0.6773  1.0000  -1.0178   0.0000   0.0000   0.0000   0.3982
   2.400   0.7898   0.00579   0.00186  -0.1178  0.6671  1.0000  -1.0370   0.0000   0.0000   0.0000   0.3958
   2.500   0.7994   0.00587   0.00188  -0.1174  0.6579  1.0000  -1.0580   0.0000   0.0000   0.0000   0.3935
   2.600   0.8099   0.00591   0.00191  -0.1173  0.6499  1.0000  -1.0814   0.0000   0.0000   0.0000   0.3913
   2.700   0.8201   0.00598   0.00194  -0.1171  0.6407  1.0000  -1.1044   0.0000   0.0000   0.0000   0.3892
   2.800   0.8296   0.00607   0.00197  -0.1168  0.6309  1.0000  -1.1269   0.0000   0.0000   0.0000   0.3870
   2.900   0.8393   0.00615   0.00200  -0.1165  0.6221  1.0000  -1.1514   0.0000   0.0000   0.0000   0.3850
   3.000   0.8497   0.00620   0.00204  -0.1163  0.6138  1.0000  -1.1789   0.0000   0.0000   0.0000   0.3830
   3.100   0.8595   0.00629   0.00208  -0.1161  0.6037  1.0000  -1.2059   0.0000   0.0000   0.0000   0.3810
   3.200   0.8685   0.00640   0.00213  -0.1156  0.5924  1.0000  -1.2320   0.0000   0.0000   0.0000   0.3790
   3.300   0.8785   0.00648   0.00217  -0.1154  0.5830  1.0000  -1.2593   0.0000   0.0000   0.0000   0.3772
   3.400   0.8882   0.00657   0.00222  -0.1151  0.5712  1.0000  -1.2867   0.0000   0.0000   0.0000   0.3753
   3.500   0.8967   0.00672   0.00228  -0.1146  0.5564  1.0000  -1.3125   0.0000   0.0000   0.0000   0.3734
   3.600   0.9062   0.00682   0.00233  -0.1143  0.5441  1.0000  -1.3398   0.0000   0.0000   0.0000   0.3716
   3.700   0.9153   0.00695   0.00240  -0.1139  0.5291  1.0000  -1.3667   0.0000   0.0000   0.0000   0.3698
   3.800   0.9236   0.00711   0.00247  -0.1134  0.5140  1.0000  -1.3927   0.0000   0.0000   0.0000   0.3680
   3.900   0.9333   0.00721   0.00253  -0.1131  0.5015  1.0000  -1.4235   0.0000   0.0000   0.0000   0.3663
   4.000   0.9416   0.00739   0.00261  -0.1126  0.4848  1.0000  -1.4545   0.0000   0.0000   0.0000   0.3646
   4.100   0.9507   0.00753   0.00269  -0.1122  0.4702  1.0000  -1.4870   0.0000   0.0000   0.0000   0.3630
   4.200   0.9591   0.00770   0.00278  -0.1117  0.4524  1.0000  -1.5187   0.0000   0.0000   0.0000   0.3613
   4.300   0.9677   0.00787   0.00287  -0.1112  0.4364  1.0000  -1.5507   0.0000   0.0000   0.0000   0.3597
   4.400   0.9767   0.00802   0.00295  -0.1109  0.4214  1.0000  -1.5835   0.0000   0.0000   0.0000   0.3582
   4.500   0.9849   0.00822   0.00305  -0.1104  0.4057  1.0000  -1.6153   0.0000   0.0000   0.0000   0.3566
   4.600   0.9946   0.00833   0.00313  -0.1101  0.3943  1.0000  -1.6496   0.0000   0.0000   0.0000   0.3551
   4.700   1.0029   0.00852   0.00324  -0.1096  0.3782  1.0000  -1.6820   0.0000   0.0000   0.0000   0.3536
   4.800   1.0118   0.00869   0.00334  -0.1092  0.3636  1.0000  -1.7152   0.0000   0.0000   0.0000   0.3522
   4.900   1.0204   0.00887   0.00351  -0.1088  0.3481  1.0000  -1.7495   0.0000   0.0000   0.0000   0.3507
   5.000   1.0287   0.00907   0.00362  -0.1084  0.3321  1.0000  -1.7826   0.0000   0.0000   0.0000   0.3493
   5.100   1.0377   0.00923   0.00372  -0.1080  0.3184  1.0000  -1.8167   0.0000   0.0000   0.0000   0.3480
   5.200   1.0457   0.00946   0.00385  -0.1075  0.3020  1.0000  -1.8492   0.0000   0.0000   0.0000   0.3466
   5.300   1.0551   0.00959   0.00394  -0.1072  0.2921  1.0000  -1.8845   0.0000   0.0000   0.0000   0.3453
   5.400   1.0638   0.00977   0.00406  -0.1068  0.2799  1.0000  -1.9187   0.0000   0.0000   0.0000   0.3440
   5.500   1.0723   0.00996   0.00418  -0.1064  0.2670  1.0000  -1.9525   0.0000   0.0000   0.0000   0.3426
   5.600   1.0817   0.01009   0.00428  -0.1061  0.2581  1.0000  -1.9882   0.0000   0.0000   0.0000   0.3414
   5.700   1.0903   0.01028   0.00440  -0.1057  0.2466  1.0000  -2.0225   0.0000   0.0000   0.0000   0.3402
   5.800   1.0989   0.01047   0.00453  -0.1053  0.2350  1.0000  -2.0571   0.0000   0.0000   0.0000   0.3389
   5.900   1.1081   0.01060   0.00463  -0.1050  0.2269  1.0000  -2.0983   0.0000   0.0000   0.0000   0.3377
   6.000   1.1167   0.01079   0.00475  -0.1046  0.2170  1.0000  -2.1498   0.0000   0.0000   0.0000   0.3365
   6.100   1.1252   0.01099   0.00489  -0.1042  0.2059  1.0000  -2.2011   0.0000   0.0000   0.0000   0.3353
   6.200   1.1345   0.01111   0.00500  -0.1039  0.1997  1.0000  -2.2554   0.0000   0.0000   0.0000   0.3342
   6.300   1.1433   0.01128   0.00512  -0.1036  0.1915  1.0000  -2.3085   0.0000   0.0000   0.0000   0.3330
   6.400   1.1515   0.01149   0.00527  -0.1031  0.1818  1.0000  -2.3605   0.0000   0.0000   0.0000   0.3319
   6.500   1.1606   0.01163   0.00539  -0.1028  0.1749  1.0000  -2.4151   0.0000   0.0000   0.0000   0.3308
   6.600   1.1696   0.01178   0.00551  -0.1025  0.1690  1.0000  -2.4701   0.0000   0.0000   0.0000   0.3297
   6.700   1.1781   0.01196   0.00564  -0.1020  0.1619  1.0000  -2.5240   0.0000   0.0000   0.0000   0.3286
   6.800   1.1862   0.01217   0.00580  -0.1016  0.1528  1.0000  -2.5771   0.0000   0.0000   0.0000   0.3275
   6.900   1.1953   0.01231   0.00593  -0.1013  0.1476  1.0000  -2.6334   0.0000   0.0000   0.0000   0.3264
   7.000   1.2040   0.01247   0.00606  -0.1009  0.1417  1.0000  -2.6891   0.0000   0.0000   0.0000   0.3254
   7.100   1.2120   0.01268   0.00621  -0.1004  0.1344  1.0000  -2.7432   0.0000   0.0000   0.0000   0.3243
   7.200   1.2199   0.01290   0.00638  -0.0999  0.1256  1.0000  -2.7971   0.0000   0.0000   0.0000   0.3232
   7.300   1.2290   0.01302   0.00650  -0.0996  0.1223  1.0000  -2.8553   0.0000   0.0000   0.0000   0.3222
   7.400   1.2376   0.01318   0.00664  -0.0992  0.1177  1.0000  -2.9123   0.0000   0.0000   0.0000   0.3212
   7.500   1.2456   0.01338   0.00679  -0.0987  0.1126  1.0000  -2.9680   0.0000   0.0000   0.0000   0.3202
   7.600   1.2533   0.01361   0.00705  -0.0982  0.1062  1.0000  -3.0222   0.0000   0.0000   0.0000   0.3191
   7.700   1.2618   0.01377   0.00721  -0.0978  0.1019  1.0000  -3.0798   0.0000   0.0000   0.0000   0.3181
   7.800   1.2706   0.01390   0.00734  -0.0974  0.0994  1.0000  -3.1393   0.0000   0.0000   0.0000   0.3172
   7.900   1.2789   0.01406   0.00749  -0.0970  0.0961  1.0000  -3.1975   0.0000   0.0000   0.0000   0.3162
   8.000   1.2864   0.01426   0.00765  -0.0964  0.0921  1.0000  -3.2538   0.0000   0.0000   0.0000   0.3152
   8.100   1.2936   0.01447   0.00782  -0.0958  0.0874  1.0000  -3.3091   0.0000   0.0000   0.0000   0.3142
   8.200   1.3008   0.01469   0.00802  -0.0952  0.0821  1.0000  -3.3639   0.0000   0.0000   0.0000   0.3131
   8.300   1.3094   0.01480   0.00815  -0.0948  0.0808  1.0000  -3.4246   0.0000   0.0000   0.0000   0.3122
   8.400   1.3176   0.01494   0.00829  -0.0943  0.0792  1.0000  -3.4847   0.0000   0.0000   0.0000   0.3113
   8.500   1.3256   0.01509   0.00845  -0.0938  0.0772  1.0000  -3.5440   0.0000   0.0000   0.0000   0.3103
   8.600   1.3332   0.01527   0.00862  -0.0933  0.0745  1.0000  -3.6025   0.0000   0.0000   0.0000   0.3093
   8.700   1.3402   0.01548   0.00880  -0.0926  0.0714  1.0000  -3.6596   0.0000   0.0000   0.0000   0.3084
   8.800   1.3471   0.01572   0.00899  -0.0920  0.0675  1.0000  -3.7159   0.0000   0.0000   0.0000   0.3074
   8.900   1.3538   0.01595   0.00921  -0.0913  0.0633  1.0000  -3.7841   0.0000   0.0000   0.0000   0.3064
   9.000   1.3621   0.01607   0.00935  -0.0909  0.0622  1.0000  -3.8612   0.0000   0.0000   0.0000   0.3055
   9.100   1.3699   0.01622   0.00950  -0.0904  0.0605  1.0000  -3.9367   0.0000   0.0000   0.0000   0.3046
   9.200   1.3772   0.01641   0.00968  -0.0898  0.0582  1.0000  -4.0105   0.0000   0.0000   0.0000   0.3037
   9.300   1.3840   0.01663   0.00988  -0.0892  0.0554  1.0000  -4.0827   0.0000   0.0000   0.0000   0.3028
   9.400   1.3903   0.01689   0.01009  -0.0885  0.0523  1.0000  -4.1533   0.0000   0.0000   0.0000   0.3019
   9.500   1.3968   0.01713   0.01031  -0.0878  0.0488  1.0000  -4.2240   0.0000   0.0000   0.0000   0.3009
   9.600   1.4039   0.01733   0.01051  -0.0872  0.0468  1.0000  -4.2982   0.0000   0.0000   0.0000   0.3000
   9.700   1.4115   0.01748   0.01068  -0.0867  0.0460  1.0000  -4.3762   0.0000   0.0000   0.0000   0.2992
   9.800   1.4188   0.01766   0.01087  -0.0861  0.0448  1.0000  -4.4531   0.0000   0.0000   0.0000   0.2983
   9.900   1.4259   0.01785   0.01106  -0.0856  0.0435  1.0000  -4.5293   0.0000   0.0000   0.0000   0.2975
  10.000   1.4328   0.01806   0.01128  -0.0850  0.0421  1.0000  -4.6049   0.0000   0.0000   0.0000   0.2966
  10.100   1.4395   0.01829   0.01150  -0.0844  0.0407  1.0000  -4.6799   0.0000   0.0000   0.0000   0.2957
  10.200   1.4455   0.01856   0.01177  -0.0837  0.0383  1.0000  -4.7516   0.0000   0.0000   0.0000   0.2949
  10.300   1.4514   0.01882   0.01202  -0.0829  0.0362  1.0000  -4.8236   0.0000   0.0000   0.0000   0.2940
  10.400   1.4577   0.01907   0.01227  -0.0823  0.0342  1.0000  -4.8969   0.0000   0.0000   0.0000   0.2931
  10.500   1.4642   0.01929   0.01251  -0.0816  0.0331  1.0000  -4.9727   0.0000   0.0000   0.0000   0.2923
  10.600   1.4712   0.01949   0.01273  -0.0811  0.0327  1.0000  -5.0512   0.0000   0.0000   0.0000   0.2914
  10.700   1.4779   0.01970   0.01295  -0.0805  0.0320  1.0000  -5.1295   0.0000   0.0000   0.0000   0.2906
  10.800   1.4846   0.01992   0.01319  -0.0799  0.0312  1.0000  -5.2077   0.0000   0.0000   0.0000   0.2898
  10.900   1.4910   0.02016   0.01344  -0.0793  0.0302  1.0000  -5.2852   0.0000   0.0000   0.0000   0.2890
  11.000   1.4971   0.02042   0.01370  -0.0787  0.0290  1.0000  -5.3618   0.0000   0.0000   0.0000   0.2882
  11.100   1.5029   0.02070   0.01397  -0.0780  0.0277  1.0000  -5.4375   0.0000   0.0000   0.0000   0.2874
  11.200   1.5082   0.02100   0.01427  -0.0772  0.0263  1.0000  -5.5115   0.0000   0.0000   0.0000   0.2866
  11.300   1.5134   0.02132   0.01459  -0.0765  0.0249  1.0000  -5.5848   0.0000   0.0000   0.0000   0.2857
  11.400   1.5187   0.02164   0.01490  -0.0758  0.0234  1.0000  -5.6587   0.0000   0.0000   0.0000   0.2849
  11.500   1.5242   0.02194   0.01522  -0.0751  0.0220  1.0000  -5.7334   0.0000   0.0000   0.0000   0.2841
  11.600   1.5299   0.02222   0.01551  -0.0744  0.0215  1.0000  -5.8105   0.0000   0.0000   0.0000   0.2833
  11.700   1.5355   0.02251   0.01582  -0.0738  0.0210  1.0000  -5.8875   0.0000   0.0000   0.0000   0.2825
  11.800   1.5410   0.02281   0.01614  -0.0731  0.0204  1.0000  -5.9645   0.0000   0.0000   0.0000   0.2818
  11.900   1.5465   0.02313   0.01646  -0.0725  0.0197  1.0000  -6.0414   0.0000   0.0000   0.0000   0.2810
  12.000   1.5518   0.02345   0.01680  -0.0718  0.0190  1.0000  -6.1182   0.0000   0.0000   0.0000   0.2802
  12.100   1.5568   0.02380   0.01715  -0.0711  0.0183  1.0000  -6.1939   0.0000   0.0000   0.0000   0.2795
  12.200   1.5616   0.02416   0.01752  -0.0704  0.0176  1.0000  -6.2686   0.0000   0.0000   0.0000   0.2787
  12.300   1.5662   0.02454   0.01791  -0.0697  0.0169  1.0000  -6.3583   0.0000   0.0000   0.0000   0.2779
  12.400   1.5707   0.02493   0.01830  -0.0690  0.0161  1.0000  -6.4754   0.0000   0.0000   0.0000   0.2772
  12.500   1.5753   0.02532   0.01870  -0.0683  0.0154  1.0000  -6.5934   0.0000   0.0000   0.0000   0.2764
  12.600   1.5799   0.02571   0.01910  -0.0676  0.0146  1.0000  -6.7122   0.0000   0.0000   0.0000   0.2757
  12.700   1.5843   0.02610   0.01951  -0.0670  0.0139  1.0000  -6.8304   0.0000   0.0000   0.0000   0.2750
  12.800   1.5887   0.02650   0.01993  -0.0663  0.0133  1.0000  -6.9489   0.0000   0.0000   0.0000   0.2742
  12.900   1.5932   0.02688   0.02034  -0.0656  0.0129  1.0000  -7.0695   0.0000   0.0000   0.0000   0.2735
  13.000   1.5978   0.02726   0.02074  -0.0650  0.0128  1.0000  -7.1930   0.0000   0.0000   0.0000   0.2728
  13.100   1.6025   0.02765   0.02116  -0.0644  0.0126  1.0000  -7.3171   0.0000   0.0000   0.0000   0.2721
  13.200   1.6071   0.02805   0.02158  -0.0638  0.0124  1.0000  -7.4412   0.0000   0.0000   0.0000   0.2714
  13.300   1.6113   0.02848   0.02208  -0.0631  0.0123  1.0000  -7.5674   0.0000   0.0000   0.0000   0.2707
  13.400   1.6154   0.02892   0.02255  -0.0625  0.0122  1.0000  -7.6917   0.0000   0.0000   0.0000   0.2701
  13.500   1.6194   0.02937   0.02303  -0.0619  0.0120  1.0000  -7.8146   0.0000   0.0000   0.0000   0.2694
  13.600   1.6234   0.02983   0.02352  -0.0613  0.0117  1.0000  -7.9379   0.0000   0.0000   0.0000   0.2687
  13.700   1.6274   0.03030   0.02401  -0.0607  0.0114  1.0000  -8.0613   0.0000   0.0000   0.0000   0.2681
  13.800   1.6313   0.03079   0.02452  -0.0601  0.0111  1.0000  -8.1842   0.0000   0.0000   0.0000   0.2674
  13.900   1.6346   0.03131   0.02507  -0.0595  0.0107  1.0000  -8.3029   0.0000   0.0000   0.0000   0.2668
  14.000   1.6376   0.03187   0.02565  -0.0589  0.0103  1.0000  -8.4186   0.0000   0.0000   0.0000   0.2661
  14.100   1.6404   0.03245   0.02625  -0.0582  0.0098  1.0000  -8.5333   0.0000   0.0000   0.0000   0.2655
  14.200   1.6431   0.03305   0.02686  -0.0576  0.0093  1.0000  -8.6474   0.0000   0.0000   0.0000   0.2648
  14.300   1.6456   0.03368   0.02750  -0.0570  0.0087  1.0000  -8.7598   0.0000   0.0000   0.0000   0.2642
  14.400   1.6478   0.03434   0.02817  -0.0564  0.0082  1.0000  -8.8691   0.0000   0.0000   0.0000   0.2636
  14.500   1.6493   0.03506   0.02890  -0.0558  0.0075  1.0000  -8.9724   0.0000   0.0000   0.0000   0.2630
  14.600   1.6509   0.03576   0.02963  -0.0552  0.0069  1.0000  -9.0771   0.0000   0.0000   0.0000   0.2624
  14.700   1.6534   0.03641   0.03030  -0.0546  0.0063  1.0000  -9.1882   0.0000   0.0000   0.0000   0.2618
  14.800   1.6559   0.03706   0.03097  -0.0541  0.0061  1.0000  -9.3008   0.0000   0.0000   0.0000   0.2612
  14.900   1.6582   0.03773   0.03167  -0.0536  0.0058  1.0000  -9.4100   0.0000   0.0000   0.0000   0.2606
  15.000   1.6594   0.03848   0.03245  -0.0530  0.0053  1.0000  -9.5087   0.0000   0.0000   0.0000   0.2601
  15.100   1.6591   0.03938   0.03337  -0.0524  0.0047  1.0000  -9.5927   0.0000   0.0000   0.0000   0.2595
  15.200   1.6587   0.04031   0.03434  -0.0518  0.0041  1.0000  -9.6743   0.0000   0.0000   0.0000   0.2589
  15.400   1.6494   0.04314   0.03719  -0.0504  0.0020  1.0000  -9.7578   0.0000   0.0000   0.0000   0.2578
  15.500   1.6486   0.04421   0.03830  -0.0499  0.0019  1.0000  -9.8336   0.0000   0.0000   0.0000   0.2573
  15.600   1.6476   0.04532   0.03945  -0.0495  0.0018  1.0000  -9.9075   0.0000   0.0000   0.0000   0.2568
  15.700   1.6469   0.04644   0.04060  -0.0491  0.0017  1.0000  -9.9823   0.0000   0.0000   0.0000   0.2564
  15.800   1.6459   0.04761   0.04180  -0.0488  0.0016  1.0000  -10.0534   0.0000   0.0000   0.0000   0.2560
  15.900   1.6441   0.04888   0.04312  -0.0485  0.0015  1.0000  -10.1168   0.0000   0.0000   0.0000   0.2556
  16.000   1.6427   0.05013   0.04441  -0.0482  0.0014  1.0000  -10.1840   0.0000   0.0000   0.0000   0.2553
  16.100   1.6418   0.05135   0.04567  -0.0480  0.0014  1.0000  -10.2545   0.0000   0.0000   0.0000   0.2549
  16.200   1.6408   0.05259   0.04696  -0.0478  0.0013  1.0000  -10.3242   0.0000   0.0000   0.0000   0.2546
  16.300   1.6389   0.05398   0.04840  -0.0477  0.0012  1.0000  -10.3850   0.0000   0.0000   0.0000   0.2543
  16.400   1.6374   0.05532   0.04979  -0.0476  0.0012  1.0000  -10.4499   0.0000   0.0000   0.0000   0.2541
  16.500   1.6363   0.05663   0.05115  -0.0476  0.0011  1.0000  -10.5185   0.0000   0.0000   0.0000   0.2538
  16.600   1.6352   0.05797   0.05255  -0.0476  0.0011  1.0000  -10.5864   0.0000   0.0000   0.0000   0.2536
  16.700   1.6328   0.05950   0.05413  -0.0477  0.0011  1.0000  -10.6424   0.0000   0.0000   0.0000   0.2534
  16.800   1.6309   0.06099   0.05567  -0.0478  0.0010  1.0000  -10.7024   0.0000   0.0000   0.0000   0.2533
  16.900   1.6294   0.06243   0.05717  -0.0479  0.0010  1.0000  -10.7669   0.0000   0.0000   0.0000   0.2531
  17.000   1.6276   0.06393   0.05872  -0.0480  0.0010  1.0000  -10.8283   0.0000   0.0000   0.0000   0.2530
  17.100   1.6245   0.06566   0.06051  -0.0483  0.0010  1.0000  -10.8757   0.0000   0.0000   0.0000   0.2530
  17.200   1.6221   0.06730   0.06220  -0.0486  0.0010  1.0000  -10.9300   0.0000   0.0000   0.0000   0.2530
  17.300   1.6200   0.06890   0.06386  -0.0489  0.0009  1.0000  -10.9870   0.0000   0.0000   0.0000   0.2529
  17.400   1.6169   0.07067   0.06569  -0.0493  0.0009  1.0000  -11.0335   0.0000   0.0000   0.0000   0.2530
  17.500   1.6128   0.07258   0.06766  -0.0498  0.0009  1.0000  -11.0691   0.0000   0.0000   0.0000   0.2531
  17.600   1.6095   0.07437   0.06951  -0.0502  0.0009  1.0000  -11.1125   0.0000   0.0000   0.0000   0.2532
  17.700   1.6063   0.07618   0.07138  -0.0507  0.0009  1.0000  -11.1556   0.0000   0.0000   0.0000   0.2533
  17.800   1.6012   0.07837   0.07363  -0.0514  0.0009  1.0000  -11.1773   0.0000   0.0000   0.0000   0.2536
  17.900   1.5970   0.08043   0.07575  -0.0521  0.0009  1.0000  -11.2079   0.0000   0.0000   0.0000   0.2539
  18.000   1.5932   0.08244   0.07782  -0.0527  0.0009  1.0000  -11.2427   0.0000   0.0000   0.0000   0.2541
  18.100   1.5876   0.08483   0.08028  -0.0536  0.0009  1.0000  -11.2553   0.0000   0.0000   0.0000   0.2545
  18.200   1.5825   0.08716   0.08267  -0.0545  0.0009  1.0000  -11.2720   0.0000   0.0000   0.0000   0.2550
  18.300   1.5780   0.08938   0.08495  -0.0554  0.0009  1.0000  -11.2960   0.0000   0.0000   0.0000   0.2553
  18.400   1.5717   0.09200   0.08764  -0.0565  0.0009  1.0000  -11.2960   0.0000   0.0000   0.0000   0.2559
  18.500   1.5657   0.09457   0.09028  -0.0576  0.0009  1.0000  -11.2982   0.0000   0.0000   0.0000   0.2565
  18.600   1.5606   0.09701   0.09277  -0.0587  0.0009  1.0000  -11.3093   0.0000   0.0000   0.0000   0.2571
  18.800   1.5460   0.10280   0.09873  -0.0615  0.0009  1.0000  -11.2660   0.0000   0.0000   0.0000   0.2587
  18.900   1.5397   0.10551   0.10150  -0.0628  0.0008  1.0000  -11.2569   0.0000   0.0000   0.0000   0.2595
  19.000   1.5311   0.10875   0.10481  -0.0644  0.0009  1.0000  -11.2170   0.0000   0.0000   0.0000   0.2606
  19.100   1.5244   0.11160   0.10772  -0.0659  0.0009  1.0000  -11.1985   0.0000   0.0000   0.0000   0.2615
  19.200   1.5162   0.11477   0.11096  -0.0676  0.0009  1.0000  -11.1596   0.0000   0.0000   0.0000   0.2626
  19.300   1.5079   0.11801   0.11426  -0.0693  0.0009  1.0000  -11.1159   0.0000   0.0000   0.0000   0.2637
  19.400   1.5007   0.12098   0.11730  -0.0709  0.0009  1.0000  -11.0852   0.0000   0.0000   0.0000   0.2648
  19.500   1.4913   0.12449   0.12084  -0.0729  0.0009  1.0000  -11.0293   0.0000   0.0000   0.0000   0.2662
  19.600   1.4833   0.12768   0.12410  -0.0747  0.0009  1.0000  -10.9819   0.0000   0.0000   0.0000   0.2675
  19.700   1.4744   0.13110   0.12758  -0.0767  0.0009  1.0000  -10.9182   0.0000   0.0000   0.0000   0.2689
  19.800   1.4645   0.13478   0.13132  -0.0788  0.0009  1.0000  -10.8358   0.0000   0.0000   0.0000   0.2705
  19.900   1.4564   0.13802   0.13462  -0.0807  0.0009  1.0000  -10.7790   0.0000   0.0000   0.0000   0.2719
  20.000   1.4452   0.14204   0.13871  -0.0832  0.0009  1.0000  -10.6699   0.0000   0.0000   0.0000   0.2738
  20.100   1.4365   0.14549   0.14222  -0.0853  0.0009  1.0000  -10.5955   0.0000   0.0000   0.0000   0.2754
  20.200   1.4269   0.14918   0.14597  -0.0875  0.0009  1.0000  -10.5022   0.0000   0.0000   0.0000   0.2772
  20.300   1.4165   0.15290   0.14976  -0.0900  0.0009  1.0000  -10.3905   0.0000   0.0000   0.0000   0.2792
  20.400   1.4086   0.15602   0.15293  -0.0921  0.0009  1.0000  -10.3151   0.0000   0.0000   0.0000   0.2809
  20.500   1.3973   0.15997   0.15695  -0.0948  0.0009  1.0000  -10.1790   0.0000   0.0000   0.0000   0.2832
  20.600   1.3886   0.16346   0.16049  -0.0971  0.0009  1.0000  -10.0813   0.0000   0.0000   0.0000   0.2851
  20.700   1.3806   0.16687   0.16395  -0.0994  0.0010  1.0000  -9.9919   0.0000   0.0000   0.0000   0.2870
  20.800   1.3685   0.17140   0.16854  -0.1023  0.0010  1.0000  -9.8267   0.0000   0.0000   0.0000   0.2896
  20.900   1.3606   0.17500   0.17219  -0.1046  0.0010  1.0000  -9.7302   0.0000   0.0000   0.0000   0.2916
  21.000   1.3527   0.17868   0.17592  -0.1069  0.0010  1.0000  -9.6301   0.0000   0.0000   0.0000   0.2936
  21.100   1.3407   0.18358   0.18088  -0.1099  0.0010  1.0000  -9.4482   0.0000   0.0000   0.0000   0.2965
  21.200   1.3332   0.18734   0.18469  -0.1122  0.0010  1.0000  -9.3468   0.0000   0.0000   0.0000   0.2985
  21.300   1.3258   0.19118   0.18857  -0.1145  0.0010  1.0000  -9.2425   0.0000   0.0000   0.0000   0.3006
  21.400   1.3139   0.19644   0.19390  -0.1176  0.0011  1.0000  -9.0430   0.0000   0.0000   0.0000   0.3036
  21.500   1.3069   0.20038   0.19788  -0.1199  0.0011  1.0000  -8.9357   0.0000   0.0000   0.0000   0.3057
  21.600   1.3003   0.20425   0.20180  -0.1221  0.0011  1.0000  -8.8342   0.0000   0.0000   0.0000   0.3078
  21.700   1.2894   0.20961   0.20722  -0.1250  0.0011  1.0000  -8.6344   0.0000   0.0000   0.0000   0.3108
  21.800   1.2819   0.21403   0.21168  -0.1274  0.0012  1.0000  -8.5005   0.0000   0.0000   0.0000   0.3132
  21.900   1.2762   0.21790   0.21559  -0.1295  0.0012  1.0000  -8.4038   0.0000   0.0000   0.0000   0.3151
  22.000   1.2705   0.22188   0.21961  -0.1316  0.0012  1.0000  -8.3010   0.0000   0.0000   0.0000   0.3171
  22.100   1.2596   0.22780   0.22559  -0.1346  0.0012  1.0000  -8.0724   0.0000   0.0000   0.0000   0.3204
  22.200   1.2531   0.23231   0.23015  -0.1368  0.0012  1.0000  -7.9380   0.0000   0.0000   0.0000   0.3227
  22.300   1.2485   0.23620   0.23407  -0.1387  0.0013  1.0000  -7.8450   0.0000   0.0000   0.0000   0.3245
  22.400   1.2434   0.24032   0.23823  -0.1407  0.0013  1.0000  -7.7375   0.0000   0.0000   0.0000   0.3265
  22.500   1.2324   0.24692   0.24490  -0.1437  0.0013  1.0000  -7.4723   0.0000   0.0000   0.0000   0.3300
  22.600   1.2269   0.25149   0.24950  -0.1457  0.0013  1.0000  -7.3393   0.0000   0.0000   0.0000   0.3321
  22.700   1.2231   0.25538   0.25342  -0.1475  0.0013  1.0000  -7.2502   0.0000   0.0000   0.0000   0.3338
  22.800   1.2196   0.25924   0.25732  -0.1492  0.0013  1.0000  -7.1633   0.0000   0.0000   0.0000   0.3354
  22.900   1.2153   0.26349   0.26159  -0.1509  0.0013  1.0000  -7.0525   0.0000   0.0000   0.0000   0.3373
  23.000   1.2062   0.27006   0.26822  -0.1535  0.0014  1.0000  -6.7952   0.0000   0.0000   0.0000   0.3404
  23.100   1.2025   0.27427   0.27246  -0.1551  0.0014  1.0000  -6.6887   0.0000   0.0000   0.0000   0.3421
  23.200   1.2002   0.27780   0.27602  -0.1565  0.0014  1.0000  -6.6250   0.0000   0.0000   0.0000   0.3434
  23.300   1.1985   0.28109   0.27933  -0.1578  0.0014  1.0000  -6.5765   0.0000   0.0000   0.0000   0.3445
  23.400   1.1973   0.28414   0.28239  -0.1590  0.0014  1.0000  -6.5430   0.0000   0.0000   0.0000   0.3455
  23.500   1.1962   0.28715   0.28543  -0.1602  0.0013  1.0000  -6.5116   0.0000   0.0000   0.0000   0.3464
  23.600   1.1951   0.29019   0.28848  -0.1614  0.0013  1.0000  -6.4790   0.0000   0.0000   0.0000   0.3473
  23.700   1.1939   0.29330   0.29161  -0.1625  0.0013  1.0000  -6.4413   0.0000   0.0000   0.0000   0.3483
  23.800   1.1923   0.29659   0.29493  -0.1637  0.0013  1.0000  -6.3919   0.0000   0.0000   0.0000   0.3493
  23.900   1.1899   0.30032   0.29869  -0.1650  0.0013  1.0000  -6.3140   0.0000   0.0000   0.0000   0.3505
  24.000   1.1832   0.30648   0.30489  -0.1668  0.0013  1.0000  -6.0817   0.0000   0.0000   0.0000   0.3530
  24.100   1.1807   0.31038   0.30882  -0.1681  0.0013  1.0000  -5.9927   0.0000   0.0000   0.0000   0.3542
  24.200   1.1789   0.31386   0.31233  -0.1692  0.0013  1.0000  -5.9292   0.0000   0.0000   0.0000   0.3552
  24.300   1.1770   0.31737   0.31586  -0.1702  0.0013  1.0000  -5.8625   0.0000   0.0000   0.0000   0.3562
  24.400   1.1746   0.32113   0.31964  -0.1713  0.0013  1.0000  -5.7778   0.0000   0.0000   0.0000   0.3573
  24.500   1.1707   0.32576   0.32430  -0.1725  0.0013  1.0000  -5.6328   0.0000   0.0000   0.0000   0.3588
  25.400   0.8996   0.33694   0.33564  -0.1504  0.0062  1.0000  -1.4100   0.0000   0.0000   0.0000   0.3852
  25.500   0.8975   0.33731   0.33602  -0.1505  0.0062  1.0000  -1.3936   0.0000   0.0000   0.0000   0.3856
  25.600   0.8954   0.33770   0.33642  -0.1507  0.0062  1.0000  -1.3778   0.0000   0.0000   0.0000   0.3860
  25.700   0.8935   0.33811   0.33683  -0.1508  0.0062  1.0000  -1.3627   0.0000   0.0000   0.0000   0.3864
  25.800   0.8917   0.33853   0.33725  -0.1509  0.0061  1.0000  -1.3482   0.0000   0.0000   0.0000   0.3868
  25.900   0.8899   0.33896   0.33769  -0.1511  0.0061  1.0000  -1.3342   0.0000   0.0000   0.0000   0.3872
  26.000   0.8883   0.33941   0.33814  -0.1513  0.0061  1.0000  -1.3207   0.0000   0.0000   0.0000   0.3875
  26.100   0.8868   0.33987   0.33861  -0.1515  0.0061  1.0000  -1.3078   0.0000   0.0000   0.0000   0.3879
  26.200   0.8853   0.34034   0.33908  -0.1517  0.0061  1.0000  -1.2954   0.0000   0.0000   0.0000   0.3883
  26.300   0.8839   0.34082   0.33957  -0.1519  0.0061  1.0000  -1.2829   0.0000   0.0000   0.0000   0.3886
  26.400   0.8826   0.34133   0.34008  -0.1521  0.0061  1.0000  -1.2709   0.0000   0.0000   0.0000   0.3890
  26.500   0.8814   0.34184   0.34060  -0.1523  0.0061  1.0000  -1.2593   0.0000   0.0000   0.0000   0.3894
  26.600   0.8803   0.34237   0.34114  -0.1526  0.0060  1.0000  -1.2482   0.0000   0.0000   0.0000   0.3897
  26.700   0.8792   0.34293   0.34170  -0.1529  0.0060  1.0000  -1.2369   0.0000   0.0000   0.0000   0.3901
  26.800   0.8782   0.34355   0.34232  -0.1532  0.0060  1.0000  -1.2232   0.0000   0.0000   0.0000   0.3905
  26.900   0.8774   0.34421   0.34299  -0.1535  0.0059  1.0000  -1.2095   0.0000   0.0000   0.0000   0.3909
  27.000   0.8767   0.34494   0.34372  -0.1539  0.0058  1.0000  -1.1951   0.0000   0.0000   0.0000   0.3913
  27.100   0.8763   0.34576   0.34454  -0.1543  0.0057  1.0000  -1.1783   0.0000   0.0000   0.0000   0.3916
  27.200   0.8761   0.34665   0.34543  -0.1546  0.0055  1.0000  -1.1581   0.0000   0.0000   0.0000   0.3920
  27.300   0.8755   0.34740   0.34619  -0.1549  0.0052  1.0000  -1.1404   0.0000   0.0000   0.0000   0.3923
  27.400   0.8748   0.34803   0.34682  -0.1552  0.0050  1.0000  -1.1278   0.0000   0.0000   0.0000   0.3926
  27.500   0.8740   0.34859   0.34741  -0.1555  0.0048  1.0000  -1.1183   0.0000   0.0000   0.0000   0.3929
  27.600   0.8731   0.34914   0.34797  -0.1557  0.0046  1.0000  -1.1108   0.0000   0.0000   0.0000   0.3932
  27.700   0.8723   0.34967   0.34850  -0.1560  0.0044  1.0000  -1.1047   0.0000   0.0000   0.0000   0.3935
  27.800   0.8715   0.35019   0.34903  -0.1562  0.0043  1.0000  -1.0998   0.0000   0.0000   0.0000   0.3938


