xflr5 v6.61

 Calculated polar for: WORTMANN FX 63-137 AIRFOIL

 1 1 Reynolds number fixed          Mach number fixed         

 xtrf =   1.000 (top)        1.000 (bottom)
 Mach =   0.000     Re =     0.719 e 6     Ncrit =   9.000

  alpha     CL        CD       CDp       Cm    Top Xtr Bot Xtr   Cpmin    Chinge    XCp    
 ------- -------- --------- --------- -------- ------- ------- -------- --------- ---------
 -10.000  -0.2937   0.01544   0.01100  -0.1807  0.9062  0.0098  -6.9185   0.0000   0.0000   0.0000  -0.3955
  -9.900  -0.2800   0.01535   0.01090  -0.1814  0.9011  0.0099  -6.7599   0.0000   0.0000   0.0000  -0.4287
  -9.800  -0.2667   0.01531   0.01085  -0.1819  0.8964  0.0100  -6.6160   0.0000   0.0000   0.0000  -0.4641
  -9.700  -0.2549   0.01529   0.01082  -0.1821  0.8911  0.0101  -6.4830   0.0000   0.0000   0.0000  -0.4975
  -9.600  -0.2427   0.01523   0.01074  -0.1824  0.8859  0.0102  -6.3531   0.0000   0.0000   0.0000  -0.5359
  -9.500  -0.2301   0.01513   0.01060  -0.1829  0.8809  0.0104  -6.2278   0.0000   0.0000   0.0000  -0.5801
  -9.400  -0.2174   0.01498   0.01040  -0.1834  0.8763  0.0106  -6.1078   0.0000   0.0000   0.0000  -0.6307
  -9.300  -0.2056   0.01478   0.01015  -0.1838  0.8718  0.0108  -5.9988   0.0000   0.0000   0.0000  -0.6825
  -9.200  -0.1935   0.01454   0.00983  -0.1843  0.8670  0.0109  -5.8935   0.0000   0.0000   0.0000  -0.7430
  -9.100  -0.1811   0.01430   0.00952  -0.1848  0.8623  0.0112  -5.7874   0.0000   0.0000   0.0000  -0.8130
  -9.000  -0.1686   0.01405   0.00920  -0.1854  0.8580  0.0114  -5.6826   0.0000   0.0000   0.0000  -0.8949
  -8.900  -0.1559   0.01380   0.00886  -0.1860  0.8539  0.0116  -5.5787   0.0000   0.0000   0.0000  -0.9911
  -8.800  -0.1435   0.01353   0.00853  -0.1865  0.8506  0.0118  -5.4771   0.0000   0.0000   0.0000  -1.1017
  -8.700  -0.1309   0.01327   0.00820  -0.1871  0.8471  0.0120  -5.3756   0.0000   0.0000   0.0000  -1.2346
  -8.600  -0.1183   0.01302   0.00789  -0.1876  0.8436  0.0121  -5.2741   0.0000   0.0000   0.0000  -1.3966
  -8.500  -0.1057   0.01278   0.00758  -0.1882  0.8401  0.0122  -5.1726   0.0000   0.0000   0.0000  -1.5979
  -8.400  -0.0931   0.01259   0.00731  -0.1887  0.8366  0.0124  -5.0699   0.0000   0.0000   0.0000  -1.8514
  -8.300  -0.0805   0.01240   0.00705  -0.1892  0.8331  0.0126  -4.9677   0.0000   0.0000   0.0000  -2.1845
  -8.200  -0.0677   0.01219   0.00676  -0.1897  0.8296  0.0126  -4.8675   0.0000   0.0000   0.0000  -2.6509
  -8.100  -0.0551   0.01198   0.00650  -0.1902  0.8267  0.0126  -4.7676   0.0000   0.0000   0.0000  -3.3252
  -8.000  -0.0425   0.01179   0.00625  -0.1907  0.8234  0.0126  -4.6678   0.0000   0.0000   0.0000  -4.3957
  -7.900  -0.0299   0.01161   0.00602  -0.1911  0.8196  0.0127  -4.5681   0.0000   0.0000   0.0000  -6.3568
  -7.800  -0.0174   0.01146   0.00581  -0.1915  0.8156  0.0127  -4.4687   0.0000   0.0000   0.0000  -11.1058
  -7.700  -0.0050   0.01133   0.00561  -0.1919  0.8114  0.0127  -4.3700   0.0000   0.0000   0.0000  -39.0059
  -7.500   0.0196   0.01109   0.00525  -0.1926  0.8030  0.0129  -4.1739   0.0000   0.0000   0.0000  10.3949
  -7.400   0.0319   0.01096   0.00508  -0.1929  0.7994  0.0129  -4.0763   0.0000   0.0000   0.0000   6.4768
  -7.300   0.0442   0.01085   0.00493  -0.1932  0.7954  0.0130  -3.9794   0.0000   0.0000   0.0000   4.7521
  -7.200   0.0564   0.01076   0.00478  -0.1935  0.7912  0.0130  -3.8833   0.0000   0.0000   0.0000   3.7819
  -7.100   0.0685   0.01067   0.00464  -0.1938  0.7870  0.0131  -3.7880   0.0000   0.0000   0.0000   3.1600
  -7.000   0.0806   0.01060   0.00452  -0.1940  0.7826  0.0132  -3.6934   0.0000   0.0000   0.0000   2.7273
  -6.900   0.0927   0.01054   0.00437  -0.1942  0.7782  0.0133  -3.5970   0.0000   0.0000   0.0000   2.4055
  -6.800   0.1050   0.01045   0.00426  -0.1945  0.7757  0.0134  -3.5138   0.0000   0.0000   0.0000   2.1538
  -6.700   0.1174   0.01036   0.00415  -0.1948  0.7727  0.0135  -3.4460   0.0000   0.0000   0.0000   1.9557
  -6.600   0.1296   0.01028   0.00405  -0.1951  0.7693  0.0135  -3.3783   0.0000   0.0000   0.0000   1.7958
  -6.500   0.1418   0.01021   0.00395  -0.1953  0.7656  0.0137  -3.3107   0.0000   0.0000   0.0000   1.6642
  -6.400   0.1539   0.01015   0.00386  -0.1955  0.7616  0.0138  -3.2432   0.0000   0.0000   0.0000   1.5540
  -6.300   0.1658   0.01010   0.00378  -0.1957  0.7576  0.0139  -3.1759   0.0000   0.0000   0.0000   1.4606
  -6.200   0.1776   0.01007   0.00370  -0.1959  0.7534  0.0140  -3.1088   0.0000   0.0000   0.0000   1.3804
  -6.100   0.1896   0.01003   0.00363  -0.1961  0.7496  0.0141  -3.0412   0.0000   0.0000   0.0000   1.3097
  -6.000   0.2017   0.00997   0.00356  -0.1963  0.7467  0.0143  -2.9724   0.0000   0.0000   0.0000   1.2465
  -5.900   0.2138   0.00992   0.00350  -0.1965  0.7433  0.0144  -2.9035   0.0000   0.0000   0.0000   1.1908
  -5.800   0.2258   0.00989   0.00344  -0.1967  0.7398  0.0146  -2.8342   0.0000   0.0000   0.0000   1.1413
  -5.700   0.2376   0.00986   0.00340  -0.1968  0.7361  0.0148  -2.7645   0.0000   0.0000   0.0000   1.0971
  -5.600   0.2494   0.00984   0.00336  -0.1970  0.7325  0.0150  -2.6941   0.0000   0.0000   0.0000   1.0574
  -5.500   0.2610   0.00983   0.00333  -0.1971  0.7289  0.0152  -2.6227   0.0000   0.0000   0.0000   1.0215
  -5.400   0.2725   0.00984   0.00331  -0.1971  0.7253  0.0154  -2.5499   0.0000   0.0000   0.0000   0.9888
  -5.300   0.2840   0.00985   0.00331  -0.1972  0.7217  0.0157  -2.4751   0.0000   0.0000   0.0000   0.9588
  -5.200   0.2958   0.00983   0.00332  -0.1973  0.7199  0.0159  -2.3969   0.0000   0.0000   0.0000   0.9307
  -5.100   0.3075   0.00983   0.00336  -0.1974  0.7180  0.0162  -2.3162   0.0000   0.0000   0.0000   0.9050
  -5.000   0.3189   0.00985   0.00342  -0.1975  0.7158  0.0164  -2.2328   0.0000   0.0000   0.0000   0.8814
  -4.900   0.3300   0.00990   0.00351  -0.1975  0.7135  0.0167  -2.1465   0.0000   0.0000   0.0000   0.8597
  -4.800   0.3407   0.00998   0.00364  -0.1973  0.7108  0.0169  -2.0565   0.0000   0.0000   0.0000   0.8399
  -4.700   0.3505   0.01014   0.00387  -0.1969  0.7079  0.0172  -1.9592   0.0000   0.0000   0.0000   0.8220
  -4.600   0.3608   0.01026   0.00403  -0.1967  0.7048  0.0177  -1.8799   0.0000   0.0000   0.0000   0.8048
  -4.500   0.3749   0.01003   0.00373  -0.1975  0.7015  0.0184  -1.8465   0.0000   0.0000   0.0000   0.7858
  -4.400   0.3882   0.00988   0.00354  -0.1980  0.6983  0.0190  -1.8069   0.0000   0.0000   0.0000   0.7687
  -4.300   0.4009   0.00979   0.00338  -0.1984  0.6950  0.0197  -1.7633   0.0000   0.0000   0.0000   0.7530
  -4.100   0.4259   0.00966   0.00319  -0.1991  0.6897  0.0206  -1.6672   0.0000   0.0000   0.0000   0.7246
  -4.000   0.4384   0.00959   0.00311  -0.1994  0.6874  0.0210  -1.6178   0.0000   0.0000   0.0000   0.7115
  -3.900   0.4510   0.00953   0.00304  -0.1997  0.6850  0.0213  -1.5683   0.0000   0.0000   0.0000   0.6992
  -3.800   0.4634   0.00947   0.00297  -0.2000  0.6823  0.0216  -1.5190   0.0000   0.0000   0.0000   0.6876
  -3.700   0.4758   0.00942   0.00290  -0.2003  0.6796  0.0219  -1.4701   0.0000   0.0000   0.0000   0.6766
  -3.600   0.4881   0.00938   0.00283  -0.2005  0.6768  0.0222  -1.4216   0.0000   0.0000   0.0000   0.6662
  -3.500   0.5004   0.00934   0.00277  -0.2008  0.6739  0.0224  -1.3738   0.0000   0.0000   0.0000   0.6563
  -3.400   0.5126   0.00930   0.00271  -0.2010  0.6709  0.0226  -1.3265   0.0000   0.0000   0.0000   0.6469
  -3.300   0.5247   0.00927   0.00266  -0.2012  0.6678  0.0231  -1.2772   0.0000   0.0000   0.0000   0.6380
  -3.200   0.5367   0.00925   0.00262  -0.2015  0.6646  0.0239  -1.2254   0.0000   0.0000   0.0000   0.6295
  -3.100   0.5487   0.00923   0.00258  -0.2017  0.6614  0.0246  -1.1731   0.0000   0.0000   0.0000   0.6214
  -3.000   0.5611   0.00918   0.00254  -0.2019  0.6597  0.0253  -1.1219   0.0000   0.0000   0.0000   0.6135
  -2.900   0.5735   0.00914   0.00250  -0.2022  0.6579  0.0258  -1.0734   0.0000   0.0000   0.0000   0.6060
  -2.800   0.5860   0.00910   0.00245  -0.2025  0.6557  0.0261  -1.0276   0.0000   0.0000   0.0000   0.5987
  -2.700   0.5984   0.00905   0.00239  -0.2028  0.6530  0.0263  -0.9842   0.0000   0.0000   0.0000   0.5917
  -2.600   0.6108   0.00902   0.00233  -0.2030  0.6499  0.0263  -0.9427   0.0000   0.0000   0.0000   0.5850
  -2.500   0.6231   0.00899   0.00228  -0.2033  0.6463  0.0263  -0.9021   0.0000   0.0000   0.0000   0.5786
  -2.400   0.6352   0.00897   0.00222  -0.2034  0.6423  0.0262  -0.8908   0.0000   0.0000   0.0000   0.5725
  -2.300   0.6472   0.00896   0.00216  -0.2036  0.6381  0.0260  -0.8995   0.0000   0.0000   0.0000   0.5666
  -2.200   0.6589   0.00897   0.00213  -0.2037  0.6337  0.0262  -0.9081   0.0000   0.0000   0.0000   0.5609
  -2.100   0.6705   0.00898   0.00211  -0.2038  0.6295  0.0263  -0.9167   0.0000   0.0000   0.0000   0.5555
  -2.000   0.6825   0.00897   0.00208  -0.2039  0.6265  0.0263  -0.9255   0.0000   0.0000   0.0000   0.5502
  -1.900   0.6944   0.00897   0.00205  -0.2041  0.6231  0.0264  -0.9342   0.0000   0.0000   0.0000   0.5451
  -1.800   0.7062   0.00897   0.00203  -0.2042  0.6195  0.0265  -0.9430   0.0000   0.0000   0.0000   0.5402
  -1.700   0.7180   0.00898   0.00201  -0.2043  0.6156  0.0265  -0.9517   0.0000   0.0000   0.0000   0.5354
  -1.600   0.7297   0.00899   0.00200  -0.2044  0.6117  0.0266  -0.9613   0.0000   0.0000   0.0000   0.5308
  -1.500   0.7412   0.00900   0.00198  -0.2045  0.6078  0.0267  -0.9714   0.0000   0.0000   0.0000   0.5264
  -1.400   0.7527   0.00903   0.00198  -0.2046  0.6037  0.0268  -0.9815   0.0000   0.0000   0.0000   0.5221
  -1.300   0.7641   0.00905   0.00197  -0.2046  0.5995  0.0268  -0.9915   0.0000   0.0000   0.0000   0.5179
  -1.200   0.7759   0.00906   0.00196  -0.2047  0.5967  0.0268  -1.0018   0.0000   0.0000   0.0000   0.5138
  -1.100   0.7879   0.00906   0.00196  -0.2049  0.5944  0.0268  -1.0122   0.0000   0.0000   0.0000   0.5098
  -1.000   0.7998   0.00906   0.00195  -0.2050  0.5915  0.0269  -1.0226   0.0000   0.0000   0.0000   0.5060
  -0.900   0.8118   0.00905   0.00194  -0.2052  0.5877  0.0291  -1.0330   0.0000   0.0000   0.0000   0.5023
  -0.800   0.8236   0.00906   0.00194  -0.2053  0.5827  0.0326  -1.0434   0.0000   0.0000   0.0000   0.4986
  -0.700   0.8350   0.00909   0.00194  -0.2054  0.5768  0.0332  -1.0535   0.0000   0.0000   0.0000   0.4951
  -0.600   0.8460   0.00914   0.00195  -0.2054  0.5704  0.0336  -1.0635   0.0000   0.0000   0.0000   0.4917
  -0.500   0.8571   0.00919   0.00197  -0.2053  0.5645  0.0339  -1.0734   0.0000   0.0000   0.0000   0.4884
  -0.400   0.8685   0.00922   0.00198  -0.2054  0.5604  0.0343  -1.0836   0.0000   0.0000   0.0000   0.4852
  -0.300   0.8799   0.00925   0.00199  -0.2054  0.5560  0.0346  -1.0938   0.0000   0.0000   0.0000   0.4820
  -0.200   0.8912   0.00929   0.00201  -0.2055  0.5515  0.0350  -1.1039   0.0000   0.0000   0.0000   0.4789
  -0.100   0.9024   0.00934   0.00203  -0.2055  0.5463  0.0356  -1.1139   0.0000   0.0000   0.0000   0.4759
   0.000   0.9132   0.00941   0.00206  -0.2054  0.5402  0.0364  -1.1238   0.0000   0.0000   0.0000   0.4730
   0.100   0.9240   0.00948   0.00210  -0.2054  0.5334  0.0371  -1.1336   0.0000   0.0000   0.0000   0.4702
   0.200   0.9356   0.00950   0.00212  -0.2055  0.5296  0.0379  -1.1440   0.0000   0.0000   0.0000   0.4674
   0.300   0.9471   0.00953   0.00214  -0.2055  0.5236  0.0388  -1.1543   0.0000   0.0000   0.0000   0.4647
   0.400   0.9576   0.00962   0.00218  -0.2054  0.5103  0.0412  -1.1640   0.0000   0.0000   0.0000   0.4620
   0.500   0.9672   0.00978   0.00225  -0.2051  0.4953  0.0451  -1.1732   0.0000   0.0000   0.0000   0.4595
   0.600   0.9775   0.00990   0.00231  -0.2050  0.4832  0.0487  -1.1828   0.0000   0.0000   0.0000   0.4569
   0.700   0.9875   0.01004   0.00241  -0.2048  0.4703  0.0543  -1.1940   0.0000   0.0000   0.0000   0.4545
   0.800   0.9987   0.01009   0.00245  -0.2049  0.4631  0.0663  -1.2060   0.0000   0.0000   0.0000   0.4521
   0.900   1.0109   0.01008   0.00251  -0.2052  0.4558  0.0969  -1.2187   0.0000   0.0000   0.0000   0.4498
   1.000   1.0210   0.01021   0.00259  -0.2050  0.4412  0.1034  -1.2300   0.0000   0.0000   0.0000   0.4475
   1.100   1.0315   0.01033   0.00267  -0.2050  0.4302  0.1180  -1.2416   0.0000   0.0000   0.0000   0.4452
   1.200   1.0429   0.01038   0.00273  -0.2051  0.4227  0.1446  -1.2537   0.0000   0.0000   0.0000   0.4431
   1.300   1.0544   0.01043   0.00279  -0.2053  0.4160  0.1689  -1.2676   0.0000   0.0000   0.0000   0.4410
   1.400   1.0661   0.01047   0.00287  -0.2056  0.4093  0.2055  -1.2823   0.0000   0.0000   0.0000   0.4389
   1.500   1.0784   0.01048   0.00293  -0.2060  0.4028  0.2500  -1.2975   0.0000   0.0000   0.0000   0.4370
   1.600   1.0940   0.01029   0.00301  -0.2073  0.3997  0.3576  -1.3153   0.0000   0.0000   0.0000   0.4353
   1.700   1.1075   0.01022   0.00311  -0.2079  0.3953  0.4301  -1.3316   0.0000   0.0000   0.0000   0.4334
   1.800   1.1192   0.01025   0.00322  -0.2082  0.3871  0.4691  -1.3466   0.0000   0.0000   0.0000   0.4315
   2.000   1.1393   0.01054   0.00347  -0.2079  0.3651  0.5041  -1.3742   0.0000   0.0000   0.0000   0.4277
   2.100   1.1497   0.01065   0.00356  -0.2078  0.3586  0.5099  -1.3882   0.0000   0.0000   0.0000   0.4258
   2.200   1.1600   0.01076   0.00368  -0.2076  0.3523  0.5183  -1.4022   0.0000   0.0000   0.0000   0.4240
   2.300   1.1700   0.01090   0.00378  -0.2075  0.3453  0.5230  -1.4160   0.0000   0.0000   0.0000   0.4221
   2.400   1.1804   0.01100   0.00386  -0.2073  0.3392  0.5273  -1.4309   0.0000   0.0000   0.0000   0.4203
   2.500   1.1913   0.01106   0.00392  -0.2073  0.3366  0.5311  -1.4486   0.0000   0.0000   0.0000   0.4185
   2.600   1.2020   0.01112   0.00398  -0.2072  0.3325  0.5350  -1.4661   0.0000   0.0000   0.0000   0.4168
   2.800   1.2209   0.01148   0.00424  -0.2067  0.3063  0.5463  -1.4988   0.0000   0.0000   0.0000   0.4134
   2.900   1.2305   0.01164   0.00436  -0.2064  0.2983  0.5521  -1.5177   0.0000   0.0000   0.0000   0.4117
   3.000   1.2400   0.01180   0.00448  -0.2062  0.2908  0.5579  -1.5381   0.0000   0.0000   0.0000   0.4101
   3.100   1.2494   0.01197   0.00460  -0.2059  0.2829  0.5636  -1.5583   0.0000   0.0000   0.0000   0.4084
   3.200   1.2598   0.01206   0.00469  -0.2057  0.2779  0.5714  -1.5797   0.0000   0.0000   0.0000   0.4069
   3.300   1.2705   0.01212   0.00479  -0.2057  0.2744  0.5811  -1.6016   0.0000   0.0000   0.0000   0.4053
   3.400   1.2806   0.01223   0.00489  -0.2055  0.2672  0.5899  -1.6228   0.0000   0.0000   0.0000   0.4037
   3.500   1.2884   0.01252   0.00508  -0.2049  0.2491  0.5962  -1.6415   0.0000   0.0000   0.0000   0.4022
   3.600   1.2977   0.01269   0.00522  -0.2046  0.2428  0.6040  -1.6619   0.0000   0.0000   0.0000   0.4006
   3.700   1.3069   0.01286   0.00537  -0.2043  0.2363  0.6117  -1.6822   0.0000   0.0000   0.0000   0.3991
   3.800   1.3160   0.01303   0.00551  -0.2040  0.2297  0.6180  -1.7121   0.0000   0.0000   0.0000   0.3977
   3.900   1.3255   0.01317   0.00566  -0.2037  0.2233  0.6224  -1.7433   0.0000   0.0000   0.0000   0.3962
   4.000   1.3356   0.01326   0.00575  -0.2035  0.2207  0.6269  -1.7758   0.0000   0.0000   0.0000   0.3947
   4.200   1.3557   0.01346   0.00595  -0.2031  0.2121  0.6355  -1.8408   0.0000   0.0000   0.0000   0.3919
   4.300   1.3631   0.01375   0.00617  -0.2025  0.1954  0.6400  -1.8692   0.0000   0.0000   0.0000   0.3905
   4.400   1.3719   0.01392   0.00631  -0.2021  0.1905  0.6441  -1.9002   0.0000   0.0000   0.0000   0.3891
   4.500   1.3807   0.01410   0.00647  -0.2017  0.1856  0.6480  -1.9313   0.0000   0.0000   0.0000   0.3877
   4.600   1.3894   0.01428   0.00662  -0.2013  0.1805  0.6516  -1.9622   0.0000   0.0000   0.0000   0.3864
   4.700   1.3983   0.01445   0.00675  -0.2010  0.1750  0.6550  -1.9936   0.0000   0.0000   0.0000   0.3850
   4.800   1.4077   0.01458   0.00686  -0.2007  0.1704  0.6579  -2.0260   0.0000   0.0000   0.0000   0.3837
   4.900   1.4175   0.01467   0.00696  -0.2004  0.1688  0.6604  -2.0592   0.0000   0.0000   0.0000   0.3824
   5.000   1.4271   0.01478   0.00708  -0.2002  0.1649  0.6641  -2.0922   0.0000   0.0000   0.0000   0.3811
   5.100   1.4331   0.01513   0.00736  -0.1993  0.1460  0.6678  -2.1194   0.0000   0.0000   0.0000   0.3798
   5.200   1.4398   0.01543   0.00758  -0.1986  0.1385  0.6713  -2.1477   0.0000   0.0000   0.0000   0.3785
   5.300   1.4464   0.01573   0.00782  -0.1978  0.1292  0.6748  -2.1759   0.0000   0.0000   0.0000   0.3772
   5.400   1.4548   0.01590   0.00798  -0.1974  0.1230  0.6784  -2.2074   0.0000   0.0000   0.0000   0.3759
   5.500   1.4634   0.01606   0.00813  -0.1969  0.1174  0.6821  -2.2393   0.0000   0.0000   0.0000   0.3747
   5.600   1.4679   0.01647   0.00846  -0.1958  0.1011  0.6855  -2.2645   0.0000   0.0000   0.0000   0.3734
   5.700   1.4737   0.01679   0.00870  -0.1949  0.0957  0.6887  -2.2920   0.0000   0.0000   0.0000   0.3721
   5.800   1.4805   0.01704   0.00891  -0.1942  0.0895  0.6914  -2.3209   0.0000   0.0000   0.0000   0.3708
   5.900   1.4883   0.01722   0.00909  -0.1937  0.0846  0.6960  -2.3518   0.0000   0.0000   0.0000   0.3696
   6.000   1.4969   0.01734   0.00924  -0.1932  0.0836  0.7008  -2.3846   0.0000   0.0000   0.0000   0.3684
   6.100   1.5053   0.01747   0.00939  -0.1928  0.0826  0.7055  -2.4169   0.0000   0.0000   0.0000   0.3672
   6.200   1.5123   0.01763   0.00960  -0.1920  0.0792  0.7101  -2.4473   0.0000   0.0000   0.0000   0.3660
   6.300   1.5181   0.01781   0.00978  -0.1911  0.0742  0.7147  -2.4757   0.0000   0.0000   0.0000   0.3647
   6.400   1.5218   0.01812   0.01006  -0.1898  0.0663  0.7190  -2.5007   0.0000   0.0000   0.0000   0.3634
   6.600   1.5338   0.01857   0.01049  -0.1880  0.0632  0.7296  -2.5585   0.0000   0.0000   0.0000   0.3610
   6.700   1.5396   0.01882   0.01073  -0.1871  0.0613  0.7356  -2.5869   0.0000   0.0000   0.0000   0.3598
   6.800   1.5455   0.01906   0.01096  -0.1863  0.0592  0.7418  -2.6155   0.0000   0.0000   0.0000   0.3586
   6.900   1.5518   0.01929   0.01119  -0.1855  0.0570  0.7478  -2.6447   0.0000   0.0000   0.0000   0.3574
   7.000   1.5585   0.01949   0.01141  -0.1847  0.0552  0.7540  -2.6744   0.0000   0.0000   0.0000   0.3563
   7.100   1.5652   0.01969   0.01163  -0.1840  0.0537  0.7612  -2.7044   0.0000   0.0000   0.0000   0.3551
   7.200   1.5720   0.01988   0.01185  -0.1833  0.0523  0.7686  -2.7345   0.0000   0.0000   0.0000   0.3540
   7.300   1.5791   0.02007   0.01206  -0.1827  0.0516  0.7760  -2.7669   0.0000   0.0000   0.0000   0.3529
   7.400   1.5862   0.02025   0.01227  -0.1821  0.0514  0.7837  -2.8008   0.0000   0.0000   0.0000   0.3518
   7.500   1.5931   0.02043   0.01250  -0.1814  0.0510  0.7925  -2.8343   0.0000   0.0000   0.0000   0.3508
   7.600   1.5998   0.02063   0.01273  -0.1808  0.0505  0.8014  -2.8674   0.0000   0.0000   0.0000   0.3497
   7.700   1.6064   0.02084   0.01297  -0.1800  0.0500  0.8106  -2.9000   0.0000   0.0000   0.0000   0.3486
   7.800   1.6128   0.02105   0.01322  -0.1793  0.0494  0.8215  -2.9324   0.0000   0.0000   0.0000   0.3476
   7.900   1.6190   0.02127   0.01347  -0.1786  0.0487  0.8330  -2.9645   0.0000   0.0000   0.0000   0.3465
   8.000   1.6248   0.02149   0.01374  -0.1778  0.0478  0.8476  -2.9961   0.0000   0.0000   0.0000   0.3454
   8.100   1.6303   0.02172   0.01402  -0.1769  0.0469  0.8664  -3.0271   0.0000   0.0000   0.0000   0.3444
   8.200   1.6341   0.02190   0.01428  -0.1757  0.0459  0.9040  -3.0553   0.0000   0.0000   0.0000   0.3432
   8.300   1.6350   0.02209   0.01452  -0.1739  0.0451  1.0005  -3.0777   0.0000   0.0000   0.0000   0.3419
   8.400   1.6402   0.02243   0.01485  -0.1732  0.0438  1.0005  -3.1090   0.0000   0.0000   0.0000   0.3409
   8.500   1.6451   0.02280   0.01521  -0.1723  0.0423  1.0005  -3.1399   0.0000   0.0000   0.0000   0.3399
   8.600   1.6498   0.02318   0.01558  -0.1715  0.0408  1.0005  -3.1704   0.0000   0.0000   0.0000   0.3389
   8.700   1.6547   0.02355   0.01595  -0.1707  0.0391  1.0005  -3.2005   0.0000   0.0000   0.0000   0.3379
   8.800   1.6624   0.02374   0.01621  -0.1702  0.0410  1.0005  -3.2331   0.0000   0.0000   0.0000   0.3370
   8.900   1.6676   0.02409   0.01656  -0.1695  0.0401  1.0005  -3.2636   0.0000   0.0000   0.0000   0.3361
   9.000   1.6724   0.02446   0.01694  -0.1687  0.0389  1.0005  -3.2934   0.0000   0.0000   0.0000   0.3351
   9.100   1.6777   0.02482   0.01730  -0.1680  0.0381  1.0005  -3.3255   0.0000   0.0000   0.0000   0.3342
   9.200   1.6833   0.02515   0.01764  -0.1673  0.0376  1.0005  -3.3601   0.0000   0.0000   0.0000   0.3333
   9.300   1.6887   0.02550   0.01800  -0.1667  0.0368  1.0005  -3.3949   0.0000   0.0000   0.0000   0.3324
   9.400   1.6938   0.02589   0.01838  -0.1660  0.0355  1.0005  -3.4297   0.0000   0.0000   0.0000   0.3315
   9.500   1.6975   0.02637   0.01885  -0.1651  0.0324  1.0005  -3.4649   0.0000   0.0000   0.0000   0.3306
   9.600   1.6952   0.02732   0.01971  -0.1636  0.0250  1.0005  -3.4973   0.0000   0.0000   0.0000   0.3296
   9.700   1.6945   0.02816   0.02050  -0.1623  0.0204  1.0005  -3.5010   0.0000   0.0000   0.0000   0.3287
   9.800   1.6966   0.02881   0.02113  -0.1614  0.0163  1.0005  -3.5081   0.0000   0.0000   0.0000   0.3278
  10.000   1.6911   0.03094   0.02326  -0.1585  0.0044  1.0005  -3.5427   0.0000   0.0000   0.0000   0.3261
  10.100   1.6938   0.03158   0.02392  -0.1577  0.0041  1.0005  -3.5736   0.0000   0.0000   0.0000   0.3252
  10.200   1.6967   0.03221   0.02456  -0.1569  0.0037  1.0005  -3.6167   0.0000   0.0000   0.0000   0.3244
  10.300   1.7002   0.03280   0.02516  -0.1562  0.0034  1.0005  -3.6533   0.0000   0.0000   0.0000   0.3236
  10.400   1.7038   0.03338   0.02576  -0.1556  0.0031  1.0005  -3.6829   0.0000   0.0000   0.0000   0.3228
  10.500   1.7073   0.03396   0.02637  -0.1549  0.0030  1.0005  -3.7129   0.0000   0.0000   0.0000   0.3221
  10.600   1.7108   0.03454   0.02698  -0.1542  0.0028  1.0005  -3.7442   0.0000   0.0000   0.0000   0.3213
  10.700   1.7139   0.03517   0.02763  -0.1535  0.0028  1.0005  -3.7757   0.0000   0.0000   0.0000   0.3205
  10.800   1.7171   0.03580   0.02829  -0.1529  0.0027  1.0005  -3.8078   0.0000   0.0000   0.0000   0.3198
  10.900   1.7204   0.03642   0.02894  -0.1523  0.0026  1.0005  -3.8409   0.0000   0.0000   0.0000   0.3190
  11.000   1.7238   0.03704   0.02959  -0.1516  0.0026  1.0005  -3.8746   0.0000   0.0000   0.0000   0.3183
  11.100   1.7270   0.03770   0.03027  -0.1510  0.0026  1.0005  -3.9080   0.0000   0.0000   0.0000   0.3176
  11.200   1.7299   0.03839   0.03099  -0.1504  0.0025  1.0005  -3.9407   0.0000   0.0000   0.0000   0.3169
  11.300   1.7328   0.03908   0.03171  -0.1498  0.0025  1.0005  -3.9736   0.0000   0.0000   0.0000   0.3162
  11.400   1.7358   0.03976   0.03242  -0.1492  0.0025  1.0005  -4.0072   0.0000   0.0000   0.0000   0.3155
  11.500   1.7389   0.04044   0.03313  -0.1487  0.0025  1.0005  -4.0409   0.0000   0.0000   0.0000   0.3148
  11.600   1.7418   0.04114   0.03388  -0.1481  0.0024  1.0005  -4.0737   0.0000   0.0000   0.0000   0.3141
  11.700   1.7443   0.04190   0.03468  -0.1475  0.0024  1.0005  -4.1056   0.0000   0.0000   0.0000   0.3134
  11.800   1.7466   0.04269   0.03550  -0.1469  0.0024  1.0005  -4.1372   0.0000   0.0000   0.0000   0.3128
  11.900   1.7490   0.04346   0.03630  -0.1464  0.0024  1.0005  -4.1694   0.0000   0.0000   0.0000   0.3121
  12.000   1.7516   0.04422   0.03710  -0.1458  0.0024  1.0005  -4.2020   0.0000   0.0000   0.0000   0.3115
  12.100   1.7541   0.04499   0.03790  -0.1453  0.0024  1.0005  -4.2345   0.0000   0.0000   0.0000   0.3108
  12.200   1.7561   0.04583   0.03878  -0.1448  0.0024  1.0005  -4.2786   0.0000   0.0000   0.0000   0.3102
  12.300   1.7577   0.04673   0.03971  -0.1442  0.0024  1.0005  -4.3356   0.0000   0.0000   0.0000   0.3096
  12.400   1.7595   0.04759   0.04062  -0.1437  0.0024  1.0005  -4.3938   0.0000   0.0000   0.0000   0.3090
  12.500   1.7614   0.04845   0.04150  -0.1432  0.0024  1.0005  -4.4532   0.0000   0.0000   0.0000   0.3084
  12.600   1.7634   0.04930   0.04239  -0.1427  0.0024  1.0005  -4.5129   0.0000   0.0000   0.0000   0.3078
  12.700   1.7654   0.05015   0.04328  -0.1422  0.0025  1.0005  -4.5726   0.0000   0.0000   0.0000   0.3072
  12.800   1.7667   0.05110   0.04427  -0.1417  0.0025  1.0005  -4.6294   0.0000   0.0000   0.0000   0.3067
  12.900   1.7674   0.05212   0.04533  -0.1412  0.0025  1.0005  -4.6835   0.0000   0.0000   0.0000   0.3061
  13.000   1.7685   0.05311   0.04636  -0.1408  0.0025  1.0005  -4.7390   0.0000   0.0000   0.0000   0.3056
  13.100   1.7695   0.05408   0.04736  -0.1403  0.0025  1.0005  -4.7950   0.0000   0.0000   0.0000   0.3050
  13.200   1.7705   0.05505   0.04837  -0.1398  0.0025  1.0005  -4.8508   0.0000   0.0000   0.0000   0.3045
  13.300   1.7713   0.05605   0.04941  -0.1393  0.0025  1.0005  -4.9055   0.0000   0.0000   0.0000   0.3040
  13.400   1.7711   0.05720   0.05061  -0.1389  0.0025  1.0005  -4.9551   0.0000   0.0000   0.0000   0.3035
  13.500   1.7710   0.05835   0.05179  -0.1385  0.0025  1.0005  -5.0055   0.0000   0.0000   0.0000   0.3030
  13.600   1.7714   0.05944   0.05293  -0.1381  0.0026  1.0005  -5.0583   0.0000   0.0000   0.0000   0.3026
  13.700   1.7720   0.06052   0.05404  -0.1377  0.0026  1.0005  -5.1124   0.0000   0.0000   0.0000   0.3021
  13.800   1.7727   0.06160   0.05516  -0.1373  0.0026  1.0005  -5.1666   0.0000   0.0000   0.0000   0.3016
  13.900   1.7732   0.06271   0.05631  -0.1369  0.0026  1.0005  -5.2199   0.0000   0.0000   0.0000   0.3011
  14.000   1.7726   0.06398   0.05763  -0.1366  0.0026  1.0005  -5.2675   0.0000   0.0000   0.0000   0.3007
  14.100   1.7719   0.06530   0.05899  -0.1363  0.0026  1.0005  -5.3140   0.0000   0.0000   0.0000   0.3004
  14.200   1.7716   0.06654   0.06027  -0.1360  0.0027  1.0005  -5.3629   0.0000   0.0000   0.0000   0.3000
  14.300   1.7717   0.06775   0.06153  -0.1357  0.0027  1.0005  -5.4132   0.0000   0.0000   0.0000   0.2995
  14.400   1.7717   0.06897   0.06278  -0.1354  0.0027  1.0005  -5.4635   0.0000   0.0000   0.0000   0.2991
  14.500   1.7712   0.07026   0.06412  -0.1351  0.0027  1.0005  -5.5105   0.0000   0.0000   0.0000   0.2988
  14.600   1.7697   0.07174   0.06564  -0.1349  0.0027  1.0005  -5.5514   0.0000   0.0000   0.0000   0.2985
  14.700   1.7687   0.07313   0.06707  -0.1347  0.0028  1.0005  -5.5954   0.0000   0.0000   0.0000   0.2982
  14.800   1.7682   0.07445   0.06843  -0.1345  0.0028  1.0005  -5.6415   0.0000   0.0000   0.0000   0.2978
  14.900   1.7679   0.07574   0.06976  -0.1343  0.0028  1.0005  -5.6880   0.0000   0.0000   0.0000   0.2975
  15.000   1.7675   0.07705   0.07110  -0.1341  0.0028  1.0005  -5.7339   0.0000   0.0000   0.0000   0.2972
  15.100   1.7667   0.07841   0.07251  -0.1339  0.0029  1.0005  -5.7774   0.0000   0.0000   0.0000   0.2968
  15.300   1.7627   0.08158   0.07578  -0.1338  0.0029  1.0005  -5.8523   0.0000   0.0000   0.0000   0.2964
  15.400   1.7615   0.08304   0.07729  -0.1337  0.0029  1.0005  -5.8924   0.0000   0.0000   0.0000   0.2962
  15.500   1.7605   0.08448   0.07876  -0.1336  0.0030  1.0005  -5.9332   0.0000   0.0000   0.0000   0.2959
  15.600   1.7593   0.08593   0.08025  -0.1335  0.0030  1.0005  -5.9732   0.0000   0.0000   0.0000   0.2957
  15.700   1.7567   0.08763   0.08200  -0.1335  0.0030  1.0005  -6.0044   0.0000   0.0000   0.0000   0.2956
  15.800   1.7540   0.08934   0.08375  -0.1336  0.0031  1.0005  -6.0352   0.0000   0.0000   0.0000   0.2955
  15.900   1.7524   0.09090   0.08535  -0.1336  0.0031  1.0005  -6.0714   0.0000   0.0000   0.0000   0.2953
  16.000   1.7510   0.09240   0.08689  -0.1336  0.0031  1.0005  -6.1089   0.0000   0.0000   0.0000   0.2951
  16.100   1.7496   0.09390   0.08843  -0.1336  0.0032  1.0005  -6.1458   0.0000   0.0000   0.0000   0.2949
  16.200   1.7478   0.09541   0.08998  -0.1336  0.0032  1.0005  -6.1809   0.0000   0.0000   0.0000   0.2948
  16.300   1.7444   0.09722   0.09184  -0.1338  0.0032  1.0005  -6.2066   0.0000   0.0000   0.0000   0.2947
  16.400   1.7410   0.09906   0.09372  -0.1339  0.0033  1.0005  -6.2317   0.0000   0.0000   0.0000   0.2947
  16.500   1.7385   0.10074   0.09545  -0.1341  0.0033  1.0005  -6.2616   0.0000   0.0000   0.0000   0.2947
  16.600   1.7363   0.10238   0.09714  -0.1342  0.0033  1.0005  -6.2929   0.0000   0.0000   0.0000   0.2946
  16.700   1.7341   0.10403   0.09883  -0.1344  0.0034  1.0005  -6.3239   0.0000   0.0000   0.0000   0.2945
  16.800   1.7304   0.10598   0.10083  -0.1347  0.0034  1.0005  -6.3460   0.0000   0.0000   0.0000   0.2946
  16.900   1.7267   0.10795   0.10284  -0.1350  0.0034  1.0005  -6.3675   0.0000   0.0000   0.0000   0.2947
  17.000   1.7241   0.10972   0.10466  -0.1353  0.0035  1.0005  -6.3951   0.0000   0.0000   0.0000   0.2947
  17.100   1.7218   0.11142   0.10641  -0.1355  0.0035  1.0005  -6.4243   0.0000   0.0000   0.0000   0.2947
  17.200   1.7196   0.11312   0.10816  -0.1358  0.0036  1.0005  -6.4541   0.0000   0.0000   0.0000   0.2947
  17.300   1.7174   0.11485   0.10993  -0.1361  0.0036  1.0005  -6.4829   0.0000   0.0000   0.0000   0.2948
  17.400   1.7134   0.11693   0.11207  -0.1366  0.0036  1.0005  -6.5000   0.0000   0.0000   0.0000   0.2950
  17.500   1.7096   0.11896   0.11415  -0.1371  0.0037  1.0005  -6.5183   0.0000   0.0000   0.0000   0.2952
  17.600   1.7067   0.12082   0.11606  -0.1376  0.0037  1.0005  -6.5417   0.0000   0.0000   0.0000   0.2953
  17.700   1.7043   0.12261   0.11791  -0.1380  0.0038  1.0005  -6.5672   0.0000   0.0000   0.0000   0.2954
  17.800   1.7017   0.12444   0.11979  -0.1385  0.0038  1.0005  -6.5913   0.0000   0.0000   0.0000   0.2956
  17.900   1.6969   0.12671   0.12211  -0.1392  0.0038  1.0005  -6.6007   0.0000   0.0000   0.0000   0.2960
  18.000   1.6931   0.12877   0.12423  -0.1398  0.0039  1.0005  -6.6162   0.0000   0.0000   0.0000   0.2963
  18.100   1.6904   0.13064   0.12615  -0.1403  0.0039  1.0005  -6.6375   0.0000   0.0000   0.0000   0.2965
  18.200   1.6879   0.13247   0.12804  -0.1409  0.0040  1.0005  -6.6597   0.0000   0.0000   0.0000   0.2966
  18.300   1.6853   0.13432   0.12994  -0.1415  0.0040  1.0005  -6.6805   0.0000   0.0000   0.0000   0.2968
  18.400   1.6823   0.13625   0.13193  -0.1421  0.0040  1.0005  -6.6978   0.0000   0.0000   0.0000   0.2971
  18.500   1.6771   0.13864   0.13438  -0.1430  0.0041  1.0005  -6.6998   0.0000   0.0000   0.0000   0.2977
  18.600   1.6730   0.14080   0.13660  -0.1438  0.0041  1.0005  -6.7087   0.0000   0.0000   0.0000   0.2981
  18.700   1.6697   0.14282   0.13868  -0.1446  0.0041  1.0005  -6.7212   0.0000   0.0000   0.0000   0.2985
  18.800   1.6664   0.14484   0.14075  -0.1454  0.0042  1.0005  -6.7326   0.0000   0.0000   0.0000   0.2988
  18.900   1.6623   0.14702   0.14300  -0.1463  0.0042  1.0005  -6.7376   0.0000   0.0000   0.0000   0.2993
  19.000   1.6568   0.14952   0.14556  -0.1474  0.0043  1.0005  -6.7323   0.0000   0.0000   0.0000   0.3001
  19.100   1.6528   0.15171   0.14781  -0.1483  0.0043  1.0005  -6.7353   0.0000   0.0000   0.0000   0.3006
  19.200   1.6491   0.15382   0.14998  -0.1492  0.0043  1.0005  -6.7378   0.0000   0.0000   0.0000   0.3011
  19.300   1.6452   0.15599   0.15221  -0.1502  0.0044  1.0005  -6.7356   0.0000   0.0000   0.0000   0.3016
  19.400   1.6404   0.15831   0.15460  -0.1512  0.0044  1.0005  -6.7240   0.0000   0.0000   0.0000   0.3022
  19.500   1.6337   0.16107   0.15744  -0.1526  0.0045  1.0005  -6.6941   0.0000   0.0000   0.0000   0.3032
  19.600   1.6226   0.16469   0.16118  -0.1544  0.0047  1.0005  -6.5992   0.0000   0.0000   0.0000   0.3048
  19.700   1.6215   0.16637   0.16288  -0.1553  0.0047  1.0005  -6.6308   0.0000   0.0000   0.0000   0.3051
  19.800   1.6206   0.16795   0.16450  -0.1562  0.0048  1.0005  -6.6634   0.0000   0.0000   0.0000   0.3054
  19.900   1.6196   0.16952   0.16610  -0.1570  0.0048  1.0005  -6.6953   0.0000   0.0000   0.0000   0.3057
  20.000   1.6175   0.17136   0.16797  -0.1581  0.0049  1.0005  -6.7156   0.0000   0.0000   0.0000   0.3063
  20.100   1.6149   0.17332   0.16997  -0.1594  0.0049  1.0005  -6.7301   0.0000   0.0000   0.0000   0.3069
  20.200   1.6136   0.17499   0.17168  -0.1604  0.0050  1.0005  -6.7568   0.0000   0.0000   0.0000   0.3074
  20.300   1.6127   0.17657   0.17329  -0.1613  0.0051  1.0005  -6.7872   0.0000   0.0000   0.0000   0.3077
  20.400   1.6120   0.17814   0.17489  -0.1622  0.0052  1.0005  -6.8181   0.0000   0.0000   0.0000   0.3081
  20.500   1.6111   0.17974   0.17651  -0.1632  0.0052  1.0005  -6.8480   0.0000   0.0000   0.0000   0.3084
  20.600   1.6102   0.18137   0.17818  -0.1642  0.0053  1.0005  -6.8768   0.0000   0.0000   0.0000   0.3088
  20.700   1.6091   0.18308   0.17992  -0.1652  0.0054  1.0005  -6.9026   0.0000   0.0000   0.0000   0.3093
  20.800   1.6062   0.18521   0.18209  -0.1665  0.0055  1.0005  -6.9113   0.0000   0.0000   0.0000   0.3100
  20.900   1.6032   0.18741   0.18434  -0.1679  0.0055  1.0005  -6.9172   0.0000   0.0000   0.0000   0.3108
  21.000   1.6011   0.18939   0.18637  -0.1691  0.0056  1.0005  -6.9317   0.0000   0.0000   0.0000   0.3114
  21.100   1.5994   0.19131   0.18833  -0.1702  0.0057  1.0005  -6.9487   0.0000   0.0000   0.0000   0.3120
  21.200   1.5977   0.19323   0.19028  -0.1714  0.0058  1.0005  -6.9656   0.0000   0.0000   0.0000   0.3125
  21.300   1.5956   0.19528   0.19238  -0.1726  0.0059  1.0005  -6.9765   0.0000   0.0000   0.0000   0.3132
  21.400   1.5917   0.19782   0.19497  -0.1742  0.0060  1.0005  -6.9690   0.0000   0.0000   0.0000   0.3142
  21.500   1.5893   0.19999   0.19718  -0.1755  0.0061  1.0005  -6.9742   0.0000   0.0000   0.0000   0.3149
  21.600   1.5876   0.20199   0.19923  -0.1767  0.0063  1.0005  -6.9836   0.0000   0.0000   0.0000   0.3155
  21.700   1.5865   0.20386   0.20116  -0.1778  0.0066  1.0005  -6.9928   0.0000   0.0000   0.0000   0.3160
  21.800   1.5957   0.20319   0.20063  -0.1768  0.0080  1.0005  -7.0148   0.0000   0.0000   0.0000   0.3143
  21.900   1.5961   0.20458   0.20210  -0.1774  0.0087  1.0005  -6.9965   0.0000   0.0000   0.0000   0.3143
  22.000   1.5929   0.20693   0.20453  -0.1787  0.0090  1.0005  -6.9659   0.0000   0.0000   0.0000   0.3151
  22.100   1.5887   0.20953   0.20720  -0.1802  0.0093  1.0005  -6.9298   0.0000   0.0000   0.0000   0.3160
  22.200   1.5837   0.21237   0.21012  -0.1819  0.0094  1.0005  -6.8875   0.0000   0.0000   0.0000   0.3172
  22.300   1.5781   0.21548   0.21330  -0.1837  0.0095  1.0005  -6.8381   0.0000   0.0000   0.0000   0.3185
  22.400   1.5717   0.21887   0.21676  -0.1857  0.0096  1.0005  -6.7816   0.0000   0.0000   0.0000   0.3201
  22.500   1.5644   0.22270   0.22066  -0.1881  0.0097  1.0005  -6.7211   0.0000   0.0000   0.0000   0.3219
  22.600   1.5572   0.22656   0.22460  -0.1904  0.0097  1.0005  -6.6568   0.0000   0.0000   0.0000   0.3238
  22.700   1.5498   0.23054   0.22864  -0.1928  0.0097  1.0005  -6.5868   0.0000   0.0000   0.0000   0.3257
  22.800   1.5422   0.23474   0.23291  -0.1953  0.0097  1.0005  -6.5162   0.0000   0.0000   0.0000   0.3278
  22.900   1.5347   0.23905   0.23728  -0.1978  0.0097  1.0005  -6.4441   0.0000   0.0000   0.0000   0.3299
  23.000   1.5270   0.24345   0.24174  -0.2003  0.0098  1.0005  -6.3630   0.0000   0.0000   0.0000   0.3321
  23.100   1.5191   0.24802   0.24638  -0.2029  0.0098  1.0005  -6.2776   0.0000   0.0000   0.0000   0.3343
  23.200   1.5118   0.25267   0.25108  -0.2056  0.0098  1.0005  -6.2010   0.0000   0.0000   0.0000   0.3366
  23.300   1.5044   0.25741   0.25588  -0.2082  0.0098  1.0005  -6.1206   0.0000   0.0000   0.0000   0.3389
  23.400   1.4968   0.26236   0.26089  -0.2109  0.0097  1.0005  -6.0323   0.0000   0.0000   0.0000   0.3413
  23.500   1.4893   0.26747   0.26604  -0.2136  0.0097  1.0005  -5.9450   0.0000   0.0000   0.0000   0.3437
  23.600   1.4816   0.27271   0.27132  -0.2163  0.0097  1.0005  -5.8450   0.0000   0.0000   0.0000   0.3463
  23.700   1.4733   0.27837   0.27703  -0.2192  0.0096  1.0005  -5.7319   0.0000   0.0000   0.0000   0.3490
  23.800   1.4643   0.28463   0.28334  -0.2222  0.0095  1.0005  -5.6073   0.0000   0.0000   0.0000   0.3520
  23.900   1.4538   0.29179   0.29055  -0.2255  0.0094  1.0005  -5.4496   0.0000   0.0000   0.0000   0.3555
  24.000   1.4420   0.29978   0.29858  -0.2291  0.0093  1.0005  -5.2503   0.0000   0.0000   0.0000   0.3594
  24.100   1.4220   0.31262   0.31147  -0.2342  0.0089  1.0005  -4.8758   0.0000   0.0000   0.0000   0.3658


