xflr5 v6.61

 Calculated polar for: WORTMANN FX 60-126 AIRFOIL

 1 1 Reynolds number fixed          Mach number fixed         

 xtrf =   1.000 (top)        1.000 (bottom)
 Mach =   0.000     Re =     0.130 e 6     Ncrit =   9.000

  alpha     CL        CD       CDp       Cm    Top Xtr Bot Xtr   Cpmin    Chinge    XCp    
 ------- -------- --------- --------- -------- ------- ------- -------- --------- ---------
 -10.000  -0.3756   0.10430   0.09996  -0.0416  1.0000  0.0863  -1.7200   0.0000   0.0000   0.0000   0.1265
  -9.900  -0.3718   0.10293   0.09860  -0.0413  1.0000  0.0867  -1.7064   0.0000   0.0000   0.0000   0.1260
  -9.800  -0.3685   0.10160   0.09727  -0.0413  1.0000  0.0870  -1.6972   0.0000   0.0000   0.0000   0.1253
  -9.700  -0.3660   0.10024   0.09593  -0.0413  1.0000  0.0874  -1.6933   0.0000   0.0000   0.0000   0.1244
  -9.600  -0.3641   0.09886   0.09457  -0.0415  1.0000  0.0877  -1.6937   0.0000   0.0000   0.0000   0.1234
  -9.400  -0.3908   0.08434   0.08006  -0.0492  1.0000  0.0498  -2.2934   0.0000   0.0000   0.0000   0.1112
  -9.300  -0.3912   0.08296   0.07870  -0.0491  1.0000  0.0488  -2.2972   0.0000   0.0000   0.0000   0.1117
  -9.200  -0.3927   0.08134   0.07711  -0.0493  1.0000  0.0478  -2.3174   0.0000   0.0000   0.0000   0.1118
  -9.100  -0.3971   0.07919   0.07500  -0.0500  1.0000  0.0466  -2.3665   0.0000   0.0000   0.0000   0.1117
  -9.000  -0.4056   0.07622   0.07207  -0.0512  1.0000  0.0451  -2.4587   0.0000   0.0000   0.0000   0.1116
  -8.900  -0.4424   0.06785   0.06375  -0.0564  1.0000  0.0423  -2.8208   0.0000   0.0000   0.0000   0.1108
  -8.800  -0.4673   0.06457   0.06050  -0.0578  1.0000  0.0419  -2.9703   0.0000   0.0000   0.0000   0.1152
  -8.700  -0.4833   0.06329   0.05925  -0.0572  1.0000  0.0418  -3.0269   0.0000   0.0000   0.0000   0.1209
  -8.600  -0.4973   0.06233   0.05832  -0.0563  1.0000  0.0419  -3.0661   0.0000   0.0000   0.0000   0.1264
  -8.500  -0.5126   0.06071   0.05671  -0.0568  1.0000  0.0418  -3.1277   0.0000   0.0000   0.0000   0.1293
  -8.400  -0.5282   0.05871   0.05467  -0.0582  1.0000  0.0416  -3.2028   0.0000   0.0000   0.0000   0.1301
  -8.300  -0.5523   0.05510   0.05086  -0.0621  1.0000  0.0408  -3.3749   0.0000   0.0000   0.0000   0.1283
  -8.200  -0.5638   0.05274   0.04818  -0.0643  1.0000  0.0392  -3.5137   0.0000   0.0000   0.0000   0.1270
  -8.100  -0.5618   0.05234   0.04768  -0.0642  1.0000  0.0387  -3.5037   0.0000   0.0000   0.0000   0.1269
  -8.000  -0.5583   0.05209   0.04738  -0.0638  1.0000  0.0384  -3.4758   0.0000   0.0000   0.0000   0.1269
  -7.900  -0.5573   0.05013   0.04542  -0.0635  1.0000  0.0375  -3.4885   0.0000   0.0000   0.0000   0.1273
  -7.800  -0.5589   0.04793   0.04313  -0.0642  1.0000  0.0371  -3.5214   0.0000   0.0000   0.0000   0.1265
  -7.700  -0.5588   0.04593   0.04101  -0.0650  1.0000  0.0367  -3.5467   0.0000   0.0000   0.0000   0.1252
  -7.600  -0.5570   0.04399   0.03895  -0.0658  1.0000  0.0363  -3.5676   0.0000   0.0000   0.0000   0.1234
  -7.500  -0.5539   0.04212   0.03693  -0.0666  1.0000  0.0359  -3.5852   0.0000   0.0000   0.0000   0.1212
  -7.400  -0.5494   0.04031   0.03495  -0.0675  1.0000  0.0355  -3.5995   0.0000   0.0000   0.0000   0.1187
  -7.300  -0.5436   0.03857   0.03303  -0.0684  1.0000  0.0352  -3.6107   0.0000   0.0000   0.0000   0.1158
  -7.200  -0.5368   0.03691   0.03118  -0.0692  1.0000  0.0348  -3.6184   0.0000   0.0000   0.0000   0.1127
  -7.100  -0.5290   0.03535   0.02942  -0.0700  1.0000  0.0345  -3.6223   0.0000   0.0000   0.0000   0.1093
  -7.000  -0.5205   0.03390   0.02778  -0.0707  1.0000  0.0342  -3.6222   0.0000   0.0000   0.0000   0.1058
  -6.900  -0.5113   0.03256   0.02625  -0.0713  1.0000  0.0340  -3.6177   0.0000   0.0000   0.0000   0.1021
  -6.800  -0.5015   0.03133   0.02485  -0.0719  1.0000  0.0338  -3.6088   0.0000   0.0000   0.0000   0.0982
  -6.700  -0.4913   0.03021   0.02356  -0.0724  1.0000  0.0338  -3.5955   0.0000   0.0000   0.0000   0.0941
  -6.600  -0.4810   0.02920   0.02240  -0.0729  1.0000  0.0338  -3.5784   0.0000   0.0000   0.0000   0.0900
  -6.500  -0.4699   0.02826   0.02132  -0.0733  0.9999  0.0338  -3.5572   0.0000   0.0000   0.0000   0.0855
  -6.400  -0.4538   0.02725   0.02017  -0.0746  0.9987  0.0340  -3.5258   0.0000   0.0000   0.0000   0.0769
  -6.300  -0.4377   0.02634   0.01913  -0.0758  0.9973  0.0344  -3.4916   0.0000   0.0000   0.0000   0.0679
  -6.200  -0.4213   0.02552   0.01820  -0.0771  0.9961  0.0349  -3.4548   0.0000   0.0000   0.0000   0.0581
  -6.100  -0.4050   0.02478   0.01737  -0.0782  0.9945  0.0355  -3.4166   0.0000   0.0000   0.0000   0.0478
  -6.000  -0.3883   0.02411   0.01662  -0.0794  0.9928  0.0364  -3.3762   0.0000   0.0000   0.0000   0.0362
  -5.900  -0.3708   0.02354   0.01596  -0.0808  0.9911  0.0374  -3.3325   0.0000   0.0000   0.0000   0.0228
  -5.800  -0.3537   0.02276   0.01513  -0.0821  0.9895  0.0388  -3.3037   0.0000   0.0000   0.0000   0.0083
  -5.700  -0.3368   0.02167   0.01408  -0.0837  0.9878  0.0420  -3.2813   0.0000   0.0000   0.0000  -0.0084
  -5.600  -0.3186   0.02115   0.01350  -0.0854  0.9857  0.0461  -3.2265   0.0000   0.0000   0.0000  -0.0282
  -5.500  -0.2989   0.02036   0.01271  -0.0874  0.9842  0.0544  -3.2175   0.0000   0.0000   0.0000  -0.0529
  -5.400  -0.2777   0.01926   0.01177  -0.0900  0.9832  0.0858  -3.2321   0.0000   0.0000   0.0000  -0.0851
  -5.300  -0.2606   0.01867   0.01136  -0.0919  0.9808  0.1154  -3.1590   0.0000   0.0000   0.0000  -0.1142
  -5.200  -0.2435   0.01831   0.01110  -0.0935  0.9785  0.1403  -3.0658   0.0000   0.0000   0.0000  -0.1460
  -5.100  -0.2258   0.01801   0.01091  -0.0953  0.9764  0.1699  -2.9613   0.0000   0.0000   0.0000  -0.1847
  -5.000  -0.2074   0.01762   0.01075  -0.0974  0.9749  0.2058  -2.8531   0.0000   0.0000   0.0000  -0.2327
  -4.900  -0.1886   0.01732   0.01060  -0.0992  0.9735  0.2438  -2.7463   0.0000   0.0000   0.0000  -0.2903
  -4.800  -0.1750   0.01714   0.01053  -0.1000  0.9704  0.2724  -2.6570   0.0000   0.0000   0.0000  -0.3361
  -4.700  -0.1596   0.01707   0.01054  -0.1009  0.9677  0.2985  -2.5582   0.0000   0.0000   0.0000  -0.3980
  -4.600  -0.1432   0.01707   0.01056  -0.1021  0.9654  0.3201  -2.4541   0.0000   0.0000   0.0000  -0.4798
  -4.500  -0.1255   0.01714   0.01056  -0.1034  0.9634  0.3400  -2.3458   0.0000   0.0000   0.0000  -0.5921
  -4.400  -0.1095   0.01721   0.01072  -0.1043  0.9612  0.3548  -2.2418   0.0000   0.0000   0.0000  -0.7232
  -4.300  -0.0975   0.01729   0.01070  -0.1045  0.9573  0.3678  -2.1567   0.0000   0.0000   0.0000  -0.8442
  -4.200  -0.0831   0.01733   0.01077  -0.1051  0.9543  0.3781  -2.0614   0.0000   0.0000   0.0000  -1.0413
  -4.100  -0.0670   0.01742   0.01086  -0.1060  0.9519  0.3889  -1.9605   0.0000   0.0000   0.0000  -1.3642
  -4.000  -0.0487   0.01750   0.01083  -0.1074  0.9500  0.4005  -1.8549   0.0000   0.0000   0.0000  -1.9938
  -3.900  -0.0316   0.01753   0.01090  -0.1084  0.9480  0.4094  -1.7532   0.0000   0.0000   0.0000  -3.2381
  -3.800  -0.0225   0.01761   0.01100  -0.1080  0.9428  0.4163  -1.6816   0.0000   0.0000   0.0000  -4.6210
  -3.700  -0.0071   0.01769   0.01103  -0.1087  0.9395  0.4259  -1.5899   0.0000   0.0000   0.0000  -15.2830
  -3.600   0.0111   0.01773   0.01091  -0.1100  0.9369  0.4359  -1.4932   0.0000   0.0000   0.0000  10.2824
  -3.500   0.0289   0.01774   0.01101  -0.1110  0.9349  0.4439  -1.3926   0.0000   0.0000   0.0000   4.1486
  -3.400   0.0480   0.01783   0.01111  -0.1122  0.9332  0.4532  -1.2894   0.0000   0.0000   0.0000   2.6225
  -3.300   0.0554   0.01792   0.01117  -0.1115  0.9272  0.4602  -1.2286   0.0000   0.0000   0.0000   2.2903
  -3.200   0.0709   0.01796   0.01112  -0.1123  0.9239  0.4684  -1.1426   0.0000   0.0000   0.0000   1.8542
  -3.100   0.0868   0.01794   0.01117  -0.1129  0.9214  0.4747  -1.0550   0.0000   0.0000   0.0000   1.5681
  -3.000   0.1039   0.01797   0.01122  -0.1138  0.9194  0.4814  -0.9654   0.0000   0.0000   0.0000   1.3589
  -2.900   0.1217   0.01798   0.01122  -0.1149  0.9177  0.4889  -0.8760   0.0000   0.0000   0.0000   1.2048
  -2.800   0.1400   0.01799   0.01115  -0.1161  0.9162  0.4968  -0.7918   0.0000   0.0000   0.0000   1.0885
  -2.700   0.1475   0.01804   0.01118  -0.1155  0.9107  0.5020  -0.7635   0.0000   0.0000   0.0000   1.0411
  -2.600   0.1588   0.01804   0.01124  -0.1153  0.9068  0.5072  -0.7359   0.0000   0.0000   0.0000   0.9835
  -2.500   0.1724   0.01808   0.01132  -0.1155  0.9039  0.5134  -0.7053   0.0000   0.0000   0.0000   0.9263
  -2.400   0.1875   0.01811   0.01135  -0.1160  0.9015  0.5207  -0.6733   0.0000   0.0000   0.0000   0.8739
  -2.300   0.2041   0.01811   0.01130  -0.1168  0.8996  0.5285  -0.6404   0.0000   0.0000   0.0000   0.8271
  -2.200   0.2210   0.01803   0.01118  -0.1177  0.8979  0.5348  -0.6076   0.0000   0.0000   0.0000   0.7869
  -2.100   0.2311   0.01801   0.01121  -0.1173  0.8938  0.5392  -0.5826   0.0000   0.0000   0.0000   0.7614
  -2.000   0.2395   0.01805   0.01127  -0.1166  0.8882  0.5434  -0.5599   0.0000   0.0000   0.0000   0.7403
  -1.900   0.2525   0.01801   0.01124  -0.1167  0.8846  0.5484  -0.5510   0.0000   0.0000   0.0000   0.7151
  -1.800   0.2674   0.01792   0.01108  -0.1171  0.8817  0.5540  -0.5616   0.0000   0.0000   0.0000   0.6905
  -1.700   0.2834   0.01782   0.01093  -0.1178  0.8793  0.5600  -0.5728   0.0000   0.0000   0.0000   0.6678
  -1.600   0.3001   0.01772   0.01075  -0.1186  0.8772  0.5655  -0.5845   0.0000   0.0000   0.0000   0.6469
  -1.500   0.3092   0.01762   0.01069  -0.1180  0.8721  0.5693  -0.5918   0.0000   0.0000   0.0000   0.6333
  -1.400   0.3180   0.01759   0.01069  -0.1174  0.8663  0.5729  -0.5989   0.0000   0.0000   0.0000   0.6205
  -1.300   0.3301   0.01750   0.01062  -0.1172  0.8624  0.5772  -0.6081   0.0000   0.0000   0.0000   0.6063
  -1.200   0.3434   0.01741   0.01052  -0.1173  0.8593  0.5820  -0.6180   0.0000   0.0000   0.0000   0.5925
  -1.100   0.3574   0.01730   0.01040  -0.1175  0.8567  0.5873  -0.6283   0.0000   0.0000   0.0000   0.5795
  -1.000   0.3719   0.01721   0.01026  -0.1179  0.8546  0.5927  -0.6389   0.0000   0.0000   0.0000   0.5675
  -0.900   0.3819   0.01728   0.01028  -0.1178  0.8492  0.5972  -0.6464   0.0000   0.0000   0.0000   0.5587
  -0.800   0.3910   0.01720   0.01024  -0.1173  0.8438  0.6010  -0.6548   0.0000   0.0000   0.0000   0.5501
  -0.700   0.4020   0.01712   0.01018  -0.1170  0.8397  0.6048  -0.6649   0.0000   0.0000   0.0000   0.5410
  -0.600   0.4140   0.01701   0.01009  -0.1168  0.8363  0.6089  -0.6759   0.0000   0.0000   0.0000   0.5319
  -0.500   0.4268   0.01690   0.00997  -0.1168  0.8333  0.6134  -0.6873   0.0000   0.0000   0.0000   0.5232
  -0.400   0.4402   0.01677   0.00982  -0.1169  0.8307  0.6181  -0.6993   0.0000   0.0000   0.0000   0.5148
  -0.300   0.4499   0.01680   0.00984  -0.1166  0.8249  0.6223  -0.7083   0.0000   0.0000   0.0000   0.5084
  -0.200   0.4604   0.01679   0.00980  -0.1165  0.8189  0.6265  -0.7180   0.0000   0.0000   0.0000   0.5021
  -0.100   0.4724   0.01669   0.00967  -0.1165  0.8143  0.6304  -0.7288   0.0000   0.0000   0.0000   0.4955
   0.000   0.4840   0.01651   0.00951  -0.1162  0.8106  0.6339  -0.7397   0.0000   0.0000   0.0000   0.4889
   0.100   0.4962   0.01636   0.00936  -0.1160  0.8073  0.6375  -0.7510   0.0000   0.0000   0.0000   0.4825
   0.200   0.5086   0.01624   0.00924  -0.1158  0.8044  0.6416  -0.7626   0.0000   0.0000   0.0000   0.4763
   0.300   0.5166   0.01631   0.00934  -0.1153  0.7972  0.6457  -0.7705   0.0000   0.0000   0.0000   0.4717
   0.400   0.5271   0.01628   0.00931  -0.1151  0.7917  0.6506  -0.7804   0.0000   0.0000   0.0000   0.4666
   0.500   0.5390   0.01621   0.00922  -0.1150  0.7872  0.6559  -0.7913   0.0000   0.0000   0.0000   0.4616
   0.600   0.5517   0.01613   0.00910  -0.1151  0.7833  0.6611  -0.8039   0.0000   0.0000   0.0000   0.4567
   0.700   0.5630   0.01598   0.00896  -0.1147  0.7800  0.6655  -0.8170   0.0000   0.0000   0.0000   0.4517
   0.800   0.5735   0.01594   0.00895  -0.1143  0.7759  0.6700  -0.8291   0.0000   0.0000   0.0000   0.4472
   0.900   0.5823   0.01598   0.00904  -0.1139  0.7693  0.6747  -0.8398   0.0000   0.0000   0.0000   0.4434
   1.000   0.5929   0.01595   0.00901  -0.1137  0.7639  0.6798  -0.8520   0.0000   0.0000   0.0000   0.4393
   1.100   0.6047   0.01587   0.00891  -0.1136  0.7591  0.6848  -0.8652   0.0000   0.0000   0.0000   0.4354
   1.200   0.6173   0.01579   0.00878  -0.1136  0.7549  0.6896  -0.8811   0.0000   0.0000   0.0000   0.4315
   1.300   0.6292   0.01567   0.00863  -0.1135  0.7512  0.6938  -0.8976   0.0000   0.0000   0.0000   0.4276
   1.400   0.6386   0.01565   0.00866  -0.1131  0.7454  0.6978  -0.9116   0.0000   0.0000   0.0000   0.4242
   1.500   0.6482   0.01564   0.00869  -0.1127  0.7391  0.7021  -0.9294   0.0000   0.0000   0.0000   0.4209
   1.600   0.6589   0.01559   0.00864  -0.1124  0.7336  0.7070  -0.9487   0.0000   0.0000   0.0000   0.4176
   1.700   0.6705   0.01551   0.00855  -0.1123  0.7288  0.7122  -0.9688   0.0000   0.0000   0.0000   0.4143
   1.800   0.6827   0.01545   0.00844  -0.1122  0.7246  0.7177  -0.9898   0.0000   0.0000   0.0000   0.4111
   1.900   0.6948   0.01542   0.00836  -0.1122  0.7206  0.7227  -1.0107   0.0000   0.0000   0.0000   0.4081
   2.000   0.7036   0.01543   0.00846  -0.1118  0.7142  0.7273  -1.0279   0.0000   0.0000   0.0000   0.4054
   2.100   0.7135   0.01542   0.00848  -0.1114  0.7081  0.7324  -1.0465   0.0000   0.0000   0.0000   0.4026
   2.200   0.7242   0.01536   0.00843  -0.1112  0.7024  0.7382  -1.0663   0.0000   0.0000   0.0000   0.3998
   2.300   0.7357   0.01529   0.00832  -0.1110  0.6971  0.7447  -1.0871   0.0000   0.0000   0.0000   0.3970
   2.400   0.7479   0.01523   0.00824  -0.1109  0.6921  0.7511  -1.1088   0.0000   0.0000   0.0000   0.3943
   2.500   0.7565   0.01521   0.00828  -0.1103  0.6851  0.7567  -1.1264   0.0000   0.0000   0.0000   0.3918
   2.600   0.7659   0.01517   0.00828  -0.1098  0.6778  0.7634  -1.1451   0.0000   0.0000   0.0000   0.3892
   2.700   0.7764   0.01511   0.00820  -0.1094  0.6712  0.7708  -1.1652   0.0000   0.0000   0.0000   0.3867
   2.800   0.7879   0.01505   0.00809  -0.1092  0.6652  0.7785  -1.1865   0.0000   0.0000   0.0000   0.3843
   2.900   0.7978   0.01499   0.00801  -0.1087  0.6596  0.7855  -1.2063   0.0000   0.0000   0.0000   0.3817
   3.000   0.8066   0.01499   0.00807  -0.1082  0.6521  0.7939  -1.2244   0.0000   0.0000   0.0000   0.3795
   3.100   0.8169   0.01498   0.00807  -0.1079  0.6449  0.8031  -1.2442   0.0000   0.0000   0.0000   0.3774
   3.200   0.8262   0.01490   0.00801  -0.1073  0.6387  0.8114  -1.2634   0.0000   0.0000   0.0000   0.3751
   3.300   0.8363   0.01486   0.00793  -0.1068  0.6331  0.8212  -1.2836   0.0000   0.0000   0.0000   0.3728
   3.400   0.8466   0.01487   0.00791  -0.1065  0.6274  0.8317  -1.3038   0.0000   0.0000   0.0000   0.3708
   3.500   0.8544   0.01484   0.00797  -0.1057  0.6209  0.8428  -1.3212   0.0000   0.0000   0.0000   0.3686
   3.600   0.8632   0.01481   0.00798  -0.1052  0.6144  0.8559  -1.3403   0.0000   0.0000   0.0000   0.3666
   3.700   0.8711   0.01473   0.00794  -0.1043  0.6085  0.8717  -1.3636   0.0000   0.0000   0.0000   0.3644
   3.800   0.8789   0.01463   0.00785  -0.1033  0.6031  0.8939  -1.3871   0.0000   0.0000   0.0000   0.3621
   3.900   0.8890   0.01452   0.00772  -0.1028  0.5977  0.9601  -1.4138   0.0000   0.0000   0.0000   0.3601
   4.000   0.9028   0.01461   0.00784  -0.1036  0.5907  1.0000  -1.4440   0.0000   0.0000   0.0000   0.3591
   4.100   0.9159   0.01471   0.00794  -0.1042  0.5838  1.0000  -1.4739   0.0000   0.0000   0.0000   0.3581
   4.200   0.9287   0.01480   0.00799  -0.1047  0.5774  1.0000  -1.5038   0.0000   0.0000   0.0000   0.3569
   4.300   0.9415   0.01489   0.00809  -0.1050  0.5713  1.0000  -1.5341   0.0000   0.0000   0.0000   0.3556
   4.400   0.9544   0.01504   0.00811  -0.1053  0.5653  1.0000  -1.5648   0.0000   0.0000   0.0000   0.3543
   4.500   0.9654   0.01514   0.00826  -0.1055  0.5585  1.0000  -1.5924   0.0000   0.0000   0.0000   0.3531
   4.600   0.9764   0.01523   0.00835  -0.1055  0.5511  1.0000  -1.6207   0.0000   0.0000   0.0000   0.3518
   4.700   0.9876   0.01531   0.00840  -0.1055  0.5439  1.0000  -1.6495   0.0000   0.0000   0.0000   0.3504
   4.800   0.9990   0.01542   0.00841  -0.1055  0.5371  1.0000  -1.6791   0.0000   0.0000   0.0000   0.3491
   4.900   1.0101   0.01556   0.00849  -0.1055  0.5302  1.0000  -1.7081   0.0000   0.0000   0.0000   0.3477
   5.000   1.0203   0.01565   0.00863  -0.1054  0.5224  1.0000  -1.7385   0.0000   0.0000   0.0000   0.3465
   5.100   1.0307   0.01574   0.00872  -0.1052  0.5148  1.0000  -1.7771   0.0000   0.0000   0.0000   0.3452
   5.200   1.0414   0.01584   0.00877  -0.1051  0.5076  1.0000  -1.8167   0.0000   0.0000   0.0000   0.3439
   5.300   1.0523   0.01600   0.00882  -0.1050  0.5008  1.0000  -1.8573   0.0000   0.0000   0.0000   0.3426
   5.400   1.0624   0.01611   0.00897  -0.1049  0.4937  1.0000  -1.8956   0.0000   0.0000   0.0000   0.3414
   5.500   1.0725   0.01621   0.00910  -0.1047  0.4860  1.0000  -1.9344   0.0000   0.0000   0.0000   0.3402
   5.600   1.0826   0.01632   0.00919  -0.1045  0.4786  1.0000  -1.9740   0.0000   0.0000   0.0000   0.3390
   5.700   1.0930   0.01647   0.00926  -0.1043  0.4717  1.0000  -2.0143   0.0000   0.0000   0.0000   0.3378
   5.800   1.1032   0.01664   0.00938  -0.1041  0.4649  1.0000  -2.0543   0.0000   0.0000   0.0000   0.3366
   5.900   1.1130   0.01674   0.00956  -0.1039  0.4572  1.0000  -2.0932   0.0000   0.0000   0.0000   0.3355
   6.000   1.1229   0.01686   0.00969  -0.1037  0.4494  1.0000  -2.1327   0.0000   0.0000   0.0000   0.3343
   6.100   1.1327   0.01701   0.00986  -0.1035  0.4419  1.0000  -2.1724   0.0000   0.0000   0.0000   0.3332
   6.200   1.1426   0.01721   0.00996  -0.1032  0.4348  1.0000  -2.2129   0.0000   0.0000   0.0000   0.3320
   6.300   1.1522   0.01732   0.01016  -0.1030  0.4271  1.0000  -2.2522   0.0000   0.0000   0.0000   0.3309
   6.400   1.1617   0.01746   0.01031  -0.1027  0.4188  1.0000  -2.2919   0.0000   0.0000   0.0000   0.3298
   6.500   1.1711   0.01762   0.01043  -0.1024  0.4107  1.0000  -2.3318   0.0000   0.0000   0.0000   0.3287
   6.600   1.1803   0.01785   0.01056  -0.1020  0.4029  1.0000  -2.3766   0.0000   0.0000   0.0000   0.3276
   6.700   1.1897   0.01799   0.01077  -0.1018  0.3943  1.0000  -2.4226   0.0000   0.0000   0.0000   0.3266
   6.800   1.1987   0.01814   0.01095  -0.1014  0.3850  1.0000  -2.4687   0.0000   0.0000   0.0000   0.3255
   6.900   1.2074   0.01835   0.01110  -0.1010  0.3760  1.0000  -2.5145   0.0000   0.0000   0.0000   0.3244
   7.000   1.2161   0.01858   0.01128  -0.1006  0.3673  1.0000  -2.5602   0.0000   0.0000   0.0000   0.3234
   7.100   1.2249   0.01876   0.01150  -0.1003  0.3574  1.0000  -2.6061   0.0000   0.0000   0.0000   0.3224
   7.200   1.2331   0.01899   0.01168  -0.0998  0.3475  1.0000  -2.6510   0.0000   0.0000   0.0000   0.3213
   7.300   1.2408   0.01930   0.01188  -0.0993  0.3380  1.0000  -2.6951   0.0000   0.0000   0.0000   0.3202
   7.400   1.2493   0.01949   0.01215  -0.0989  0.3269  1.0000  -2.7405   0.0000   0.0000   0.0000   0.3192
   7.500   1.2568   0.01976   0.01237  -0.0984  0.3157  1.0000  -2.7840   0.0000   0.0000   0.0000   0.3182
   7.600   1.2640   0.02010   0.01263  -0.0978  0.3054  1.0000  -2.8269   0.0000   0.0000   0.0000   0.3172
   7.700   1.2717   0.02036   0.01291  -0.0973  0.2942  1.0000  -2.8707   0.0000   0.0000   0.0000   0.3162
   7.800   1.2780   0.02075   0.01318  -0.0966  0.2836  1.0000  -2.9116   0.0000   0.0000   0.0000   0.3151
   7.900   1.2850   0.02110   0.01351  -0.0961  0.2726  1.0000  -2.9536   0.0000   0.0000   0.0000   0.3141
   8.000   1.2919   0.02142   0.01382  -0.0955  0.2607  1.0000  -2.9955   0.0000   0.0000   0.0000   0.3131
   8.200   1.3042   0.02222   0.01450  -0.0942  0.2399  1.0000  -3.0763   0.0000   0.0000   0.0000   0.3111
   8.300   1.3097   0.02264   0.01491  -0.0935  0.2300  1.0000  -3.1154   0.0000   0.0000   0.0000   0.3101
   8.400   1.3145   0.02319   0.01532  -0.0927  0.2209  1.0000  -3.1523   0.0000   0.0000   0.0000   0.3091
   8.500   1.3218   0.02349   0.01569  -0.0921  0.2119  1.0000  -3.1948   0.0000   0.0000   0.0000   0.3082
   8.600   1.3274   0.02391   0.01607  -0.0914  0.2037  1.0000  -3.2340   0.0000   0.0000   0.0000   0.3072
   8.700   1.3316   0.02450   0.01654  -0.0906  0.1964  1.0000  -3.2694   0.0000   0.0000   0.0000   0.3062
   8.800   1.3384   0.02487   0.01694  -0.0900  0.1898  1.0000  -3.3105   0.0000   0.0000   0.0000   0.3053
   8.900   1.3445   0.02526   0.01735  -0.0894  0.1834  1.0000  -3.3502   0.0000   0.0000   0.0000   0.3044
   9.000   1.3493   0.02576   0.01779  -0.0886  0.1776  1.0000  -3.3871   0.0000   0.0000   0.0000   0.3034
   9.100   1.3534   0.02646   0.01835  -0.0878  0.1716  1.0000  -3.4208   0.0000   0.0000   0.0000   0.3025
   9.200   1.3598   0.02688   0.01883  -0.0871  0.1667  1.0000  -3.4592   0.0000   0.0000   0.0000   0.3015
   9.300   1.3658   0.02728   0.01929  -0.0865  0.1616  1.0000  -3.4974   0.0000   0.0000   0.0000   0.3006
   9.400   1.3709   0.02771   0.01975  -0.0857  0.1568  1.0000  -3.5340   0.0000   0.0000   0.0000   0.2997
   9.500   1.3748   0.02822   0.02022  -0.0848  0.1525  1.0000  -3.5680   0.0000   0.0000   0.0000   0.2987
   9.600   1.3786   0.02896   0.02085  -0.0840  0.1479  1.0000  -3.6002   0.0000   0.0000   0.0000   0.2978
   9.700   1.3841   0.02951   0.02142  -0.0833  0.1441  1.0000  -3.6353   0.0000   0.0000   0.0000   0.2969
   9.800   1.3892   0.02993   0.02191  -0.0825  0.1405  1.0000  -3.6703   0.0000   0.0000   0.0000   0.2959
   9.900   1.3938   0.03039   0.02240  -0.0817  0.1369  1.0000  -3.7051   0.0000   0.0000   0.0000   0.2950
  10.000   1.3979   0.03087   0.02289  -0.0809  0.1336  1.0000  -3.7713   0.0000   0.0000   0.0000   0.2941
  10.100   1.4016   0.03142   0.02342  -0.0801  0.1304  1.0000  -3.8439   0.0000   0.0000   0.0000   0.2932
  10.200   1.4065   0.03219   0.02409  -0.0794  0.1267  1.0000  -3.9209   0.0000   0.0000   0.0000   0.2924
  10.300   1.4134   0.03298   0.02486  -0.0790  0.1230  1.0000  -4.0058   0.0000   0.0000   0.0000   0.2917
  10.400   1.4170   0.03339   0.02537  -0.0781  0.1208  1.0000  -4.0772   0.0000   0.0000   0.0000   0.2908
  10.500   1.4209   0.03386   0.02592  -0.0773  0.1182  1.0000  -4.1501   0.0000   0.0000   0.0000   0.2899
  10.600   1.4247   0.03436   0.02647  -0.0765  0.1155  1.0000  -4.2240   0.0000   0.0000   0.0000   0.2890
  10.700   1.4285   0.03488   0.02701  -0.0758  0.1129  1.0000  -4.2985   0.0000   0.0000   0.0000   0.2882
  10.800   1.4321   0.03542   0.02757  -0.0750  0.1105  1.0000  -4.3736   0.0000   0.0000   0.0000   0.2874
  10.900   1.4357   0.03602   0.02816  -0.0743  0.1084  1.0000  -4.4483   0.0000   0.0000   0.0000   0.2866
  11.000   1.4404   0.03677   0.02887  -0.0737  0.1060  1.0000  -4.5282   0.0000   0.0000   0.0000   0.2858
  11.100   1.4507   0.03789   0.02997  -0.0737  0.1029  1.0000  -4.6276   0.0000   0.0000   0.0000   0.2853
  11.200   1.4540   0.03844   0.03062  -0.0729  0.1017  1.0000  -4.6978   0.0000   0.0000   0.0000   0.2845
  11.300   1.4578   0.03904   0.03131  -0.0721  0.1002  1.0000  -4.7702   0.0000   0.0000   0.0000   0.2837
  11.400   1.4618   0.03967   0.03203  -0.0714  0.0986  1.0000  -4.8449   0.0000   0.0000   0.0000   0.2829
  11.500   1.4660   0.04032   0.03274  -0.0708  0.0970  1.0000  -4.9210   0.0000   0.0000   0.0000   0.2821
  11.600   1.4700   0.04099   0.03347  -0.0701  0.0954  1.0000  -4.9970   0.0000   0.0000   0.0000   0.2814
  11.700   1.4740   0.04165   0.03418  -0.0695  0.0940  1.0000  -5.0742   0.0000   0.0000   0.0000   0.2807
  11.800   1.4781   0.04233   0.03488  -0.0689  0.0926  1.0000  -5.1526   0.0000   0.0000   0.0000   0.2800
  11.900   1.4823   0.04300   0.03559  -0.0683  0.0912  1.0000  -5.2329   0.0000   0.0000   0.0000   0.2793
  12.000   1.4868   0.04370   0.03630  -0.0678  0.0900  1.0000  -5.3155   0.0000   0.0000   0.0000   0.2786
  12.100   1.4921   0.04446   0.03706  -0.0673  0.0887  1.0000  -5.4024   0.0000   0.0000   0.0000   0.2780
  12.200   1.4984   0.04537   0.03798  -0.0670  0.0872  1.0000  -5.4936   0.0000   0.0000   0.0000   0.2774
  12.300   1.5099   0.04703   0.03966  -0.0671  0.0851  1.0000  -5.6024   0.0000   0.0000   0.0000   0.2770
  12.400   1.5147   0.04849   0.04122  -0.0667  0.0840  1.0000  -5.6726   0.0000   0.0000   0.0000   0.2764
  12.500   1.5155   0.04924   0.04208  -0.0658  0.0836  1.0000  -5.7313   0.0000   0.0000   0.0000   0.2757
  12.600   1.5159   0.05003   0.04298  -0.0650  0.0831  1.0000  -5.7878   0.0000   0.0000   0.0000   0.2749
  12.700   1.5160   0.05085   0.04390  -0.0642  0.0825  1.0000  -5.8420   0.0000   0.0000   0.0000   0.2742
  12.800   1.5157   0.05169   0.04484  -0.0634  0.0818  1.0000  -5.8949   0.0000   0.0000   0.0000   0.2736
  12.900   1.5152   0.05257   0.04581  -0.0627  0.0811  1.0000  -5.9463   0.0000   0.0000   0.0000   0.2729
  13.000   1.5145   0.05346   0.04680  -0.0620  0.0803  1.0000  -5.9973   0.0000   0.0000   0.0000   0.2723
  13.100   1.5137   0.05437   0.04780  -0.0614  0.0794  1.0000  -6.0483   0.0000   0.0000   0.0000   0.2717
  13.200   1.5129   0.05528   0.04879  -0.0608  0.0784  1.0000  -6.1001   0.0000   0.0000   0.0000   0.2711
  13.300   1.5117   0.05620   0.04979  -0.0602  0.0774  1.0000  -6.1502   0.0000   0.0000   0.0000   0.2706
  13.400   1.5102   0.05714   0.05079  -0.0597  0.0764  1.0000  -6.1990   0.0000   0.0000   0.0000   0.2701
  13.500   1.5088   0.05804   0.05175  -0.0592  0.0754  1.0000  -6.2508   0.0000   0.0000   0.0000   0.2696
  13.600   1.5078   0.05888   0.05263  -0.0588  0.0743  1.0000  -6.3070   0.0000   0.0000   0.0000   0.2692
  13.700   1.5074   0.05965   0.05341  -0.0584  0.0732  1.0000  -6.3698   0.0000   0.0000   0.0000   0.2688
  13.800   1.5078   0.06030   0.05406  -0.0582  0.0720  1.0000  -6.4429   0.0000   0.0000   0.0000   0.2684
  13.900   1.5093   0.06090   0.05461  -0.0579  0.0706  1.0000  -6.5254   0.0000   0.0000   0.0000   0.2680
  14.000   1.5112   0.06166   0.05532  -0.0577  0.0692  1.0000  -6.6096   0.0000   0.0000   0.0000   0.2676
  14.100   1.5114   0.06321   0.05688  -0.0574  0.0677  1.0000  -6.6673   0.0000   0.0000   0.0000   0.2672
  14.200   1.5079   0.06512   0.05886  -0.0571  0.0668  1.0000  -6.6890   0.0000   0.0000   0.0000   0.2669
  14.300   1.5037   0.06630   0.06015  -0.0569  0.0664  1.0000  -6.7184   0.0000   0.0000   0.0000   0.2667
  14.400   1.4993   0.06758   0.06153  -0.0568  0.0659  1.0000  -6.7455   0.0000   0.0000   0.0000   0.2665
  14.500   1.4951   0.06891   0.06296  -0.0568  0.0654  1.0000  -6.7730   0.0000   0.0000   0.0000   0.2664
  14.600   1.4908   0.07032   0.06447  -0.0569  0.0648  1.0000  -6.7987   0.0000   0.0000   0.0000   0.2664
  14.700   1.4866   0.07176   0.06600  -0.0570  0.0641  1.0000  -6.8252   0.0000   0.0000   0.0000   0.2663
  14.800   1.4825   0.07322   0.06755  -0.0572  0.0633  1.0000  -6.8527   0.0000   0.0000   0.0000   0.2663
  14.900   1.4780   0.07490   0.06938  -0.0574  0.0628  1.0000  -6.8732   0.0000   0.0000   0.0000   0.2664
  15.000   1.4734   0.07651   0.07108  -0.0577  0.0621  1.0000  -6.8948   0.0000   0.0000   0.0000   0.2665
  15.100   1.4686   0.07814   0.07279  -0.0580  0.0614  1.0000  -6.9155   0.0000   0.0000   0.0000   0.2667
  15.200   1.4643   0.07973   0.07444  -0.0584  0.0607  1.0000  -6.9400   0.0000   0.0000   0.0000   0.2668
  15.300   1.4606   0.08123   0.07600  -0.0589  0.0598  1.0000  -6.9719   0.0000   0.0000   0.0000   0.2670
  15.400   1.4577   0.08265   0.07746  -0.0593  0.0590  1.0000  -7.0108   0.0000   0.0000   0.0000   0.2672
  15.500   1.4564   0.08384   0.07867  -0.0598  0.0579  1.0000  -7.0668   0.0000   0.0000   0.0000   0.2673
  15.600   1.4567   0.08481   0.07963  -0.0602  0.0568  1.0000  -7.1385   0.0000   0.0000   0.0000   0.2673
  15.700   1.4569   0.08583   0.08062  -0.0607  0.0558  1.0000  -7.2096   0.0000   0.0000   0.0000   0.2674
  15.800   1.4562   0.08708   0.08187  -0.0611  0.0549  1.0000  -7.2683   0.0000   0.0000   0.0000   0.2675
  15.900   1.4541   0.08862   0.08342  -0.0615  0.0540  1.0000  -7.3104   0.0000   0.0000   0.0000   0.2676
  16.000   1.4512   0.09038   0.08522  -0.0619  0.0532  1.0000  -7.3395   0.0000   0.0000   0.0000   0.2678
  16.100   1.4460   0.09257   0.08747  -0.0625  0.0525  1.0000  -7.3429   0.0000   0.0000   0.0000   0.2681
  16.200   1.4385   0.09521   0.09020  -0.0633  0.0520  1.0000  -7.3206   0.0000   0.0000   0.0000   0.2687
  16.300   1.4295   0.09811   0.09322  -0.0643  0.0517  1.0000  -7.2825   0.0000   0.0000   0.0000   0.2695
  16.400   1.4215   0.10084   0.09603  -0.0655  0.0515  1.0000  -7.2558   0.0000   0.0000   0.0000   0.2704
  16.500   1.4141   0.10349   0.09878  -0.0669  0.0514  1.0000  -7.2352   0.0000   0.0000   0.0000   0.2714
  16.600   1.4066   0.10623   0.10162  -0.0684  0.0512  1.0000  -7.2103   0.0000   0.0000   0.0000   0.2725
  16.700   1.3979   0.10924   0.10473  -0.0701  0.0511  1.0000  -7.1721   0.0000   0.0000   0.0000   0.2738
  16.800   1.3889   0.11239   0.10798  -0.0718  0.0511  1.0000  -7.1274   0.0000   0.0000   0.0000   0.2752
  16.900   1.3787   0.11582   0.11151  -0.0738  0.0510  1.0000  -7.0680   0.0000   0.0000   0.0000   0.2768
  17.000   1.3673   0.11955   0.11536  -0.0760  0.0510  1.0000  -6.9931   0.0000   0.0000   0.0000   0.2787
  17.100   1.3542   0.12375   0.11966  -0.0786  0.0511  1.0000  -6.8943   0.0000   0.0000   0.0000   0.2810
  17.200   1.3384   0.12860   0.12462  -0.0815  0.0514  1.0000  -6.7610   0.0000   0.0000   0.0000   0.2837
  17.300   1.3067   0.13800   0.13430  -0.0882  0.0541  1.0000  -6.4111   0.0000   0.0000   0.0000   0.2904
  17.400   1.3025   0.14046   0.13678  -0.0897  0.0534  1.0000  -6.4063   0.0000   0.0000   0.0000   0.2915
  17.900   1.0895   0.24489   0.24125  -0.1361  0.1033  1.0000  -2.7984   0.0000   0.0000   0.0000   0.3522
  18.000   1.0890   0.24693   0.24330  -0.1377  0.1031  1.0000  -2.7765   0.0000   0.0000   0.0000   0.3535
  18.100   1.0865   0.24874   0.24510  -0.1398  0.1029  1.0000  -2.7329   0.0000   0.0000   0.0000   0.3556
  18.200   1.0819   0.25012   0.24647  -0.1425  0.1026  1.0000  -2.6635   0.0000   0.0000   0.0000   0.3587
  18.300   1.0732   0.25075   0.24707  -0.1465  0.1017  1.0000  -2.5511   0.0000   0.0000   0.0000   0.3633
  18.400   1.0638   0.25158   0.24785  -0.1510  0.0991  1.0000  -2.4230   0.0000   0.0000   0.0000   0.3687
  18.500   1.0633   0.25330   0.24958  -0.1527  0.0957  1.0000  -2.4001   0.0000   0.0000   0.0000   0.3702
  18.600   1.0662   0.25457   0.25086  -0.1532  0.0922  1.0000  -2.4284   0.0000   0.0000   0.0000   0.3701
  18.700   1.0752   0.25447   0.25080  -0.1516  0.0882  1.0000  -2.5541   0.0000   0.0000   0.0000   0.3671
  18.800   1.0982   0.26005   0.25648  -0.1439  0.0842  1.0000  -2.8475   0.0000   0.0000   0.0000   0.3566
  18.900   1.0971   0.26250   0.25892  -0.1457  0.0840  1.0000  -2.7897   0.0000   0.0000   0.0000   0.3583
  19.000   1.0939   0.26463   0.26104  -0.1481  0.0838  1.0000  -2.7121   0.0000   0.0000   0.0000   0.3608
  19.100   1.0891   0.26627   0.26266  -0.1511  0.0833  1.0000  -2.6177   0.0000   0.0000   0.0000   0.3641
  19.200   1.0815   0.26737   0.26372  -0.1550  0.0822  1.0000  -2.4991   0.0000   0.0000   0.0000   0.3686
  19.300   1.0771   0.26915   0.26549  -0.1585  0.0783  1.0000  -2.4019   0.0000   0.0000   0.0000   0.3724
  19.400   1.0798   0.27044   0.26678  -0.1591  0.0737  1.0000  -2.4147   0.0000   0.0000   0.0000   0.3724
  19.900   1.1151   0.26062   0.25707  -0.1546  0.0375  1.0000  -3.3142   0.0000   0.0000   0.0000   0.3612
  20.000   1.1110   0.26635   0.26278  -0.1573  0.0366  1.0000  -3.1218   0.0000   0.0000   0.0000   0.3642
  20.100   1.1080   0.27119   0.26761  -0.1594  0.0360  1.0000  -2.9768   0.0000   0.0000   0.0000   0.3665
  20.200   1.1061   0.27533   0.27173  -0.1612  0.0354  1.0000  -2.8660   0.0000   0.0000   0.0000   0.3684
  20.300   1.1051   0.27905   0.27545  -0.1628  0.0348  1.0000  -2.7757   0.0000   0.0000   0.0000   0.3699
  20.400   1.1046   0.28247   0.27886  -0.1641  0.0342  1.0000  -2.7003   0.0000   0.0000   0.0000   0.3711
  20.500   1.1047   0.28564   0.28203  -0.1653  0.0335  1.0000  -2.6362   0.0000   0.0000   0.0000   0.3720
  20.600   1.1050   0.28866   0.28504  -0.1664  0.0330  1.0000  -2.5804   0.0000   0.0000   0.0000   0.3729
  20.700   1.1055   0.29160   0.28799  -0.1674  0.0326  1.0000  -2.5279   0.0000   0.0000   0.0000   0.3736
  20.800   1.1060   0.29460   0.29098  -0.1684  0.0325  1.0000  -2.4739   0.0000   0.0000   0.0000   0.3743
  20.900   1.1064   0.29773   0.29411  -0.1694  0.0329  1.0000  -2.4150   0.0000   0.0000   0.0000   0.3750
  21.000   1.1068   0.30088   0.29725  -0.1702  0.0337  1.0000  -2.3578   0.0000   0.0000   0.0000   0.3756
  21.100   1.1077   0.30372   0.30010  -0.1708  0.0349  1.0000  -2.3183   0.0000   0.0000   0.0000   0.3758
  21.200   1.1108   0.30571   0.30210  -0.1702  0.0366  1.0000  -2.3391   0.0000   0.0000   0.0000   0.3746
  21.300   1.1213   0.29885   0.29527  -0.1683  0.0263  1.0000  -2.7679   0.0000   0.0000   0.0000   0.3705
  21.500   1.1209   0.31435   0.31079  -0.1678  0.0381  1.0000  -2.4064   0.0000   0.0000   0.0000   0.3704
  21.600   1.1218   0.31725   0.31370  -0.1685  0.0381  1.0000  -2.3799   0.0000   0.0000   0.0000   0.3708
  21.700   1.1227   0.32012   0.31656  -0.1692  0.0381  1.0000  -2.3544   0.0000   0.0000   0.0000   0.3711
  21.800   1.1235   0.32295   0.31940  -0.1699  0.0381  1.0000  -2.3300   0.0000   0.0000   0.0000   0.3715
  21.900   1.1243   0.32576   0.32221  -0.1706  0.0380  1.0000  -2.3064   0.0000   0.0000   0.0000   0.3719
  22.000   1.1250   0.32854   0.32500  -0.1713  0.0380  1.0000  -2.2837   0.0000   0.0000   0.0000   0.3722
  22.100   1.1257   0.33129   0.32775  -0.1720  0.0380  1.0000  -2.2617   0.0000   0.0000   0.0000   0.3726
  22.200   1.1263   0.33401   0.33047  -0.1728  0.0380  1.0000  -2.2402   0.0000   0.0000   0.0000   0.3730
  22.300   1.1268   0.33670   0.33317  -0.1735  0.0380  1.0000  -2.2192   0.0000   0.0000   0.0000   0.3734
  22.400   1.1273   0.33936   0.33583  -0.1742  0.0380  1.0000  -2.1985   0.0000   0.0000   0.0000   0.3738
  22.500   1.1277   0.34199   0.33846  -0.1749  0.0380  1.0000  -2.1780   0.0000   0.0000   0.0000   0.3742
  22.600   1.1280   0.34457   0.34105  -0.1756  0.0379  1.0000  -2.1575   0.0000   0.0000   0.0000   0.3747
  22.700   1.1281   0.34712   0.34360  -0.1763  0.0379  1.0000  -2.1359   0.0000   0.0000   0.0000   0.3751
  22.800   1.1278   0.34965   0.34613  -0.1772  0.0379  1.0000  -2.1109   0.0000   0.0000   0.0000   0.3758
  22.900   1.1273   0.35212   0.34860  -0.1780  0.0378  1.0000  -2.0852   0.0000   0.0000   0.0000   0.3764
  23.000   1.1267   0.35454   0.35103  -0.1788  0.0378  1.0000  -2.0587   0.0000   0.0000   0.0000   0.3771
  23.100   1.1258   0.35691   0.35340  -0.1797  0.0377  1.0000  -2.0311   0.0000   0.0000   0.0000   0.3778
  23.200   1.1243   0.35921   0.35570  -0.1807  0.0377  1.0000  -1.9991   0.0000   0.0000   0.0000   0.3787
  23.300   1.1225   0.36147   0.35796  -0.1816  0.0376  1.0000  -1.9651   0.0000   0.0000   0.0000   0.3797
  23.400   1.1206   0.36370   0.36019  -0.1827  0.0375  1.0000  -1.9294   0.0000   0.0000   0.0000   0.3808
  23.500   1.1185   0.36592   0.36241  -0.1837  0.0373  1.0000  -1.8911   0.0000   0.0000   0.0000   0.3819
  23.600   1.1163   0.36815   0.36465  -0.1848  0.0371  1.0000  -1.8493   0.0000   0.0000   0.0000   0.3831
  23.700   1.1141   0.37046   0.36695  -0.1860  0.0368  1.0000  -1.8043   0.0000   0.0000   0.0000   0.3843
  23.800   1.1121   0.37286   0.36936  -0.1870  0.0362  1.0000  -1.7632   0.0000   0.0000   0.0000   0.3854
  23.900   1.1099   0.37525   0.37175  -0.1876  0.0356  1.0000  -1.7322   0.0000   0.0000   0.0000   0.3862
  24.000   1.1073   0.37754   0.37405  -0.1879  0.0351  1.0000  -1.7080   0.0000   0.0000   0.0000   0.3867
  24.100   1.1038   0.37969   0.37622  -0.1880  0.0346  1.0000  -1.6863   0.0000   0.0000   0.0000   0.3872
  24.200   1.0986   0.38164   0.37818  -0.1876  0.0342  1.0000  -1.6637   0.0000   0.0000   0.0000   0.3876
  24.300   0.9308   0.34475   0.34160  -0.1586  0.0366  1.0000  -1.3474   0.0000   0.0000   0.0000   0.3902
  24.400   0.9260   0.34478   0.34164  -0.1586  0.0361  1.0000  -1.3132   0.0000   0.0000   0.0000   0.3911
  24.500   0.9215   0.34478   0.34166  -0.1585  0.0355  1.0000  -1.2856   0.0000   0.0000   0.0000   0.3918
  24.600   0.9174   0.34474   0.34163  -0.1583  0.0350  1.0000  -1.2629   0.0000   0.0000   0.0000   0.3924
  24.700   0.9135   0.34469   0.34159  -0.1582  0.0346  1.0000  -1.2436   0.0000   0.0000   0.0000   0.3928
  24.800   0.9098   0.34460   0.34151  -0.1580  0.0341  1.0000  -1.2265   0.0000   0.0000   0.0000   0.3932
  24.900   0.9065   0.34457   0.34149  -0.1578  0.0337  1.0000  -1.2113   0.0000   0.0000   0.0000   0.3936
  25.000   0.9034   0.34456   0.34150  -0.1577  0.0332  1.0000  -1.1977   0.0000   0.0000   0.0000   0.3940
  25.100   0.9004   0.34455   0.34150  -0.1575  0.0328  1.0000  -1.1853   0.0000   0.0000   0.0000   0.3943
  25.200   0.8977   0.34455   0.34151  -0.1574  0.0324  1.0000  -1.1740   0.0000   0.0000   0.0000   0.3946
  25.300   0.8951   0.34457   0.34154  -0.1573  0.0321  1.0000  -1.1638   0.0000   0.0000   0.0000   0.3949
  25.400   0.8926   0.34459   0.34158  -0.1572  0.0317  1.0000  -1.1546   0.0000   0.0000   0.0000   0.3952
  25.500   0.8903   0.34463   0.34163  -0.1571  0.0313  1.0000  -1.1462   0.0000   0.0000   0.0000   0.3954
  25.600   0.8882   0.34467   0.34168  -0.1571  0.0310  1.0000  -1.1388   0.0000   0.0000   0.0000   0.3957
  25.700   0.8861   0.34472   0.34174  -0.1570  0.0307  1.0000  -1.1323   0.0000   0.0000   0.0000   0.3959
  25.800   0.8842   0.34477   0.34181  -0.1570  0.0303  1.0000  -1.1267   0.0000   0.0000   0.0000   0.3961
  25.900   0.8823   0.34482   0.34187  -0.1569  0.0300  1.0000  -1.1221   0.0000   0.0000   0.0000   0.3963
  26.000   0.8806   0.34488   0.34194  -0.1569  0.0297  1.0000  -1.1183   0.0000   0.0000   0.0000   0.3965
  26.100   0.8789   0.34493   0.34200  -0.1569  0.0294  1.0000  -1.1156   0.0000   0.0000   0.0000   0.3966
  26.200   0.8774   0.34497   0.34205  -0.1568  0.0292  1.0000  -1.1138   0.0000   0.0000   0.0000   0.3968
  26.300   0.8759   0.34500   0.34210  -0.1568  0.0289  1.0000  -1.1131   0.0000   0.0000   0.0000   0.3969
  26.400   0.8745   0.34505   0.34216  -0.1568  0.0286  1.0000  -1.1136   0.0000   0.0000   0.0000   0.3969
  26.500   0.8732   0.34506   0.34218  -0.1567  0.0284  1.0000  -1.1153   0.0000   0.0000   0.0000   0.3970
  26.600   0.8719   0.34505   0.34218  -0.1566  0.0282  1.0000  -1.1183   0.0000   0.0000   0.0000   0.3970
  26.700   0.8706   0.34502   0.34216  -0.1565  0.0279  1.0000  -1.1227   0.0000   0.0000   0.0000   0.3969
  26.800   0.8695   0.34499   0.34217  -0.1563  0.0277  1.0000  -1.1289   0.0000   0.0000   0.0000   0.3968
  26.900   0.8684   0.34495   0.34215  -0.1561  0.0275  1.0000  -1.1370   0.0000   0.0000   0.0000   0.3966
  27.000   0.8674   0.34495   0.34216  -0.1558  0.0273  1.0000  -1.1475   0.0000   0.0000   0.0000   0.3963
  27.100   0.8667   0.34507   0.34229  -0.1554  0.0271  1.0000  -1.1616   0.0000   0.0000   0.0000   0.3958
  27.200   0.8667   0.34561   0.34286  -0.1548  0.0269  1.0000  -1.1816   0.0000   0.0000   0.0000   0.3949
  27.300   0.8705   0.34952   0.34675  -0.1535  0.0266  1.0000  -1.2183   0.0000   0.0000   0.0000   0.3925
  27.400   0.8684   0.34953   0.34677  -0.1537  0.0266  1.0000  -1.2022   0.0000   0.0000   0.0000   0.3931
  27.500   0.8662   0.34950   0.34675  -0.1540  0.0265  1.0000  -1.1852   0.0000   0.0000   0.0000   0.3936
  27.600   0.8641   0.34947   0.34672  -0.1542  0.0265  1.0000  -1.1683   0.0000   0.0000   0.0000   0.3943
  27.700   0.8621   0.34947   0.34674  -0.1545  0.0265  1.0000  -1.1516   0.0000   0.0000   0.0000   0.3949
  27.800   0.8601   0.34948   0.34675  -0.1548  0.0265  1.0000  -1.1352   0.0000   0.0000   0.0000   0.3955
  27.900   0.8582   0.34950   0.34679  -0.1551  0.0265  1.0000  -1.1191   0.0000   0.0000   0.0000   0.3961
  28.000   0.8564   0.34955   0.34684  -0.1554  0.0264  1.0000  -1.1031   0.0000   0.0000   0.0000   0.3966
  28.100   0.8547   0.34963   0.34692  -0.1557  0.0264  1.0000  -1.0874   0.0000   0.0000   0.0000   0.3972
  28.200   0.8530   0.34973   0.34703  -0.1560  0.0264  1.0000  -1.0718   0.0000   0.0000   0.0000   0.3978
  28.300   0.8515   0.34985   0.34717  -0.1564  0.0264  1.0000  -1.0564   0.0000   0.0000   0.0000   0.3984
  28.400   0.8500   0.35002   0.34734  -0.1567  0.0263  1.0000  -1.0411   0.0000   0.0000   0.0000   0.3990
  28.500   0.8486   0.35021   0.34754  -0.1571  0.0263  1.0000  -1.0258   0.0000   0.0000   0.0000   0.3996
  28.600   0.8473   0.35046   0.34779  -0.1575  0.0263  1.0000  -1.0107   0.0000   0.0000   0.0000   0.4002
  28.700   0.8461   0.35074   0.34809  -0.1579  0.0262  1.0000  -0.9955   0.0000   0.0000   0.0000   0.4008
  28.800   0.8449   0.35108   0.34843  -0.1584  0.0261  1.0000  -0.9803   0.0000   0.0000   0.0000   0.4014
  28.900   0.8440   0.35148   0.34884  -0.1589  0.0261  1.0000  -0.9651   0.0000   0.0000   0.0000   0.4021
  29.000   0.8431   0.35196   0.34932  -0.1594  0.0260  1.0000  -0.9498   0.0000   0.0000   0.0000   0.4026
  29.100   0.8424   0.35250   0.34988  -0.1599  0.0259  1.0000  -0.9346   0.0000   0.0000   0.0000   0.4032
  29.200   0.8418   0.35312   0.35050  -0.1604  0.0257  1.0000  -0.9197   0.0000   0.0000   0.0000   0.4038
  29.300   0.8414   0.35380   0.35119  -0.1609  0.0256  1.0000  -0.9095   0.0000   0.0000   0.0000   0.4043
  29.400   0.8410   0.35450   0.35190  -0.1614  0.0254  1.0000  -0.9037   0.0000   0.0000   0.0000   0.4048
  29.500   0.8407   0.35518   0.35259  -0.1618  0.0251  1.0000  -0.8992   0.0000   0.0000   0.0000   0.4052
  29.600   0.8403   0.35583   0.35324  -0.1622  0.0248  1.0000  -0.8960   0.0000   0.0000   0.0000   0.4056
  29.700   0.8399   0.35642   0.35384  -0.1625  0.0245  1.0000  -0.8941   0.0000   0.0000   0.0000   0.4059
  29.800   0.8395   0.35697   0.35440  -0.1629  0.0242  1.0000  -0.8933   0.0000   0.0000   0.0000   0.4062
  29.900   0.8390   0.35745   0.35489  -0.1631  0.0239  1.0000  -0.8932   0.0000   0.0000   0.0000   0.4064
  30.000   0.8385   0.35795   0.35540  -0.1634  0.0236  1.0000  -0.8937   0.0000   0.0000   0.0000   0.4067


