xflr5 v6.61

 Calculated polar for: WORTMANN FX 049-915 AIRFOIL

 1 1 Reynolds number fixed          Mach number fixed         

 xtrf =   1.000 (top)        1.000 (bottom)
 Mach =   0.000     Re =     0.130 e 6     Ncrit =   9.000

  alpha     CL        CD       CDp       Cm    Top Xtr Bot Xtr   Cpmin    Chinge    XCp    
 ------- -------- --------- --------- -------- ------- ------- -------- --------- ---------
  -9.500  -0.2019   0.15585   0.15236  -0.0574  0.9179  0.0668  -1.0636   0.0000   0.0000   0.0000  -0.0639
  -9.400  -0.2036   0.15508   0.15159  -0.0568  0.9102  0.0669  -1.0655   0.0000   0.0000   0.0000  -0.0582
  -9.300  -0.2026   0.15432   0.15083  -0.0570  0.9047  0.0670  -1.0661   0.0000   0.0000   0.0000  -0.0603
  -9.200  -0.2006   0.15350   0.15001  -0.0575  0.9001  0.0671  -1.0664   0.0000   0.0000   0.0000  -0.0657
  -9.100  -0.1981   0.15262   0.14912  -0.0582  0.8960  0.0672  -1.0666   0.0000   0.0000   0.0000  -0.0731
  -9.000  -0.1951   0.15167   0.14816  -0.0591  0.8924  0.0673  -1.0670   0.0000   0.0000   0.0000  -0.0821
  -8.900  -0.1917   0.15066   0.14715  -0.0600  0.8892  0.0673  -1.0675   0.0000   0.0000   0.0000  -0.0925
  -8.800  -0.1882   0.14961   0.14610  -0.0611  0.8863  0.0674  -1.0681   0.0000   0.0000   0.0000  -0.1042
  -8.700  -0.1845   0.14853   0.14501  -0.0622  0.8836  0.0675  -1.0689   0.0000   0.0000   0.0000  -0.1170
  -8.600  -0.1806   0.14741   0.14389  -0.0633  0.8810  0.0675  -1.0699   0.0000   0.0000   0.0000  -0.1310
  -8.500  -0.1766   0.14627   0.14275  -0.0645  0.8787  0.0676  -1.0711   0.0000   0.0000   0.0000  -0.1461
  -8.400  -0.1725   0.14513   0.14159  -0.0658  0.8765  0.0676  -1.0725   0.0000   0.0000   0.0000  -0.1625
  -7.700  -0.1632   0.14192   0.13835  -0.0698  0.8473  0.0678  -1.0951   0.0000   0.0000   0.0000  -0.2075
  -7.600  -0.1721   0.13924   0.13567  -0.0676  0.8385  0.0678  -1.1057   0.0000   0.0000   0.0000  -0.1711
  -7.500  -0.1804   0.13818   0.13461  -0.0659  0.8317  0.0678  -1.1155   0.0000   0.0000   0.0000  -0.1417
  -7.400  -0.1873   0.13737   0.13380  -0.0646  0.8260  0.0678  -1.1247   0.0000   0.0000   0.0000  -0.1198
  -7.300  -0.1934   0.13662   0.13305  -0.0636  0.8207  0.0678  -1.1338   0.0000   0.0000   0.0000  -0.1025
  -7.200  -0.1985   0.13583   0.13226  -0.0628  0.8158  0.0678  -1.1425   0.0000   0.0000   0.0000  -0.0892
  -7.100  -0.2027   0.13499   0.13141  -0.0622  0.8112  0.0678  -1.1509   0.0000   0.0000   0.0000  -0.0786
  -7.000  -0.2061   0.13407   0.13049  -0.0617  0.8068  0.0678  -1.1586   0.0000   0.0000   0.0000  -0.0703
  -6.900  -0.2084   0.13303   0.12943  -0.0614  0.8027  0.0678  -1.1656   0.0000   0.0000   0.0000  -0.0651
  -6.800  -0.2088   0.13176   0.12815  -0.0614  0.7990  0.0678  -1.1713   0.0000   0.0000   0.0000  -0.0644
  -6.700  -0.2081   0.13036   0.12674  -0.0617  0.7955  0.0678  -1.1763   0.0000   0.0000   0.0000  -0.0666
  -6.600  -0.2067   0.12890   0.12526  -0.0621  0.7923  0.0678  -1.1807   0.0000   0.0000   0.0000  -0.0703
  -6.500  -0.2047   0.12738   0.12372  -0.0626  0.7894  0.0678  -1.1848   0.0000   0.0000   0.0000  -0.0753
  -6.400  -0.2023   0.12581   0.12213  -0.0631  0.7866  0.0678  -1.1884   0.0000   0.0000   0.0000  -0.0818
  -6.300  -0.1993   0.12420   0.12050  -0.0638  0.7840  0.0678  -1.1918   0.0000   0.0000   0.0000  -0.0895
  -6.200  -0.1962   0.12257   0.11885  -0.0644  0.7817  0.0678  -1.1947   0.0000   0.0000   0.0000  -0.0979
  -6.100  -0.1927   0.12093   0.11719  -0.0650  0.7795  0.0678  -1.1973   0.0000   0.0000   0.0000  -0.1071
  -6.000  -0.1892   0.11929   0.11552  -0.0657  0.7775  0.0678  -1.1998   0.0000   0.0000   0.0000  -0.1170
  -5.900  -0.1855   0.11766   0.11387  -0.0663  0.7756  0.0678  -1.2022   0.0000   0.0000   0.0000  -0.1273
  -5.800  -0.1820   0.11606   0.11224  -0.0669  0.7739  0.0677  -1.2045   0.0000   0.0000   0.0000  -0.1377
  -5.600  -0.1792   0.12641   0.12255  -0.0676  0.7500  0.0677  -1.2020   0.0000   0.0000   0.0000  -0.1469
  -5.500  -0.1834   0.12549   0.12162  -0.0667  0.7499  0.0677  -1.2079   0.0000   0.0000   0.0000  -0.1321
  -5.400  -0.1872   0.12450   0.12061  -0.0657  0.7498  0.0677  -1.2136   0.0000   0.0000   0.0000  -0.1188
  -5.300  -0.1908   0.12344   0.11953  -0.0648  0.7496  0.0677  -1.2190   0.0000   0.0000   0.0000  -0.1068
  -5.200  -0.1940   0.12231   0.11838  -0.0639  0.7494  0.0677  -1.2241   0.0000   0.0000   0.0000  -0.0959
  -5.100  -0.1970   0.12110   0.11716  -0.0630  0.7493  0.0677  -1.2290   0.0000   0.0000   0.0000  -0.0860
  -5.000  -0.1997   0.11981   0.11585  -0.0622  0.7490  0.0676  -1.2336   0.0000   0.0000   0.0000  -0.0771
  -4.900  -0.2020   0.11843   0.11445  -0.0614  0.7488  0.0676  -1.2381   0.0000   0.0000   0.0000  -0.0691
  -4.800  -0.2040   0.11694   0.11293  -0.0606  0.7485  0.0676  -1.2425   0.0000   0.0000   0.0000  -0.0619
  -4.700  -0.2056   0.11532   0.11128  -0.0599  0.7481  0.0675  -1.2468   0.0000   0.0000   0.0000  -0.0554
  -4.600  -0.2070   0.11353   0.10947  -0.0591  0.7477  0.0675  -1.2512   0.0000   0.0000   0.0000  -0.0497
  -4.500  -0.2079   0.11152   0.10743  -0.0584  0.7470  0.0674  -1.2557   0.0000   0.0000   0.0000  -0.0447
  -4.400  -0.2085   0.10919   0.10506  -0.0577  0.7461  0.0674  -1.2608   0.0000   0.0000   0.0000  -0.0403
  -4.300  -0.2088   0.10640   0.10224  -0.0570  0.7447  0.0673  -1.2668   0.0000   0.0000   0.0000  -0.0363
  -4.200  -0.2092   0.10313   0.09893  -0.0563  0.7423  0.0671  -1.2747   0.0000   0.0000   0.0000  -0.0318
  -4.100  -0.2105   0.09980   0.09555  -0.0554  0.7392  0.0669  -1.2857   0.0000   0.0000   0.0000  -0.0256
  -4.000  -0.2131   0.09663   0.09233  -0.0544  0.7357  0.0666  -1.3022   0.0000   0.0000   0.0000  -0.0174
  -3.900  -0.2174   0.09321   0.08887  -0.0534  0.7324  0.0658  -1.3324   0.0000   0.0000   0.0000  -0.0075
  -3.800  -0.2243   0.08931   0.08489  -0.0524  0.7291  0.0644  -1.3825   0.0000   0.0000   0.0000   0.0052
  -3.700  -0.2302   0.08587   0.08138  -0.0513  0.7258  0.0627  -1.4286   0.0000   0.0000   0.0000   0.0163
  -3.600  -0.2339   0.08300   0.07842  -0.0503  0.7226  0.0612  -1.4649   0.0000   0.0000   0.0000   0.0246
  -3.500  -0.2359   0.08048   0.07581  -0.0493  0.7194  0.0597  -1.4947   0.0000   0.0000   0.0000   0.0309
  -3.400  -0.2365   0.07818   0.07341  -0.0483  0.7163  0.0582  -1.5203   0.0000   0.0000   0.0000   0.0357
  -3.300  -0.2359   0.07605   0.07118  -0.0474  0.7133  0.0568  -1.5429   0.0000   0.0000   0.0000   0.0394
  -3.200  -0.2343   0.07405   0.06907  -0.0464  0.7105  0.0554  -1.5631   0.0000   0.0000   0.0000   0.0422
  -3.100  -0.2318   0.07215   0.06705  -0.0454  0.7077  0.0541  -1.5815   0.0000   0.0000   0.0000   0.0444
  -3.000  -0.2287   0.07034   0.06512  -0.0444  0.7050  0.0529  -1.5990   0.0000   0.0000   0.0000   0.0461
  -2.900  -0.2251   0.06862   0.06326  -0.0433  0.7024  0.0518  -1.6175   0.0000   0.0000   0.0000   0.0477
  -2.800  -0.2210   0.06697   0.06146  -0.0422  0.6998  0.0508  -1.6352   0.0000   0.0000   0.0000   0.0490
  -2.700  -0.2164   0.06538   0.05972  -0.0411  0.6973  0.0499  -1.6523   0.0000   0.0000   0.0000   0.0502
  -2.600  -0.2114   0.06385   0.05802  -0.0399  0.6949  0.0493  -1.6687   0.0000   0.0000   0.0000   0.0512
  -2.500  -0.2061   0.06238   0.05638  -0.0387  0.6925  0.0488  -1.6844   0.0000   0.0000   0.0000   0.0522
  -2.400  -0.2003   0.06097   0.05479  -0.0374  0.6902  0.0487  -1.6995   0.0000   0.0000   0.0000   0.0530
  -2.300  -0.1941   0.05963   0.05326  -0.0361  0.6880  0.0490  -1.7140   0.0000   0.0000   0.0000   0.0537
  -2.200  -0.1873   0.05838   0.05182  -0.0347  0.6858  0.0501  -1.7279   0.0000   0.0000   0.0000   0.0539
  -2.100  -0.1797   0.05737   0.05064  -0.0334  0.6836  0.0532  -1.7370   0.0000   0.0000   0.0000   0.0529
  -2.000  -0.1681   0.05830   0.05162  -0.0333  0.6808  0.0608  -1.6603   0.0000   0.0000   0.0000   0.0401
  -1.800  -0.1555   0.05791   0.05126  -0.0332  0.6760  0.0808  -1.5064   0.0000   0.0000   0.0000   0.0246
  -1.700  -0.1505   0.05852   0.05231  -0.0336  0.6734  0.0995  -1.3773   0.0000   0.0000   0.0000   0.0153
  -1.600  -0.1411   0.06007   0.05415  -0.0341  0.6707  0.1198  -1.2440   0.0000   0.0000   0.0000  -0.0039
  -1.500  -0.1270   0.06209   0.05632  -0.0348  0.6680  0.1367  -1.1191   0.0000   0.0000   0.0000  -0.0368
  -1.100   0.3199   0.06678   0.06303  -0.0701  0.6613  1.0000  -0.8205   0.0000   0.0000   0.0000   0.4755
  -1.000   0.3277   0.06646   0.06268  -0.0709  0.6593  1.0000  -0.8271   0.0000   0.0000   0.0000   0.4721
  -0.900  -0.1337   0.06309   0.05907  -0.0187  0.6559  0.4552  -0.6599   0.0000   0.0000   0.0000   0.1001
   2.100   0.2295   0.05991   0.05096  -0.0235  0.4938  0.1254  -0.7933   0.0000   0.0000   0.0000   0.3509
   2.200   0.2407   0.05921   0.05017  -0.0232  0.4930  0.1237  -0.8061   0.0000   0.0000   0.0000   0.3445
   2.300   0.2515   0.05854   0.04942  -0.0228  0.4921  0.1221  -0.8185   0.0000   0.0000   0.0000   0.3387
   2.400   0.2621   0.05791   0.04870  -0.0225  0.4911  0.1206  -0.8308   0.0000   0.0000   0.0000   0.3334
   2.500   0.2727   0.05731   0.04803  -0.0221  0.4901  0.1192  -0.8428   0.0000   0.0000   0.0000   0.3285
   2.600   0.2831   0.05674   0.04738  -0.0218  0.4890  0.1178  -0.8547   0.0000   0.0000   0.0000   0.3241
   2.700   0.2935   0.05619   0.04677  -0.0215  0.4879  0.1165  -0.8666   0.0000   0.0000   0.0000   0.3200
   2.800   0.3038   0.05568   0.04619  -0.0212  0.4866  0.1153  -0.8783   0.0000   0.0000   0.0000   0.3163
   2.900   0.3140   0.05519   0.04563  -0.0209  0.4852  0.1141  -0.8898   0.0000   0.0000   0.0000   0.3129
   3.000   0.3241   0.05472   0.04511  -0.0206  0.4837  0.1131  -0.9011   0.0000   0.0000   0.0000   0.3097
   3.100   0.3339   0.05428   0.04461  -0.0203  0.4821  0.1120  -0.9122   0.0000   0.0000   0.0000   0.3067
   3.200   0.3436   0.05386   0.04412  -0.0200  0.4803  0.1111  -0.9230   0.0000   0.0000   0.0000   0.3040
   3.300   0.3531   0.05347   0.04365  -0.0197  0.4783  0.1102  -0.9336   0.0000   0.0000   0.0000   0.3014
   3.400   0.3622   0.05310   0.04321  -0.0194  0.4760  0.1094  -0.9437   0.0000   0.0000   0.0000   0.2990
   3.500   0.3711   0.05275   0.04279  -0.0191  0.4736  0.1087  -0.9534   0.0000   0.0000   0.0000   0.2968
   3.600   0.3795   0.05244   0.04241  -0.0188  0.4708  0.1080  -0.9625   0.0000   0.0000   0.0000   0.2946
   3.700   0.3876   0.05216   0.04206  -0.0185  0.4678  0.1073  -0.9711   0.0000   0.0000   0.0000   0.2925
   3.800   0.3953   0.05192   0.04174  -0.0181  0.4644  0.1068  -0.9791   0.0000   0.0000   0.0000   0.2905
   3.900   0.4025   0.05171   0.04147  -0.0178  0.4607  0.1062  -0.9865   0.0000   0.0000   0.0000   0.2885
   4.000   0.4097   0.05155   0.04125  -0.0174  0.4566  0.1057  -0.9933   0.0000   0.0000   0.0000   0.2867
   4.100   0.4168   0.05144   0.04108  -0.0171  0.4522  0.1053  -0.9998   0.0000   0.0000   0.0000   0.2851
   4.200   0.4239   0.05137   0.04096  -0.0168  0.4476  0.1049  -1.0058   0.0000   0.0000   0.0000   0.2836
   4.300   0.4308   0.05136   0.04089  -0.0166  0.4430  0.1046  -1.0114   0.0000   0.0000   0.0000   0.2821
   4.400   0.4378   0.05138   0.04087  -0.0163  0.4384  0.1043  -1.0168   0.0000   0.0000   0.0000   0.2807
   4.500   0.4450   0.05144   0.04088  -0.0161  0.4341  0.1040  -1.0222   0.0000   0.0000   0.0000   0.2794
   4.600   0.4527   0.05153   0.04092  -0.0159  0.4300  0.1038  -1.0278   0.0000   0.0000   0.0000   0.2784
   4.700   0.4605   0.05163   0.04098  -0.0158  0.4263  0.1036  -1.0335   0.0000   0.0000   0.0000   0.2774
   4.800   0.4685   0.05176   0.04106  -0.0157  0.4229  0.1035  -1.0394   0.0000   0.0000   0.0000   0.2764
   4.900   0.4767   0.05189   0.04116  -0.0156  0.4197  0.1035  -1.0455   0.0000   0.0000   0.0000   0.2756
   5.000   0.4850   0.05202   0.04125  -0.0156  0.4169  0.1036  -1.0517   0.0000   0.0000   0.0000   0.2747
   5.100   0.4938   0.05213   0.04132  -0.0155  0.4143  0.1038  -1.0588   0.0000   0.0000   0.0000   0.2739
   5.200   0.5032   0.05220   0.04137  -0.0155  0.4119  0.1043  -1.0669   0.0000   0.0000   0.0000   0.2732
   6.000   0.4618   0.06512   0.05429  -0.0140  0.4095  0.1075  -0.9071   0.0000   0.0000   0.0000   0.2720
   6.100   0.4556   0.06685   0.05604  -0.0139  0.4109  0.1076  -0.8959   0.0000   0.0000   0.0000   0.2723
   6.200   0.4494   0.06856   0.05776  -0.0139  0.4125  0.1077  -0.8848   0.0000   0.0000   0.0000   0.2726
   6.300   0.4434   0.07023   0.05945  -0.0139  0.4144  0.1078  -0.8738   0.0000   0.0000   0.0000   0.2729
   6.400   0.4376   0.07189   0.06112  -0.0139  0.4167  0.1080  -0.8629   0.0000   0.0000   0.0000   0.2733
   6.500   0.4320   0.07351   0.06275  -0.0140  0.4193  0.1082  -0.8523   0.0000   0.0000   0.0000   0.2738
   6.600   0.4269   0.07509   0.06435  -0.0141  0.4223  0.1084  -0.8421   0.0000   0.0000   0.0000   0.2743
   6.700   0.4224   0.07663   0.06591  -0.0142  0.4257  0.1087  -0.8326   0.0000   0.0000   0.0000   0.2749
   6.800   0.4186   0.07813   0.06742  -0.0144  0.4294  0.1091  -0.8239   0.0000   0.0000   0.0000   0.2755
   6.900   0.4156   0.07959   0.06889  -0.0146  0.4335  0.1096  -0.8163   0.0000   0.0000   0.0000   0.2762
   7.000   0.4137   0.08100   0.07032  -0.0148  0.4379  0.1103  -0.8099   0.0000   0.0000   0.0000   0.2768
   7.100   0.4128   0.08239   0.07171  -0.0151  0.4424  0.1112  -0.8048   0.0000   0.0000   0.0000   0.2774
   7.200   0.4130   0.08376   0.07309  -0.0154  0.4470  0.1125  -0.8011   0.0000   0.0000   0.0000   0.2781
   7.300   0.4141   0.08514   0.07447  -0.0157  0.4516  0.1142  -0.7986   0.0000   0.0000   0.0000   0.2787
   7.400   0.4157   0.08652   0.07582  -0.0159  0.4560  0.1167  -0.7971   0.0000   0.0000   0.0000   0.2789
   7.500   0.4180   0.08796   0.07722  -0.0161  0.4603  0.1200  -0.7965   0.0000   0.0000   0.0000   0.2790
   7.600   0.4216   0.08958   0.07887  -0.0165  0.4647  0.1245  -0.7971   0.0000   0.0000   0.0000   0.2795
   7.700   0.4264   0.09143   0.08081  -0.0170  0.4691  0.1286  -0.7987   0.0000   0.0000   0.0000   0.2802
   7.800   0.4318   0.09356   0.08304  -0.0176  0.4733  0.1323  -0.8010   0.0000   0.0000   0.0000   0.2809
   7.900   0.4377   0.09601   0.08561  -0.0181  0.4772  0.1364  -0.8036   0.0000   0.0000   0.0000   0.2816
   8.000   0.4438   0.09875   0.08846  -0.0188  0.4806  0.1406  -0.8063   0.0000   0.0000   0.0000   0.2824
   8.100   0.4499   0.10127   0.09109  -0.0194  0.4831  0.1448  -0.8091   0.0000   0.0000   0.0000   0.2831
   8.300   0.5675   0.10247   0.09476  -0.0483  0.4745  1.0000  -0.8880   0.0000   0.0000   0.0000   0.3248
   8.400   0.5699   0.10118   0.09347  -0.0479  0.4698  1.0000  -0.8914   0.0000   0.0000   0.0000   0.3234
   8.500   0.5728   0.10011   0.09241  -0.0474  0.4645  1.0000  -0.8950   0.0000   0.0000   0.0000   0.3221
   8.600   0.5766   0.09930   0.09162  -0.0470  0.4587  1.0000  -0.8996   0.0000   0.0000   0.0000   0.3206
   8.700   0.5817   0.09872   0.09104  -0.0467  0.4525  1.0000  -0.9056   0.0000   0.0000   0.0000   0.3191
   8.800   0.5882   0.09829   0.09061  -0.0464  0.4457  1.0000  -0.9133   0.0000   0.0000   0.0000   0.3174
   8.900   0.5962   0.09796   0.09029  -0.0460  0.4387  1.0000  -0.9231   0.0000   0.0000   0.0000   0.3156
   9.000   0.6057   0.09772   0.09006  -0.0457  0.4320  1.0000  -0.9351   0.0000   0.0000   0.0000   0.3137
   9.100   0.6166   0.09755   0.08989  -0.0454  0.4257  1.0000  -0.9490   0.0000   0.0000   0.0000   0.3117
   9.200   0.6286   0.09744   0.08978  -0.0452  0.4201  1.0000  -0.9646   0.0000   0.0000   0.0000   0.3097
   9.300   0.6414   0.09738   0.08973  -0.0450  0.4153  1.0000  -0.9826   0.0000   0.0000   0.0000   0.3078
   9.400   0.6548   0.09738   0.08973  -0.0448  0.4111  1.0000  -1.0060   0.0000   0.0000   0.0000   0.3059
   9.500   0.6687   0.09742   0.08977  -0.0446  0.4075  1.0000  -1.0303   0.0000   0.0000   0.0000   0.3040
   9.600   0.6831   0.09750   0.08985  -0.0445  0.4044  1.0000  -1.0553   0.0000   0.0000   0.0000   0.3022
   9.700   0.6979   0.09761   0.08997  -0.0444  0.4016  1.0000  -1.0810   0.0000   0.0000   0.0000   0.3005
   9.800   0.7131   0.09775   0.09011  -0.0443  0.3991  1.0000  -1.1073   0.0000   0.0000   0.0000   0.2989
   9.900   0.7286   0.09789   0.09025  -0.0443  0.3969  1.0000  -1.1341   0.0000   0.0000   0.0000   0.2973
  10.000   0.7442   0.09802   0.09038  -0.0442  0.3950  1.0000  -1.1614   0.0000   0.0000   0.0000   0.2958
  10.100   0.7600   0.09812   0.09049  -0.0442  0.3932  1.0000  -1.1890   0.0000   0.0000   0.0000   0.2943
  10.200   0.7759   0.09821   0.09059  -0.0441  0.3915  1.0000  -1.2168   0.0000   0.0000   0.0000   0.2928
  10.300   0.7917   0.09815   0.09053  -0.0439  0.3900  1.0000  -1.2456   0.0000   0.0000   0.0000   0.2913
  10.400   0.8068   0.09784   0.09021  -0.0436  0.3884  1.0000  -1.2756   0.0000   0.0000   0.0000   0.2897
  10.500   0.8222   0.09750   0.08988  -0.0433  0.3870  1.0000  -1.3181   0.0000   0.0000   0.0000   0.2881
  10.600   0.8376   0.09720   0.08957  -0.0430  0.3856  1.0000  -1.3611   0.0000   0.0000   0.0000   0.2865
  10.700   0.8530   0.09698   0.08936  -0.0427  0.3843  1.0000  -1.4039   0.0000   0.0000   0.0000   0.2850
  10.800   0.8680   0.09692   0.08930  -0.0424  0.3829  1.0000  -1.4460   0.0000   0.0000   0.0000   0.2836
  10.900   0.8829   0.09703   0.08941  -0.0421  0.3815  1.0000  -1.4878   0.0000   0.0000   0.0000   0.2823
  11.000   0.8976   0.09732   0.08971  -0.0418  0.3800  1.0000  -1.5296   0.0000   0.0000   0.0000   0.2810
  11.100   0.9119   0.09824   0.09065  -0.0415  0.3778  1.0000  -1.5708   0.0000   0.0000   0.0000   0.2797
  11.200   0.8832   0.10472   0.09711  -0.0404  0.3668  1.0000  -1.5234   0.0000   0.0000   0.0000   0.2798
  11.300   0.8904   0.10392   0.09631  -0.0403  0.3658  1.0000  -1.5499   0.0000   0.0000   0.0000   0.2790
  11.400   0.8965   0.10318   0.09558  -0.0402  0.3644  1.0000  -1.5739   0.0000   0.0000   0.0000   0.2784
  11.500   0.9005   0.10253   0.09494  -0.0401  0.3627  1.0000  -1.5932   0.0000   0.0000   0.0000   0.2779
  11.600   0.8990   0.10207   0.09449  -0.0402  0.3597  1.0000  -1.5998   0.0000   0.0000   0.0000   0.2778
  11.700   0.8355   0.10474   0.09718  -0.0416  0.3462  1.0000  -1.4601   0.0000   0.0000   0.0000   0.2829
  11.800   0.8142   0.10723   0.09970  -0.0424  0.3422  1.0000  -1.4159   0.0000   0.0000   0.0000   0.2851
  11.900   0.8038   0.10912   0.10161  -0.0429  0.3400  1.0000  -1.3976   0.0000   0.0000   0.0000   0.2863
  12.000   0.7977   0.11078   0.10329  -0.0433  0.3386  1.0000  -1.3891   0.0000   0.0000   0.0000   0.2871
  12.100   0.7937   0.11229   0.10482  -0.0437  0.3374  1.0000  -1.3854   0.0000   0.0000   0.0000   0.2878
  12.200   0.7909   0.11372   0.10627  -0.0441  0.3364  1.0000  -1.3848   0.0000   0.0000   0.0000   0.2883
  12.300   0.7890   0.11506   0.10763  -0.0445  0.3354  1.0000  -1.3863   0.0000   0.0000   0.0000   0.2888
  12.400   0.7877   0.11634   0.10893  -0.0448  0.3345  1.0000  -1.3894   0.0000   0.0000   0.0000   0.2892
  12.500   0.7870   0.11757   0.11018  -0.0452  0.3335  1.0000  -1.3938   0.0000   0.0000   0.0000   0.2895
  12.600   0.7868   0.11874   0.11137  -0.0455  0.3325  1.0000  -1.3993   0.0000   0.0000   0.0000   0.2898
  12.700   0.7869   0.11987   0.11251  -0.0458  0.3314  1.0000  -1.4058   0.0000   0.0000   0.0000   0.2900
  12.800   0.7873   0.12095   0.11361  -0.0461  0.3302  1.0000  -1.4132   0.0000   0.0000   0.0000   0.2902
  12.900   0.7881   0.12198   0.11465  -0.0464  0.3289  1.0000  -1.4215   0.0000   0.0000   0.0000   0.2903
  13.000   0.7893   0.12295   0.11565  -0.0466  0.3274  1.0000  -1.4307   0.0000   0.0000   0.0000   0.2903
  13.100   0.7908   0.12388   0.11659  -0.0469  0.3258  1.0000  -1.4408   0.0000   0.0000   0.0000   0.2903
  13.200   0.7926   0.12475   0.11748  -0.0471  0.3239  1.0000  -1.4520   0.0000   0.0000   0.0000   0.2903
  13.300   0.7949   0.12555   0.11830  -0.0473  0.3218  1.0000  -1.4643   0.0000   0.0000   0.0000   0.2902
  13.400   0.7976   0.12628   0.11905  -0.0474  0.3194  1.0000  -1.4779   0.0000   0.0000   0.0000   0.2900
  13.500   0.8008   0.12692   0.11971  -0.0476  0.3168  1.0000  -1.4931   0.0000   0.0000   0.0000   0.2897
  13.600   0.8047   0.12747   0.12028  -0.0476  0.3139  1.0000  -1.5102   0.0000   0.0000   0.0000   0.2892
  13.700   0.8093   0.12790   0.12073  -0.0476  0.3106  1.0000  -1.5294   0.0000   0.0000   0.0000   0.2887
  13.800   0.8149   0.12820   0.12105  -0.0476  0.3071  1.0000  -1.5512   0.0000   0.0000   0.0000   0.2880
  13.900   0.8214   0.12835   0.12122  -0.0475  0.3034  1.0000  -1.5760   0.0000   0.0000   0.0000   0.2871
  14.000   0.8289   0.12835   0.12124  -0.0473  0.2995  1.0000  -1.6041   0.0000   0.0000   0.0000   0.2861
  14.100   0.8377   0.12818   0.12109  -0.0470  0.2957  1.0000  -1.6356   0.0000   0.0000   0.0000   0.2849
  14.300   1.0512   0.09009   0.08259  -0.0337  0.2446  1.0000  -2.3643   0.0000   0.0000   0.0000   0.2578
  14.400   1.0521   0.09118   0.08372  -0.0339  0.2414  1.0000  -2.3788   0.0000   0.0000   0.0000   0.2578
  14.500   1.0514   0.09248   0.08504  -0.0342  0.2378  1.0000  -2.3889   0.0000   0.0000   0.0000   0.2579
  14.600   1.0484   0.09420   0.08679  -0.0346  0.2339  1.0000  -2.3914   0.0000   0.0000   0.0000   0.2582
  14.700   1.0435   0.09622   0.08884  -0.0351  0.2300  1.0000  -2.3876   0.0000   0.0000   0.0000   0.2587
  14.800   1.0379   0.09828   0.09093  -0.0357  0.2260  1.0000  -2.3821   0.0000   0.0000   0.0000   0.2593
  14.900   1.0326   0.10028   0.09294  -0.0363  0.2217  1.0000  -2.3775   0.0000   0.0000   0.0000   0.2598
  15.000   1.0281   0.10215   0.09483  -0.0368  0.2170  1.0000  -2.3754   0.0000   0.0000   0.0000   0.2603
  15.100   1.0246   0.10385   0.09653  -0.0373  0.2115  1.0000  -2.3767   0.0000   0.0000   0.0000   0.2607
  15.200   1.0226   0.10530   0.09797  -0.0377  0.2049  1.0000  -2.3830   0.0000   0.0000   0.0000   0.2610
  15.300   1.0228   0.10637   0.09901  -0.0380  0.1961  1.0000  -2.3973   0.0000   0.0000   0.0000   0.2610
  15.400   1.0761   0.09570   0.08615  -0.0334  0.0671  1.0000  -2.7158   0.0000   0.0000   0.0000   0.2540
  15.500   1.0758   0.09702   0.08746  -0.0337  0.0643  1.0000  -2.7491   0.0000   0.0000   0.0000   0.2541
  15.800   1.0271   0.11066   0.10260  -0.0389  0.1220  1.0000  -2.5390   0.0000   0.0000   0.0000   0.2605
  15.900   1.0225   0.11253   0.10435  -0.0394  0.1103  1.0000  -2.5484   0.0000   0.0000   0.0000   0.2610
  16.000   1.0174   0.11445   0.10610  -0.0400  0.0973  1.0000  -2.5552   0.0000   0.0000   0.0000   0.2615
  16.100   1.0122   0.11642   0.10786  -0.0406  0.0847  1.0000  -2.5610   0.0000   0.0000   0.0000   0.2621
  16.200   1.0071   0.11852   0.10984  -0.0412  0.0734  1.0000  -2.5653   0.0000   0.0000   0.0000   0.2628
  16.300   1.0050   0.12028   0.11155  -0.0418  0.0663  1.0000  -2.5856   0.0000   0.0000   0.0000   0.2632
  16.400   1.0057   0.12155   0.11277  -0.0421  0.0631  1.0000  -2.6227   0.0000   0.0000   0.0000   0.2633
  16.500   1.0066   0.12280   0.11396  -0.0424  0.0598  1.0000  -2.6606   0.0000   0.0000   0.0000   0.2633
  16.600   1.0074   0.12409   0.11514  -0.0427  0.0564  1.0000  -2.6967   0.0000   0.0000   0.0000   0.2634
  16.700   1.0078   0.12542   0.11633  -0.0430  0.0530  1.0000  -2.7294   0.0000   0.0000   0.0000   0.2634
  16.800   1.0081   0.12677   0.11750  -0.0433  0.0494  1.0000  -2.7591   0.0000   0.0000   0.0000   0.2635
  16.900   1.0089   0.12807   0.11865  -0.0435  0.0453  1.0000  -2.7858   0.0000   0.0000   0.0000   0.2634
  17.000   1.0105   0.12929   0.11982  -0.0437  0.0409  1.0000  -2.8064   0.0000   0.0000   0.0000   0.2632
  17.100   1.0131   0.13034   0.12094  -0.0437  0.0374  1.0000  -2.8264   0.0000   0.0000   0.0000   0.2628
  17.200   1.0163   0.13125   0.12199  -0.0436  0.0353  1.0000  -2.8511   0.0000   0.0000   0.0000   0.2623
  17.300   1.0199   0.13210   0.12300  -0.0435  0.0341  1.0000  -2.8804   0.0000   0.0000   0.0000   0.2618
  17.400   1.0236   0.13293   0.12399  -0.0434  0.0333  1.0000  -2.9124   0.0000   0.0000   0.0000   0.2613
  17.500   1.0273   0.13376   0.12498  -0.0432  0.0328  1.0000  -2.9571   0.0000   0.0000   0.0000   0.2607
  17.600   1.0308   0.13462   0.12599  -0.0431  0.0326  1.0000  -3.0002   0.0000   0.0000   0.0000   0.2602
  17.700   1.0344   0.13550   0.12702  -0.0430  0.0325  1.0000  -3.0420   0.0000   0.0000   0.0000   0.2597
  17.800   1.0380   0.13640   0.12806  -0.0428  0.0326  1.0000  -3.0820   0.0000   0.0000   0.0000   0.2591
  17.900   1.0414   0.13734   0.12913  -0.0427  0.0328  1.0000  -3.1198   0.0000   0.0000   0.0000   0.2586
  18.000   1.0446   0.13834   0.13026  -0.0426  0.0330  1.0000  -3.1551   0.0000   0.0000   0.0000   0.2581
  18.100   1.0476   0.13942   0.13147  -0.0424  0.0334  1.0000  -3.1872   0.0000   0.0000   0.0000   0.2576
  18.200   1.0501   0.14059   0.13278  -0.0423  0.0338  1.0000  -3.2154   0.0000   0.0000   0.0000   0.2571
  18.300   1.0522   0.14189   0.13421  -0.0422  0.0343  1.0000  -3.2390   0.0000   0.0000   0.0000   0.2567
  18.400   1.0538   0.14335   0.13582  -0.0421  0.0348  1.0000  -3.2565   0.0000   0.0000   0.0000   0.2564
  18.500   1.0545   0.14505   0.13766  -0.0421  0.0354  1.0000  -3.2664   0.0000   0.0000   0.0000   0.2562
  18.600   1.0538   0.14710   0.13985  -0.0423  0.0359  1.0000  -3.2659   0.0000   0.0000   0.0000   0.2561
  18.700   1.0515   0.14956   0.14245  -0.0426  0.0364  1.0000  -3.2543   0.0000   0.0000   0.0000   0.2564
  18.800   1.0479   0.15239   0.14540  -0.0430  0.0369  1.0000  -3.2332   0.0000   0.0000   0.0000   0.2568
  18.900   1.0430   0.15559   0.14870  -0.0437  0.0373  1.0000  -3.2033   0.0000   0.0000   0.0000   0.2575
  19.000   1.0367   0.15915   0.15237  -0.0445  0.0377  1.0000  -3.1656   0.0000   0.0000   0.0000   0.2584
  19.100   1.0292   0.16308   0.15638  -0.0455  0.0379  1.0000  -3.1209   0.0000   0.0000   0.0000   0.2597
  19.200   1.0205   0.16734   0.16071  -0.0466  0.0381  1.0000  -3.0695   0.0000   0.0000   0.0000   0.2612
  19.300   1.0107   0.17194   0.16538  -0.0480  0.0382  1.0000  -3.0117   0.0000   0.0000   0.0000   0.2629
  19.400   0.9992   0.17718   0.17066  -0.0496  0.0382  1.0000  -2.9435   0.0000   0.0000   0.0000   0.2652
  19.500   0.9889   0.18215   0.17568  -0.0510  0.0383  1.0000  -2.8778   0.0000   0.0000   0.0000   0.2671
  19.600   0.9797   0.18683   0.18040  -0.0521  0.0385  1.0000  -2.8148   0.0000   0.0000   0.0000   0.2688
  19.700   0.9710   0.19142   0.18502  -0.0532  0.0387  1.0000  -2.7513   0.0000   0.0000   0.0000   0.2704
  19.800   0.9625   0.19597   0.18960  -0.0541  0.0391  1.0000  -2.6861   0.0000   0.0000   0.0000   0.2719
  19.900   0.9540   0.20051   0.19418  -0.0549  0.0394  1.0000  -2.6188   0.0000   0.0000   0.0000   0.2733
  20.000   0.9456   0.20506   0.19875  -0.0558  0.0398  1.0000  -2.5494   0.0000   0.0000   0.0000   0.2748
  20.100   0.9374   0.20958   0.20330  -0.0565  0.0403  1.0000  -2.4780   0.0000   0.0000   0.0000   0.2762
  20.200   0.9293   0.21406   0.20780  -0.0571  0.0408  1.0000  -2.4051   0.0000   0.0000   0.0000   0.2775
  20.300   0.9210   0.21846   0.21222  -0.0578  0.0413  1.0000  -2.3328   0.0000   0.0000   0.0000   0.2789
  20.400   0.9125   0.22270   0.21648  -0.0584  0.0418  1.0000  -2.2620   0.0000   0.0000   0.0000   0.2802
  20.500   0.9039   0.22682   0.22061  -0.0590  0.0423  1.0000  -2.1918   0.0000   0.0000   0.0000   0.2816
  20.600   0.8950   0.23081   0.22462  -0.0596  0.0428  1.0000  -2.1213   0.0000   0.0000   0.0000   0.2831
  20.700   0.8861   0.23457   0.22840  -0.0601  0.0434  1.0000  -2.0531   0.0000   0.0000   0.0000   0.2845
  20.800   0.8773   0.23809   0.23193  -0.0606  0.0440  1.0000  -1.9870   0.0000   0.0000   0.0000   0.2858
  20.900   0.8686   0.24134   0.23521  -0.0610  0.0446  1.0000  -1.9227   0.0000   0.0000   0.0000   0.2872
  21.000   0.8597   0.24431   0.23819  -0.0615  0.0453  1.0000  -1.8597   0.0000   0.0000   0.0000   0.2886
  21.100   0.8482   0.24619   0.24011  -0.0618  0.0460  1.0000  -1.7915   0.0000   0.0000   0.0000   0.2902
  21.200   0.8355   0.24743   0.24140  -0.0624  0.0468  1.0000  -1.7175   0.0000   0.0000   0.0000   0.2923
  21.300   0.8243   0.24884   0.24287  -0.0634  0.0478  1.0000  -1.6437   0.0000   0.0000   0.0000   0.2949
  21.400   0.8147   0.25044   0.24454  -0.0649  0.0490  1.0000  -1.5725   0.0000   0.0000   0.0000   0.2980
  21.500   0.8067   0.25216   0.24633  -0.0667  0.0505  1.0000  -1.5048   0.0000   0.0000   0.0000   0.3013
  21.600   0.7999   0.25394   0.24818  -0.0687  0.0522  1.0000  -1.4410   0.0000   0.0000   0.0000   0.3047
  21.700   0.7942   0.25576   0.25008  -0.0708  0.0542  1.0000  -1.3804   0.0000   0.0000   0.0000   0.3083
  21.800   0.7891   0.25770   0.25209  -0.0730  0.0567  1.0000  -1.3201   0.0000   0.0000   0.0000   0.3120
  21.900   0.7834   0.26008   0.25456  -0.0757  0.0598  1.0000  -1.2508   0.0000   0.0000   0.0000   0.3163
  22.000   0.7663   0.27075   0.26544  -0.0820  0.0668  1.0000  -1.0340   0.0000   0.0000   0.0000   0.3280
  22.100   0.7664   0.27454   0.26928  -0.0838  0.0672  1.0000  -1.0042   0.0000   0.0000   0.0000   0.3304
  22.200   0.7671   0.27723   0.27201  -0.0853  0.0674  1.0000  -0.9870   0.0000   0.0000   0.0000   0.3323
  22.300   0.7679   0.27960   0.27441  -0.0868  0.0675  1.0000  -0.9732   0.0000   0.0000   0.0000   0.3340
  22.400   0.7688   0.28179   0.27664  -0.0882  0.0675  1.0000  -0.9611   0.0000   0.0000   0.0000   0.3357
  22.500   0.7697   0.28387   0.27875  -0.0896  0.0676  1.0000  -0.9501   0.0000   0.0000   0.0000   0.3373
  22.600   0.7706   0.28586   0.28078  -0.0909  0.0676  1.0000  -0.9398   0.0000   0.0000   0.0000   0.3389
  22.700   0.7716   0.28780   0.28275  -0.0923  0.0676  1.0000  -0.9302   0.0000   0.0000   0.0000   0.3404
  22.800   0.7725   0.28968   0.28466  -0.0936  0.0676  1.0000  -0.9210   0.0000   0.0000   0.0000   0.3419
  22.900   0.7735   0.29151   0.28652  -0.0949  0.0676  1.0000  -0.9123   0.0000   0.0000   0.0000   0.3434
  23.000   0.7745   0.29331   0.28835  -0.0961  0.0676  1.0000  -0.9039   0.0000   0.0000   0.0000   0.3448
  23.100   0.7755   0.29507   0.29014  -0.0974  0.0676  1.0000  -0.8959   0.0000   0.0000   0.0000   0.3461
  23.200   0.7764   0.29679   0.29190  -0.0986  0.0676  1.0000  -0.8882   0.0000   0.0000   0.0000   0.3475
  23.300   0.7774   0.29849   0.29362  -0.0998  0.0676  1.0000  -0.8808   0.0000   0.0000   0.0000   0.3488
  23.400   0.7784   0.30016   0.29532  -0.1010  0.0676  1.0000  -0.8736   0.0000   0.0000   0.0000   0.3501
  23.500   0.7793   0.30181   0.29699  -0.1022  0.0676  1.0000  -0.8667   0.0000   0.0000   0.0000   0.3513
  23.600   0.7803   0.30342   0.29863  -0.1033  0.0676  1.0000  -0.8599   0.0000   0.0000   0.0000   0.3525
  23.700   0.7812   0.30502   0.30025  -0.1045  0.0676  1.0000  -0.8534   0.0000   0.0000   0.0000   0.3537
  23.800   0.7822   0.30659   0.30185  -0.1056  0.0675  1.0000  -0.8471   0.0000   0.0000   0.0000   0.3548
  23.900   0.7828   0.30787   0.30316  -0.1067  0.0675  1.0000  -0.8406   0.0000   0.0000   0.0000   0.3560
  24.000   0.7832   0.30874   0.30405  -0.1078  0.0675  1.0000  -0.8340   0.0000   0.0000   0.0000   0.3573
  24.100   0.7836   0.30957   0.30491  -0.1089  0.0674  1.0000  -0.8276   0.0000   0.0000   0.0000   0.3586
  24.200   0.7840   0.31037   0.30573  -0.1100  0.0673  1.0000  -0.8216   0.0000   0.0000   0.0000   0.3598
  24.300   0.7844   0.31113   0.30652  -0.1111  0.0672  1.0000  -0.8159   0.0000   0.0000   0.0000   0.3609
  24.400   0.7848   0.31185   0.30727  -0.1121  0.0672  1.0000  -0.8105   0.0000   0.0000   0.0000   0.3621
  24.500   0.7852   0.31254   0.30797  -0.1131  0.0671  1.0000  -0.8055   0.0000   0.0000   0.0000   0.3631
  24.600   0.7857   0.31316   0.30862  -0.1141  0.0670  1.0000  -0.8009   0.0000   0.0000   0.0000   0.3642
  24.700   0.7862   0.31373   0.30921  -0.1151  0.0669  1.0000  -0.7967   0.0000   0.0000   0.0000   0.3652
  24.800   0.7866   0.31423   0.30973  -0.1160  0.0667  1.0000  -0.7929   0.0000   0.0000   0.0000   0.3662
  24.900   0.7871   0.31460   0.31012  -0.1170  0.0666  1.0000  -0.7895   0.0000   0.0000   0.0000   0.3671
  25.000   0.7874   0.31478   0.31033  -0.1179  0.0664  1.0000  -0.7863   0.0000   0.0000   0.0000   0.3681
  25.100   0.7878   0.31481   0.31038  -0.1188  0.0661  1.0000  -0.7840   0.0000   0.0000   0.0000   0.3690
  25.200   0.7883   0.31462   0.31021  -0.1196  0.0658  1.0000  -0.7829   0.0000   0.0000   0.0000   0.3698
  25.300   0.7889   0.31408   0.30968  -0.1205  0.0654  1.0000  -0.7837   0.0000   0.0000   0.0000   0.3706
  25.400   0.7897   0.31293   0.30855  -0.1212  0.0646  1.0000  -0.7879   0.0000   0.0000   0.0000   0.3712
  25.500   0.7900   0.31062   0.30625  -0.1221  0.0631  1.0000  -0.7930   0.0000   0.0000   0.0000   0.3719
  25.600   0.7900   0.30855   0.30419  -0.1230  0.0605  1.0000  -0.7941   0.0000   0.0000   0.0000   0.3729
  25.700   0.7904   0.30848   0.30413  -0.1241  0.0572  1.0000  -0.7907   0.0000   0.0000   0.0000   0.3740
  25.800   0.7910   0.30933   0.30498  -0.1251  0.0539  1.0000  -0.7882   0.0000   0.0000   0.0000   0.3750
  25.900   0.7916   0.31032   0.30599  -0.1260  0.0507  1.0000  -0.7886   0.0000   0.0000   0.0000   0.3759
  26.000   0.7923   0.31129   0.30697  -0.1269  0.0477  1.0000  -0.7913   0.0000   0.0000   0.0000   0.3766
  26.100   0.7931   0.31220   0.30790  -0.1277  0.0450  1.0000  -0.7959   0.0000   0.0000   0.0000   0.3773
  26.200   0.7940   0.31306   0.30877  -0.1285  0.0425  1.0000  -0.8022   0.0000   0.0000   0.0000   0.3779
  26.300   0.7950   0.31386   0.30958  -0.1293  0.0402  1.0000  -0.8102   0.0000   0.0000   0.0000   0.3784
  26.400   0.7960   0.31461   0.31033  -0.1300  0.0381  1.0000  -0.8198   0.0000   0.0000   0.0000   0.3789
  27.400   0.7977   0.34779   0.34365  -0.1372  0.0661  1.0000  -0.6585   0.0000   0.0000   0.0000   0.3871
  27.500   0.7981   0.34901   0.34487  -0.1379  0.0661  1.0000  -0.6554   0.0000   0.0000   0.0000   0.3877
  27.600   0.7986   0.35011   0.34597  -0.1385  0.0661  1.0000  -0.6525   0.0000   0.0000   0.0000   0.3882
  27.700   0.7990   0.35110   0.34696  -0.1392  0.0660  1.0000  -0.6496   0.0000   0.0000   0.0000   0.3888
  27.800   0.7994   0.35200   0.34787  -0.1399  0.0660  1.0000  -0.6468   0.0000   0.0000   0.0000   0.3893
  27.900   0.7997   0.35283   0.34870  -0.1405  0.0659  1.0000  -0.6440   0.0000   0.0000   0.0000   0.3899
  28.000   0.8001   0.35357   0.34944  -0.1412  0.0658  1.0000  -0.6413   0.0000   0.0000   0.0000   0.3904
  28.100   0.8002   0.35412   0.35001  -0.1418  0.0658  1.0000  -0.6380   0.0000   0.0000   0.0000   0.3910
  28.200   0.8004   0.35463   0.35052  -0.1425  0.0657  1.0000  -0.6349   0.0000   0.0000   0.0000   0.3916
  28.300   0.8005   0.35509   0.35099  -0.1431  0.0656  1.0000  -0.6318   0.0000   0.0000   0.0000   0.3921
  28.400   0.8007   0.35552   0.35142  -0.1437  0.0655  1.0000  -0.6288   0.0000   0.0000   0.0000   0.3927
  28.500   0.8009   0.35591   0.35181  -0.1444  0.0654  1.0000  -0.6260   0.0000   0.0000   0.0000   0.3932
  28.600   0.8010   0.35626   0.35218  -0.1450  0.0653  1.0000  -0.6233   0.0000   0.0000   0.0000   0.3937
  28.700   0.8012   0.35659   0.35251  -0.1456  0.0652  1.0000  -0.6208   0.0000   0.0000   0.0000   0.3942
  28.800   0.8014   0.35686   0.35279  -0.1462  0.0651  1.0000  -0.6184   0.0000   0.0000   0.0000   0.3947
  28.900   0.8016   0.35710   0.35304  -0.1468  0.0650  1.0000  -0.6162   0.0000   0.0000   0.0000   0.3952
  29.000   0.8019   0.35731   0.35325  -0.1474  0.0648  1.0000  -0.6141   0.0000   0.0000   0.0000   0.3957
  29.100   0.8021   0.35746   0.35341  -0.1480  0.0646  1.0000  -0.6123   0.0000   0.0000   0.0000   0.3962
  29.200   0.8024   0.35757   0.35352  -0.1486  0.0644  1.0000  -0.6107   0.0000   0.0000   0.0000   0.3966
  29.300   0.8026   0.35760   0.35357  -0.1492  0.0642  1.0000  -0.6093   0.0000   0.0000   0.0000   0.3970
  29.400   0.8030   0.35755   0.35352  -0.1498  0.0639  1.0000  -0.6082   0.0000   0.0000   0.0000   0.3975
  29.500   0.8033   0.35740   0.35337  -0.1504  0.0636  1.0000  -0.6074   0.0000   0.0000   0.0000   0.3979
  29.600   0.8037   0.35711   0.35309  -0.1510  0.0632  1.0000  -0.6070   0.0000   0.0000   0.0000   0.3983
  29.700   0.8042   0.35666   0.35265  -0.1516  0.0625  1.0000  -0.6070   0.0000   0.0000   0.0000   0.3987
  29.800   0.8049   0.35606   0.35205  -0.1523  0.0616  1.0000  -0.6077   0.0000   0.0000   0.0000   0.3991
  29.900   0.8059   0.35551   0.35151  -0.1531  0.0599  1.0000  -0.6090   0.0000   0.0000   0.0000   0.3995
  30.000   0.8072   0.35550   0.35150  -0.1539  0.0569  1.0000  -0.6115   0.0000   0.0000   0.0000   0.3999


