xflr5 v6.61

 Calculated polar for: WORTMANN FX 63-137 AIRFOIL

 1 1 Reynolds number fixed          Mach number fixed         

 xtrf =   1.000 (top)        1.000 (bottom)
 Mach =   0.000     Re =     0.160 e 6     Ncrit =   9.000

  alpha     CL        CD       CDp       Cm    Top Xtr Bot Xtr   Cpmin    Chinge    XCp    
 ------- -------- --------- --------- -------- ------- ------- -------- --------- ---------
 -10.000  -0.2349   0.12107   0.11737  -0.0561  0.9867  0.0513  -1.7449   0.0000   0.0000   0.0000  -0.0152
  -9.900  -0.2302   0.11934   0.11564  -0.0592  0.9850  0.0515  -1.7788   0.0000   0.0000   0.0000  -0.0340
  -9.800  -0.2242   0.11752   0.11382  -0.0621  0.9837  0.0517  -1.8000   0.0000   0.0000   0.0000  -0.0540
  -9.700  -0.2195   0.11582   0.11213  -0.0641  0.9811  0.0517  -1.8134   0.0000   0.0000   0.0000  -0.0696
  -9.600  -0.2142   0.11402   0.11033  -0.0662  0.9788  0.0518  -1.8264   0.0000   0.0000   0.0000  -0.0873
  -9.500  -0.2084   0.11212   0.10843  -0.0686  0.9770  0.0519  -1.8394   0.0000   0.0000   0.0000  -0.1077
  -9.400  -0.2023   0.11014   0.10644  -0.0710  0.9756  0.0519  -1.8525   0.0000   0.0000   0.0000  -0.1305
  -9.300  -0.1996   0.10593   0.10226  -0.0702  0.9754  0.0529  -1.8318   0.0000   0.0000   0.0000  -0.1317
  -9.200  -0.1896   0.10435   0.10067  -0.0703  0.9748  0.0535  -1.7628   0.0000   0.0000   0.0000  -0.1518
  -9.100  -0.1793   0.10300   0.09931  -0.0707  0.9741  0.0541  -1.6994   0.0000   0.0000   0.0000  -0.1772
  -9.000  -0.1728   0.10189   0.09821  -0.0708  0.9714  0.0547  -1.6564   0.0000   0.0000   0.0000  -0.1937
  -8.900  -0.1652   0.10069   0.09696  -0.0715  0.9693  0.0555  -1.6180   0.0000   0.0000   0.0000  -0.2175
  -8.800  -0.1575   0.09938   0.09564  -0.0725  0.9675  0.0563  -1.5965   0.0000   0.0000   0.0000  -0.2469
  -8.700  -0.1498   0.09796   0.09422  -0.0739  0.9660  0.0572  -1.5845   0.0000   0.0000   0.0000  -0.2816
  -8.600  -0.1421   0.09644   0.09270  -0.0756  0.9647  0.0583  -1.5794   0.0000   0.0000   0.0000  -0.3220
  -8.500  -0.1344   0.09480   0.09106  -0.0777  0.9635  0.0596  -1.5817   0.0000   0.0000   0.0000  -0.3693
  -8.400  -0.1270   0.09304   0.08929  -0.0801  0.9624  0.0612  -1.5934   0.0000   0.0000   0.0000  -0.4245
  -8.300  -0.1268   0.09186   0.08813  -0.0808  0.9572  0.0624  -1.6138   0.0000   0.0000   0.0000  -0.4303
  -8.200  -0.1247   0.08996   0.08623  -0.0848  0.9537  0.0651  -1.6831   0.0000   0.0000   0.0000  -0.4735
  -8.100  -0.1237   0.08761   0.08390  -0.0925  0.9501  0.0668  -1.8173   0.0000   0.0000   0.0000  -0.5418
  -8.000  -0.1240   0.08620   0.08250  -0.0941  0.9450  0.0670  -1.8586   0.0000   0.0000   0.0000  -0.5517
  -7.900  -0.1233   0.08447   0.08078  -0.0961  0.9404  0.0671  -1.9022   0.0000   0.0000   0.0000  -0.5727
  -7.500  -0.1513   0.05271   0.04876  -0.1274  0.9209  0.0393  -3.1701   0.0000   0.0000   0.0000  -0.6283
  -7.400  -0.1369   0.04745   0.04319  -0.1383  0.9186  0.0391  -3.3131   0.0000   0.0000   0.0000  -0.7997
  -7.300  -0.1206   0.04277   0.03819  -0.1467  0.9173  0.0393  -3.4143   0.0000   0.0000   0.0000  -1.0113
  -7.200  -0.1019   0.03929   0.03441  -0.1529  0.9166  0.0396  -3.4503   0.0000   0.0000   0.0000  -1.3040
  -7.100  -0.1074   0.03884   0.03391  -0.1511  0.9087  0.0396  -3.4619   0.0000   0.0000   0.0000  -1.2061
  -7.000  -0.0942   0.03743   0.03244  -0.1534  0.9067  0.0408  -3.3995   0.0000   0.0000   0.0000  -1.4332
  -6.900  -0.0806   0.03741   0.03250  -0.1540  0.9053  0.0423  -3.2766   0.0000   0.0000   0.0000  -1.7234
  -6.800  -0.0555   0.03344   0.02792  -0.1608  0.9044  0.0407  -3.3533   0.0000   0.0000   0.0000  -2.7384
  -6.700  -0.0344   0.03178   0.02596  -0.1641  0.9035  0.0399  -3.3213   0.0000   0.0000   0.0000  -4.6718
  -6.600  -0.0145   0.03066   0.02464  -0.1666  0.9027  0.0396  -3.2559   0.0000   0.0000   0.0000  -11.5916
  -6.500   0.0049   0.02967   0.02342  -0.1689  0.9019  0.0395  -3.1800   0.0000   0.0000   0.0000  35.7925
  -6.400   0.0238   0.02874   0.02234  -0.1710  0.9011  0.0394  -3.1042   0.0000   0.0000   0.0000   7.6399
  -6.300   0.0426   0.02785   0.02130  -0.1731  0.9004  0.0393  -3.0260   0.0000   0.0000   0.0000   4.4233
  -6.200   0.0614   0.02698   0.02029  -0.1750  0.8996  0.0394  -2.9465   0.0000   0.0000   0.0000   3.1802
  -6.100   0.0799   0.02615   0.01932  -0.1769  0.8989  0.0394  -2.8661   0.0000   0.0000   0.0000   2.5238
  -6.000   0.0982   0.02536   0.01841  -0.1787  0.8983  0.0396  -2.7850   0.0000   0.0000   0.0000   2.1184
  -5.900   0.1161   0.02462   0.01757  -0.1804  0.8976  0.0397  -2.7030   0.0000   0.0000   0.0000   1.8430
  -5.800   0.1208   0.02443   0.01733  -0.1795  0.8930  0.0398  -2.6593   0.0000   0.0000   0.0000   1.7737
  -5.700   0.1315   0.02402   0.01686  -0.1798  0.8899  0.0400  -2.5967   0.0000   0.0000   0.0000   1.6510
  -5.600   0.1455   0.02352   0.01629  -0.1806  0.8878  0.0403  -2.5228   0.0000   0.0000   0.0000   1.5215
  -5.500   0.1607   0.02302   0.01573  -0.1815  0.8861  0.0405  -2.4437   0.0000   0.0000   0.0000   1.4070
  -5.400   0.1765   0.02254   0.01521  -0.1826  0.8845  0.0412  -2.3586   0.0000   0.0000   0.0000   1.3095
  -5.300   0.1923   0.02232   0.01501  -0.1838  0.8830  0.0431  -2.2538   0.0000   0.0000   0.0000   1.2279
  -5.200   0.2083   0.02231   0.01500  -0.1850  0.8816  0.0457  -2.1429   0.0000   0.0000   0.0000   1.1577
  -5.100   0.2246   0.02228   0.01494  -0.1860  0.8802  0.0484  -2.0395   0.0000   0.0000   0.0000   1.0962
  -5.000   0.2416   0.02225   0.01484  -0.1871  0.8790  0.0505  -1.9417   0.0000   0.0000   0.0000   1.0411
  -4.900   0.2589   0.02235   0.01485  -0.1882  0.8778  0.0518  -1.8438   0.0000   0.0000   0.0000   0.9919
  -4.800   0.2765   0.02154   0.01397  -0.1896  0.8767  0.0524  -1.7714   0.0000   0.0000   0.0000   0.9498
  -4.700   0.2821   0.02141   0.01382  -0.1887  0.8721  0.0524  -1.7269   0.0000   0.0000   0.0000   0.9324
  -4.600   0.2920   0.02117   0.01356  -0.1885  0.8685  0.0523  -1.6694   0.0000   0.0000   0.0000   0.9084
  -4.500   0.3046   0.02084   0.01320  -0.1888  0.8659  0.0522  -1.6052   0.0000   0.0000   0.0000   0.8819
  -4.400   0.3182   0.02047   0.01280  -0.1893  0.8637  0.0522  -1.5558   0.0000   0.0000   0.0000   0.8561
  -4.300   0.3323   0.02007   0.01238  -0.1899  0.8618  0.0522  -1.5255   0.0000   0.0000   0.0000   0.8319
  -4.200   0.3471   0.01966   0.01194  -0.1906  0.8601  0.0523  -1.4949   0.0000   0.0000   0.0000   0.8089
  -4.100   0.3624   0.01923   0.01145  -0.1914  0.8586  0.0525  -1.4635   0.0000   0.0000   0.0000   0.7873
  -4.000   0.3783   0.01881   0.01101  -0.1923  0.8571  0.0527  -1.4316   0.0000   0.0000   0.0000   0.7670
  -3.900   0.3947   0.01839   0.01058  -0.1934  0.8556  0.0531  -1.3984   0.0000   0.0000   0.0000   0.7480
  -3.800   0.4116   0.01802   0.01020  -0.1946  0.8542  0.0536  -1.3636   0.0000   0.0000   0.0000   0.7303
  -3.700   0.4209   0.01791   0.01010  -0.1945  0.8505  0.0541  -1.3381   0.0000   0.0000   0.0000   0.7192
  -3.600   0.4322   0.01777   0.00996  -0.1947  0.8471  0.0548  -1.3089   0.0000   0.0000   0.0000   0.7073
  -3.500   0.4454   0.01759   0.00976  -0.1952  0.8441  0.0557  -1.2764   0.0000   0.0000   0.0000   0.6947
  -3.400   0.4596   0.01739   0.00955  -0.1959  0.8415  0.0568  -1.2423   0.0000   0.0000   0.0000   0.6823
  -3.300   0.4747   0.01719   0.00931  -0.1967  0.8391  0.0583  -1.2080   0.0000   0.0000   0.0000   0.6701
  -3.200   0.4902   0.01699   0.00906  -0.1976  0.8370  0.0603  -1.1747   0.0000   0.0000   0.0000   0.6583
  -3.100   0.5061   0.01679   0.00881  -0.1985  0.8351  0.0631  -1.1435   0.0000   0.0000   0.0000   0.6471
  -3.000   0.5220   0.01661   0.00855  -0.1994  0.8333  0.0667  -1.1143   0.0000   0.0000   0.0000   0.6365
  -2.900   0.5406   0.01626   0.00821  -0.2010  0.8316  0.0778  -1.0913   0.0000   0.0000   0.0000   0.6260
  -2.800   0.5595   0.01588   0.00794  -0.2028  0.8300  0.1145  -1.0618   0.0000   0.0000   0.0000   0.6164
  -2.700   0.5772   0.01531   0.00785  -0.2051  0.8271  0.2485  -1.0256   0.0000   0.0000   0.0000   0.6091
  -2.600   0.5914   0.01510   0.00793  -0.2062  0.8242  0.3316  -0.9877   0.0000   0.0000   0.0000   0.6021
  -2.500   0.6031   0.01510   0.00798  -0.2064  0.8212  0.3647  -0.9514   0.0000   0.0000   0.0000   0.5954
  -2.400   0.6151   0.01511   0.00801  -0.2066  0.8184  0.3842  -0.9134   0.0000   0.0000   0.0000   0.5888
  -2.300   0.6275   0.01511   0.00800  -0.2068  0.8159  0.4013  -0.8738   0.0000   0.0000   0.0000   0.5822
  -2.200   0.6402   0.01510   0.00796  -0.2070  0.8135  0.4170  -0.8713   0.0000   0.0000   0.0000   0.5758
  -2.100   0.6532   0.01509   0.00791  -0.2072  0.8113  0.4300  -0.8806   0.0000   0.0000   0.0000   0.5695
  -2.000   0.6664   0.01508   0.00786  -0.2075  0.8091  0.4400  -0.8900   0.0000   0.0000   0.0000   0.5634
  -1.900   0.6798   0.01507   0.00784  -0.2077  0.8070  0.4500  -0.8996   0.0000   0.0000   0.0000   0.5574
  -1.800   0.6933   0.01510   0.00782  -0.2080  0.8049  0.4597  -0.9093   0.0000   0.0000   0.0000   0.5517
  -1.700   0.7023   0.01521   0.00793  -0.2077  0.8014  0.4669  -0.9158   0.0000   0.0000   0.0000   0.5472
  -1.600   0.7119   0.01529   0.00804  -0.2074  0.7979  0.4735  -0.9234   0.0000   0.0000   0.0000   0.5426
  -1.500   0.7224   0.01535   0.00811  -0.2072  0.7946  0.4814  -0.9326   0.0000   0.0000   0.0000   0.5379
  -1.400   0.7339   0.01539   0.00813  -0.2072  0.7915  0.4907  -0.9425   0.0000   0.0000   0.0000   0.5332
  -1.300   0.7462   0.01541   0.00810  -0.2073  0.7886  0.5002  -0.9530   0.0000   0.0000   0.0000   0.5285
  -1.200   0.7580   0.01541   0.00813  -0.2072  0.7859  0.5088  -0.9633   0.0000   0.0000   0.0000   0.5239
  -1.100   0.7704   0.01542   0.00814  -0.2072  0.7833  0.5197  -0.9741   0.0000   0.0000   0.0000   0.5194
  -1.000   0.7837   0.01546   0.00812  -0.2075  0.7809  0.5317  -0.9854   0.0000   0.0000   0.0000   0.5149
  -0.900   0.7957   0.01553   0.00821  -0.2074  0.7784  0.5416  -0.9960   0.0000   0.0000   0.0000   0.5106
  -0.800   0.8039   0.01566   0.00839  -0.2067  0.7748  0.5510  -1.0038   0.0000   0.0000   0.0000   0.5070
  -0.700   0.8133   0.01578   0.00852  -0.2063  0.7709  0.5612  -1.0124   0.0000   0.0000   0.0000   0.5034
  -0.600   0.8231   0.01584   0.00861  -0.2059  0.7672  0.5699  -1.0214   0.0000   0.0000   0.0000   0.4997
  -0.500   0.8324   0.01591   0.00874  -0.2053  0.7637  0.5794  -1.0303   0.0000   0.0000   0.0000   0.4960
  -0.400   0.8429   0.01601   0.00884  -0.2049  0.7605  0.5930  -1.0401   0.0000   0.0000   0.0000   0.4923
  -0.300   0.8527   0.01607   0.00894  -0.2042  0.7575  0.6053  -1.0495   0.0000   0.0000   0.0000   0.4885
  -0.200   0.8619   0.01617   0.00908  -0.2032  0.7546  0.6182  -1.0588   0.0000   0.0000   0.0000   0.4847
  -0.100   0.8735   0.01629   0.00915  -0.2029  0.7518  0.6318  -1.0695   0.0000   0.0000   0.0000   0.4811
   0.000   0.8799   0.01640   0.00934  -0.2015  0.7484  0.6403  -1.0767   0.0000   0.0000   0.0000   0.4777
   0.100   0.8862   0.01652   0.00953  -0.2003  0.7441  0.6489  -1.0836   0.0000   0.0000   0.0000   0.4745
   0.200   0.8960   0.01659   0.00960  -0.1999  0.7398  0.6576  -1.0928   0.0000   0.0000   0.0000   0.4714
   0.300   0.9070   0.01657   0.00957  -0.1997  0.7357  0.6630  -1.1028   0.0000   0.0000   0.0000   0.4683
   0.400   0.9176   0.01649   0.00949  -0.1994  0.7320  0.6661  -1.1127   0.0000   0.0000   0.0000   0.4653
   0.500   0.9287   0.01642   0.00941  -0.1992  0.7287  0.6693  -1.1229   0.0000   0.0000   0.0000   0.4623
   0.600   0.9404   0.01637   0.00933  -0.1990  0.7255  0.6729  -1.1336   0.0000   0.0000   0.0000   0.4593
   0.700   0.9530   0.01637   0.00926  -0.1991  0.7223  0.6767  -1.1465   0.0000   0.0000   0.0000   0.4564
   0.800   0.9628   0.01640   0.00932  -0.1988  0.7185  0.6806  -1.1573   0.0000   0.0000   0.0000   0.4539
   0.900   0.9726   0.01642   0.00936  -0.1986  0.7141  0.6845  -1.1681   0.0000   0.0000   0.0000   0.4514
   1.000   0.9837   0.01643   0.00937  -0.1986  0.7098  0.6883  -1.1798   0.0000   0.0000   0.0000   0.4490
   1.100   0.9959   0.01642   0.00935  -0.1988  0.7057  0.6917  -1.1924   0.0000   0.0000   0.0000   0.4465
   1.200   1.0067   0.01634   0.00927  -0.1986  0.7019  0.6945  -1.2042   0.0000   0.0000   0.0000   0.4441
   1.300   1.0176   0.01628   0.00919  -0.1984  0.6985  0.6972  -1.2162   0.0000   0.0000   0.0000   0.4416
   1.400   1.0291   0.01623   0.00912  -0.1983  0.6953  0.7002  -1.2286   0.0000   0.0000   0.0000   0.4392
   1.500   1.0413   0.01622   0.00907  -0.1984  0.6922  0.7035  -1.2432   0.0000   0.0000   0.0000   0.4368
   1.600   1.0508   0.01626   0.00914  -0.1981  0.6886  0.7071  -1.2561   0.0000   0.0000   0.0000   0.4346
   1.700   1.0605   0.01629   0.00920  -0.1978  0.6845  0.7111  -1.2692   0.0000   0.0000   0.0000   0.4325
   1.800   1.0713   0.01632   0.00923  -0.1977  0.6805  0.7154  -1.2831   0.0000   0.0000   0.0000   0.4304
   1.900   1.0830   0.01633   0.00924  -0.1978  0.6767  0.7198  -1.2978   0.0000   0.0000   0.0000   0.4284
   2.000   1.0941   0.01631   0.00922  -0.1978  0.6732  0.7234  -1.3122   0.0000   0.0000   0.0000   0.4263
   2.100   1.1044   0.01628   0.00919  -0.1975  0.6700  0.7267  -1.3261   0.0000   0.0000   0.0000   0.4242
   2.200   1.1154   0.01627   0.00916  -0.1973  0.6670  0.7302  -1.3406   0.0000   0.0000   0.0000   0.4222
   2.300   1.1270   0.01627   0.00914  -0.1973  0.6641  0.7341  -1.3556   0.0000   0.0000   0.0000   0.4202
   2.400   1.1393   0.01631   0.00918  -0.1974  0.6612  0.7380  -1.3711   0.0000   0.0000   0.0000   0.4182
   2.500   1.1488   0.01637   0.00928  -0.1972  0.6576  0.7419  -1.3840   0.0000   0.0000   0.0000   0.4165
   2.600   1.1590   0.01641   0.00936  -0.1971  0.6533  0.7458  -1.3976   0.0000   0.0000   0.0000   0.4147
   2.700   1.1700   0.01645   0.00941  -0.1971  0.6487  0.7495  -1.4143   0.0000   0.0000   0.0000   0.4130
   2.800   1.1801   0.01642   0.00940  -0.1969  0.6441  0.7526  -1.4311   0.0000   0.0000   0.0000   0.4112
   2.900   1.1901   0.01638   0.00936  -0.1965  0.6396  0.7558  -1.4479   0.0000   0.0000   0.0000   0.4094
   3.000   1.2009   0.01635   0.00929  -0.1963  0.6352  0.7592  -1.4656   0.0000   0.0000   0.0000   0.4075
   3.100   1.2124   0.01633   0.00922  -0.1963  0.6310  0.7630  -1.4840   0.0000   0.0000   0.0000   0.4058
   3.200   1.2223   0.01637   0.00927  -0.1960  0.6265  0.7669  -1.5007   0.0000   0.0000   0.0000   0.4041
   3.300   1.2319   0.01640   0.00934  -0.1957  0.6214  0.7711  -1.5171   0.0000   0.0000   0.0000   0.4025
   3.400   1.2425   0.01643   0.00938  -0.1956  0.6163  0.7753  -1.5378   0.0000   0.0000   0.0000   0.4009
   3.500   1.2534   0.01644   0.00937  -0.1956  0.6113  0.7792  -1.5596   0.0000   0.0000   0.0000   0.3994
   3.600   1.2633   0.01642   0.00934  -0.1952  0.6068  0.7827  -1.5805   0.0000   0.0000   0.0000   0.3977
   3.700   1.2737   0.01642   0.00930  -0.1950  0.6026  0.7866  -1.6020   0.0000   0.0000   0.0000   0.3961
   3.800   1.2849   0.01646   0.00928  -0.1949  0.5986  0.7910  -1.6315   0.0000   0.0000   0.0000   0.3945
   3.900   1.2945   0.01652   0.00939  -0.1946  0.5945  0.7958  -1.6619   0.0000   0.0000   0.0000   0.3931
   4.000   1.3042   0.01659   0.00950  -0.1945  0.5898  0.8010  -1.6928   0.0000   0.0000   0.0000   0.3916
   4.100   1.3142   0.01665   0.00966  -0.1943  0.5849  0.8060  -1.7242   0.0000   0.0000   0.0000   0.3902
   4.200   1.3229   0.01667   0.00971  -0.1937  0.5802  0.8105  -1.7540   0.0000   0.0000   0.0000   0.3887
   4.300   1.3322   0.01670   0.00974  -0.1933  0.5755  0.8157  -1.7850   0.0000   0.0000   0.0000   0.3872
   4.400   1.3423   0.01674   0.00975  -0.1931  0.5709  0.8214  -1.8173   0.0000   0.0000   0.0000   0.3858
   4.500   1.3533   0.01680   0.00976  -0.1930  0.5664  0.8274  -1.8513   0.0000   0.0000   0.0000   0.3844
   4.600   1.3623   0.01685   0.00985  -0.1926  0.5618  0.8329  -1.8820   0.0000   0.0000   0.0000   0.3830
   4.700   1.3702   0.01689   0.00994  -0.1920  0.5569  0.8388  -1.9112   0.0000   0.0000   0.0000   0.3816
   4.800   1.3789   0.01694   0.01000  -0.1915  0.5517  0.8455  -1.9419   0.0000   0.0000   0.0000   0.3802
   4.900   1.3886   0.01700   0.01005  -0.1912  0.5464  0.8527  -1.9743   0.0000   0.0000   0.0000   0.3788
   5.000   1.3966   0.01703   0.01006  -0.1905  0.5413  0.8593  -2.0044   0.0000   0.0000   0.0000   0.3774
   5.100   1.4050   0.01708   0.01006  -0.1899  0.5363  0.8669  -2.0352   0.0000   0.0000   0.0000   0.3760
   5.200   1.4142   0.01716   0.01012  -0.1895  0.5312  0.8754  -2.0672   0.0000   0.0000   0.0000   0.3747
   5.300   1.4204   0.01718   0.01023  -0.1885  0.5260  0.8839  -2.0943   0.0000   0.0000   0.0000   0.3733
   5.400   1.4275   0.01723   0.01032  -0.1878  0.5201  0.8943  -2.1231   0.0000   0.0000   0.0000   0.3719
   5.500   1.4336   0.01724   0.01036  -0.1867  0.5144  0.9061  -2.1502   0.0000   0.0000   0.0000   0.3705
   5.600   1.4390   0.01725   0.01037  -0.1856  0.5089  0.9232  -2.1766   0.0000   0.0000   0.0000   0.3690
   5.700   1.4429   0.01718   0.01030  -0.1841  0.5039  1.0005  -2.2008   0.0000   0.0000   0.0000   0.3675
   5.800   1.4553   0.01735   0.01043  -0.1845  0.4981  1.0005  -2.2385   0.0000   0.0000   0.0000   0.3666
   5.900   1.4670   0.01751   0.01060  -0.1849  0.4922  1.0005  -2.2752   0.0000   0.0000   0.0000   0.3656
   6.000   1.4784   0.01767   0.01075  -0.1851  0.4863  1.0005  -2.3114   0.0000   0.0000   0.0000   0.3647
   6.100   1.4892   0.01784   0.01089  -0.1853  0.4805  1.0005  -2.3472   0.0000   0.0000   0.0000   0.3637
   6.200   1.4997   0.01803   0.01102  -0.1853  0.4750  1.0005  -2.3826   0.0000   0.0000   0.0000   0.3627
   6.300   1.5100   0.01823   0.01121  -0.1853  0.4696  1.0005  -2.4177   0.0000   0.0000   0.0000   0.3616
   6.400   1.5200   0.01840   0.01139  -0.1852  0.4646  1.0005  -2.4523   0.0000   0.0000   0.0000   0.3606
   6.500   1.5295   0.01856   0.01159  -0.1851  0.4589  1.0005  -2.4861   0.0000   0.0000   0.0000   0.3596
   6.600   1.5386   0.01873   0.01178  -0.1849  0.4526  1.0005  -2.5195   0.0000   0.0000   0.0000   0.3586
   6.700   1.5473   0.01892   0.01195  -0.1845  0.4463  1.0005  -2.5524   0.0000   0.0000   0.0000   0.3575
   6.800   1.5556   0.01912   0.01212  -0.1841  0.4401  1.0005  -2.5847   0.0000   0.0000   0.0000   0.3564
   6.900   1.5635   0.01935   0.01229  -0.1836  0.4345  1.0005  -2.6167   0.0000   0.0000   0.0000   0.3554
   7.000   1.5720   0.01953   0.01250  -0.1832  0.4292  1.0005  -2.6495   0.0000   0.0000   0.0000   0.3543
   7.100   1.5800   0.01973   0.01270  -0.1828  0.4236  1.0005  -2.6816   0.0000   0.0000   0.0000   0.3533
   7.200   1.5875   0.01995   0.01290  -0.1822  0.4180  1.0005  -2.7128   0.0000   0.0000   0.0000   0.3522
   7.300   1.5944   0.02019   0.01310  -0.1815  0.4124  1.0005  -2.7432   0.0000   0.0000   0.0000   0.3511
   7.400   1.6008   0.02046   0.01331  -0.1808  0.4069  1.0005  -2.7729   0.0000   0.0000   0.0000   0.3500
   7.500   1.6075   0.02072   0.01354  -0.1801  0.4018  1.0005  -2.8031   0.0000   0.0000   0.0000   0.3489
   7.600   1.6153   0.02090   0.01378  -0.1795  0.3966  1.0005  -2.8348   0.0000   0.0000   0.0000   0.3479
   7.700   1.6223   0.02110   0.01402  -0.1789  0.3904  1.0005  -2.8654   0.0000   0.0000   0.0000   0.3468
   7.800   1.6282   0.02134   0.01427  -0.1781  0.3837  1.0005  -2.8941   0.0000   0.0000   0.0000   0.3458
   7.900   1.6324   0.02162   0.01453  -0.1769  0.3772  1.0005  -2.9200   0.0000   0.0000   0.0000   0.3446
   8.100   1.6405   0.02221   0.01507  -0.1746  0.3640  1.0005  -2.9713   0.0000   0.0000   0.0000   0.3423
   8.200   1.6438   0.02254   0.01538  -0.1734  0.3562  1.0005  -2.9956   0.0000   0.0000   0.0000   0.3412
   8.300   1.6453   0.02295   0.01572  -0.1719  0.3481  1.0005  -3.0169   0.0000   0.0000   0.0000   0.3400
   8.400   1.6455   0.02345   0.01611  -0.1702  0.3402  1.0005  -3.0357   0.0000   0.0000   0.0000   0.3388
   8.500   1.6502   0.02374   0.01645  -0.1693  0.3298  1.0005  -3.0624   0.0000   0.0000   0.0000   0.3377
   8.600   1.6518   0.02418   0.01687  -0.1679  0.3168  1.0005  -3.0835   0.0000   0.0000   0.0000   0.3366
   8.700   1.6509   0.02475   0.01735  -0.1661  0.3053  1.0005  -3.1004   0.0000   0.0000   0.0000   0.3354
   8.800   1.6506   0.02534   0.01786  -0.1646  0.2944  1.0005  -3.1180   0.0000   0.0000   0.0000   0.3343
   8.900   1.6565   0.02566   0.01830  -0.1639  0.2926  1.0005  -3.1461   0.0000   0.0000   0.0000   0.3334
   9.000   1.6555   0.02631   0.01887  -0.1623  0.2844  1.0005  -3.1622   0.0000   0.0000   0.0000   0.3323
   9.100   1.6561   0.02690   0.01943  -0.1609  0.2754  1.0005  -3.1810   0.0000   0.0000   0.0000   0.3312
   9.200   1.6584   0.02743   0.01995  -0.1598  0.2607  1.0005  -3.2034   0.0000   0.0000   0.0000   0.3303
   9.300   1.6560   0.02823   0.02067  -0.1582  0.2477  1.0005  -3.2200   0.0000   0.0000   0.0000   0.3292
   9.400   1.6537   0.02907   0.02142  -0.1567  0.2379  1.0005  -3.2369   0.0000   0.0000   0.0000   0.3282
   9.500   1.6504   0.03000   0.02225  -0.1551  0.2290  1.0005  -3.2516   0.0000   0.0000   0.0000   0.3273
   9.600   1.6488   0.03086   0.02306  -0.1538  0.2204  1.0005  -3.2693   0.0000   0.0000   0.0000   0.3264
   9.700   1.6514   0.03147   0.02367  -0.1529  0.2059  1.0005  -3.2965   0.0000   0.0000   0.0000   0.3255
   9.800   1.6489   0.03245   0.02457  -0.1516  0.1934  1.0005  -3.3123   0.0000   0.0000   0.0000   0.3247
   9.900   1.6464   0.03345   0.02549  -0.1503  0.1853  1.0005  -3.3282   0.0000   0.0000   0.0000   0.3238
  10.000   1.6436   0.03451   0.02647  -0.1491  0.1780  1.0005  -3.3431   0.0000   0.0000   0.0000   0.3230
  10.100   1.6409   0.03557   0.02747  -0.1479  0.1713  1.0005  -3.3579   0.0000   0.0000   0.0000   0.3222
  10.200   1.6447   0.03614   0.02808  -0.1472  0.1638  1.0005  -3.3870   0.0000   0.0000   0.0000   0.3215
  10.300   1.6466   0.03686   0.02881  -0.1464  0.1538  1.0005  -3.4120   0.0000   0.0000   0.0000   0.3207
  10.400   1.6460   0.03780   0.02972  -0.1455  0.1457  1.0005  -3.4315   0.0000   0.0000   0.0000   0.3199
  10.500   1.6452   0.03877   0.03066  -0.1445  0.1415  1.0005  -3.4502   0.0000   0.0000   0.0000   0.3192
  10.600   1.6442   0.03977   0.03164  -0.1436  0.1375  1.0005  -3.4684   0.0000   0.0000   0.0000   0.3185
  10.700   1.6432   0.04079   0.03263  -0.1427  0.1336  1.0005  -3.4864   0.0000   0.0000   0.0000   0.3178
  10.800   1.6419   0.04186   0.03368  -0.1419  0.1299  1.0005  -3.5035   0.0000   0.0000   0.0000   0.3172
  10.900   1.6407   0.04293   0.03474  -0.1411  0.1262  1.0005  -3.5206   0.0000   0.0000   0.0000   0.3165
  11.000   1.6423   0.04377   0.03560  -0.1404  0.1230  1.0005  -3.5469   0.0000   0.0000   0.0000   0.3158
  11.100   1.6458   0.04442   0.03631  -0.1399  0.1194  1.0005  -3.5794   0.0000   0.0000   0.0000   0.3151
  11.200   1.6481   0.04519   0.03712  -0.1393  0.1150  1.0005  -3.6085   0.0000   0.0000   0.0000   0.3144
  11.300   1.6489   0.04611   0.03806  -0.1387  0.1101  1.0005  -3.6340   0.0000   0.0000   0.0000   0.3138
  11.400   1.6484   0.04716   0.03911  -0.1380  0.1056  1.0005  -3.6562   0.0000   0.0000   0.0000   0.3132
  11.500   1.6475   0.04825   0.04020  -0.1373  0.1024  1.0005  -3.6773   0.0000   0.0000   0.0000   0.3126
  11.600   1.6470   0.04932   0.04126  -0.1366  0.1003  1.0005  -3.6994   0.0000   0.0000   0.0000   0.3121
  11.700   1.6463   0.05043   0.04237  -0.1360  0.0982  1.0005  -3.7207   0.0000   0.0000   0.0000   0.3115
  11.800   1.6455   0.05156   0.04350  -0.1354  0.0962  1.0005  -3.7418   0.0000   0.0000   0.0000   0.3110
  11.900   1.6447   0.05270   0.04464  -0.1348  0.0943  1.0005  -3.7625   0.0000   0.0000   0.0000   0.3104
  12.000   1.6436   0.05387   0.04581  -0.1343  0.0924  1.0005  -3.7823   0.0000   0.0000   0.0000   0.3099
  12.100   1.6420   0.05510   0.04703  -0.1337  0.0906  1.0005  -3.8006   0.0000   0.0000   0.0000   0.3095
  12.200   1.6402   0.05637   0.04832  -0.1331  0.0889  1.0005  -3.8179   0.0000   0.0000   0.0000   0.3090
  12.300   1.6385   0.05765   0.04962  -0.1326  0.0871  1.0005  -3.8352   0.0000   0.0000   0.0000   0.3085
  12.400   1.6369   0.05894   0.05092  -0.1321  0.0854  1.0005  -3.8523   0.0000   0.0000   0.0000   0.3081
  12.500   1.6377   0.05998   0.05198  -0.1317  0.0840  1.0005  -3.8872   0.0000   0.0000   0.0000   0.3076
  12.600   1.6414   0.06070   0.05282  -0.1314  0.0827  1.0005  -3.9524   0.0000   0.0000   0.0000   0.3070
  12.700   1.6439   0.06155   0.05373  -0.1311  0.0813  1.0005  -4.0136   0.0000   0.0000   0.0000   0.3065
  12.800   1.6461   0.06246   0.05469  -0.1308  0.0798  1.0005  -4.0731   0.0000   0.0000   0.0000   0.3060
  12.900   1.6481   0.06339   0.05567  -0.1305  0.0783  1.0005  -4.1314   0.0000   0.0000   0.0000   0.3055
  13.000   1.6498   0.06435   0.05668  -0.1302  0.0766  1.0005  -4.1884   0.0000   0.0000   0.0000   0.3050
  13.100   1.6513   0.06535   0.05772  -0.1299  0.0750  1.0005  -4.2440   0.0000   0.0000   0.0000   0.3045
  13.200   1.6523   0.06640   0.05881  -0.1296  0.0734  1.0005  -4.2972   0.0000   0.0000   0.0000   0.3041
  13.300   1.6527   0.06755   0.05999  -0.1294  0.0716  1.0005  -4.3468   0.0000   0.0000   0.0000   0.3037
  13.400   1.6519   0.06886   0.06130  -0.1291  0.0695  1.0005  -4.3909   0.0000   0.0000   0.0000   0.3034
  13.600   1.6498   0.07154   0.06396  -0.1287  0.0651  1.0005  -4.4771   0.0000   0.0000   0.0000   0.3028
  13.700   1.6487   0.07289   0.06528  -0.1285  0.0628  1.0005  -4.5201   0.0000   0.0000   0.0000   0.3025
  13.800   1.6464   0.07441   0.06677  -0.1284  0.0607  1.0005  -4.5563   0.0000   0.0000   0.0000   0.3023
  13.900   1.6436   0.07604   0.06837  -0.1283  0.0589  1.0005  -4.5885   0.0000   0.0000   0.0000   0.3021
  14.000   1.6413   0.07761   0.06993  -0.1282  0.0575  1.0005  -4.6227   0.0000   0.0000   0.0000   0.3019
  14.100   1.6395   0.07910   0.07143  -0.1281  0.0562  1.0005  -4.6591   0.0000   0.0000   0.0000   0.3017
  14.200   1.6379   0.08059   0.07294  -0.1280  0.0549  1.0005  -4.6955   0.0000   0.0000   0.0000   0.3015
  14.300   1.6362   0.08210   0.07448  -0.1280  0.0537  1.0005  -4.7308   0.0000   0.0000   0.0000   0.3014
  14.400   1.6340   0.08370   0.07612  -0.1280  0.0526  1.0005  -4.7629   0.0000   0.0000   0.0000   0.3012
  14.500   1.6333   0.08510   0.07754  -0.1280  0.0516  1.0005  -4.8027   0.0000   0.0000   0.0000   0.3010
  14.600   1.6378   0.08578   0.07829  -0.1279  0.0507  1.0005  -4.8707   0.0000   0.0000   0.0000   0.3005
  14.700   1.6408   0.08666   0.07922  -0.1278  0.0496  1.0005  -4.9306   0.0000   0.0000   0.0000   0.3001
  14.800   1.6430   0.08764   0.08026  -0.1278  0.0485  1.0005  -4.9855   0.0000   0.0000   0.0000   0.2997
  14.900   1.6446   0.08871   0.08138  -0.1277  0.0472  1.0005  -5.0367   0.0000   0.0000   0.0000   0.2994
  15.000   1.6455   0.08986   0.08258  -0.1277  0.0460  1.0005  -5.0844   0.0000   0.0000   0.0000   0.2991
  15.100   1.6456   0.09115   0.08392  -0.1277  0.0448  1.0005  -5.1275   0.0000   0.0000   0.0000   0.2989
  15.200   1.6452   0.09251   0.08532  -0.1278  0.0437  1.0005  -5.1678   0.0000   0.0000   0.0000   0.2987
  15.300   1.6444   0.09392   0.08677  -0.1279  0.0426  1.0005  -5.2058   0.0000   0.0000   0.0000   0.2985
  15.400   1.6433   0.09538   0.08827  -0.1280  0.0416  1.0005  -5.2419   0.0000   0.0000   0.0000   0.2984
  15.500   1.6419   0.09690   0.08981  -0.1281  0.0406  1.0005  -5.2763   0.0000   0.0000   0.0000   0.2983
  15.600   1.6402   0.09847   0.09142  -0.1282  0.0397  1.0005  -5.3089   0.0000   0.0000   0.0000   0.2982
  15.700   1.6379   0.10015   0.09313  -0.1284  0.0390  1.0005  -5.3380   0.0000   0.0000   0.0000   0.2982
  15.800   1.6351   0.10192   0.09495  -0.1287  0.0383  1.0005  -5.3641   0.0000   0.0000   0.0000   0.2983
  15.900   1.6360   0.10316   0.09624  -0.1288  0.0378  1.0005  -5.4099   0.0000   0.0000   0.0000   0.2981
  16.000   1.6369   0.10439   0.09753  -0.1289  0.0372  1.0005  -5.4563   0.0000   0.0000   0.0000   0.2978
  16.100   1.6376   0.10565   0.09886  -0.1291  0.0365  1.0005  -5.5016   0.0000   0.0000   0.0000   0.2976
  16.200   1.6381   0.10695   0.10022  -0.1292  0.0358  1.0005  -5.5452   0.0000   0.0000   0.0000   0.2975
  16.300   1.6382   0.10831   0.10164  -0.1294  0.0350  1.0005  -5.5869   0.0000   0.0000   0.0000   0.2973
  16.400   1.6376   0.10979   0.10319  -0.1297  0.0342  1.0005  -5.6244   0.0000   0.0000   0.0000   0.2973
  16.500   1.6368   0.11130   0.10482  -0.1300  0.0335  1.0005  -5.6630   0.0000   0.0000   0.0000   0.2973
  16.600   1.6363   0.11279   0.10637  -0.1303  0.0326  1.0005  -5.7013   0.0000   0.0000   0.0000   0.2972
  16.700   1.6359   0.11425   0.10790  -0.1306  0.0314  1.0005  -5.7398   0.0000   0.0000   0.0000   0.2972
  16.800   1.6355   0.11571   0.10942  -0.1309  0.0297  1.0005  -5.7780   0.0000   0.0000   0.0000   0.2971
  16.900   1.6326   0.11754   0.11127  -0.1314  0.0250  1.0005  -5.8031   0.0000   0.0000   0.0000   0.2973
  17.000   1.6251   0.12015   0.11381  -0.1322  0.0210  1.0005  -5.8014   0.0000   0.0000   0.0000   0.2980
  17.100   1.6177   0.12278   0.11641  -0.1331  0.0179  1.0005  -5.7982   0.0000   0.0000   0.0000   0.2986
  17.200   1.6109   0.12532   0.11891  -0.1340  0.0148  1.0005  -5.7970   0.0000   0.0000   0.0000   0.2993
  17.300   1.6046   0.12778   0.12136  -0.1349  0.0124  1.0005  -5.7970   0.0000   0.0000   0.0000   0.2999
  17.400   1.5984   0.13028   0.12388  -0.1358  0.0107  1.0005  -5.7961   0.0000   0.0000   0.0000   0.3006
  17.500   1.5936   0.13254   0.12618  -0.1366  0.0098  1.0005  -5.8042   0.0000   0.0000   0.0000   0.3012
  17.600   1.5913   0.13439   0.12808  -0.1373  0.0098  1.0005  -5.8277   0.0000   0.0000   0.0000   0.3015
  17.700   1.5892   0.13621   0.12996  -0.1380  0.0097  1.0005  -5.8518   0.0000   0.0000   0.0000   0.3018
  17.800   1.5868   0.13807   0.13187  -0.1387  0.0096  1.0005  -5.8742   0.0000   0.0000   0.0000   0.3021
  17.900   1.5841   0.14002   0.13386  -0.1395  0.0095  1.0005  -5.8940   0.0000   0.0000   0.0000   0.3025
  18.000   1.5807   0.14212   0.13602  -0.1404  0.0094  1.0005  -5.9084   0.0000   0.0000   0.0000   0.3030
  18.100   1.5777   0.14414   0.13810  -0.1413  0.0093  1.0005  -5.9247   0.0000   0.0000   0.0000   0.3035
  18.200   1.5751   0.14609   0.14011  -0.1421  0.0092  1.0005  -5.9433   0.0000   0.0000   0.0000   0.3039
  18.300   1.5726   0.14803   0.14210  -0.1430  0.0091  1.0005  -5.9621   0.0000   0.0000   0.0000   0.3044
  18.400   1.5702   0.14998   0.14410  -0.1439  0.0090  1.0005  -5.9808   0.0000   0.0000   0.0000   0.3048
  18.500   1.5671   0.15208   0.14627  -0.1449  0.0089  1.0005  -5.9940   0.0000   0.0000   0.0000   0.3054
  18.600   1.5642   0.15417   0.14842  -0.1459  0.0089  1.0005  -6.0072   0.0000   0.0000   0.0000   0.3060
  18.700   1.5615   0.15620   0.15051  -0.1469  0.0088  1.0005  -6.0222   0.0000   0.0000   0.0000   0.3065
  18.800   1.5591   0.15818   0.15256  -0.1479  0.0087  1.0005  -6.0382   0.0000   0.0000   0.0000   0.3071
  18.900   1.5568   0.16013   0.15457  -0.1489  0.0087  1.0005  -6.0542   0.0000   0.0000   0.0000   0.3076
  19.000   1.5544   0.16209   0.15659  -0.1500  0.0086  1.0005  -6.0686   0.0000   0.0000   0.0000   0.3082
  19.100   1.5514   0.16419   0.15876  -0.1512  0.0085  1.0005  -6.0771   0.0000   0.0000   0.0000   0.3090
  19.200   1.5485   0.16627   0.16090  -0.1525  0.0085  1.0005  -6.0859   0.0000   0.0000   0.0000   0.3097
  19.300   1.5458   0.16833   0.16303  -0.1537  0.0085  1.0005  -6.0953   0.0000   0.0000   0.0000   0.3104
  19.400   1.5431   0.17041   0.16517  -0.1549  0.0084  1.0005  -6.1047   0.0000   0.0000   0.0000   0.3112
  19.500   1.5400   0.17261   0.16744  -0.1562  0.0084  1.0005  -6.1092   0.0000   0.0000   0.0000   0.3120
  19.600   1.5366   0.17492   0.16982  -0.1576  0.0084  1.0005  -6.1101   0.0000   0.0000   0.0000   0.3129
  19.700   1.5336   0.17717   0.17214  -0.1590  0.0083  1.0005  -6.1134   0.0000   0.0000   0.0000   0.3137
  19.800   1.5307   0.17940   0.17444  -0.1604  0.0083  1.0005  -6.1177   0.0000   0.0000   0.0000   0.3146
  19.900   1.5278   0.18168   0.17678  -0.1617  0.0083  1.0005  -6.1203   0.0000   0.0000   0.0000   0.3155
  20.000   1.5245   0.18409   0.17926  -0.1632  0.0083  1.0005  -6.1184   0.0000   0.0000   0.0000   0.3164
  20.100   1.5204   0.18671   0.18195  -0.1648  0.0083  1.0005  -6.1089   0.0000   0.0000   0.0000   0.3175
  20.200   1.5167   0.18930   0.18461  -0.1664  0.0083  1.0005  -6.1009   0.0000   0.0000   0.0000   0.3186
  20.300   1.5131   0.19188   0.18726  -0.1679  0.0082  1.0005  -6.0933   0.0000   0.0000   0.0000   0.3197
  20.400   1.5089   0.19467   0.19012  -0.1696  0.0082  1.0005  -6.0785   0.0000   0.0000   0.0000   0.3209
  20.500   1.5047   0.19750   0.19302  -0.1714  0.0082  1.0005  -6.0617   0.0000   0.0000   0.0000   0.3222
  20.600   1.5009   0.20027   0.19585  -0.1730  0.0082  1.0005  -6.0482   0.0000   0.0000   0.0000   0.3234
  20.700   1.4971   0.20305   0.19871  -0.1747  0.0082  1.0005  -6.0335   0.0000   0.0000   0.0000   0.3246
  20.800   1.4930   0.20597   0.20169  -0.1764  0.0082  1.0005  -6.0142   0.0000   0.0000   0.0000   0.3259
  20.900   1.4881   0.20916   0.20495  -0.1784  0.0083  1.0005  -5.9850   0.0000   0.0000   0.0000   0.3273
  21.000   1.4838   0.21227   0.20812  -0.1802  0.0083  1.0005  -5.9590   0.0000   0.0000   0.0000   0.3287
  21.100   1.4794   0.21540   0.21133  -0.1820  0.0083  1.0005  -5.9321   0.0000   0.0000   0.0000   0.3302
  21.200   1.4745   0.21877   0.21476  -0.1840  0.0083  1.0005  -5.8968   0.0000   0.0000   0.0000   0.3317
  21.300   1.4703   0.22198   0.21803  -0.1859  0.0083  1.0005  -5.8672   0.0000   0.0000   0.0000   0.3332
  21.400   1.4664   0.22513   0.22125  -0.1877  0.0083  1.0005  -5.8398   0.0000   0.0000   0.0000   0.3345
  21.500   1.4626   0.22831   0.22449  -0.1895  0.0083  1.0005  -5.8110   0.0000   0.0000   0.0000   0.3359
  21.600   1.4582   0.23171   0.22796  -0.1914  0.0083  1.0005  -5.7744   0.0000   0.0000   0.0000   0.3375
  21.700   1.4539   0.23515   0.23146  -0.1933  0.0084  1.0005  -5.7362   0.0000   0.0000   0.0000   0.3390
  21.800   1.4501   0.23851   0.23488  -0.1951  0.0084  1.0005  -5.7010   0.0000   0.0000   0.0000   0.3404
  21.900   1.4459   0.24205   0.23847  -0.1971  0.0084  1.0005  -5.6594   0.0000   0.0000   0.0000   0.3420
  22.000   1.4421   0.24547   0.24194  -0.1989  0.0084  1.0005  -5.6219   0.0000   0.0000   0.0000   0.3435
  22.100   1.4389   0.24873   0.24525  -0.2006  0.0084  1.0005  -5.5903   0.0000   0.0000   0.0000   0.3448
  22.200   1.4361   0.25193   0.24850  -0.2023  0.0084  1.0005  -5.5609   0.0000   0.0000   0.0000   0.3461
  22.300   1.4334   0.25510   0.25171  -0.2040  0.0084  1.0005  -5.5325   0.0000   0.0000   0.0000   0.3473
  22.400   1.4307   0.25827   0.25493  -0.2056  0.0084  1.0005  -5.5036   0.0000   0.0000   0.0000   0.3485
  22.500   1.4282   0.26148   0.25818  -0.2073  0.0085  1.0005  -5.4735   0.0000   0.0000   0.0000   0.3497
  22.600   1.4260   0.26458   0.26133  -0.2088  0.0085  1.0005  -5.4472   0.0000   0.0000   0.0000   0.3509
  22.700   1.4241   0.26759   0.26437  -0.2103  0.0085  1.0005  -5.4244   0.0000   0.0000   0.0000   0.3519
  22.800   1.4224   0.27052   0.26734  -0.2118  0.0085  1.0005  -5.4042   0.0000   0.0000   0.0000   0.3529
  22.900   1.4209   0.27346   0.27032  -0.2132  0.0085  1.0005  -5.3832   0.0000   0.0000   0.0000   0.3539
  23.000   1.4195   0.27634   0.27323  -0.2146  0.0085  1.0005  -5.3643   0.0000   0.0000   0.0000   0.3548
  23.100   1.4183   0.27915   0.27608  -0.2160  0.0085  1.0005  -5.3477   0.0000   0.0000   0.0000   0.3556
  23.200   1.4173   0.28192   0.27889  -0.2173  0.0085  1.0005  -5.3323   0.0000   0.0000   0.0000   0.3565
  23.300   1.4163   0.28469   0.28169  -0.2186  0.0085  1.0005  -5.3167   0.0000   0.0000   0.0000   0.3573
  23.400   1.4154   0.28745   0.28449  -0.2199  0.0085  1.0005  -5.3006   0.0000   0.0000   0.0000   0.3581
  23.500   1.4144   0.29024   0.28732  -0.2212  0.0085  1.0005  -5.2833   0.0000   0.0000   0.0000   0.3588
  23.600   1.4135   0.29308   0.29020  -0.2225  0.0085  1.0005  -5.2634   0.0000   0.0000   0.0000   0.3596
  23.700   1.4123   0.29602   0.29318  -0.2239  0.0085  1.0005  -5.2392   0.0000   0.0000   0.0000   0.3605
  23.800   1.4110   0.29912   0.29631  -0.2252  0.0086  1.0005  -5.2084   0.0000   0.0000   0.0000   0.3614
  23.900   1.4092   0.30243   0.29966  -0.2266  0.0086  1.0005  -5.1685   0.0000   0.0000   0.0000   0.3624
  24.000   1.4070   0.30604   0.30332  -0.2282  0.0086  1.0005  -5.1158   0.0000   0.0000   0.0000   0.3635
  24.100   1.4040   0.31012   0.30745  -0.2298  0.0087  1.0005  -5.0435   0.0000   0.0000   0.0000   0.3649
  24.200   1.4004   0.31463   0.31200  -0.2316  0.0087  1.0005  -4.9526   0.0000   0.0000   0.0000   0.3665
  24.300   1.3957   0.31987   0.31728  -0.2335  0.0088  1.0005  -4.8308   0.0000   0.0000   0.0000   0.3684
  24.400   1.3886   0.32673   0.32419  -0.2358  0.0090  1.0005  -4.6388   0.0000   0.0000   0.0000   0.3710
  24.500   1.3790   0.33556   0.33305  -0.2386  0.0092  1.0005  -4.3604   0.0000   0.0000   0.0000   0.3744
  24.600   1.3676   0.34623   0.34371  -0.2415  0.0094  1.0005  -4.0006   0.0000   0.0000   0.0000   0.3784
  24.700   1.3619   0.35325   0.35071  -0.2434  0.0096  1.0005  -3.7963   0.0000   0.0000   0.0000   0.3805
  24.800   1.3584   0.35877   0.35622  -0.2448  0.0097  1.0005  -3.6562   0.0000   0.0000   0.0000   0.3820
  24.900   1.3556   0.36375   0.36119  -0.2460  0.0099  1.0005  -3.5402   0.0000   0.0000   0.0000   0.3831
  25.000   1.3555   0.36702   0.36449  -0.2469  0.0100  1.0005  -3.4993   0.0000   0.0000   0.0000   0.3836
  25.100   1.3552   0.37066   0.36814  -0.2477  0.0102  1.0005  -3.4409   0.0000   0.0000   0.0000   0.3841
  25.200   1.3351   0.39522   0.39260  -0.2512  0.0139  1.0005  -2.5272   0.0000   0.0000   0.0000   0.3909
  25.300   1.3344   0.39872   0.39610  -0.2519  0.0144  1.0005  -2.4829   0.0000   0.0000   0.0000   0.3913
  25.400   1.3341   0.40180   0.39918  -0.2525  0.0149  1.0005  -2.4554   0.0000   0.0000   0.0000   0.3915
  25.500   1.3341   0.40454   0.40192  -0.2530  0.0154  1.0005  -2.4412   0.0000   0.0000   0.0000   0.3916
  25.600   1.3342   0.40695   0.40433  -0.2533  0.0158  1.0005  -2.4394   0.0000   0.0000   0.0000   0.3916
  25.700   1.3345   0.40901   0.40640  -0.2534  0.0162  1.0005  -2.4511   0.0000   0.0000   0.0000   0.3913
  25.800   1.3343   0.41099   0.40840  -0.2533  0.0167  1.0005  -2.4705   0.0000   0.0000   0.0000   0.3909
  25.900   1.3277   0.42244   0.41988  -0.2492  0.0267  1.0005  -2.2573   0.0000   0.0000   0.0000   0.3890
  26.000   1.3268   0.42546   0.42290  -0.2495  0.0267  1.0005  -2.2444   0.0000   0.0000   0.0000   0.3891
  26.100   1.3257   0.42847   0.42591  -0.2497  0.0267  1.0005  -2.2312   0.0000   0.0000   0.0000   0.3892
  26.200   1.3243   0.43146   0.42891  -0.2500  0.0267  1.0005  -2.2175   0.0000   0.0000   0.0000   0.3894
  26.300   1.3227   0.43444   0.43190  -0.2502  0.0267  1.0005  -2.2033   0.0000   0.0000   0.0000   0.3895
  26.400   1.3208   0.43741   0.43487  -0.2503  0.0267  1.0005  -2.1884   0.0000   0.0000   0.0000   0.3897
  26.500   1.3185   0.44036   0.43783  -0.2504  0.0267  1.0005  -2.1727   0.0000   0.0000   0.0000   0.3898
  26.600   1.3156   0.44328   0.44076  -0.2503  0.0267  1.0005  -2.1558   0.0000   0.0000   0.0000   0.3900
  26.700   1.3118   0.44617   0.44365  -0.2501  0.0267  1.0005  -2.1372   0.0000   0.0000   0.0000   0.3902
  26.800   1.3067   0.44899   0.44648  -0.2497  0.0267  1.0005  -2.1156   0.0000   0.0000   0.0000   0.3905
  26.900   1.2980   0.45165   0.44916  -0.2485  0.0267  1.0005  -2.0866   0.0000   0.0000   0.0000   0.3907
  27.100   0.9544   0.35354   0.35132  -0.1833  0.0272  1.0005  -1.3248   0.0000   0.0000   0.0000   0.3985
  27.200   0.9512   0.35273   0.35051  -0.1825  0.0271  1.0005  -1.3233   0.0000   0.0000   0.0000   0.3981
  27.400   0.9413   0.35132   0.34910  -0.1805  0.0268  1.0005  -1.2874   0.0000   0.0000   0.0000   0.3979
  27.500   0.9383   0.35103   0.34882  -0.1803  0.0268  1.0005  -1.2726   0.0000   0.0000   0.0000   0.3982
  27.600   0.9353   0.35077   0.34856  -0.1801  0.0267  1.0005  -1.2580   0.0000   0.0000   0.0000   0.3985
  27.700   0.9325   0.35052   0.34835  -0.1800  0.0267  1.0005  -1.2443   0.0000   0.0000   0.0000   0.3988
  27.800   0.9298   0.35030   0.34814  -0.1799  0.0267  1.0005  -1.2302   0.0000   0.0000   0.0000   0.3991
  27.900   0.9271   0.35009   0.34793  -0.1798  0.0267  1.0005  -1.2162   0.0000   0.0000   0.0000   0.3995
  28.000   0.9244   0.34987   0.34772  -0.1797  0.0267  1.0005  -1.2012   0.0000   0.0000   0.0000   0.3998
  28.100   0.9216   0.34964   0.34750  -0.1797  0.0267  1.0005  -1.1847   0.0000   0.0000   0.0000   0.4003
  28.200   0.9188   0.34944   0.34730  -0.1797  0.0267  1.0005  -1.1683   0.0000   0.0000   0.0000   0.4007
  28.300   0.9160   0.34922   0.34709  -0.1797  0.0266  1.0005  -1.1508   0.0000   0.0000   0.0000   0.4012
  28.400   0.9132   0.34902   0.34689  -0.1797  0.0266  1.0005  -1.1329   0.0000   0.0000   0.0000   0.4017
  28.500   0.9105   0.34886   0.34674  -0.1798  0.0266  1.0005  -1.1153   0.0000   0.0000   0.0000   0.4023
  28.600   0.9079   0.34873   0.34662  -0.1799  0.0266  1.0005  -1.0978   0.0000   0.0000   0.0000   0.4028
  28.700   0.9054   0.34865   0.34655  -0.1801  0.0265  1.0005  -1.0804   0.0000   0.0000   0.0000   0.4034
  28.800   0.9030   0.34863   0.34652  -0.1802  0.0265  1.0005  -1.0631   0.0000   0.0000   0.0000   0.4039
  28.900   0.9008   0.34866   0.34656  -0.1804  0.0265  1.0005  -1.0458   0.0000   0.0000   0.0000   0.4045
  29.000   0.8986   0.34875   0.34666  -0.1807  0.0264  1.0005  -1.0284   0.0000   0.0000   0.0000   0.4051
  29.100   0.8966   0.34893   0.34684  -0.1809  0.0264  1.0005  -1.0110   0.0000   0.0000   0.0000   0.4056
  29.200   0.8947   0.34920   0.34712  -0.1813  0.0263  1.0005  -0.9932   0.0000   0.0000   0.0000   0.4062
  29.300   0.8931   0.34959   0.34752  -0.1816  0.0262  1.0005  -0.9750   0.0000   0.0000   0.0000   0.4069
  29.400   0.8916   0.35012   0.34805  -0.1820  0.0261  1.0005  -0.9563   0.0000   0.0000   0.0000   0.4075
  29.500   0.8903   0.35081   0.34874  -0.1825  0.0260  1.0005  -0.9369   0.0000   0.0000   0.0000   0.4081
  29.600   0.8892   0.35162   0.34956  -0.1830  0.0257  1.0005  -0.9173   0.0000   0.0000   0.0000   0.4088
  29.700   0.8883   0.35244   0.35038  -0.1835  0.0254  1.0005  -0.8991   0.0000   0.0000   0.0000   0.4093
  29.800   0.8873   0.35310   0.35105  -0.1838  0.0251  1.0005  -0.8839   0.0000   0.0000   0.0000   0.4097
  29.900   0.8863   0.35356   0.35152  -0.1841  0.0246  1.0005  -0.8720   0.0000   0.0000   0.0000   0.4100
  30.000   0.8852   0.35388   0.35184  -0.1842  0.0242  1.0005  -0.8627   0.0000   0.0000   0.0000   0.4103


