xflr5 v6.61

 Calculated polar for: WORTMANN FX 057-816 AIRFOIL

 1 1 Reynolds number fixed          Mach number fixed         

 xtrf =   1.000 (top)        1.000 (bottom)
 Mach =   0.000     Re =     0.563 e 6     Ncrit =   9.000

  alpha     CL        CD       CDp       Cm    Top Xtr Bot Xtr   Cpmin    Chinge    XCp    
 ------- -------- --------- --------- -------- ------- ------- -------- --------- ---------
  -5.500  -0.0775   0.04762   0.04401  -0.0759  0.6039  0.0663  -1.2344   0.0000   0.0000   0.0000  -0.7689
  -5.400  -0.0667   0.04642   0.04273  -0.0755  0.6011  0.0665  -1.2013   0.0000   0.0000   0.0000  -0.9266
  -5.300  -0.0579   0.04524   0.04148  -0.0750  0.5988  0.0666  -1.1812   0.0000   0.0000   0.0000  -1.0960
  -5.200  -0.0500   0.04416   0.04033  -0.0746  0.5968  0.0667  -1.1643   0.0000   0.0000   0.0000  -1.2988
  -5.100  -0.0425   0.04315   0.03927  -0.0742  0.5951  0.0668  -1.1489   0.0000   0.0000   0.0000  -1.5606
  -5.000  -0.0350   0.04215   0.03820  -0.0738  0.5933  0.0668  -1.1342   0.0000   0.0000   0.0000  -1.9377
  -4.900  -0.0272   0.04112   0.03711  -0.0735  0.5914  0.0668  -1.1196   0.0000   0.0000   0.0000  -2.5426
  -4.800  -0.0193   0.04010   0.03601  -0.0732  0.5895  0.0669  -1.1052   0.0000   0.0000   0.0000  -3.6598
  -4.700  -0.0113   0.03908   0.03493  -0.0729  0.5874  0.0669  -1.0908   0.0000   0.0000   0.0000  -6.3970
  -4.600  -0.0032   0.03807   0.03385  -0.0726  0.5852  0.0670  -1.0764   0.0000   0.0000   0.0000  -23.4805
  -4.500   0.0051   0.03707   0.03278  -0.0723  0.5829  0.0670  -1.0620   0.0000   0.0000   0.0000  14.7573
  -4.400   0.0136   0.03610   0.03173  -0.0721  0.5805  0.0670  -1.0474   0.0000   0.0000   0.0000   5.7130
  -4.300   0.0224   0.03519   0.03075  -0.0719  0.5781  0.0671  -1.0314   0.0000   0.0000   0.0000   3.5547
  -4.200   0.0314   0.03432   0.02981  -0.0717  0.5755  0.0671  -1.0149   0.0000   0.0000   0.0000   2.6005
  -4.100   0.0404   0.03346   0.02887  -0.0715  0.5730  0.0671  -0.9988   0.0000   0.0000   0.0000   2.0689
  -4.000   0.0495   0.03259   0.02793  -0.0714  0.5704  0.0672  -0.9832   0.0000   0.0000   0.0000   1.7317
  -3.900   0.0585   0.03171   0.02697  -0.0712  0.5678  0.0672  -0.9684   0.0000   0.0000   0.0000   1.4992
  -3.800   0.0676   0.03084   0.02603  -0.0711  0.5652  0.0672  -0.9538   0.0000   0.0000   0.0000   1.3285
  -3.700   0.0768   0.03001   0.02512  -0.0710  0.5626  0.0672  -0.9390   0.0000   0.0000   0.0000   1.1971
  -3.600   0.0861   0.02920   0.02424  -0.0709  0.5600  0.0672  -0.9241   0.0000   0.0000   0.0000   1.0932
  -3.500   0.0955   0.02842   0.02339  -0.0709  0.5575  0.0673  -0.9089   0.0000   0.0000   0.0000   1.0090
  -3.400   0.1050   0.02768   0.02257  -0.0708  0.5550  0.0673  -0.8936   0.0000   0.0000   0.0000   0.9395
  -3.300   0.1146   0.02696   0.02178  -0.0708  0.5526  0.0673  -0.8965   0.0000   0.0000   0.0000   0.8812
  -3.200   0.1242   0.02627   0.02102  -0.0708  0.5503  0.0673  -0.9041   0.0000   0.0000   0.0000   0.8317
  -3.100   0.1339   0.02561   0.02029  -0.0708  0.5480  0.0673  -0.9117   0.0000   0.0000   0.0000   0.7891
  -3.000   0.1437   0.02497   0.01959  -0.0708  0.5458  0.0673  -0.9192   0.0000   0.0000   0.0000   0.7521
  -2.900   0.1535   0.02436   0.01891  -0.0708  0.5437  0.0674  -0.9267   0.0000   0.0000   0.0000   0.7198
  -2.800   0.1634   0.02377   0.01826  -0.0708  0.5417  0.0674  -0.9341   0.0000   0.0000   0.0000   0.6912
  -2.700   0.1733   0.02320   0.01763  -0.0709  0.5397  0.0674  -0.9416   0.0000   0.0000   0.0000   0.6657
  -2.600   0.1834   0.02264   0.01700  -0.0709  0.5378  0.0674  -0.9491   0.0000   0.0000   0.0000   0.6428
  -2.500   0.1936   0.02209   0.01639  -0.0710  0.5359  0.0674  -0.9567   0.0000   0.0000   0.0000   0.6221
  -2.400   0.2039   0.02155   0.01579  -0.0710  0.5339  0.0674  -0.9644   0.0000   0.0000   0.0000   0.6033
  -2.300   0.2143   0.02103   0.01520  -0.0711  0.5319  0.0675  -0.9722   0.0000   0.0000   0.0000   0.5862
  -2.200   0.2248   0.02051   0.01462  -0.0712  0.5299  0.0675  -0.9801   0.0000   0.0000   0.0000   0.5706
  -2.100   0.2353   0.02000   0.01405  -0.0712  0.5278  0.0675  -0.9881   0.0000   0.0000   0.0000   0.5563
  -2.000   0.2460   0.01950   0.01348  -0.0713  0.5255  0.0675  -0.9961   0.0000   0.0000   0.0000   0.5432
  -1.900   0.2568   0.01901   0.01292  -0.0714  0.5230  0.0676  -1.0043   0.0000   0.0000   0.0000   0.5310
  -1.800   0.2676   0.01852   0.01236  -0.0715  0.5200  0.0676  -1.0126   0.0000   0.0000   0.0000   0.5197
  -1.700   0.2786   0.01804   0.01181  -0.0716  0.5164  0.0676  -1.0210   0.0000   0.0000   0.0000   0.5093
  -1.600   0.2847   0.01423   0.00757  -0.0711  0.5127  0.0772  -1.0237   0.0000   0.0000   0.0000   0.5018
  -1.500   0.2955   0.01362   0.00684  -0.0711  0.5073  0.0822  -1.0323   0.0000   0.0000   0.0000   0.4924
  -1.400   0.3066   0.01329   0.00642  -0.0712  0.5014  0.0863  -1.0412   0.0000   0.0000   0.0000   0.4836
  -1.300   0.3174   0.01310   0.00619  -0.0713  0.4984  0.0903  -1.0494   0.0000   0.0000   0.0000   0.4758
  -1.200   0.3281   0.01296   0.00601  -0.0714  0.4964  0.0940  -1.0573   0.0000   0.0000   0.0000   0.4686
  -1.100   0.3387   0.01282   0.00585  -0.0715  0.4945  0.0977  -1.0652   0.0000   0.0000   0.0000   0.4619
  -1.000   0.3492   0.01267   0.00568  -0.0717  0.4925  0.1015  -1.0731   0.0000   0.0000   0.0000   0.4558
  -0.900   0.3597   0.01251   0.00550  -0.0718  0.4905  0.1054  -1.0808   0.0000   0.0000   0.0000   0.4500
  -0.800   0.3700   0.01234   0.00532  -0.0719  0.4885  0.1097  -1.0886   0.0000   0.0000   0.0000   0.4446
  -0.700   0.3803   0.01217   0.00513  -0.0721  0.4863  0.1143  -1.0963   0.0000   0.0000   0.0000   0.4395
  -0.600   0.3906   0.01201   0.00494  -0.0722  0.4838  0.1194  -1.1040   0.0000   0.0000   0.0000   0.4347
  -0.500   0.4010   0.01184   0.00477  -0.0723  0.4826  0.1250  -1.1115   0.0000   0.0000   0.0000   0.4301
  -0.400   0.4114   0.01166   0.00461  -0.0725  0.4820  0.1307  -1.1191   0.0000   0.0000   0.0000   0.4258
  -0.300   0.4218   0.01149   0.00446  -0.0727  0.4814  0.1361  -1.1266   0.0000   0.0000   0.0000   0.4217
  -0.200   0.4323   0.01134   0.00432  -0.0728  0.4806  0.1405  -1.1342   0.0000   0.0000   0.0000   0.4177
   0.400   0.4842   0.01145   0.00340  -0.0716  0.3360  0.1609  -1.1719   0.0000   0.0000   0.0000   0.3962
   0.500   0.4938   0.01156   0.00339  -0.0715  0.3276  0.1555  -1.1773   0.0000   0.0000   0.0000   0.3930
   0.600   0.5032   0.01171   0.00344  -0.0713  0.3193  0.1488  -1.1824   0.0000   0.0000   0.0000   0.3899
   0.900   0.5349   0.01228   0.00363  -0.0705  0.2918  0.1181  -1.1993   0.0000   0.0000   0.0000   0.3796
   1.000   0.5454   0.01233   0.00351  -0.0705  0.2831  0.1008  -1.2057   0.0000   0.0000   0.0000   0.3769
   1.100   0.5559   0.01236   0.00348  -0.0705  0.2749  0.0942  -1.2125   0.0000   0.0000   0.0000   0.3745
   1.200   0.5665   0.01240   0.00347  -0.0706  0.2669  0.0897  -1.2194   0.0000   0.0000   0.0000   0.3722
   1.300   0.5771   0.01243   0.00347  -0.0707  0.2581  0.0863  -1.2264   0.0000   0.0000   0.0000   0.3700
   1.400   0.5878   0.01246   0.00347  -0.0709  0.2520  0.0833  -1.2336   0.0000   0.0000   0.0000   0.3678
   1.500   0.5984   0.01249   0.00347  -0.0710  0.2489  0.0808  -1.2409   0.0000   0.0000   0.0000   0.3658
   1.600   0.6089   0.01253   0.00349  -0.0711  0.2471  0.0785  -1.2480   0.0000   0.0000   0.0000   0.3637
   1.700   0.6194   0.01256   0.00350  -0.0711  0.2455  0.0763  -1.2551   0.0000   0.0000   0.0000   0.3618
   1.800   0.6599   0.01081   0.00323  -0.0758  0.4893  0.0703  -1.2898   0.0000   0.0000   0.0000   0.3618
   1.900   0.6709   0.01092   0.00339  -0.0760  0.4935  0.0690  -1.2962   0.0000   0.0000   0.0000   0.3602
   2.000   0.6816   0.01104   0.00355  -0.0763  0.4965  0.0679  -1.3025   0.0000   0.0000   0.0000   0.3587
   3.100   0.7758   0.01455   0.00752  -0.0760  0.5147  0.0704  -1.3452   0.0000   0.0000   0.0000   0.3436
   3.200   0.7844   0.01480   0.00781  -0.0759  0.5156  0.0755  -1.3498   0.0000   0.0000   0.0000   0.3423
   3.300   0.7930   0.01506   0.00810  -0.0759  0.5165  0.0790  -1.3544   0.0000   0.0000   0.0000   0.3411
   3.400   0.8016   0.01531   0.00839  -0.0758  0.5172  0.0821  -1.3590   0.0000   0.0000   0.0000   0.3399
   3.500   0.8102   0.01554   0.00866  -0.0758  0.5178  0.0850  -1.3637   0.0000   0.0000   0.0000   0.3388
   3.600   0.8189   0.01577   0.00892  -0.0758  0.5183  0.0879  -1.3686   0.0000   0.0000   0.0000   0.3376
   3.700   0.8277   0.01598   0.00916  -0.0758  0.5186  0.0909  -1.3735   0.0000   0.0000   0.0000   0.3365
   3.800   0.8366   0.01618   0.00939  -0.0758  0.5189  0.0941  -1.3786   0.0000   0.0000   0.0000   0.3354
   3.900   0.8456   0.01637   0.00960  -0.0757  0.5190  0.0975  -1.3838   0.0000   0.0000   0.0000   0.3343
   4.000   0.8548   0.01654   0.00980  -0.0758  0.5191  0.1012  -1.3892   0.0000   0.0000   0.0000   0.3332
   4.100   0.8641   0.01670   0.00998  -0.0758  0.5190  0.1051  -1.3948   0.0000   0.0000   0.0000   0.3322
   4.200   0.8736   0.01683   0.01015  -0.0758  0.5189  0.1088  -1.4007   0.0000   0.0000   0.0000   0.3312
   4.300   0.8833   0.01696   0.01029  -0.0759  0.5187  0.1122  -1.4067   0.0000   0.0000   0.0000   0.3302
   4.400   0.8933   0.01706   0.01043  -0.0760  0.5185  0.1156  -1.4130   0.0000   0.0000   0.0000   0.3292
   4.500   0.9034   0.01714   0.01054  -0.0761  0.5182  0.1184  -1.4195   0.0000   0.0000   0.0000   0.3282
   4.600   0.9138   0.01721   0.01064  -0.0762  0.5179  0.1212  -1.4263   0.0000   0.0000   0.0000   0.3272
   4.700   0.9244   0.01727   0.01071  -0.0763  0.5175  0.1240  -1.4333   0.0000   0.0000   0.0000   0.3263
   4.800   0.9352   0.01730   0.01077  -0.0765  0.5172  0.1269  -1.4406   0.0000   0.0000   0.0000   0.3254
   4.900   0.9462   0.01732   0.01081  -0.0766  0.5168  0.1298  -1.4482   0.0000   0.0000   0.0000   0.3245
   5.000   0.9575   0.01732   0.01084  -0.0769  0.5164  0.1329  -1.4560   0.0000   0.0000   0.0000   0.3236
   5.100   0.9690   0.01730   0.01085  -0.0771  0.5160  0.1360  -1.4640   0.0000   0.0000   0.0000   0.3228
   5.200   0.9801   0.01730   0.01089  -0.0773  0.5159  0.1391  -1.4715   0.0000   0.0000   0.0000   0.3220
   5.300   0.9906   0.01737   0.01100  -0.0774  0.5161  0.1422  -1.4776   0.0000   0.0000   0.0000   0.3212
   5.400   1.0011   0.01743   0.01111  -0.0776  0.5165  0.1454  -1.4835   0.0000   0.0000   0.0000   0.3204
   5.500   1.0132   0.01720   0.01118  -0.0782  0.5168  0.2756  -1.4904   0.0000   0.0000   0.0000   0.3199
   5.700   1.0325   0.01595   0.01133  -0.0781  0.5164  0.7945  -1.5036   0.0000   0.0000   0.0000   0.3181
   5.800   1.0439   0.01584   0.01125  -0.0781  0.5159  0.8052  -1.5124   0.0000   0.0000   0.0000   0.3172
   5.900   1.0557   0.01574   0.01116  -0.0782  0.5153  0.8120  -1.5216   0.0000   0.0000   0.0000   0.3163
   6.000   1.0675   0.01563   0.01106  -0.0783  0.5148  0.8173  -1.5308   0.0000   0.0000   0.0000   0.3155
   6.100   1.0794   0.01553   0.01097  -0.0785  0.5142  0.8216  -1.5587   0.0000   0.0000   0.0000   0.3147
   6.200   1.0911   0.01543   0.01088  -0.0786  0.5136  0.8252  -1.5928   0.0000   0.0000   0.0000   0.3138
   6.300   1.1027   0.01534   0.01080  -0.0787  0.5130  0.8284  -1.6270   0.0000   0.0000   0.0000   0.3130
   6.400   1.1142   0.01525   0.01071  -0.0787  0.5123  0.8314  -1.6612   0.0000   0.0000   0.0000   0.3122
   6.500   1.1254   0.01517   0.01064  -0.0788  0.5116  0.8341  -1.6952   0.0000   0.0000   0.0000   0.3114
   6.600   1.1364   0.01509   0.01057  -0.0788  0.5107  0.8366  -1.7292   0.0000   0.0000   0.0000   0.3106
   6.700   1.1303   0.01624   0.01168  -0.0763  0.4998  0.8374  -1.7351   0.0000   0.0000   0.0000   0.3086
   6.900   1.1864   0.01336   0.00873  -0.0805  0.5009  0.8435  -1.8633   0.0000   0.0000   0.0000   0.3086
   7.000   1.1972   0.01336   0.00874  -0.0805  0.4982  0.8449  -1.8981   0.0000   0.0000   0.0000   0.3079
   7.100   1.2051   0.01357   0.00898  -0.0802  0.4964  0.8460  -1.9280   0.0000   0.0000   0.0000   0.3070
   7.200   1.2127   0.01378   0.00922  -0.0799  0.4950  0.8470  -1.9575   0.0000   0.0000   0.0000   0.3062
   7.300   1.2195   0.01403   0.00951  -0.0794  0.4934  0.8479  -1.9858   0.0000   0.0000   0.0000   0.3052
   7.400   1.2211   0.01470   0.01024  -0.0784  0.4914  0.8485  -2.0050   0.0000   0.0000   0.0000   0.3042
   7.500   1.1902   0.01757   0.01326  -0.0741  0.4894  0.8479  -1.9671   0.0000   0.0000   0.0000   0.3021
   7.600   1.1637   0.01976   0.01551  -0.0702  0.4881  0.8476  -1.9371   0.0000   0.0000   0.0000   0.3000
   7.700   1.1384   0.02157   0.01736  -0.0661  0.4870  0.8478  -1.9098   0.0000   0.0000   0.0000   0.2975
   7.800   1.1176   0.02305   0.01886  -0.0626  0.4861  0.8481  -1.8905   0.0000   0.0000   0.0000   0.2953
   7.900   1.1005   0.02437   0.02019  -0.0598  0.4853  0.8481  -1.8768   0.0000   0.0000   0.0000   0.2933
   8.000   1.0851   0.02564   0.02146  -0.0573  0.4845  0.8480  -1.8658   0.0000   0.0000   0.0000   0.2916
   8.100   1.0707   0.02686   0.02267  -0.0549  0.4836  0.8480  -1.8565   0.0000   0.0000   0.0000   0.2899
   8.200   1.0571   0.02805   0.02387  -0.0528  0.4826  0.8480  -1.8482   0.0000   0.0000   0.0000   0.2883
   8.300   1.0441   0.02925   0.02506  -0.0507  0.4815  0.8480  -1.8408   0.0000   0.0000   0.0000   0.2867
   8.400   1.0316   0.03045   0.02626  -0.0488  0.4802  0.8480  -1.8339   0.0000   0.0000   0.0000   0.2852
   8.500   1.0195   0.03164   0.02746  -0.0469  0.4788  0.8480  -1.8275   0.0000   0.0000   0.0000   0.2837
   8.600   1.0077   0.03283   0.02865  -0.0452  0.4773  0.8481  -1.8215   0.0000   0.0000   0.0000   0.2823
   8.700   0.9954   0.03406   0.02988  -0.0435  0.4755  0.8481  -1.8144   0.0000   0.0000   0.0000   0.2809
   8.800   0.9839   0.03524   0.03107  -0.0419  0.4735  0.8482  -1.8086   0.0000   0.0000   0.0000   0.2796
   8.900   0.9730   0.03634   0.03217  -0.0404  0.4713  0.8483  -1.8035   0.0000   0.0000   0.0000   0.2783
   9.000   0.9623   0.03742   0.03326  -0.0390  0.4687  0.8484  -1.7986   0.0000   0.0000   0.0000   0.2771
   9.100   0.9525   0.03850   0.03435  -0.0377  0.4654  0.8485  -1.7953   0.0000   0.0000   0.0000   0.2759
   9.200   0.9434   0.03954   0.03540  -0.0364  0.4611  0.8486  -1.7934   0.0000   0.0000   0.0000   0.2747
   9.300   0.9354   0.04050   0.03636  -0.0353  0.4557  0.8488  -1.7933   0.0000   0.0000   0.0000   0.2735
   9.400   0.9287   0.04136   0.03722  -0.0342  0.4489  0.8490  -1.7958   0.0000   0.0000   0.0000   0.2724
   9.500   0.9231   0.04214   0.03800  -0.0331  0.4408  0.8492  -1.8002   0.0000   0.0000   0.0000   0.2712
   9.600   0.9182   0.04287   0.03873  -0.0322  0.4317  0.8495  -1.8060   0.0000   0.0000   0.0000   0.2701
   9.700   0.9155   0.04343   0.03927  -0.0313  0.4194  0.8498  -1.8159   0.0000   0.0000   0.0000   0.2690
   9.800   0.9138   0.04381   0.03960  -0.0304  0.4009  0.8501  -1.8281   0.0000   0.0000   0.0000   0.2679
   9.900   0.9089   0.04433   0.04000  -0.0293  0.3755  0.8503  -1.8343   0.0000   0.0000   0.0000   0.2665
  10.000   0.9076   0.04497   0.04056  -0.0287  0.3627  0.8506  -1.8464   0.0000   0.0000   0.0000   0.2656
  10.100   0.9089   0.04547   0.04098  -0.0281  0.3520  0.8509  -1.8636   0.0000   0.0000   0.0000   0.2648
  10.200   0.9110   0.04593   0.04133  -0.0276  0.3409  0.8512  -1.8821   0.0000   0.0000   0.0000   0.2639
  10.300   0.9132   0.04637   0.04165  -0.0271  0.3286  0.8515  -1.9012   0.0000   0.0000   0.0000   0.2631
  10.400   0.9162   0.04678   0.04193  -0.0267  0.3157  0.8518  -1.9217   0.0000   0.0000   0.0000   0.2623
  10.500   0.9206   0.04717   0.04218  -0.0264  0.3017  0.8520  -1.9448   0.0000   0.0000   0.0000   0.2616
  10.600   0.9264   0.04754   0.04248  -0.0261  0.2858  0.8523  -1.9705   0.0000   0.0000   0.0000   0.2610
  10.700   0.9324   0.04789   0.04279  -0.0259  0.2693  0.8525  -1.9965   0.0000   0.0000   0.0000   0.2605
  10.800   0.9385   0.04817   0.04305  -0.0257  0.2554  0.8528  -2.0231   0.0000   0.0000   0.0000   0.2599
  10.900   0.9452   0.04842   0.04330  -0.0255  0.2491  0.8530  -2.0509   0.0000   0.0000   0.0000   0.2593
  11.000   0.9515   0.04866   0.04355  -0.0251  0.2471  0.8533  -2.0784   0.0000   0.0000   0.0000   0.2586
  11.100   0.9572   0.04890   0.04379  -0.0246  0.2449  0.8538  -2.1051   0.0000   0.0000   0.0000   0.2577
  11.200   0.9644   0.04915   0.04404  -0.0246  0.2420  0.8598  -2.1341   0.0000   0.0000   0.0000   0.2573
  11.300   0.9712   0.04941   0.04429  -0.0246  0.2385  0.8669  -2.1627   0.0000   0.0000   0.0000   0.2569
  11.400   0.9775   0.04969   0.04455  -0.0244  0.2336  0.8749  -2.1902   0.0000   0.0000   0.0000   0.2564
  11.500   0.9820   0.05006   0.04485  -0.0241  0.2240  0.8828  -2.2148   0.0000   0.0000   0.0000   0.2558
  11.600   0.9823   0.05068   0.04527  -0.0235  0.2030  0.8889  -2.2311   0.0000   0.0000   0.0000   0.2550
  11.700   0.9807   0.05137   0.04568  -0.0228  0.1765  0.8939  -2.2435   0.0000   0.0000   0.0000   0.2541
  11.800   0.9819   0.05184   0.04596  -0.0221  0.1453  0.9001  -2.2618   0.0000   0.0000   0.0000   0.2532
  11.900   0.9843   0.05215   0.04618  -0.0214  0.1345  0.9060  -2.2828   0.0000   0.0000   0.0000   0.2522
  12.000   0.9847   0.05267   0.04650  -0.0207  0.1171  0.9100  -2.2995   0.0000   0.0000   0.0000   0.2513
  12.100   0.9836   0.05342   0.04702  -0.0201  0.0958  0.9129  -2.3127   0.0000   0.0000   0.0000   0.2505
  12.200   0.9857   0.05392   0.04740  -0.0196  0.0699  0.9160  -2.3325   0.0000   0.0000   0.0000   0.2498
  12.300   0.9914   0.05419   0.04765  -0.0193  0.0647  0.9185  -2.3600   0.0000   0.0000   0.0000   0.2492
  12.400   0.9980   0.05451   0.04794  -0.0193  0.0618  0.9194  -2.3891   0.0000   0.0000   0.0000   0.2489
  12.500   1.0049   0.05484   0.04824  -0.0194  0.0591  0.9196  -2.4190   0.0000   0.0000   0.0000   0.2487
  12.600   1.0118   0.05516   0.04853  -0.0195  0.0565  0.9199  -2.4490   0.0000   0.0000   0.0000   0.2485
  12.700   1.0186   0.05549   0.04883  -0.0196  0.0540  0.9201  -2.4793   0.0000   0.0000   0.0000   0.2483
  12.800   1.0254   0.05582   0.04912  -0.0197  0.0516  0.9204  -2.5097   0.0000   0.0000   0.0000   0.2480
  12.900   1.0322   0.05616   0.04941  -0.0198  0.0493  0.9207  -2.5404   0.0000   0.0000   0.0000   0.2478
  13.000   1.0389   0.05649   0.04971  -0.0199  0.0470  0.9211  -2.5712   0.0000   0.0000   0.0000   0.2476
  13.100   1.0457   0.05682   0.05000  -0.0200  0.0448  0.9214  -2.6024   0.0000   0.0000   0.0000   0.2474
  13.200   1.0525   0.05715   0.05029  -0.0201  0.0426  0.9218  -2.6340   0.0000   0.0000   0.0000   0.2472
  13.300   1.0595   0.05746   0.05057  -0.0202  0.0404  0.9221  -2.6662   0.0000   0.0000   0.0000   0.2470
  13.400   1.0666   0.05777   0.05084  -0.0204  0.0381  0.9226  -2.6992   0.0000   0.0000   0.0000   0.2468
  13.500   1.0739   0.05805   0.05110  -0.0205  0.0358  0.9230  -2.7330   0.0000   0.0000   0.0000   0.2466
  13.600   1.0813   0.05833   0.05136  -0.0206  0.0333  0.9235  -2.8098   0.0000   0.0000   0.0000   0.2464
  13.700   1.0888   0.05860   0.05162  -0.0208  0.0305  0.9240  -2.8899   0.0000   0.0000   0.0000   0.2462
  13.800   1.0964   0.05887   0.05188  -0.0209  0.0275  0.9246  -2.9706   0.0000   0.0000   0.0000   0.2460
  13.900   1.1039   0.05916   0.05218  -0.0210  0.0245  0.9252  -3.0500   0.0000   0.0000   0.0000   0.2458
  14.000   1.1112   0.05948   0.05250  -0.0212  0.0212  0.9258  -3.1262   0.0000   0.0000   0.0000   0.2456
  14.100   1.1171   0.05990   0.05297  -0.0212  0.0175  0.9263  -3.1840   0.0000   0.0000   0.0000   0.2453
  14.200   1.1227   0.06031   0.05343  -0.0212  0.0173  0.9269  -3.2499   0.0000   0.0000   0.0000   0.2450
  14.300   1.1274   0.06078   0.05398  -0.0213  0.0171  0.9274  -3.3100   0.0000   0.0000   0.0000   0.2448
  14.400   1.1306   0.06140   0.05470  -0.0214  0.0170  0.9279  -3.3603   0.0000   0.0000   0.0000   0.2446
  14.700   0.9702   0.08252   0.07642  -0.0264  0.0344  0.9268  -2.6450   0.0000   0.0000   0.0000   0.2521
  14.800   0.9767   0.08289   0.07678  -0.0266  0.0318  0.9277  -2.7182   0.0000   0.0000   0.0000   0.2519
  14.900   0.9833   0.08326   0.07713  -0.0268  0.0289  0.9286  -2.7925   0.0000   0.0000   0.0000   0.2517
  15.000   0.9900   0.08363   0.07750  -0.0270  0.0259  0.9296  -2.8668   0.0000   0.0000   0.0000   0.2515
  15.100   0.9966   0.08401   0.07788  -0.0272  0.0227  0.9307  -2.9393   0.0000   0.0000   0.0000   0.2513
  15.200   1.0029   0.08443   0.07835  -0.0273  0.0185  0.9319  -3.0014   0.0000   0.0000   0.0000   0.2510
  16.300   1.0406   0.09266   0.08835  -0.0267  0.0201  1.0000  -3.2834   0.0000   0.0000   0.0000   0.2469
  16.400   1.0539   0.09246   0.08805  -0.0271  0.0226  1.0000  -3.3959   0.0000   0.0000   0.0000   0.2467
  16.500   1.0638   0.09269   0.08824  -0.0274  0.0260  1.0000  -3.4798   0.0000   0.0000   0.0000   0.2464
  16.600   1.0695   0.09349   0.08915  -0.0274  0.0306  1.0000  -3.5182   0.0000   0.0000   0.0000   0.2461
  16.700   1.0626   0.09699   0.09325  -0.0269  0.0384  1.0000  -3.3714   0.0000   0.0000   0.0000   0.2457
  16.800   1.0516   0.10138   0.09799  -0.0275  0.0418  1.0000  -3.2509   0.0000   0.0000   0.0000   0.2466
  16.900   1.0418   0.10555   0.10235  -0.0286  0.0438  1.0000  -3.1704   0.0000   0.0000   0.0000   0.2478
  17.000   1.0325   0.10965   0.10657  -0.0300  0.0450  1.0000  -3.1077   0.0000   0.0000   0.0000   0.2493
  17.100   1.0235   0.11372   0.11073  -0.0316  0.0456  1.0000  -3.0563   0.0000   0.0000   0.0000   0.2509
  17.200   1.0147   0.11777   0.11484  -0.0333  0.0458  1.0000  -3.0134   0.0000   0.0000   0.0000   0.2528
  17.300   1.0065   0.12159   0.11869  -0.0352  0.0451  1.0000  -2.9923   0.0000   0.0000   0.0000   0.2548
  17.400   0.9982   0.12569   0.12282  -0.0372  0.0447  1.0000  -2.9591   0.0000   0.0000   0.0000   0.2569
  17.500   0.9898   0.13017   0.12733  -0.0391  0.0449  1.0000  -2.9111   0.0000   0.0000   0.0000   0.2591
  17.600   0.9813   0.13489   0.13210  -0.0410  0.0452  1.0000  -2.8557   0.0000   0.0000   0.0000   0.2613
  17.700   0.9728   0.13989   0.13714  -0.0430  0.0455  1.0000  -2.7942   0.0000   0.0000   0.0000   0.2637
  17.800   0.9642   0.14527   0.14255  -0.0450  0.0460  1.0000  -2.7247   0.0000   0.0000   0.0000   0.2662
  17.900   0.9559   0.15090   0.14821  -0.0473  0.0461  1.0000  -2.6559   0.0000   0.0000   0.0000   0.2691
  18.000   0.9478   0.15663   0.15395  -0.0497  0.0460  1.0000  -2.5890   0.0000   0.0000   0.0000   0.2720
  18.100   0.9395   0.16252   0.15985  -0.0520  0.0463  1.0000  -2.5145   0.0000   0.0000   0.0000   0.2750
  18.200   0.9309   0.16860   0.16593  -0.0544  0.0468  1.0000  -2.4340   0.0000   0.0000   0.0000   0.2781
  18.300   0.9223   0.17485   0.17219  -0.0567  0.0476  1.0000  -2.3490   0.0000   0.0000   0.0000   0.2813
  18.400   0.9136   0.18127   0.17862  -0.0591  0.0486  1.0000  -2.2601   0.0000   0.0000   0.0000   0.2846
  18.500   0.9048   0.18785   0.18521  -0.0615  0.0498  1.0000  -2.1677   0.0000   0.0000   0.0000   0.2880
  18.600   0.8959   0.19458   0.19196  -0.0640  0.0513  1.0000  -2.0724   0.0000   0.0000   0.0000   0.2915
  18.700   0.8867   0.20146   0.19886  -0.0665  0.0531  1.0000  -1.9745   0.0000   0.0000   0.0000   0.2951
  18.800   0.8772   0.20851   0.20593  -0.0689  0.0552  1.0000  -1.8743   0.0000   0.0000   0.0000   0.2989
  18.900   0.8670   0.21576   0.21320  -0.0714  0.0574  1.0000  -1.7714   0.0000   0.0000   0.0000   0.3028
  19.000   0.8555   0.22442   0.22187  -0.0746  0.0600  0.9676  -1.6522   0.0000   0.0000   0.0000   0.3079
  19.100   0.8411   0.23399   0.23144  -0.0780  0.0625  0.9315  -1.5162   0.0000   0.0000   0.0000   0.3138
  19.200   0.8236   0.24608   0.24358  -0.0833  0.0647  0.9229  -1.3458   0.0000   0.0000   0.0000   0.3228
  19.300   0.8061   0.25219   0.24978  -0.0895  0.0654  0.9135  -1.2133   0.0000   0.0000   0.0000   0.3336
  19.400   0.7970   0.25446   0.25211  -0.0926  0.0656  0.9108  -1.1498   0.0000   0.0000   0.0000   0.3392
  19.500   0.7918   0.25633   0.25401  -0.0946  0.0657  0.9098  -1.1110   0.0000   0.0000   0.0000   0.3427
  19.600   0.7880   0.25798   0.25570  -0.0962  0.0658  0.9092  -1.0813   0.0000   0.0000   0.0000   0.3454
  19.700   0.7851   0.25950   0.25724  -0.0975  0.0658  0.9088  -1.0572   0.0000   0.0000   0.0000   0.3477
  19.800   0.7844   0.26050   0.25826  -0.0985  0.0656  0.9085  -1.0498   0.0000   0.0000   0.0000   0.3491
  19.900   0.7846   0.26135   0.25912  -0.0994  0.0654  0.9084  -1.0478   0.0000   0.0000   0.0000   0.3502
  20.000   0.7867   0.26184   0.25962  -0.1001  0.0650  0.9083  -1.0585   0.0000   0.0000   0.0000   0.3506
  20.200   0.8590   0.25177   0.24935  -0.0938  0.0359  0.9148  -1.6924   0.0000   0.0000   0.0000   0.3292
  20.400   0.9269   0.23166   0.22910  -0.0815  0.0227  1.0000  -2.5998   0.0000   0.0000   0.0000   0.3043
  20.500   0.9147   0.23791   0.23540  -0.0841  0.0215  1.0000  -2.4869   0.0000   0.0000   0.0000   0.3086
  20.600   0.8682   0.24789   0.24551  -0.0961  0.0197  0.9117  -2.0592   0.0000   0.0000   0.0000   0.3294
  20.700   0.8368   0.25352   0.25124  -0.1008  0.0187  0.9086  -1.7501   0.0000   0.0000   0.0000   0.3406
  20.800   0.8011   0.26043   0.25824  -0.1046  0.0177  0.9076  -1.3715   0.0000   0.0000   0.0000   0.3522
  20.900   0.7929   0.26293   0.26070  -0.1059  0.0175  0.9075  -1.2796   0.0000   0.0000   0.0000   0.3556
  21.000   0.7910   0.26422   0.26200  -0.1068  0.0175  0.9074  -1.2574   0.0000   0.0000   0.0000   0.3571
  21.100   0.7892   0.26547   0.26328  -0.1077  0.0175  0.9074  -1.2365   0.0000   0.0000   0.0000   0.3585
  21.200   0.7876   0.26671   0.26452  -0.1086  0.0174  0.9074  -1.2167   0.0000   0.0000   0.0000   0.3599
  21.300   0.7862   0.26791   0.26574  -0.1094  0.0174  0.9073  -1.1979   0.0000   0.0000   0.0000   0.3612
  21.400   0.7849   0.26910   0.26693  -0.1102  0.0174  0.9073  -1.1801   0.0000   0.0000   0.0000   0.3624
  21.500   0.7837   0.27026   0.26811  -0.1109  0.0173  0.9073  -1.1631   0.0000   0.0000   0.0000   0.3636
  21.600   0.7826   0.27141   0.26927  -0.1117  0.0173  0.9073  -1.1469   0.0000   0.0000   0.0000   0.3647
  21.700   0.7816   0.27255   0.27042  -0.1124  0.0173  0.9073  -1.1315   0.0000   0.0000   0.0000   0.3658
  21.800   0.7807   0.27367   0.27155  -0.1132  0.0172  0.9073  -1.1167   0.0000   0.0000   0.0000   0.3669
  21.900   0.7799   0.27478   0.27267  -0.1139  0.0172  0.9073  -1.1026   0.0000   0.0000   0.0000   0.3679
  22.000   0.7792   0.27588   0.27377  -0.1146  0.0171  0.9074  -1.0891   0.0000   0.0000   0.0000   0.3689
  22.100   0.7786   0.27696   0.27487  -0.1153  0.0171  0.9074  -1.0761   0.0000   0.0000   0.0000   0.3699
  22.200   0.7780   0.27804   0.27596  -0.1159  0.0171  0.9074  -1.0636   0.0000   0.0000   0.0000   0.3708
  22.300   0.7775   0.27911   0.27703  -0.1166  0.0170  0.9074  -1.0517   0.0000   0.0000   0.0000   0.3717
  22.400   0.7771   0.28017   0.27810  -0.1173  0.0170  0.9074  -1.0401   0.0000   0.0000   0.0000   0.3726
  22.500   0.7767   0.28123   0.27917  -0.1179  0.0169  0.9074  -1.0290   0.0000   0.0000   0.0000   0.3734
  22.600   0.7764   0.28227   0.28022  -0.1186  0.0169  0.9074  -1.0183   0.0000   0.0000   0.0000   0.3742
  22.700   0.7761   0.28331   0.28127  -0.1192  0.0169  0.9074  -1.0079   0.0000   0.0000   0.0000   0.3750
  22.800   0.7759   0.28435   0.28231  -0.1198  0.0168  0.9075  -0.9979   0.0000   0.0000   0.0000   0.3758
  22.900   0.7758   0.28538   0.28335  -0.1205  0.0168  0.9075  -0.9883   0.0000   0.0000   0.0000   0.3766
  23.000   0.7757   0.28640   0.28438  -0.1211  0.0167  0.9075  -0.9789   0.0000   0.0000   0.0000   0.3773
  23.100   0.7756   0.28742   0.28541  -0.1217  0.0167  0.9075  -0.9698   0.0000   0.0000   0.0000   0.3781
  23.200   0.7755   0.28844   0.28643  -0.1223  0.0166  0.9075  -0.9611   0.0000   0.0000   0.0000   0.3788
  23.300   0.7755   0.28945   0.28745  -0.1229  0.0166  0.9075  -0.9525   0.0000   0.0000   0.0000   0.3795
  23.400   0.7756   0.29046   0.28847  -0.1235  0.0165  0.9075  -0.9445   0.0000   0.0000   0.0000   0.3802
  23.500   0.7756   0.29146   0.28947  -0.1241  0.0165  0.9075  -0.9371   0.0000   0.0000   0.0000   0.3809
  23.600   0.7757   0.29245   0.29048  -0.1247  0.0165  0.9075  -0.9298   0.0000   0.0000   0.0000   0.3815
  23.700   0.7757   0.29345   0.29148  -0.1253  0.0164  0.9076  -0.9228   0.0000   0.0000   0.0000   0.3822
  23.800   0.7759   0.29444   0.29247  -0.1259  0.0164  0.9076  -0.9160   0.0000   0.0000   0.0000   0.3828
  23.900   0.7760   0.29542   0.29347  -0.1265  0.0163  0.9076  -0.9093   0.0000   0.0000   0.0000   0.3835
  24.000   0.7762   0.29641   0.29446  -0.1271  0.0163  0.9076  -0.9028   0.0000   0.0000   0.0000   0.3841
  24.100   0.7764   0.29739   0.29545  -0.1277  0.0162  0.9075  -0.8965   0.0000   0.0000   0.0000   0.3847
  24.200   0.7766   0.29838   0.29644  -0.1283  0.0162  0.9075  -0.8903   0.0000   0.0000   0.0000   0.3853


