xflr5 v6.61

 Calculated polar for: WORTMANN FX 049-915 AIRFOIL

 1 1 Reynolds number fixed          Mach number fixed         

 xtrf =   1.000 (top)        1.000 (bottom)
 Mach =   0.000     Re =     0.100 e 6     Ncrit =   9.000

  alpha     CL        CD       CDp       Cm    Top Xtr Bot Xtr   Cpmin    Chinge    XCp    
 ------- -------- --------- --------- -------- ------- ------- -------- --------- ---------
 -10.000  -0.0081   0.11607   0.11092  -0.0914  0.6543  0.0734  -1.1185   0.0000   0.0000   0.0000  -11.7809
  -9.900  -0.0061   0.11474   0.10961  -0.0920  0.6563  0.0735  -1.1217   0.0000   0.0000   0.0000  -15.8370
  -9.800  -0.0041   0.11346   0.10836  -0.0927  0.6588  0.0737  -1.1249   0.0000   0.0000   0.0000  -24.1445
  -9.700  -0.0019   0.11224   0.10718  -0.0935  0.6618  0.0738  -1.1282   0.0000   0.0000   0.0000  -51.9242
  -9.600   0.0004   0.11110   0.10608  -0.0945  0.6656  0.0739  -1.1315   0.0000   0.0000   0.0000  249.8302
  -9.500   0.0030   0.11005   0.10509  -0.0958  0.6704  0.0739  -1.1349   0.0000   0.0000   0.0000  34.5975
  -9.400   0.0057   0.10913   0.10423  -0.0974  0.6765  0.0740  -1.1384   0.0000   0.0000   0.0000  18.3367
  -8.600  -0.3384   0.16642   0.16263  -0.0303  0.9718  0.0678  -1.1800   0.0000   0.0000   0.0000   0.1456
  -8.500  -0.3343   0.16518   0.16138  -0.0317  0.9661  0.0679  -1.1816   0.0000   0.0000   0.0000   0.1402
  -8.400  -0.3304   0.16396   0.16016  -0.0332  0.9615  0.0679  -1.1836   0.0000   0.0000   0.0000   0.1347
  -8.300  -0.3264   0.16274   0.15893  -0.0347  0.9574  0.0680  -1.1859   0.0000   0.0000   0.0000   0.1289
  -8.200  -0.3224   0.16152   0.15770  -0.0362  0.9538  0.0680  -1.1884   0.0000   0.0000   0.0000   0.1227
  -8.100  -0.3183   0.16030   0.15647  -0.0379  0.9507  0.0680  -1.1912   0.0000   0.0000   0.0000   0.1160
  -8.000  -0.3141   0.15910   0.15526  -0.0396  0.9479  0.0680  -1.1944   0.0000   0.0000   0.0000   0.1090
  -7.300  -0.3336   0.13448   0.13075  -0.0472  0.9151  0.0741  -1.4374   0.0000   0.0000   0.0000   0.0958
  -7.200  -0.3373   0.13320   0.12947  -0.0467  0.9083  0.0743  -1.4462   0.0000   0.0000   0.0000   0.0990
  -7.100  -0.3400   0.13196   0.12823  -0.0467  0.9029  0.0745  -1.4546   0.0000   0.0000   0.0000   0.1006
  -7.000  -0.3421   0.13073   0.12698  -0.0467  0.8982  0.0747  -1.4629   0.0000   0.0000   0.0000   0.1015
  -6.900  -0.3435   0.12946   0.12571  -0.0470  0.8937  0.0749  -1.4705   0.0000   0.0000   0.0000   0.1016
  -6.800  -0.3438   0.12811   0.12435  -0.0474  0.8897  0.0751  -1.4774   0.0000   0.0000   0.0000   0.1007
  -6.700  -0.3425   0.12661   0.12284  -0.0482  0.8860  0.0753  -1.4829   0.0000   0.0000   0.0000   0.0980
  -6.600  -0.3400   0.12501   0.12122  -0.0492  0.8826  0.0755  -1.4875   0.0000   0.0000   0.0000   0.0940
  -6.500  -0.3367   0.12340   0.11959  -0.0504  0.8794  0.0757  -1.4917   0.0000   0.0000   0.0000   0.0891
  -6.400  -0.3327   0.12177   0.11794  -0.0517  0.8765  0.0759  -1.4953   0.0000   0.0000   0.0000   0.0834
  -6.300  -0.3280   0.12015   0.11630  -0.0532  0.8737  0.0761  -1.4985   0.0000   0.0000   0.0000   0.0767
  -5.900  -0.3055   0.12361   0.11964  -0.0590  0.8533  0.0765  -1.5018   0.0000   0.0000   0.0000   0.0457
  -5.800  -0.3084   0.12186   0.11787  -0.0584  0.8528  0.0765  -1.5090   0.0000   0.0000   0.0000   0.0496
  -5.700  -0.3112   0.11985   0.11584  -0.0579  0.8521  0.0765  -1.5161   0.0000   0.0000   0.0000   0.0534
  -5.600  -0.3139   0.11726   0.11322  -0.0572  0.8508  0.0766  -1.5233   0.0000   0.0000   0.0000   0.0574
  -5.500  -0.3231   0.11209   0.10804  -0.0547  0.8430  0.0766  -1.5351   0.0000   0.0000   0.0000   0.0710
  -5.400  -0.3329   0.10960   0.10554  -0.0521  0.8336  0.0766  -1.5451   0.0000   0.0000   0.0000   0.0842
  -5.300  -0.3365   0.10803   0.10394  -0.0509  0.8276  0.0766  -1.5515   0.0000   0.0000   0.0000   0.0895
  -5.200  -0.3382   0.10657   0.10245  -0.0503  0.8226  0.0766  -1.5566   0.0000   0.0000   0.0000   0.0925
  -5.100  -0.3384   0.10515   0.10099  -0.0498  0.8182  0.0765  -1.5609   0.0000   0.0000   0.0000   0.0941
  -5.000  -0.3376   0.10374   0.09954  -0.0496  0.8142  0.0764  -1.5645   0.0000   0.0000   0.0000   0.0946
  -4.900  -0.3359   0.10234   0.09810  -0.0494  0.8104  0.0763  -1.5673   0.0000   0.0000   0.0000   0.0944
  -4.800  -0.3333   0.10097   0.09669  -0.0494  0.8070  0.0760  -1.5692   0.0000   0.0000   0.0000   0.0935
  -4.300  -0.2718   0.10708   0.10247  -0.0476  0.7905  0.0680  -1.3101   0.0000   0.0000   0.0000   0.0652
  -4.200  -0.2674   0.10526   0.10061  -0.0478  0.7882  0.0680  -1.3092   0.0000   0.0000   0.0000   0.0615
  -4.100  -0.2626   0.10339   0.09870  -0.0480  0.7861  0.0680  -1.3086   0.0000   0.0000   0.0000   0.0574
  -4.000  -0.2576   0.10147   0.09673  -0.0483  0.7841  0.0679  -1.3083   0.0000   0.0000   0.0000   0.0527
  -3.900  -0.2524   0.09946   0.09467  -0.0485  0.7821  0.0678  -1.3090   0.0000   0.0000   0.0000   0.0477
  -3.800  -0.2472   0.09729   0.09246  -0.0488  0.7803  0.0677  -1.3121   0.0000   0.0000   0.0000   0.0423
  -3.700  -0.2424   0.09479   0.08991  -0.0492  0.7787  0.0674  -1.3212   0.0000   0.0000   0.0000   0.0372
  -3.600  -0.2407   0.09108   0.08613  -0.0494  0.7772  0.0665  -1.3552   0.0000   0.0000   0.0000   0.0346
  -3.500  -0.2431   0.08606   0.08101  -0.0496  0.7760  0.0642  -1.4274   0.0000   0.0000   0.0000   0.0361
  -3.400  -0.2408   0.08268   0.07751  -0.0498  0.7746  0.0623  -1.4703   0.0000   0.0000   0.0000   0.0335
  -3.300  -0.2359   0.08003   0.07473  -0.0498  0.7731  0.0608  -1.4999   0.0000   0.0000   0.0000   0.0289
  -3.200  -0.2296   0.07777   0.07232  -0.0498  0.7716  0.0594  -1.5242   0.0000   0.0000   0.0000   0.0228
  -3.100  -0.2222   0.07578   0.07019  -0.0498  0.7701  0.0582  -1.5440   0.0000   0.0000   0.0000   0.0155
  -3.000  -0.2140   0.07402   0.06827  -0.0497  0.7687  0.0573  -1.5607   0.0000   0.0000   0.0000   0.0071
  -2.900  -0.2122   0.08720   0.08139  -0.0499  0.7500  0.0569  -1.5624   0.0000   0.0000   0.0000   0.0045
  -2.800  -0.2092   0.08578   0.07984  -0.0489  0.7499  0.0564  -1.5736   0.0000   0.0000   0.0000   0.0058
  -2.700  -0.2058   0.08440   0.07833  -0.0479  0.7498  0.0560  -1.5838   0.0000   0.0000   0.0000   0.0070
  -2.600  -0.2022   0.08307   0.07687  -0.0468  0.7497  0.0559  -1.5929   0.0000   0.0000   0.0000   0.0081
  -2.500  -0.1983   0.08180   0.07546  -0.0457  0.7496  0.0559  -1.6010   0.0000   0.0000   0.0000   0.0091
  -2.400  -0.1941   0.08058   0.07409  -0.0446  0.7495  0.0562  -1.6076   0.0000   0.0000   0.0000   0.0099
  -2.300  -0.1896   0.07944   0.07281  -0.0434  0.7493  0.0569  -1.6120   0.0000   0.0000   0.0000   0.0104
  -2.200  -0.1846   0.07845   0.07169  -0.0423  0.7492  0.0582  -1.6116   0.0000   0.0000   0.0000   0.0103
  -2.100  -0.1787   0.07786   0.07101  -0.0413  0.7489  0.0606  -1.5965   0.0000   0.0000   0.0000   0.0083
  -2.000  -0.1700   0.07896   0.07218  -0.0409  0.7486  0.0648  -1.5188   0.0000   0.0000   0.0000  -0.0016
  -1.900  -0.1654   0.07907   0.07230  -0.0405  0.7483  0.0711  -1.4551   0.0000   0.0000   0.0000  -0.0055
  -1.800  -0.1692   0.07446   0.06737  -0.0385  0.7481  0.0799  -1.5284   0.0000   0.0000   0.0000   0.0120
  -1.700  -0.1684   0.07362   0.06682  -0.0378  0.7476  0.0932  -1.4567   0.0000   0.0000   0.0000   0.0153
  -1.500   0.2414   0.07739   0.07341  -0.0654  0.7355  1.0000  -0.7363   0.0000   0.0000   0.0000   0.5303
  -1.400   0.2295   0.07448   0.07051  -0.0620  0.7227  1.0000  -0.7304   0.0000   0.0000   0.0000   0.5298
  -1.300   0.0227   0.07618   0.07250  -0.0194  0.7230  0.8896  -0.6228   0.0000   0.0000   0.0000   1.1945
  -1.200  -0.0033   0.07499   0.07134  -0.0138  0.7154  0.8828  -0.6099   0.0000   0.0000   0.0000  -4.5656
  -1.100   0.1467   0.07308   0.06921  -0.0417  0.7007  0.9686  -0.6887   0.0000   0.0000   0.0000   0.5474
  -1.000  -0.1646   0.06772   0.06228  -0.0273  0.7047  0.2466  -0.9120   0.0000   0.0000   0.0000   0.0762
  -0.300  -0.0996   0.06151   0.05529  -0.0267  0.6679  0.2683  -0.7614   0.0000   0.0000   0.0000  -0.0286
  -0.200  -0.0749   0.06181   0.05543  -0.0280  0.6633  0.2361  -0.7548   0.0000   0.0000   0.0000  -0.1379
  -0.100  -0.0567   0.06091   0.05423  -0.0288  0.6595  0.2204  -0.7600   0.0000   0.0000   0.0000  -0.2766
   0.100  -0.0068   0.06080   0.05325  -0.0317  0.6520  0.1822  -0.7686   0.0000   0.0000   0.0000  -4.5801
   0.200   0.0212   0.06191   0.05408  -0.0337  0.6479  0.1707  -0.7497   0.0000   0.0000   0.0000   1.8882
   0.500  -0.0268   0.06316   0.05541  -0.0254  0.5948  0.1750  -0.7739   0.0000   0.0000   0.0000  -0.7358
   0.600  -0.0231   0.06256   0.05470  -0.0244  0.5859  0.1711  -0.7669   0.0000   0.0000   0.0000  -0.8535
   0.700  -0.0174   0.06239   0.05445  -0.0238  0.5788  0.1676  -0.7562   0.0000   0.0000   0.0000  -1.1735
   0.800  -0.0105   0.06242   0.05441  -0.0233  0.5728  0.1644  -0.7429   0.0000   0.0000   0.0000  -2.0620
   0.900  -0.0028   0.06256   0.05449  -0.0229  0.5676  0.1616  -0.7277   0.0000   0.0000   0.0000  -8.3927
   1.000   0.0055   0.06278   0.05465  -0.0226  0.5630  0.1590  -0.7114   0.0000   0.0000   0.0000   4.4953
   1.100   0.0142   0.06304   0.05488  -0.0224  0.5589  0.1565  -0.6941   0.0000   0.0000   0.0000   1.8800
   1.200   0.0233   0.06335   0.05515  -0.0222  0.5553  0.1543  -0.6762   0.0000   0.0000   0.0000   1.2378
   1.300   0.0325   0.06369   0.05546  -0.0220  0.5520  0.1522  -0.6579   0.0000   0.0000   0.0000   0.9505
   1.400   0.0420   0.06407   0.05581  -0.0219  0.5491  0.1501  -0.6391   0.0000   0.0000   0.0000   0.7890
   1.500   0.0516   0.06447   0.05619  -0.0218  0.5464  0.1482  -0.6202   0.0000   0.0000   0.0000   0.6861
   1.700   0.0741   0.06377   0.05505  -0.0218  0.5421  0.1429  -0.6173   0.0000   0.0000   0.0000   0.5528
   1.800   0.0852   0.06382   0.05499  -0.0219  0.5401  0.1414  -0.6073   0.0000   0.0000   0.0000   0.5138
   1.900   0.0962   0.06397   0.05503  -0.0220  0.5382  0.1399  -0.5959   0.0000   0.0000   0.0000   0.4841
   2.000   0.1071   0.06419   0.05514  -0.0221  0.5365  0.1385  -0.5834   0.0000   0.0000   0.0000   0.4608
   2.100   0.1180   0.06446   0.05531  -0.0222  0.5349  0.1372  -0.5878   0.0000   0.0000   0.0000   0.4419
   2.200   0.1289   0.06477   0.05552  -0.0224  0.5333  0.1358  -0.5939   0.0000   0.0000   0.0000   0.4264
   2.300   0.1400   0.06513   0.05579  -0.0226  0.5319  0.1345  -0.6000   0.0000   0.0000   0.0000   0.4136
   2.400   0.1508   0.06554   0.05609  -0.0228  0.5306  0.1333  -0.6060   0.0000   0.0000   0.0000   0.4026
   2.500   0.1614   0.06596   0.05643  -0.0229  0.5293  0.1321  -0.6118   0.0000   0.0000   0.0000   0.3932
   2.600   0.1718   0.06642   0.05680  -0.0231  0.5281  0.1309  -0.6176   0.0000   0.0000   0.0000   0.3849
   2.700   0.1828   0.06691   0.05719  -0.0232  0.5268  0.1297  -0.6241   0.0000   0.0000   0.0000   0.3774
   2.800   0.1943   0.06741   0.05761  -0.0234  0.5256  0.1286  -0.6313   0.0000   0.0000   0.0000   0.3706
   2.900   0.2073   0.06798   0.05808  -0.0239  0.5243  0.1275  -0.6397   0.0000   0.0000   0.0000   0.3650
   3.000   0.2215   0.06861   0.05861  -0.0246  0.5229  0.1263  -0.6491   0.0000   0.0000   0.0000   0.3602
   3.100   0.2371   0.06928   0.05919  -0.0253  0.5213  0.1252  -0.6604   0.0000   0.0000   0.0000   0.3559
   3.200   0.2521   0.07000   0.05981  -0.0259  0.5193  0.1241  -0.6719   0.0000   0.0000   0.0000   0.3516
   3.300   0.2684   0.07089   0.06062  -0.0266  0.5169  0.1230  -0.6850   0.0000   0.0000   0.0000   0.3475
   3.400   0.2852   0.07232   0.06197  -0.0273  0.5137  0.1221  -0.6986   0.0000   0.0000   0.0000   0.3439
   3.500   0.2128   0.09110   0.08098  -0.0242  0.4995  0.1248  -0.5861   0.0000   0.0000   0.0000   0.3624
   3.600   0.2189   0.09151   0.08133  -0.0242  0.4993  0.1241  -0.5869   0.0000   0.0000   0.0000   0.3591
   3.700   0.2250   0.09189   0.08166  -0.0243  0.4992  0.1235  -0.5878   0.0000   0.0000   0.0000   0.3560
   3.800   0.2311   0.09227   0.08198  -0.0243  0.4990  0.1229  -0.5888   0.0000   0.0000   0.0000   0.3530
   3.900   0.2372   0.09265   0.08230  -0.0243  0.4989  0.1223  -0.5898   0.0000   0.0000   0.0000   0.3502
   4.000   0.2433   0.09305   0.08266  -0.0244  0.4987  0.1217  -0.5907   0.0000   0.0000   0.0000   0.3476
   4.100   0.2492   0.09348   0.08305  -0.0244  0.4986  0.1212  -0.5921   0.0000   0.0000   0.0000   0.3450
   4.200   0.2550   0.09388   0.08340  -0.0243  0.4984  0.1208  -0.5979   0.0000   0.0000   0.0000   0.3424
   4.300   0.2608   0.09422   0.08370  -0.0243  0.4982  0.1203  -0.6039   0.0000   0.0000   0.0000   0.3399
   4.400   0.2668   0.09446   0.08391  -0.0242  0.4980  0.1199  -0.6101   0.0000   0.0000   0.0000   0.3374
   4.500   0.2729   0.09457   0.08398  -0.0242  0.4977  0.1195  -0.6167   0.0000   0.0000   0.0000   0.3349
   4.600   0.2795   0.09439   0.08375  -0.0241  0.4973  0.1191  -0.6242   0.0000   0.0000   0.0000   0.3322
   4.800   0.3248   0.07720   0.06621  -0.0220  0.4779  0.1177  -0.6960   0.0000   0.0000   0.0000   0.3127
   4.900   0.3296   0.07740   0.06637  -0.0219  0.4766  0.1175  -0.7014   0.0000   0.0000   0.0000   0.3112
   5.000   0.3343   0.07763   0.06654  -0.0218  0.4753  0.1173  -0.7066   0.0000   0.0000   0.0000   0.3098
   5.100   0.3386   0.07788   0.06675  -0.0217  0.4740  0.1172  -0.7114   0.0000   0.0000   0.0000   0.3084
   5.200   0.3426   0.07815   0.06697  -0.0216  0.4727  0.1170  -0.7158   0.0000   0.0000   0.0000   0.3071
   5.300   0.3466   0.07843   0.06720  -0.0214  0.4714  0.1169  -0.7203   0.0000   0.0000   0.0000   0.3058
   5.400   0.3507   0.07871   0.06743  -0.0213  0.4700  0.1169  -0.7248   0.0000   0.0000   0.0000   0.3045
   5.500   0.3548   0.07899   0.06767  -0.0212  0.4686  0.1168  -0.7294   0.0000   0.0000   0.0000   0.3033
   5.600   0.3590   0.07928   0.06791  -0.0211  0.4671  0.1168  -0.7341   0.0000   0.0000   0.0000   0.3021
   5.700   0.3634   0.07956   0.06816  -0.0209  0.4656  0.1168  -0.7390   0.0000   0.0000   0.0000   0.3009
   5.800   0.3678   0.07985   0.06841  -0.0208  0.4640  0.1169  -0.7439   0.0000   0.0000   0.0000   0.2997
   5.900   0.3722   0.08014   0.06866  -0.0207  0.4624  0.1170  -0.7489   0.0000   0.0000   0.0000   0.2986
   6.000   0.3768   0.08043   0.06891  -0.0206  0.4607  0.1172  -0.7541   0.0000   0.0000   0.0000   0.2975
   6.100   0.3815   0.08071   0.06916  -0.0205  0.4590  0.1174  -0.7594   0.0000   0.0000   0.0000   0.2964
   6.200   0.3863   0.08099   0.06941  -0.0205  0.4572  0.1177  -0.7649   0.0000   0.0000   0.0000   0.2953
   6.300   0.3913   0.08127   0.06966  -0.0204  0.4553  0.1180  -0.7706   0.0000   0.0000   0.0000   0.2942
   6.400   0.3966   0.08154   0.06991  -0.0203  0.4534  0.1185  -0.7766   0.0000   0.0000   0.0000   0.2932
   6.500   0.4020   0.08181   0.07015  -0.0202  0.4514  0.1192  -0.7828   0.0000   0.0000   0.0000   0.2922
   6.600   0.4077   0.08206   0.07038  -0.0202  0.4493  0.1203  -0.7894   0.0000   0.0000   0.0000   0.2912
   6.700   0.4138   0.08229   0.07059  -0.0201  0.4470  0.1220  -0.7964   0.0000   0.0000   0.0000   0.2901
   7.000   0.5017   0.12050   0.11173  -0.0510  0.4982  1.0000  -0.8006   0.0000   0.0000   0.0000   0.3440
   7.100   0.5065   0.12120   0.11242  -0.0510  0.4981  1.0000  -0.8055   0.0000   0.0000   0.0000   0.3428
   7.200   0.5113   0.12187   0.11309  -0.0510  0.4981  1.0000  -0.8103   0.0000   0.0000   0.0000   0.3416
   7.300   0.5161   0.12253   0.11375  -0.0509  0.4980  1.0000  -0.8151   0.0000   0.0000   0.0000   0.3405
   7.400   0.5209   0.12316   0.11438  -0.0509  0.4979  1.0000  -0.8199   0.0000   0.0000   0.0000   0.3394
   7.500   0.5257   0.12377   0.11499  -0.0509  0.4978  1.0000  -0.8246   0.0000   0.0000   0.0000   0.3383
   7.600   0.5304   0.12434   0.11558  -0.0509  0.4977  1.0000  -0.8292   0.0000   0.0000   0.0000   0.3372
   7.700   0.5352   0.12488   0.11612  -0.0508  0.4976  1.0000  -0.8337   0.0000   0.0000   0.0000   0.3361
   7.800   0.5399   0.12538   0.11663  -0.0508  0.4975  1.0000  -0.8382   0.0000   0.0000   0.0000   0.3351
   7.900   0.5446   0.12581   0.11707  -0.0508  0.4973  1.0000  -0.8425   0.0000   0.0000   0.0000   0.3340
   8.000   0.5492   0.12617   0.11744  -0.0508  0.4971  1.0000  -0.8467   0.0000   0.0000   0.0000   0.3330
   8.100   0.5539   0.12642   0.11770  -0.0507  0.4968  1.0000  -0.8507   0.0000   0.0000   0.0000   0.3320
   8.200   0.5585   0.12651   0.11781  -0.0507  0.4965  1.0000  -0.8545   0.0000   0.0000   0.0000   0.3310
   8.300   0.5632   0.12636   0.11767  -0.0506  0.4960  1.0000  -0.8582   0.0000   0.0000   0.0000   0.3299
   8.400   0.5680   0.12577   0.11709  -0.0505  0.4953  1.0000  -0.8618   0.0000   0.0000   0.0000   0.3288
   8.500   0.5732   0.12433   0.11566  -0.0503  0.4941  1.0000  -0.8663   0.0000   0.0000   0.0000   0.3275
   8.600   0.5799   0.12091   0.11225  -0.0499  0.4916  1.0000  -0.8746   0.0000   0.0000   0.0000   0.3257
   8.700   0.5848   0.11434   0.10566  -0.0490  0.4858  1.0000  -0.8852   0.0000   0.0000   0.0000   0.3232
   8.800   0.5809   0.10799   0.09930  -0.0476  0.4766  1.0000  -0.8836   0.0000   0.0000   0.0000   0.3210
   8.900   0.5775   0.10416   0.09547  -0.0465  0.4654  1.0000  -0.8787   0.0000   0.0000   0.0000   0.3193
   9.000   0.5792   0.10244   0.09375  -0.0459  0.4536  1.0000  -0.8777   0.0000   0.0000   0.0000   0.3177
   9.100   0.5846   0.10179   0.09311  -0.0454  0.4430  1.0000  -0.8825   0.0000   0.0000   0.0000   0.3160
   9.200   0.5921   0.10162   0.09295  -0.0451  0.4340  1.0000  -0.8951   0.0000   0.0000   0.0000   0.3144
   9.300   0.6004   0.10172   0.09305  -0.0449  0.4270  1.0000  -0.9088   0.0000   0.0000   0.0000   0.3128
   9.400   0.6091   0.10198   0.09332  -0.0448  0.4214  1.0000  -0.9230   0.0000   0.0000   0.0000   0.3113
   9.500   0.6180   0.10236   0.09371  -0.0447  0.4168  1.0000  -0.9372   0.0000   0.0000   0.0000   0.3099
   9.600   0.6267   0.10283   0.09419  -0.0446  0.4130  1.0000  -0.9512   0.0000   0.0000   0.0000   0.3087
   9.700   0.6351   0.10339   0.09476  -0.0446  0.4099  1.0000  -0.9646   0.0000   0.0000   0.0000   0.3076
   9.800   0.6430   0.10405   0.09543  -0.0446  0.4073  1.0000  -0.9770   0.0000   0.0000   0.0000   0.3066
   9.900   0.6501   0.10482   0.09622  -0.0447  0.4053  1.0000  -0.9877   0.0000   0.0000   0.0000   0.3058
  10.000   0.6556   0.10574   0.09715  -0.0448  0.4037  1.0000  -0.9955   0.0000   0.0000   0.0000   0.3053
  10.100   0.6575   0.10694   0.09836  -0.0450  0.4031  1.0000  -0.9967   0.0000   0.0000   0.0000   0.3053
  10.500   0.5901   0.14068   0.13237  -0.0534  0.4878  1.0000  -0.8348   0.0000   0.0000   0.0000   0.3279
  10.600   0.5927   0.14064   0.13234  -0.0534  0.4872  1.0000  -0.8395   0.0000   0.0000   0.0000   0.3273
  10.700   0.5952   0.14025   0.13196  -0.0534  0.4864  1.0000  -0.8442   0.0000   0.0000   0.0000   0.3267
  10.800   0.5976   0.13974   0.13146  -0.0533  0.4855  1.0000  -0.8490   0.0000   0.0000   0.0000   0.3261
  10.900   0.6001   0.13930   0.13102  -0.0533  0.4845  1.0000  -0.8538   0.0000   0.0000   0.0000   0.3255
  11.000   0.6027   0.13905   0.13078  -0.0533  0.4837  1.0000  -0.8585   0.0000   0.0000   0.0000   0.3250
  11.100   0.6051   0.13848   0.13022  -0.0533  0.4824  1.0000  -0.8632   0.0000   0.0000   0.0000   0.3244
  11.200   0.6072   0.13721   0.12896  -0.0532  0.4803  1.0000  -0.8679   0.0000   0.0000   0.0000   0.3238
  11.300   0.6112   0.12652   0.11823  -0.0513  0.4474  1.0000  -0.8880   0.0000   0.0000   0.0000   0.3195
  11.400   0.6195   0.12615   0.11786  -0.0509  0.4380  1.0000  -0.9042   0.0000   0.0000   0.0000   0.3176
  11.500   0.6282   0.12619   0.11790  -0.0507  0.4309  1.0000  -0.9277   0.0000   0.0000   0.0000   0.3159
  11.600   0.6377   0.12635   0.11806  -0.0505  0.4245  1.0000  -0.9552   0.0000   0.0000   0.0000   0.3141
  11.700   0.6488   0.12654   0.11825  -0.0502  0.4184  1.0000  -0.9860   0.0000   0.0000   0.0000   0.3122
  11.800   0.6629   0.12668   0.11839  -0.0499  0.4120  1.0000  -1.0240   0.0000   0.0000   0.0000   0.3098
  12.000   0.8110   0.12769   0.11923  -0.0439  0.3640  1.0000  -1.3958   0.0000   0.0000   0.0000   0.2876
  12.100   0.8116   0.12808   0.11964  -0.0440  0.3632  1.0000  -1.4045   0.0000   0.0000   0.0000   0.2876
  12.200   0.8119   0.12855   0.12012  -0.0442  0.3624  1.0000  -1.4126   0.0000   0.0000   0.0000   0.2876
  12.300   0.8122   0.12907   0.12066  -0.0444  0.3616  1.0000  -1.4203   0.0000   0.0000   0.0000   0.2877
  12.400   0.8123   0.12963   0.12123  -0.0447  0.3608  1.0000  -1.4277   0.0000   0.0000   0.0000   0.2878
  12.500   0.8123   0.13019   0.12182  -0.0449  0.3599  1.0000  -1.4347   0.0000   0.0000   0.0000   0.2879
  12.600   0.8122   0.13076   0.12240  -0.0452  0.3590  1.0000  -1.4414   0.0000   0.0000   0.0000   0.2881
  12.700   0.8119   0.13132   0.12298  -0.0455  0.3580  1.0000  -1.4477   0.0000   0.0000   0.0000   0.2883
  12.800   0.8115   0.13187   0.12355  -0.0458  0.3570  1.0000  -1.4536   0.0000   0.0000   0.0000   0.2885
  12.900   0.8109   0.13238   0.12408  -0.0461  0.3558  1.0000  -1.4589   0.0000   0.0000   0.0000   0.2887
  13.000   0.8096   0.13284   0.12456  -0.0463  0.3545  1.0000  -1.4628   0.0000   0.0000   0.0000   0.2890
  13.100   0.8074   0.13323   0.12497  -0.0466  0.3531  1.0000  -1.4646   0.0000   0.0000   0.0000   0.2892
  13.200   0.8039   0.13355   0.12531  -0.0468  0.3514  1.0000  -1.4637   0.0000   0.0000   0.0000   0.2896
  13.300   0.8005   0.13386   0.12564  -0.0471  0.3495  1.0000  -1.4626   0.0000   0.0000   0.0000   0.2900
  13.400   0.7971   0.13418   0.12598  -0.0474  0.3471  1.0000  -1.4616   0.0000   0.0000   0.0000   0.2904
  13.500   0.7941   0.13452   0.12634  -0.0476  0.3444  1.0000  -1.4611   0.0000   0.0000   0.0000   0.2908
  13.600   0.7916   0.13488   0.12672  -0.0479  0.3410  1.0000  -1.4619   0.0000   0.0000   0.0000   0.2911
  13.700   0.7900   0.13525   0.12712  -0.0482  0.3370  1.0000  -1.4646   0.0000   0.0000   0.0000   0.2913
  13.800   0.7894   0.13561   0.12750  -0.0484  0.3321  1.0000  -1.4700   0.0000   0.0000   0.0000   0.2914
  13.900   0.7904   0.13593   0.12784  -0.0485  0.3263  1.0000  -1.4789   0.0000   0.0000   0.0000   0.2913
  14.000   0.7931   0.13612   0.12805  -0.0485  0.3195  1.0000  -1.4925   0.0000   0.0000   0.0000   0.2908
  14.100   0.7982   0.13610   0.12805  -0.0484  0.3119  1.0000  -1.5123   0.0000   0.0000   0.0000   0.2900
  14.200   0.8059   0.13586   0.12783  -0.0481  0.3042  1.0000  -1.5391   0.0000   0.0000   0.0000   0.2887
  14.300   0.8156   0.13546   0.12745  -0.0476  0.2972  1.0000  -1.5716   0.0000   0.0000   0.0000   0.2872
  14.400   0.8265   0.13500   0.12701  -0.0472  0.2914  1.0000  -1.6080   0.0000   0.0000   0.0000   0.2856
  14.500   0.8383   0.13448   0.12651  -0.0466  0.2865  1.0000  -1.6474   0.0000   0.0000   0.0000   0.2838
  14.600   0.8508   0.13395   0.12601  -0.0461  0.2825  1.0000  -1.6890   0.0000   0.0000   0.0000   0.2821
  14.700   0.8670   0.13241   0.12448  -0.0452  0.2795  1.0000  -1.7505   0.0000   0.0000   0.0000   0.2797
  14.900   1.0405   0.09768   0.08939  -0.0327  0.2435  1.0000  -2.4134   0.0000   0.0000   0.0000   0.2561
  15.000   1.0373   0.09967   0.09142  -0.0333  0.2407  1.0000  -2.4141   0.0000   0.0000   0.0000   0.2566
  15.100   1.0319   0.10202   0.09381  -0.0340  0.2378  1.0000  -2.4072   0.0000   0.0000   0.0000   0.2573
  15.200   1.0256   0.10446   0.09629  -0.0348  0.2347  1.0000  -2.3970   0.0000   0.0000   0.0000   0.2581
  15.300   1.0190   0.10689   0.09876  -0.0356  0.2314  1.0000  -2.3862   0.0000   0.0000   0.0000   0.2590
  15.400   1.0126   0.10927   0.10116  -0.0363  0.2279  1.0000  -2.3760   0.0000   0.0000   0.0000   0.2598
  15.500   1.0070   0.11149   0.10342  -0.0370  0.2238  1.0000  -2.3685   0.0000   0.0000   0.0000   0.2606
  15.600   1.0025   0.11350   0.10546  -0.0377  0.2192  1.0000  -2.3648   0.0000   0.0000   0.0000   0.2612
  15.700   0.9992   0.11527   0.10726  -0.0383  0.2139  1.0000  -2.3660   0.0000   0.0000   0.0000   0.2617
  15.800   0.9974   0.11679   0.10880  -0.0388  0.2079  1.0000  -2.3722   0.0000   0.0000   0.0000   0.2621
  15.900   0.9968   0.11806   0.11010  -0.0392  0.2011  1.0000  -2.3834   0.0000   0.0000   0.0000   0.2623
  16.000   0.9985   0.11887   0.11092  -0.0394  0.1926  1.0000  -2.4043   0.0000   0.0000   0.0000   0.2622
  16.100   1.0041   0.11885   0.11083  -0.0394  0.1783  1.0000  -2.4633   0.0000   0.0000   0.0000   0.2616
  16.200   1.0161   0.11710   0.10864  -0.0386  0.1447  1.0000  -2.5895   0.0000   0.0000   0.0000   0.2599
  16.300   1.0164   0.11822   0.10963  -0.0389  0.1310  1.0000  -2.6281   0.0000   0.0000   0.0000   0.2599
  16.400   1.0151   0.11956   0.11078  -0.0393  0.1143  1.0000  -2.6570   0.0000   0.0000   0.0000   0.2601
  16.500   1.0124   0.12109   0.11206  -0.0397  0.0973  1.0000  -2.6779   0.0000   0.0000   0.0000   0.2603
  16.600   1.0085   0.12292   0.11363  -0.0402  0.0830  1.0000  -2.6901   0.0000   0.0000   0.0000   0.2608
  16.700   1.0045   0.12500   0.11560  -0.0409  0.0717  1.0000  -2.6976   0.0000   0.0000   0.0000   0.2614
  16.800   1.0045   0.12645   0.11699  -0.0412  0.0651  1.0000  -2.7267   0.0000   0.0000   0.0000   0.2616
  16.900   1.0056   0.12772   0.11818  -0.0415  0.0611  1.0000  -2.7612   0.0000   0.0000   0.0000   0.2616
  17.000   1.0064   0.12904   0.11941  -0.0418  0.0573  1.0000  -2.7917   0.0000   0.0000   0.0000   0.2616
  17.100   1.0069   0.13040   0.12066  -0.0420  0.0537  1.0000  -2.8176   0.0000   0.0000   0.0000   0.2615
  17.200   1.0075   0.13176   0.12190  -0.0422  0.0503  1.0000  -2.8391   0.0000   0.0000   0.0000   0.2615
  17.300   1.0086   0.13303   0.12311  -0.0423  0.0471  1.0000  -2.8589   0.0000   0.0000   0.0000   0.2613
  17.400   1.0107   0.13416   0.12426  -0.0424  0.0446  1.0000  -2.8806   0.0000   0.0000   0.0000   0.2610
  17.500   1.0135   0.13518   0.12537  -0.0423  0.0426  1.0000  -2.9053   0.0000   0.0000   0.0000   0.2605
  17.600   1.0167   0.13615   0.12647  -0.0422  0.0413  1.0000  -2.9322   0.0000   0.0000   0.0000   0.2600
  17.700   1.0201   0.13710   0.12758  -0.0421  0.0403  1.0000  -2.9605   0.0000   0.0000   0.0000   0.2595
  17.800   1.0237   0.13804   0.12869  -0.0419  0.0396  1.0000  -2.9910   0.0000   0.0000   0.0000   0.2590
  17.900   1.0272   0.13901   0.12983  -0.0418  0.0392  1.0000  -3.0300   0.0000   0.0000   0.0000   0.2584
  18.000   1.0305   0.14003   0.13102  -0.0416  0.0390  1.0000  -3.0655   0.0000   0.0000   0.0000   0.2579
  18.100   1.0336   0.14112   0.13228  -0.0414  0.0389  1.0000  -3.0968   0.0000   0.0000   0.0000   0.2573
  18.200   1.0363   0.14232   0.13366  -0.0413  0.0389  1.0000  -3.1231   0.0000   0.0000   0.0000   0.2568
  18.300   1.0384   0.14368   0.13519  -0.0411  0.0391  1.0000  -3.1431   0.0000   0.0000   0.0000   0.2564
  18.400   1.0397   0.14528   0.13695  -0.0410  0.0393  1.0000  -3.1553   0.0000   0.0000   0.0000   0.2561
  18.500   1.0396   0.14721   0.13901  -0.0411  0.0395  1.0000  -3.1578   0.0000   0.0000   0.0000   0.2559
  18.600   1.0383   0.14947   0.14140  -0.0413  0.0398  1.0000  -3.1512   0.0000   0.0000   0.0000   0.2560
  18.700   1.0357   0.15208   0.14413  -0.0416  0.0401  1.0000  -3.1358   0.0000   0.0000   0.0000   0.2562
  18.800   1.0317   0.15506   0.14722  -0.0421  0.0403  1.0000  -3.1120   0.0000   0.0000   0.0000   0.2568
  18.900   1.0264   0.15841   0.15067  -0.0428  0.0406  1.0000  -3.0802   0.0000   0.0000   0.0000   0.2576
  19.000   1.0197   0.16213   0.15447  -0.0437  0.0408  1.0000  -3.0406   0.0000   0.0000   0.0000   0.2586
  19.100   1.0117   0.16623   0.15865  -0.0447  0.0410  1.0000  -2.9928   0.0000   0.0000   0.0000   0.2600
  19.200   1.0024   0.17071   0.16320  -0.0460  0.0412  1.0000  -2.9370   0.0000   0.0000   0.0000   0.2616
  19.300   0.9920   0.17556   0.16812  -0.0474  0.0413  1.0000  -2.8732   0.0000   0.0000   0.0000   0.2636
  19.400   0.9807   0.18079   0.17341  -0.0489  0.0414  1.0000  -2.8019   0.0000   0.0000   0.0000   0.2658
  19.500   0.9713   0.18557   0.17823  -0.0502  0.0416  1.0000  -2.7381   0.0000   0.0000   0.0000   0.2676
  19.600   0.9626   0.19013   0.18283  -0.0512  0.0419  1.0000  -2.6771   0.0000   0.0000   0.0000   0.2692
  19.700   0.9543   0.19459   0.18732  -0.0522  0.0421  1.0000  -2.6165   0.0000   0.0000   0.0000   0.2707
  19.800   0.9463   0.19900   0.19176  -0.0530  0.0424  1.0000  -2.5555   0.0000   0.0000   0.0000   0.2721
  19.900   0.9385   0.20335   0.19614  -0.0539  0.0428  1.0000  -2.4940   0.0000   0.0000   0.0000   0.2735
  20.000   0.9307   0.20765   0.20047  -0.0546  0.0431  1.0000  -2.4319   0.0000   0.0000   0.0000   0.2748
  20.100   0.9234   0.21186   0.20470  -0.0553  0.0435  1.0000  -2.3700   0.0000   0.0000   0.0000   0.2761
  20.200   0.9161   0.21600   0.20886  -0.0559  0.0439  1.0000  -2.3081   0.0000   0.0000   0.0000   0.2774
  20.300   0.9087   0.22006   0.21294  -0.0566  0.0443  1.0000  -2.2464   0.0000   0.0000   0.0000   0.2786
  20.400   0.9009   0.22411   0.21701  -0.0572  0.0448  1.0000  -2.1823   0.0000   0.0000   0.0000   0.2800
  20.500   0.8929   0.22804   0.22096  -0.0579  0.0452  1.0000  -2.1186   0.0000   0.0000   0.0000   0.2815
  20.600   0.8849   0.23180   0.22474  -0.0585  0.0457  1.0000  -2.0562   0.0000   0.0000   0.0000   0.2829
  20.700   0.8769   0.23535   0.22831  -0.0592  0.0462  1.0000  -1.9952   0.0000   0.0000   0.0000   0.2843
  20.800   0.8688   0.23869   0.23167  -0.0598  0.0467  1.0000  -1.9353   0.0000   0.0000   0.0000   0.2858
  20.900   0.8607   0.24177   0.23479  -0.0604  0.0473  1.0000  -1.8761   0.0000   0.0000   0.0000   0.2874
  21.000   0.8503   0.24398   0.23704  -0.0610  0.0479  1.0000  -1.8112   0.0000   0.0000   0.0000   0.2891
  21.100   0.8381   0.24541   0.23853  -0.0618  0.0485  1.0000  -1.7394   0.0000   0.0000   0.0000   0.2914
  21.200   0.8273   0.24688   0.24008  -0.0630  0.0493  1.0000  -1.6696   0.0000   0.0000   0.0000   0.2941
  21.300   0.8182   0.24848   0.24175  -0.0644  0.0502  1.0000  -1.6038   0.0000   0.0000   0.0000   0.2970
  21.400   0.8104   0.25014   0.24348  -0.0660  0.0512  1.0000  -1.5422   0.0000   0.0000   0.0000   0.3000
  21.500   0.8039   0.25182   0.24523  -0.0678  0.0523  1.0000  -1.4848   0.0000   0.0000   0.0000   0.3031
  21.600   0.7984   0.25352   0.24700  -0.0696  0.0536  1.0000  -1.4314   0.0000   0.0000   0.0000   0.3062
  21.700   0.7937   0.25522   0.24878  -0.0715  0.0550  1.0000  -1.3812   0.0000   0.0000   0.0000   0.3092
  21.800   0.7896   0.25698   0.25061  -0.0734  0.0567  1.0000  -1.3331   0.0000   0.0000   0.0000   0.3123
  21.900   0.7858   0.25886   0.25257  -0.0753  0.0585  1.0000  -1.2845   0.0000   0.0000   0.0000   0.3154
  22.000   0.7816   0.26116   0.25494  -0.0775  0.0608  1.0000  -1.2294   0.0000   0.0000   0.0000   0.3190
  22.100   0.7689   0.27276   0.26674  -0.0823  0.0672  1.0000  -1.0418   0.0000   0.0000   0.0000   0.3279
  22.200   0.7702   0.27710   0.27112  -0.0837  0.0676  1.0000  -1.0180   0.0000   0.0000   0.0000   0.3296
  22.300   0.7959   0.26564   0.25964  -0.0794  0.0769  1.0000  -1.1948   0.0000   0.0000   0.0000   0.3192
  22.400   0.7907   0.26725   0.26132  -0.0817  0.0782  1.0000  -1.1448   0.0000   0.0000   0.0000   0.3230
  22.500   0.7864   0.26879   0.26291  -0.0838  0.0792  1.0000  -1.1019   0.0000   0.0000   0.0000   0.3264
  22.600   0.7832   0.27032   0.26449  -0.0858  0.0800  1.0000  -1.0666   0.0000   0.0000   0.0000   0.3295
  22.700   0.7810   0.27180   0.26602  -0.0876  0.0807  1.0000  -1.0374   0.0000   0.0000   0.0000   0.3322
  22.800   0.7794   0.27324   0.26750  -0.0893  0.0812  1.0000  -1.0131   0.0000   0.0000   0.0000   0.3346
  22.900   0.7785   0.27462   0.26892  -0.0909  0.0816  1.0000  -0.9930   0.0000   0.0000   0.0000   0.3367
  23.000   0.7779   0.27596   0.27030  -0.0924  0.0819  1.0000  -0.9761   0.0000   0.0000   0.0000   0.3387
  23.100   0.7777   0.27725   0.27164  -0.0938  0.0820  1.0000  -0.9619   0.0000   0.0000   0.0000   0.3405
  23.200   0.7778   0.27851   0.27293  -0.0951  0.0820  1.0000  -0.9501   0.0000   0.0000   0.0000   0.3421
  23.300   0.7782   0.27974   0.27420  -0.0964  0.0820  1.0000  -0.9401   0.0000   0.0000   0.0000   0.3437
  23.400   0.7787   0.28095   0.27544  -0.0976  0.0819  1.0000  -0.9319   0.0000   0.0000   0.0000   0.3451
  23.500   0.7794   0.28213   0.27665  -0.0988  0.0816  1.0000  -0.9251   0.0000   0.0000   0.0000   0.3464
  23.600   0.7803   0.28329   0.27785  -0.0999  0.0814  1.0000  -0.9196   0.0000   0.0000   0.0000   0.3476
  23.700   0.7813   0.28445   0.27903  -0.1010  0.0810  1.0000  -0.9153   0.0000   0.0000   0.0000   0.3487
  23.800   0.7825   0.28559   0.28021  -0.1020  0.0807  1.0000  -0.9120   0.0000   0.0000   0.0000   0.3497
  23.900   0.7837   0.28674   0.28138  -0.1031  0.0803  1.0000  -0.9097   0.0000   0.0000   0.0000   0.3507
  24.000   0.7851   0.28788   0.28256  -0.1040  0.0798  1.0000  -0.9082   0.0000   0.0000   0.0000   0.3516
  24.100   0.7865   0.28904   0.28374  -0.1050  0.0794  1.0000  -0.9076   0.0000   0.0000   0.0000   0.3524
  24.200   0.7881   0.29021   0.28494  -0.1059  0.0789  1.0000  -0.9078   0.0000   0.0000   0.0000   0.3532
  24.300   0.7898   0.29141   0.28617  -0.1068  0.0784  1.0000  -0.9088   0.0000   0.0000   0.0000   0.3539
  24.400   0.7916   0.29264   0.28742  -0.1077  0.0779  1.0000  -0.9104   0.0000   0.0000   0.0000   0.3545
  24.500   0.7934   0.29391   0.28872  -0.1085  0.0774  1.0000  -0.9128   0.0000   0.0000   0.0000   0.3550
  24.600   0.7954   0.29524   0.29008  -0.1093  0.0769  1.0000  -0.9158   0.0000   0.0000   0.0000   0.3555
  24.700   0.8010   0.29731   0.29216  -0.1095  0.0753  1.0000  -0.9428   0.0000   0.0000   0.0000   0.3546
  24.800   0.8103   0.30257   0.29743  -0.1092  0.0725  1.0000  -0.9882   0.0000   0.0000   0.0000   0.3523
  25.800   0.7955   0.32958   0.32462  -0.1221  0.0670  1.0000  -0.7709   0.0000   0.0000   0.0000   0.3707
  25.900   0.7957   0.32990   0.32496  -0.1230  0.0669  1.0000  -0.7669   0.0000   0.0000   0.0000   0.3715
  26.000   0.7957   0.33002   0.32510  -0.1238  0.0667  1.0000  -0.7627   0.0000   0.0000   0.0000   0.3724
  26.100   0.7958   0.33005   0.32516  -0.1246  0.0666  1.0000  -0.7588   0.0000   0.0000   0.0000   0.3733
  26.200   0.7958   0.32997   0.32510  -0.1254  0.0664  1.0000  -0.7554   0.0000   0.0000   0.0000   0.3742
  26.300   0.7959   0.32975   0.32490  -0.1262  0.0662  1.0000  -0.7525   0.0000   0.0000   0.0000   0.3750
  26.400   0.7960   0.32934   0.32450  -0.1270  0.0659  1.0000  -0.7503   0.0000   0.0000   0.0000   0.3758
  26.500   0.7961   0.32865   0.32383  -0.1278  0.0655  1.0000  -0.7490   0.0000   0.0000   0.0000   0.3765
  27.000   0.7991   0.34849   0.34377  -0.1320  0.0669  1.0000  -0.6966   0.0000   0.0000   0.0000   0.3809
  27.100   0.7994   0.35008   0.34535  -0.1328  0.0668  1.0000  -0.6927   0.0000   0.0000   0.0000   0.3816
  27.200   0.7998   0.35162   0.34688  -0.1335  0.0668  1.0000  -0.6892   0.0000   0.0000   0.0000   0.3823
  27.300   0.8003   0.35308   0.34833  -0.1342  0.0668  1.0000  -0.6858   0.0000   0.0000   0.0000   0.3829
  27.400   0.8008   0.35445   0.34970  -0.1349  0.0668  1.0000  -0.6825   0.0000   0.0000   0.0000   0.3836
  27.500   0.8012   0.35573   0.35098  -0.1356  0.0668  1.0000  -0.6793   0.0000   0.0000   0.0000   0.3842
  27.600   0.8016   0.35693   0.35218  -0.1363  0.0667  1.0000  -0.6761   0.0000   0.0000   0.0000   0.3848
  27.700   0.8020   0.35805   0.35331  -0.1370  0.0667  1.0000  -0.6728   0.0000   0.0000   0.0000   0.3854
  27.800   0.8024   0.35910   0.35437  -0.1377  0.0667  1.0000  -0.6696   0.0000   0.0000   0.0000   0.3860
  27.900   0.8028   0.36010   0.35538  -0.1384  0.0667  1.0000  -0.6664   0.0000   0.0000   0.0000   0.3866
  28.000   0.8031   0.36105   0.35633  -0.1391  0.0666  1.0000  -0.6632   0.0000   0.0000   0.0000   0.3872
  28.100   0.8035   0.36195   0.35724  -0.1397  0.0666  1.0000  -0.6601   0.0000   0.0000   0.0000   0.3877
  28.200   0.8038   0.36282   0.35812  -0.1404  0.0666  1.0000  -0.6570   0.0000   0.0000   0.0000   0.3883
  28.300   0.8041   0.36366   0.35897  -0.1411  0.0665  1.0000  -0.6539   0.0000   0.0000   0.0000   0.3888
  28.400   0.8044   0.36448   0.35979  -0.1417  0.0665  1.0000  -0.6509   0.0000   0.0000   0.0000   0.3894
  28.500   0.8048   0.36527   0.36060  -0.1424  0.0665  1.0000  -0.6479   0.0000   0.0000   0.0000   0.3899
  28.600   0.8050   0.36582   0.36116  -0.1430  0.0664  1.0000  -0.6449   0.0000   0.0000   0.0000   0.3904
  28.700   0.8051   0.36621   0.36156  -0.1436  0.0664  1.0000  -0.6419   0.0000   0.0000   0.0000   0.3910
  28.800   0.8053   0.36658   0.36193  -0.1443  0.0663  1.0000  -0.6391   0.0000   0.0000   0.0000   0.3915
  28.900   0.8055   0.36693   0.36229  -0.1449  0.0662  1.0000  -0.6363   0.0000   0.0000   0.0000   0.3920
  29.000   0.8056   0.36726   0.36263  -0.1455  0.0661  1.0000  -0.6337   0.0000   0.0000   0.0000   0.3926
  29.100   0.8058   0.36757   0.36295  -0.1461  0.0660  1.0000  -0.6312   0.0000   0.0000   0.0000   0.3931
  29.200   0.8058   0.36768   0.36307  -0.1467  0.0659  1.0000  -0.6280   0.0000   0.0000   0.0000   0.3936
  29.300   0.8057   0.36775   0.36316  -0.1474  0.0658  1.0000  -0.6248   0.0000   0.0000   0.0000   0.3942
  29.400   0.8057   0.36782   0.36323  -0.1480  0.0657  1.0000  -0.6218   0.0000   0.0000   0.0000   0.3947
  29.500   0.8056   0.36785   0.36328  -0.1486  0.0656  1.0000  -0.6189   0.0000   0.0000   0.0000   0.3953
  29.600   0.8056   0.36786   0.36329  -0.1492  0.0655  1.0000  -0.6162   0.0000   0.0000   0.0000   0.3958
  29.700   0.8056   0.36785   0.36329  -0.1498  0.0654  1.0000  -0.6137   0.0000   0.0000   0.0000   0.3963
  29.800   0.8056   0.36780   0.36325  -0.1504  0.0653  1.0000  -0.6113   0.0000   0.0000   0.0000   0.3968
  29.900   0.8056   0.36771   0.36318  -0.1510  0.0651  1.0000  -0.6092   0.0000   0.0000   0.0000   0.3973
  30.000   0.8057   0.36757   0.36305  -0.1516  0.0649  1.0000  -0.6071   0.0000   0.0000   0.0000   0.3977


