xflr5 v6.61

 Calculated polar for: WORTMANN FX 60-126 AIRFOIL

 1 1 Reynolds number fixed          Mach number fixed         

 xtrf =   1.000 (top)        1.000 (bottom)
 Mach =   0.000     Re =     0.719 e 6     Ncrit =   9.000

  alpha     CL        CD       CDp       Cm    Top Xtr Bot Xtr   Cpmin    Chinge    XCp    
 ------- -------- --------- --------- -------- ------- ------- -------- --------- ---------
 -10.000  -0.4179   0.08004   0.07817  -0.0478  1.0000  0.0206  -2.6982   0.0000   0.0000   0.0000   0.1217
  -9.900  -0.4233   0.07695   0.07508  -0.0496  1.0000  0.0207  -2.7810   0.0000   0.0000   0.0000   0.1192
  -9.800  -0.4598   0.06501   0.06312  -0.0575  1.0000  0.0207  -3.2779   0.0000   0.0000   0.0000   0.1115
  -9.700  -0.4925   0.05743   0.05546  -0.0639  1.0000  0.0203  -3.5980   0.0000   0.0000   0.0000   0.1075
  -9.600  -0.5134   0.05434   0.05234  -0.0654  1.0000  0.0202  -3.7392   0.0000   0.0000   0.0000   0.1103
  -9.500  -0.5229   0.05051   0.04844  -0.0707  0.9966  0.0201  -3.8462   0.0000   0.0000   0.0000   0.1027
  -9.400  -0.5191   0.04636   0.04418  -0.0794  0.9911  0.0202  -3.8971   0.0000   0.0000   0.0000   0.0850
  -9.300  -0.5089   0.04275   0.04043  -0.0885  0.9868  0.0204  -3.9062   0.0000   0.0000   0.0000   0.0642
  -9.200  -0.4976   0.04024   0.03781  -0.0947  0.9842  0.0207  -3.8821   0.0000   0.0000   0.0000   0.0478
  -9.100  -0.4879   0.03843   0.03589  -0.0982  0.9814  0.0210  -3.8489   0.0000   0.0000   0.0000   0.0368
  -9.000  -0.4788   0.03683   0.03419  -0.1010  0.9779  0.0213  -3.8149   0.0000   0.0000   0.0000   0.0272
  -8.500  -0.4412   0.02341   0.01954  -0.1110  0.9578  0.0144  -4.2848   0.0000   0.0000   0.0000  -0.0139
  -8.400  -0.4364   0.01959   0.01528  -0.1115  0.9528  0.0120  -4.5819   0.0000   0.0000   0.0000  -0.0178
  -8.300  -0.4264   0.01850   0.01401  -0.1116  0.9499  0.0113  -4.6060   0.0000   0.0000   0.0000  -0.0243
  -8.200  -0.4161   0.01797   0.01341  -0.1117  0.9469  0.0111  -4.5544   0.0000   0.0000   0.0000  -0.0309
  -8.100  -0.4063   0.01756   0.01294  -0.1116  0.9432  0.0109  -4.4903   0.0000   0.0000   0.0000  -0.0373
  -8.000  -0.3962   0.01719   0.01252  -0.1116  0.9400  0.0108  -4.4191   0.0000   0.0000   0.0000  -0.0444
  -7.900  -0.3856   0.01685   0.01213  -0.1117  0.9372  0.0106  -4.3439   0.0000   0.0000   0.0000  -0.0523
  -7.800  -0.3749   0.01652   0.01175  -0.1118  0.9348  0.0105  -4.2665   0.0000   0.0000   0.0000  -0.0608
  -7.700  -0.3642   0.01620   0.01139  -0.1118  0.9325  0.0104  -4.1885   0.0000   0.0000   0.0000  -0.0699
  -7.600  -0.3538   0.01589   0.01105  -0.1119  0.9296  0.0104  -4.1117   0.0000   0.0000   0.0000  -0.0791
  -7.500  -0.3433   0.01559   0.01071  -0.1119  0.9266  0.0103  -4.0347   0.0000   0.0000   0.0000  -0.0890
  -7.400  -0.3327   0.01529   0.01038  -0.1119  0.9238  0.0102  -3.9580   0.0000   0.0000   0.0000  -0.0995
  -7.300  -0.3220   0.01499   0.01004  -0.1119  0.9211  0.0101  -3.8816   0.0000   0.0000   0.0000  -0.1110
  -7.200  -0.3112   0.01469   0.00970  -0.1120  0.9185  0.0101  -3.8058   0.0000   0.0000   0.0000  -0.1233
  -7.100  -0.3003   0.01439   0.00936  -0.1121  0.9161  0.0100  -3.7305   0.0000   0.0000   0.0000  -0.1367
  -7.000  -0.2895   0.01409   0.00902  -0.1121  0.9134  0.0100  -3.6568   0.0000   0.0000   0.0000  -0.1511
  -6.900  -0.2787   0.01378   0.00868  -0.1122  0.9105  0.0099  -3.5842   0.0000   0.0000   0.0000  -0.1666
  -6.800  -0.2678   0.01347   0.00834  -0.1123  0.9076  0.0099  -3.5127   0.0000   0.0000   0.0000  -0.1835
  -6.700  -0.2569   0.01316   0.00799  -0.1124  0.9047  0.0098  -3.4422   0.0000   0.0000   0.0000  -0.2020
  -6.600  -0.2459   0.01285   0.00763  -0.1125  0.9019  0.0098  -3.3726   0.0000   0.0000   0.0000  -0.2222
  -6.500  -0.2348   0.01254   0.00727  -0.1126  0.8992  0.0098  -3.3029   0.0000   0.0000   0.0000  -0.2446
  -6.400  -0.2236   0.01225   0.00689  -0.1127  0.8965  0.0098  -3.2321   0.0000   0.0000   0.0000  -0.2695
  -6.300  -0.2124   0.01192   0.00653  -0.1129  0.8937  0.0097  -3.1670   0.0000   0.0000   0.0000  -0.2974
  -6.200  -0.2011   0.01160   0.00616  -0.1130  0.8907  0.0097  -3.1029   0.0000   0.0000   0.0000  -0.3286
  -6.100  -0.1897   0.01129   0.00580  -0.1132  0.8877  0.0098  -3.0399   0.0000   0.0000   0.0000  -0.3637
  -6.000  -0.1783   0.01099   0.00544  -0.1133  0.8847  0.0098  -2.9779   0.0000   0.0000   0.0000  -0.4034
  -5.900  -0.1668   0.01072   0.00510  -0.1135  0.8820  0.0099  -2.9166   0.0000   0.0000   0.0000  -0.4488
  -5.800  -0.1552   0.01047   0.00478  -0.1136  0.8793  0.0100  -2.8561   0.0000   0.0000   0.0000  -0.5011
  -5.700  -0.1436   0.01024   0.00448  -0.1137  0.8768  0.0101  -2.7965   0.0000   0.0000   0.0000  -0.5624
  -5.600  -0.1319   0.01004   0.00421  -0.1139  0.8745  0.0103  -2.7382   0.0000   0.0000   0.0000  -0.6351
  -5.500  -0.1201   0.00984   0.00397  -0.1140  0.8720  0.0107  -2.6826   0.0000   0.0000   0.0000  -0.7218
  -5.400  -0.1084   0.00967   0.00374  -0.1141  0.8694  0.0114  -2.6322   0.0000   0.0000   0.0000  -0.8271
  -5.300  -0.0967   0.00950   0.00353  -0.1141  0.8666  0.0131  -2.5912   0.0000   0.0000   0.0000  -0.9579
  -5.200  -0.0849   0.00917   0.00327  -0.1144  0.8637  0.0250  -2.5609   0.0000   0.0000   0.0000  -1.1278
  -5.100  -0.0733   0.00897   0.00309  -0.1145  0.8607  0.0425  -2.4990   0.0000   0.0000   0.0000  -1.3456
  -5.000  -0.0619   0.00882   0.00298  -0.1146  0.8576  0.0496  -2.4182   0.0000   0.0000   0.0000  -1.6410
  -4.900  -0.0504   0.00867   0.00287  -0.1148  0.8545  0.0619  -2.3329   0.0000   0.0000   0.0000  -2.0720
  -4.800  -0.0389   0.00861   0.00280  -0.1148  0.8517  0.0662  -2.2461   0.0000   0.0000   0.0000  -2.7593
  -4.700  -0.0274   0.00855   0.00273  -0.1149  0.8489  0.0699  -2.1594   0.0000   0.0000   0.0000  -4.0270
  -4.600  -0.0158   0.00843   0.00265  -0.1150  0.8458  0.0774  -2.0735   0.0000   0.0000   0.0000  -7.1542
  -4.400   0.0072   0.00816   0.00247  -0.1152  0.8393  0.1005  -1.9035   0.0000   0.0000   0.0000  16.4313
  -4.300   0.0187   0.00811   0.00241  -0.1152  0.8363  0.1059  -1.8197   0.0000   0.0000   0.0000   6.5123
  -4.200   0.0302   0.00802   0.00233  -0.1153  0.8333  0.1158  -1.7372   0.0000   0.0000   0.0000   4.1286
  -4.100   0.0418   0.00787   0.00225  -0.1155  0.8303  0.1324  -1.6576   0.0000   0.0000   0.0000   3.0563
  -4.000   0.0535   0.00779   0.00216  -0.1156  0.8278  0.1459  -1.5772   0.0000   0.0000   0.0000   2.4455
  -3.900   0.0651   0.00768   0.00210  -0.1157  0.8251  0.1577  -1.4964   0.0000   0.0000   0.0000   2.0533
  -3.700   0.0884   0.00742   0.00196  -0.1160  0.8184  0.1961  -1.3383   0.0000   0.0000   0.0000   1.5809
  -3.600   0.1000   0.00726   0.00189  -0.1162  0.8148  0.2205  -1.2612   0.0000   0.0000   0.0000   1.4278
  -3.500   0.1115   0.00712   0.00183  -0.1164  0.8111  0.2486  -1.1853   0.0000   0.0000   0.0000   1.3069
  -3.400   0.1229   0.00701   0.00178  -0.1165  0.8073  0.2699  -1.1106   0.0000   0.0000   0.0000   1.2088
  -3.300   0.1344   0.00692   0.00175  -0.1166  0.8034  0.2908  -1.0369   0.0000   0.0000   0.0000   1.1271
  -3.200   0.1461   0.00685   0.00172  -0.1166  0.7998  0.3056  -0.9638   0.0000   0.0000   0.0000   1.0574
  -3.100   0.1576   0.00682   0.00169  -0.1167  0.7955  0.3137  -0.8922   0.0000   0.0000   0.0000   0.9980
  -3.000   0.1691   0.00677   0.00166  -0.1167  0.7909  0.3222  -0.8221   0.0000   0.0000   0.0000   0.9470
  -2.900   0.1805   0.00675   0.00164  -0.1167  0.7862  0.3297  -0.7686   0.0000   0.0000   0.0000   0.9026
  -2.800   0.1918   0.00674   0.00161  -0.1166  0.7814  0.3359  -0.7412   0.0000   0.0000   0.0000   0.8636
  -2.700   0.2032   0.00674   0.00158  -0.1166  0.7768  0.3419  -0.7139   0.0000   0.0000   0.0000   0.8288
  -2.600   0.2149   0.00669   0.00157  -0.1167  0.7728  0.3500  -0.6865   0.0000   0.0000   0.0000   0.7975
  -2.500   0.2265   0.00667   0.00155  -0.1167  0.7679  0.3572  -0.6593   0.0000   0.0000   0.0000   0.7694
  -2.400   0.2379   0.00666   0.00153  -0.1167  0.7625  0.3631  -0.6325   0.0000   0.0000   0.0000   0.7441
  -2.300   0.2492   0.00667   0.00151  -0.1167  0.7567  0.3675  -0.6059   0.0000   0.0000   0.0000   0.7213
  -2.100   0.2720   0.00667   0.00147  -0.1166  0.7456  0.3769  -0.5733   0.0000   0.0000   0.0000   0.6812
  -2.000   0.2835   0.00665   0.00144  -0.1167  0.7398  0.3827  -0.5821   0.0000   0.0000   0.0000   0.6635
  -1.900   0.2948   0.00665   0.00142  -0.1166  0.7333  0.3878  -0.5908   0.0000   0.0000   0.0000   0.6473
  -1.800   0.3060   0.00667   0.00141  -0.1166  0.7267  0.3924  -0.5995   0.0000   0.0000   0.0000   0.6324
  -1.700   0.3173   0.00670   0.00140  -0.1165  0.7203  0.3965  -0.6081   0.0000   0.0000   0.0000   0.6185
  -1.600   0.3288   0.00670   0.00139  -0.1165  0.7148  0.3999  -0.6170   0.0000   0.0000   0.0000   0.6054
  -1.500   0.3403   0.00671   0.00138  -0.1165  0.7081  0.4024  -0.6258   0.0000   0.0000   0.0000   0.5932
  -1.400   0.3515   0.00672   0.00137  -0.1165  0.7007  0.4075  -0.6346   0.0000   0.0000   0.0000   0.5820
  -1.300   0.3626   0.00675   0.00136  -0.1164  0.6930  0.4123  -0.6432   0.0000   0.0000   0.0000   0.5714
  -1.200   0.3741   0.00675   0.00137  -0.1164  0.6869  0.4168  -0.6521   0.0000   0.0000   0.0000   0.5615
  -1.100   0.3855   0.00676   0.00137  -0.1164  0.6802  0.4210  -0.6609   0.0000   0.0000   0.0000   0.5520
  -1.000   0.3968   0.00679   0.00137  -0.1164  0.6730  0.4248  -0.6697   0.0000   0.0000   0.0000   0.5432
  -0.900   0.4078   0.00683   0.00137  -0.1163  0.6654  0.4283  -0.6784   0.0000   0.0000   0.0000   0.5349
  -0.800   0.4191   0.00687   0.00137  -0.1163  0.6587  0.4316  -0.6888   0.0000   0.0000   0.0000   0.5270
  -0.700   0.4306   0.00689   0.00137  -0.1163  0.6525  0.4342  -0.6993   0.0000   0.0000   0.0000   0.5195
  -0.600   0.4419   0.00691   0.00138  -0.1163  0.6454  0.4392  -0.7099   0.0000   0.0000   0.0000   0.5124
  -0.500   0.4532   0.00693   0.00139  -0.1163  0.6384  0.4449  -0.7203   0.0000   0.0000   0.0000   0.5057
  -0.300   0.4757   0.00699   0.00142  -0.1163  0.6262  0.4548  -0.7414   0.0000   0.0000   0.0000   0.4932
  -0.200   0.4871   0.00700   0.00144  -0.1163  0.6209  0.4590  -0.7520   0.0000   0.0000   0.0000   0.4873
  -0.100   0.4985   0.00704   0.00145  -0.1163  0.6149  0.4624  -0.7626   0.0000   0.0000   0.0000   0.4817
   0.000   0.5097   0.00708   0.00147  -0.1162  0.6088  0.4650  -0.7732   0.0000   0.0000   0.0000   0.4764
   0.100   0.5208   0.00714   0.00148  -0.1162  0.6023  0.4669  -0.7837   0.0000   0.0000   0.0000   0.4713
   0.200   0.5321   0.00717   0.00149  -0.1162  0.5965  0.4705  -0.7943   0.0000   0.0000   0.0000   0.4665
   0.300   0.5436   0.00717   0.00151  -0.1162  0.5921  0.4746  -0.8051   0.0000   0.0000   0.0000   0.4618
   0.400   0.5550   0.00719   0.00153  -0.1162  0.5862  0.4785  -0.8159   0.0000   0.0000   0.0000   0.4573
   0.500   0.5662   0.00723   0.00156  -0.1162  0.5788  0.4824  -0.8273   0.0000   0.0000   0.0000   0.4530
   0.600   0.5772   0.00730   0.00158  -0.1161  0.5703  0.4862  -0.8399   0.0000   0.0000   0.0000   0.4489
   0.700   0.5882   0.00735   0.00162  -0.1161  0.5626  0.4900  -0.8526   0.0000   0.0000   0.0000   0.4449
   0.800   0.5996   0.00739   0.00164  -0.1161  0.5560  0.4934  -0.8655   0.0000   0.0000   0.0000   0.4411
   0.900   0.6107   0.00744   0.00166  -0.1160  0.5486  0.4966  -0.8784   0.0000   0.0000   0.0000   0.4374
   1.000   0.6217   0.00752   0.00169  -0.1160  0.5409  0.4991  -0.8919   0.0000   0.0000   0.0000   0.4338
   1.100   0.6326   0.00759   0.00172  -0.1159  0.5332  0.5036  -0.9100   0.0000   0.0000   0.0000   0.4304
   1.200   0.6441   0.00759   0.00175  -0.1160  0.5289  0.5096  -0.9301   0.0000   0.0000   0.0000   0.4271
   1.300   0.6555   0.00761   0.00178  -0.1160  0.5240  0.5151  -0.9502   0.0000   0.0000   0.0000   0.4239
   1.400   0.6668   0.00764   0.00182  -0.1160  0.5182  0.5204  -0.9702   0.0000   0.0000   0.0000   0.4208
   1.500   0.6779   0.00769   0.00186  -0.1159  0.5120  0.5251  -0.9903   0.0000   0.0000   0.0000   0.4178
   1.600   0.6889   0.00777   0.00190  -0.1159  0.5054  0.5292  -1.0102   0.0000   0.0000   0.0000   0.4149
   1.700   0.7000   0.00784   0.00193  -0.1158  0.4992  0.5323  -1.0303   0.0000   0.0000   0.0000   0.4121
   1.800   0.7114   0.00785   0.00196  -0.1159  0.4950  0.5380  -1.0508   0.0000   0.0000   0.0000   0.4093
   1.900   0.7227   0.00788   0.00200  -0.1159  0.4900  0.5434  -1.0712   0.0000   0.0000   0.0000   0.4067
   2.000   0.7338   0.00792   0.00204  -0.1159  0.4846  0.5481  -1.0917   0.0000   0.0000   0.0000   0.4041
   2.100   0.7449   0.00798   0.00209  -0.1158  0.4787  0.5524  -1.1121   0.0000   0.0000   0.0000   0.4016
   2.200   0.7558   0.00805   0.00213  -0.1158  0.4723  0.5562  -1.1325   0.0000   0.0000   0.0000   0.3992
   2.300   0.7669   0.00811   0.00219  -0.1157  0.4666  0.5594  -1.1530   0.0000   0.0000   0.0000   0.3969
   2.400   0.7783   0.00814   0.00222  -0.1158  0.4629  0.5621  -1.1740   0.0000   0.0000   0.0000   0.3946
   2.500   0.7896   0.00819   0.00226  -0.1158  0.4580  0.5643  -1.1950   0.0000   0.0000   0.0000   0.3923
   2.600   0.8008   0.00823   0.00229  -0.1157  0.4519  0.5677  -1.2159   0.0000   0.0000   0.0000   0.3902
   2.700   0.8118   0.00829   0.00234  -0.1157  0.4448  0.5725  -1.2367   0.0000   0.0000   0.0000   0.3881
   2.800   0.8225   0.00837   0.00239  -0.1156  0.4370  0.5769  -1.2574   0.0000   0.0000   0.0000   0.3860
   2.900   0.8336   0.00842   0.00244  -0.1156  0.4313  0.5812  -1.2784   0.0000   0.0000   0.0000   0.3840
   3.000   0.8448   0.00847   0.00249  -0.1156  0.4255  0.5854  -1.2996   0.0000   0.0000   0.0000   0.3821
   3.100   0.8558   0.00853   0.00254  -0.1156  0.4191  0.5895  -1.3207   0.0000   0.0000   0.0000   0.3802
   3.200   0.8666   0.00861   0.00259  -0.1155  0.4123  0.5932  -1.3418   0.0000   0.0000   0.0000   0.3783
   3.300   0.8773   0.00872   0.00265  -0.1154  0.4049  0.5963  -1.3627   0.0000   0.0000   0.0000   0.3765
   3.400   0.8884   0.00876   0.00270  -0.1154  0.4000  0.6003  -1.3842   0.0000   0.0000   0.0000   0.3747
   3.500   0.8996   0.00880   0.00275  -0.1154  0.3950  0.6054  -1.4057   0.0000   0.0000   0.0000   0.3730
   3.600   0.9106   0.00885   0.00280  -0.1154  0.3882  0.6099  -1.4298   0.0000   0.0000   0.0000   0.3713
   3.700   0.9213   0.00894   0.00287  -0.1153  0.3800  0.6142  -1.4573   0.0000   0.0000   0.0000   0.3696
   3.800   0.9318   0.00905   0.00294  -0.1152  0.3711  0.6183  -1.4847   0.0000   0.0000   0.0000   0.3680
   3.900   0.9428   0.00912   0.00300  -0.1152  0.3655  0.6223  -1.5129   0.0000   0.0000   0.0000   0.3664
   4.000   0.9537   0.00920   0.00309  -0.1151  0.3590  0.6260  -1.5411   0.0000   0.0000   0.0000   0.3649
   4.100   0.9644   0.00930   0.00316  -0.1151  0.3516  0.6290  -1.5691   0.0000   0.0000   0.0000   0.3633
   4.200   0.9749   0.00941   0.00324  -0.1150  0.3433  0.6343  -1.5969   0.0000   0.0000   0.0000   0.3618
   4.300   0.9857   0.00948   0.00332  -0.1149  0.3374  0.6397  -1.6253   0.0000   0.0000   0.0000   0.3604
   4.400   0.9967   0.00953   0.00338  -0.1149  0.3321  0.6449  -1.6542   0.0000   0.0000   0.0000   0.3590
   4.500   1.0074   0.00961   0.00346  -0.1148  0.3244  0.6499  -1.6828   0.0000   0.0000   0.0000   0.3576
   4.600   1.0177   0.00975   0.00355  -0.1147  0.3145  0.6546  -1.7109   0.0000   0.0000   0.0000   0.3562
   4.700   1.0282   0.00987   0.00364  -0.1146  0.3060  0.6590  -1.7392   0.0000   0.0000   0.0000   0.3548
   4.800   1.0388   0.00996   0.00372  -0.1145  0.2994  0.6643  -1.7681   0.0000   0.0000   0.0000   0.3535
   4.900   1.0493   0.01006   0.00381  -0.1144  0.2918  0.6709  -1.7967   0.0000   0.0000   0.0000   0.3522
   5.000   1.0595   0.01020   0.00392  -0.1143  0.2833  0.6776  -1.8324   0.0000   0.0000   0.0000   0.3509
   5.100   1.0701   0.01029   0.00401  -0.1142  0.2771  0.6845  -1.8723   0.0000   0.0000   0.0000   0.3496
   5.200   1.0809   0.01036   0.00409  -0.1142  0.2717  0.6908  -1.9128   0.0000   0.0000   0.0000   0.3484
   5.300   1.0912   0.01046   0.00419  -0.1141  0.2625  0.6992  -1.9528   0.0000   0.0000   0.0000   0.3472
   5.400   1.1010   0.01064   0.00433  -0.1139  0.2506  0.7080  -1.9917   0.0000   0.0000   0.0000   0.3460
   5.500   1.1112   0.01076   0.00443  -0.1138  0.2429  0.7169  -2.0319   0.0000   0.0000   0.0000   0.3448
   5.600   1.1212   0.01090   0.00455  -0.1136  0.2340  0.7264  -2.0718   0.0000   0.0000   0.0000   0.3436
   5.700   1.1309   0.01108   0.00470  -0.1134  0.2234  0.7377  -2.1112   0.0000   0.0000   0.0000   0.3424
   5.800   1.1413   0.01117   0.00480  -0.1133  0.2164  0.7491  -2.1556   0.0000   0.0000   0.0000   0.3413
   5.900   1.1506   0.01136   0.00498  -0.1131  0.2021  0.7621  -2.2037   0.0000   0.0000   0.0000   0.3402
   6.000   1.1596   0.01159   0.00516  -0.1128  0.1881  0.7769  -2.2498   0.0000   0.0000   0.0000   0.3390
   6.100   1.1685   0.01178   0.00532  -0.1125  0.1770  0.7958  -2.2959   0.0000   0.0000   0.0000   0.3379
   6.200   1.1778   0.01189   0.00546  -0.1121  0.1684  0.8196  -2.3431   0.0000   0.0000   0.0000   0.3367
   6.300   1.1859   0.01191   0.00558  -0.1115  0.1617  0.8614  -2.3882   0.0000   0.0000   0.0000   0.3354
   6.400   1.1908   0.01192   0.00566  -0.1102  0.1522  1.0000  -2.4258   0.0000   0.0000   0.0000   0.3338
   6.500   1.2004   0.01213   0.00582  -0.1100  0.1440  1.0000  -2.4745   0.0000   0.0000   0.0000   0.3328
   6.600   1.2104   0.01229   0.00595  -0.1099  0.1397  1.0000  -2.5248   0.0000   0.0000   0.0000   0.3318
   6.700   1.2203   0.01247   0.00609  -0.1097  0.1354  1.0000  -2.5748   0.0000   0.0000   0.0000   0.3308
   6.800   1.2301   0.01265   0.00623  -0.1095  0.1305  1.0000  -2.6248   0.0000   0.0000   0.0000   0.3298
   6.900   1.2400   0.01282   0.00637  -0.1094  0.1253  1.0000  -2.6754   0.0000   0.0000   0.0000   0.3288
   7.000   1.2504   0.01293   0.00649  -0.1093  0.1231  1.0000  -2.7278   0.0000   0.0000   0.0000   0.3279
   7.100   1.2608   0.01304   0.00661  -0.1092  0.1212  1.0000  -2.7805   0.0000   0.0000   0.0000   0.3270
   7.200   1.2710   0.01317   0.00674  -0.1090  0.1179  1.0000  -2.8329   0.0000   0.0000   0.0000   0.3260
   7.300   1.2805   0.01335   0.00690  -0.1088  0.1119  1.0000  -2.8842   0.0000   0.0000   0.0000   0.3251
   7.500   1.2989   0.01381   0.00725  -0.1084  0.0999  1.0000  -2.9853   0.0000   0.0000   0.0000   0.3232
   7.600   1.3082   0.01401   0.00742  -0.1081  0.0964  1.0000  -3.0368   0.0000   0.0000   0.0000   0.3223
   7.700   1.3172   0.01424   0.00760  -0.1079  0.0925  1.0000  -3.0878   0.0000   0.0000   0.0000   0.3214
   7.800   1.3265   0.01445   0.00777  -0.1076  0.0881  1.0000  -3.1392   0.0000   0.0000   0.0000   0.3205
   7.900   1.3363   0.01459   0.00795  -0.1074  0.0871  1.0000  -3.1924   0.0000   0.0000   0.0000   0.3196
   8.000   1.3458   0.01476   0.00812  -0.1072  0.0843  1.0000  -3.2447   0.0000   0.0000   0.0000   0.3188
   8.100   1.3560   0.01486   0.00824  -0.1071  0.0836  1.0000  -3.3005   0.0000   0.0000   0.0000   0.3179
   8.200   1.3660   0.01497   0.00837  -0.1069  0.0823  1.0000  -3.3559   0.0000   0.0000   0.0000   0.3171
   8.300   1.3757   0.01511   0.00851  -0.1067  0.0801  1.0000  -3.4109   0.0000   0.0000   0.0000   0.3162
   8.400   1.3851   0.01528   0.00868  -0.1065  0.0765  1.0000  -3.4651   0.0000   0.0000   0.0000   0.3154
   8.500   1.3936   0.01552   0.00889  -0.1062  0.0711  1.0000  -3.5174   0.0000   0.0000   0.0000   0.3146
   8.600   1.4019   0.01579   0.00911  -0.1058  0.0665  1.0000  -3.5689   0.0000   0.0000   0.0000   0.3137
   8.700   1.4109   0.01598   0.00928  -0.1055  0.0649  1.0000  -3.6227   0.0000   0.0000   0.0000   0.3129
   8.800   1.4198   0.01617   0.00946  -0.1052  0.0633  1.0000  -3.6766   0.0000   0.0000   0.0000   0.3120
   8.900   1.4285   0.01638   0.00966  -0.1049  0.0618  1.0000  -3.7300   0.0000   0.0000   0.0000   0.3112
   9.000   1.4371   0.01660   0.00986  -0.1046  0.0602  1.0000  -3.7832   0.0000   0.0000   0.0000   0.3104
   9.100   1.4456   0.01682   0.01007  -0.1042  0.0585  1.0000  -3.8362   0.0000   0.0000   0.0000   0.3096
   9.200   1.4540   0.01704   0.01027  -0.1038  0.0567  1.0000  -3.8892   0.0000   0.0000   0.0000   0.3087
   9.300   1.4625   0.01725   0.01048  -0.1035  0.0550  1.0000  -3.9734   0.0000   0.0000   0.0000   0.3079
   9.400   1.4709   0.01747   0.01070  -0.1031  0.0535  1.0000  -4.0772   0.0000   0.0000   0.0000   0.3071
   9.500   1.4792   0.01768   0.01093  -0.1027  0.0520  1.0000  -4.1813   0.0000   0.0000   0.0000   0.3063
   9.600   1.4880   0.01784   0.01110  -0.1024  0.0514  1.0000  -4.2906   0.0000   0.0000   0.0000   0.3055
   9.700   1.4970   0.01798   0.01127  -0.1021  0.0511  1.0000  -4.4024   0.0000   0.0000   0.0000   0.3047
   9.800   1.5059   0.01813   0.01144  -0.1018  0.0506  1.0000  -4.5143   0.0000   0.0000   0.0000   0.3040
   9.900   1.5146   0.01829   0.01162  -0.1015  0.0500  1.0000  -4.6263   0.0000   0.0000   0.0000   0.3032
  10.000   1.5231   0.01846   0.01182  -0.1011  0.0492  1.0000  -4.7381   0.0000   0.0000   0.0000   0.3024
  10.100   1.5313   0.01864   0.01204  -0.1007  0.0477  1.0000  -4.8460   0.0000   0.0000   0.0000   0.3017
  10.200   1.5390   0.01886   0.01227  -0.1003  0.0461  1.0000  -4.9546   0.0000   0.0000   0.0000   0.3009
  10.300   1.5464   0.01910   0.01251  -0.0998  0.0442  1.0000  -5.0618   0.0000   0.0000   0.0000   0.3001
  10.400   1.5531   0.01938   0.01278  -0.0992  0.0422  1.0000  -5.1662   0.0000   0.0000   0.0000   0.2993
  10.500   1.5588   0.01968   0.01306  -0.0985  0.0402  1.0000  -5.2657   0.0000   0.0000   0.0000   0.2984
  10.600   1.5645   0.01996   0.01335  -0.0977  0.0381  1.0000  -5.3654   0.0000   0.0000   0.0000   0.2975
  10.700   1.5710   0.02019   0.01359  -0.0971  0.0373  1.0000  -5.4712   0.0000   0.0000   0.0000   0.2967
  10.800   1.5773   0.02043   0.01383  -0.0964  0.0364  1.0000  -5.5760   0.0000   0.0000   0.0000   0.2958
  10.900   1.5832   0.02069   0.01409  -0.0957  0.0354  1.0000  -5.6799   0.0000   0.0000   0.0000   0.2950
  11.000   1.5890   0.02096   0.01437  -0.0949  0.0344  1.0000  -5.7829   0.0000   0.0000   0.0000   0.2941
  11.100   1.5944   0.02124   0.01465  -0.0942  0.0335  1.0000  -5.8850   0.0000   0.0000   0.0000   0.2933
  11.200   1.5995   0.02155   0.01496  -0.0934  0.0325  1.0000  -5.9850   0.0000   0.0000   0.0000   0.2925
  11.300   1.6044   0.02188   0.01528  -0.0926  0.0315  1.0000  -6.0843   0.0000   0.0000   0.0000   0.2916
  11.400   1.6090   0.02223   0.01563  -0.0918  0.0302  1.0000  -6.1822   0.0000   0.0000   0.0000   0.2908
  11.500   1.6134   0.02260   0.01599  -0.0910  0.0286  1.0000  -6.2793   0.0000   0.0000   0.0000   0.2900
  11.600   1.6178   0.02297   0.01636  -0.0902  0.0271  1.0000  -6.3761   0.0000   0.0000   0.0000   0.2891
  11.700   1.6231   0.02328   0.01669  -0.0895  0.0264  1.0000  -6.4805   0.0000   0.0000   0.0000   0.2884
  11.800   1.6287   0.02357   0.01701  -0.0889  0.0260  1.0000  -6.5872   0.0000   0.0000   0.0000   0.2876
  11.900   1.6339   0.02390   0.01735  -0.0883  0.0255  1.0000  -6.6918   0.0000   0.0000   0.0000   0.2869
  12.000   1.6388   0.02425   0.01772  -0.0876  0.0248  1.0000  -6.7947   0.0000   0.0000   0.0000   0.2861
  12.100   1.6435   0.02463   0.01811  -0.0869  0.0238  1.0000  -6.8957   0.0000   0.0000   0.0000   0.2854
  12.200   1.6475   0.02506   0.01854  -0.0862  0.0226  1.0000  -6.9923   0.0000   0.0000   0.0000   0.2846
  12.300   1.6506   0.02555   0.01903  -0.0854  0.0212  1.0000  -7.0826   0.0000   0.0000   0.0000   0.2839
  12.400   1.6527   0.02612   0.01958  -0.0846  0.0194  1.0000  -7.1655   0.0000   0.0000   0.0000   0.2831
  12.500   1.6549   0.02671   0.02016  -0.0838  0.0173  1.0000  -7.2465   0.0000   0.0000   0.0000   0.2824
  12.600   1.6586   0.02719   0.02065  -0.0831  0.0162  1.0000  -7.3368   0.0000   0.0000   0.0000   0.2817
  12.700   1.6606   0.02782   0.02127  -0.0823  0.0135  1.0000  -7.4114   0.0000   0.0000   0.0000   0.2809
  12.800   1.6583   0.02880   0.02225  -0.0812  0.0097  1.0000  -7.4670   0.0000   0.0000   0.0000   0.2802
  12.900   1.6562   0.02980   0.02322  -0.0802  0.0077  1.0000  -7.5120   0.0000   0.0000   0.0000   0.2794
  13.000   1.6540   0.03084   0.02426  -0.0793  0.0056  1.0000  -7.5464   0.0000   0.0000   0.0000   0.2787
  13.100   1.6556   0.03157   0.02502  -0.0786  0.0042  1.0000  -7.5918   0.0000   0.0000   0.0000   0.2781
  13.200   1.6572   0.03230   0.02580  -0.0779  0.0039  1.0000  -7.6555   0.0000   0.0000   0.0000   0.2774
  13.300   1.6584   0.03307   0.02661  -0.0773  0.0037  1.0000  -7.7175   0.0000   0.0000   0.0000   0.2768
  13.400   1.6597   0.03384   0.02743  -0.0767  0.0036  1.0000  -7.7810   0.0000   0.0000   0.0000   0.2762
  13.500   1.6609   0.03464   0.02827  -0.0761  0.0034  1.0000  -7.8449   0.0000   0.0000   0.0000   0.2756
  13.600   1.6618   0.03549   0.02916  -0.0756  0.0033  1.0000  -7.9078   0.0000   0.0000   0.0000   0.2751
  13.700   1.6630   0.03633   0.03006  -0.0750  0.0032  1.0000  -7.9728   0.0000   0.0000   0.0000   0.2745
  13.800   1.6642   0.03719   0.03096  -0.0746  0.0032  1.0000  -8.0388   0.0000   0.0000   0.0000   0.2740
  13.900   1.6648   0.03811   0.03192  -0.0741  0.0031  1.0000  -8.1018   0.0000   0.0000   0.0000   0.2735
  14.000   1.6655   0.03904   0.03291  -0.0737  0.0031  1.0000  -8.1651   0.0000   0.0000   0.0000   0.2730
  14.100   1.6664   0.03998   0.03388  -0.0733  0.0030  1.0000  -8.2301   0.0000   0.0000   0.0000   0.2726
  14.200   1.6668   0.04097   0.03492  -0.0729  0.0030  1.0000  -8.2923   0.0000   0.0000   0.0000   0.2721
  14.300   1.6669   0.04201   0.03601  -0.0726  0.0029  1.0000  -8.3525   0.0000   0.0000   0.0000   0.2717
  14.400   1.6673   0.04304   0.03709  -0.0723  0.0029  1.0000  -8.4145   0.0000   0.0000   0.0000   0.2713
  14.500   1.6675   0.04409   0.03819  -0.0720  0.0029  1.0000  -8.4758   0.0000   0.0000   0.0000   0.2709
  14.600   1.6670   0.04525   0.03940  -0.0718  0.0028  1.0000  -8.5318   0.0000   0.0000   0.0000   0.2706
  14.700   1.6666   0.04640   0.04061  -0.0716  0.0028  1.0000  -8.5888   0.0000   0.0000   0.0000   0.2702
  14.800   1.6663   0.04755   0.04181  -0.0714  0.0028  1.0000  -8.6466   0.0000   0.0000   0.0000   0.2699
  14.900   1.6650   0.04883   0.04314  -0.0712  0.0028  1.0000  -8.6973   0.0000   0.0000   0.0000   0.2696
  15.000   1.6635   0.05014   0.04450  -0.0711  0.0028  1.0000  -8.7457   0.0000   0.0000   0.0000   0.2693
  15.100   1.6622   0.05142   0.04583  -0.0709  0.0027  1.0000  -8.7961   0.0000   0.0000   0.0000   0.2691
  15.200   1.6604   0.05280   0.04727  -0.0709  0.0027  1.0000  -8.8426   0.0000   0.0000   0.0000   0.2689
  15.300   1.6583   0.05428   0.04880  -0.0709  0.0027  1.0000  -8.8858   0.0000   0.0000   0.0000   0.2687
  15.400   1.6566   0.05572   0.05029  -0.0709  0.0027  1.0000  -8.9322   0.0000   0.0000   0.0000   0.2685
  15.500   1.6545   0.05724   0.05187  -0.0710  0.0027  1.0000  -8.9755   0.0000   0.0000   0.0000   0.2684
  15.600   1.6518   0.05890   0.05358  -0.0712  0.0027  1.0000  -9.0132   0.0000   0.0000   0.0000   0.2684
  15.700   1.6496   0.06050   0.05524  -0.0714  0.0027  1.0000  -9.0545   0.0000   0.0000   0.0000   0.2683
  15.800   1.6472   0.06214   0.05693  -0.0716  0.0027  1.0000  -9.0944   0.0000   0.0000   0.0000   0.2682
  15.900   1.6438   0.06398   0.05883  -0.0719  0.0027  1.0000  -9.1252   0.0000   0.0000   0.0000   0.2683
  16.000   1.6409   0.06575   0.06066  -0.0722  0.0027  1.0000  -9.1598   0.0000   0.0000   0.0000   0.2684
  16.100   1.6380   0.06752   0.06249  -0.0726  0.0027  1.0000  -9.1941   0.0000   0.0000   0.0000   0.2684
  16.200   1.6339   0.06955   0.06457  -0.0731  0.0026  1.0000  -9.2174   0.0000   0.0000   0.0000   0.2686
  16.300   1.6303   0.07147   0.06655  -0.0735  0.0026  1.0000  -9.2452   0.0000   0.0000   0.0000   0.2687
  16.400   1.6270   0.07337   0.06850  -0.0739  0.0026  1.0000  -9.2747   0.0000   0.0000   0.0000   0.2688
  16.500   1.6223   0.07553   0.07072  -0.0746  0.0026  1.0000  -9.2915   0.0000   0.0000   0.0000   0.2691
  16.600   1.6179   0.07766   0.07291  -0.0752  0.0026  1.0000  -9.3099   0.0000   0.0000   0.0000   0.2694
  16.700   1.6139   0.07971   0.07502  -0.0758  0.0026  1.0000  -9.3316   0.0000   0.0000   0.0000   0.2696
  16.800   1.6086   0.08202   0.07739  -0.0765  0.0026  1.0000  -9.3417   0.0000   0.0000   0.0000   0.2700
  16.900   1.6033   0.08434   0.07977  -0.0773  0.0026  1.0000  -9.3509   0.0000   0.0000   0.0000   0.2704
  17.000   1.5987   0.08652   0.08201  -0.0780  0.0026  1.0000  -9.3659   0.0000   0.0000   0.0000   0.2708
  17.100   1.5934   0.08884   0.08439  -0.0788  0.0026  1.0000  -9.3733   0.0000   0.0000   0.0000   0.2712
  17.200   1.5867   0.09139   0.08700  -0.0797  0.0026  1.0000  -9.3685   0.0000   0.0000   0.0000   0.2718
  17.300   1.5811   0.09373   0.08940  -0.0805  0.0026  1.0000  -9.3723   0.0000   0.0000   0.0000   0.2722
  17.400   1.5754   0.09615   0.09187  -0.0814  0.0026  1.0000  -9.3739   0.0000   0.0000   0.0000   0.2727
  17.500   1.5681   0.09893   0.09471  -0.0825  0.0026  1.0000  -9.3596   0.0000   0.0000   0.0000   0.2735
  17.600   1.5623   0.10144   0.09728  -0.0835  0.0026  1.0000  -9.3582   0.0000   0.0000   0.0000   0.2741
  17.700   1.5568   0.10391   0.09980  -0.0845  0.0026  1.0000  -9.3584   0.0000   0.0000   0.0000   0.2746
  17.800   1.5493   0.10684   0.10279  -0.0858  0.0026  1.0000  -9.3380   0.0000   0.0000   0.0000   0.2755
  17.900   1.5428   0.10957   0.10558  -0.0870  0.0027  1.0000  -9.3265   0.0000   0.0000   0.0000   0.2763
  18.000   1.5370   0.11217   0.10825  -0.0881  0.0027  1.0000  -9.3197   0.0000   0.0000   0.0000   0.2770
  18.100   1.5293   0.11521   0.11134  -0.0895  0.0027  1.0000  -9.2938   0.0000   0.0000   0.0000   0.2780
  18.200   1.5226   0.11807   0.11426  -0.0909  0.0027  1.0000  -9.2747   0.0000   0.0000   0.0000   0.2789
  18.300   1.5167   0.12074   0.11699  -0.0921  0.0027  1.0000  -9.2638   0.0000   0.0000   0.0000   0.2798
  18.400   1.5101   0.12361   0.11992  -0.0935  0.0027  1.0000  -9.2429   0.0000   0.0000   0.0000   0.2807
  18.500   1.5022   0.12677   0.12314  -0.0951  0.0027  1.0000  -9.2076   0.0000   0.0000   0.0000   0.2819
  18.600   1.4960   0.12959   0.12601  -0.0965  0.0027  1.0000  -9.1881   0.0000   0.0000   0.0000   0.2829
  18.700   1.4893   0.13251   0.12898  -0.0980  0.0027  1.0000  -9.1622   0.0000   0.0000   0.0000   0.2840
  18.800   1.4812   0.13579   0.13232  -0.0997  0.0027  1.0000  -9.1189   0.0000   0.0000   0.0000   0.2853
  18.900   1.4751   0.13863   0.13522  -0.1012  0.0027  1.0000  -9.0951   0.0000   0.0000   0.0000   0.2864
  19.000   1.4692   0.14142   0.13806  -0.1027  0.0027  1.0000  -9.0724   0.0000   0.0000   0.0000   0.2875
  19.100   1.4615   0.14470   0.14139  -0.1046  0.0027  1.0000  -9.0262   0.0000   0.0000   0.0000   0.2889
  19.200   1.4546   0.14779   0.14454  -0.1063  0.0027  1.0000  -8.9872   0.0000   0.0000   0.0000   0.2902
  19.300   1.4486   0.15067   0.14747  -0.1079  0.0027  1.0000  -8.9573   0.0000   0.0000   0.0000   0.2915
  19.400   1.4411   0.15394   0.15080  -0.1098  0.0027  1.0000  -8.9076   0.0000   0.0000   0.0000   0.2930
  19.500   1.4342   0.15710   0.15401  -0.1116  0.0027  1.0000  -8.8623   0.0000   0.0000   0.0000   0.2944
  19.600   1.4288   0.15993   0.15688  -0.1133  0.0027  1.0000  -8.8323   0.0000   0.0000   0.0000   0.2957
  19.700   1.4235   0.16274   0.15974  -0.1149  0.0027  1.0000  -8.8021   0.0000   0.0000   0.0000   0.2969
  19.800   1.4162   0.16598   0.16303  -0.1170  0.0027  1.0000  -8.7427   0.0000   0.0000   0.0000   0.2986
  19.900   1.4104   0.16879   0.16590  -0.1189  0.0027  1.0000  -8.6990   0.0000   0.0000   0.0000   0.3001
  20.000   1.4055   0.17141   0.16856  -0.1206  0.0028  1.0000  -8.6653   0.0000   0.0000   0.0000   0.3015
  20.100   1.3996   0.17433   0.17153  -0.1226  0.0028  1.0000  -8.6149   0.0000   0.0000   0.0000   0.3031
  20.200   1.3934   0.17740   0.17464  -0.1246  0.0028  1.0000  -8.5588   0.0000   0.0000   0.0000   0.3047
  20.300   1.3890   0.18008   0.17736  -0.1264  0.0028  1.0000  -8.5252   0.0000   0.0000   0.0000   0.3061
  20.400   1.3849   0.18273   0.18006  -0.1281  0.0028  1.0000  -8.4937   0.0000   0.0000   0.0000   0.3074
  20.500   1.3806   0.18548   0.18285  -0.1298  0.0028  1.0000  -8.4580   0.0000   0.0000   0.0000   0.3088
  20.600   1.3742   0.18888   0.18630  -0.1320  0.0028  1.0000  -8.3887   0.0000   0.0000   0.0000   0.3106
  20.700   1.3692   0.19193   0.18939  -0.1339  0.0028  1.0000  -8.3388   0.0000   0.0000   0.0000   0.3122
  20.800   1.3650   0.19483   0.19233  -0.1357  0.0028  1.0000  -8.2980   0.0000   0.0000   0.0000   0.3137
  20.900   1.3610   0.19773   0.19527  -0.1374  0.0028  1.0000  -8.2579   0.0000   0.0000   0.0000   0.3151
  21.000   1.3547   0.20136   0.19895  -0.1396  0.0028  1.0000  -8.1795   0.0000   0.0000   0.0000   0.3170
  21.100   1.3508   0.20435   0.20198  -0.1414  0.0028  1.0000  -8.1356   0.0000   0.0000   0.0000   0.3185
  21.200   1.3477   0.20713   0.20480  -0.1431  0.0028  1.0000  -8.1034   0.0000   0.0000   0.0000   0.3198
  21.300   1.3449   0.20987   0.20757  -0.1447  0.0029  1.0000  -8.0736   0.0000   0.0000   0.0000   0.3210
  21.400   1.3419   0.21269   0.21043  -0.1463  0.0029  1.0000  -8.0398   0.0000   0.0000   0.0000   0.3223
  21.500   1.3385   0.21567   0.21345  -0.1481  0.0029  1.0000  -7.9978   0.0000   0.0000   0.0000   0.3237
  21.600   1.3328   0.21947   0.21729  -0.1502  0.0029  1.0000  -7.9134   0.0000   0.0000   0.0000   0.3256
  21.700   1.3284   0.22293   0.22079  -0.1521  0.0029  1.0000  -7.8471   0.0000   0.0000   0.0000   0.3273
  21.800   1.3248   0.22616   0.22406  -0.1539  0.0029  1.0000  -7.7932   0.0000   0.0000   0.0000   0.3288
  21.900   1.3212   0.22943   0.22737  -0.1557  0.0029  1.0000  -7.7376   0.0000   0.0000   0.0000   0.3303
  22.000   1.3172   0.23290   0.23088  -0.1576  0.0029  1.0000  -7.6715   0.0000   0.0000   0.0000   0.3320
  22.100   1.3111   0.23722   0.23524  -0.1598  0.0030  1.0000  -7.5621   0.0000   0.0000   0.0000   0.3342
  22.200   1.3079   0.24051   0.23857  -0.1615  0.0030  1.0000  -7.5054   0.0000   0.0000   0.0000   0.3356
  22.300   1.3052   0.24367   0.24177  -0.1632  0.0030  1.0000  -7.4556   0.0000   0.0000   0.0000   0.3370
  22.400   1.3025   0.24689   0.24502  -0.1648  0.0030  1.0000  -7.4027   0.0000   0.0000   0.0000   0.3383
  22.500   1.2995   0.25023   0.24840  -0.1665  0.0030  1.0000  -7.3432   0.0000   0.0000   0.0000   0.3398
  22.600   1.2958   0.25393   0.25214  -0.1683  0.0030  1.0000  -7.2646   0.0000   0.0000   0.0000   0.3414
  22.700   1.2894   0.25881   0.25708  -0.1706  0.0031  1.0000  -7.1245   0.0000   0.0000   0.0000   0.3438
  22.800   1.2796   0.26528   0.26360  -0.1734  0.0031  1.0000  -6.9017   0.0000   0.0000   0.0000   0.3472
  22.900   1.2711   0.27142   0.26980  -0.1761  0.0031  1.0000  -6.6946   0.0000   0.0000   0.0000   0.3502
  23.000   1.2562   0.28081   0.27927  -0.1798  0.0032  1.0000  -6.3128   0.0000   0.0000   0.0000   0.3552
  24.100   0.9647   0.34523   0.34392  -0.1687  0.0096  1.0000  -1.6625   0.0000   0.0000   0.0000   0.3935
  24.200   0.9574   0.34453   0.34323  -0.1679  0.0096  1.0000  -1.6324   0.0000   0.0000   0.0000   0.3941
  24.300   0.9510   0.34400   0.34270  -0.1673  0.0095  1.0000  -1.6049   0.0000   0.0000   0.0000   0.3946
  24.400   0.9454   0.34359   0.34230  -0.1668  0.0095  1.0000  -1.5798   0.0000   0.0000   0.0000   0.3951
  24.500   0.9404   0.34330   0.34202  -0.1664  0.0095  1.0000  -1.5566   0.0000   0.0000   0.0000   0.3955
  24.600   0.9360   0.34311   0.34183  -0.1661  0.0095  1.0000  -1.5352   0.0000   0.0000   0.0000   0.3960
  24.700   0.9320   0.34300   0.34173  -0.1659  0.0095  1.0000  -1.5153   0.0000   0.0000   0.0000   0.3964
  24.800   0.9283   0.34296   0.34169  -0.1657  0.0094  1.0000  -1.4969   0.0000   0.0000   0.0000   0.3968
  24.900   0.9251   0.34301   0.34175  -0.1656  0.0094  1.0000  -1.4796   0.0000   0.0000   0.0000   0.3973
  25.000   0.9224   0.34316   0.34190  -0.1656  0.0093  1.0000  -1.4642   0.0000   0.0000   0.0000   0.3977
  25.100   0.9202   0.34352   0.34227  -0.1657  0.0092  1.0000  -1.4458   0.0000   0.0000   0.0000   0.3981
  25.200   0.9182   0.34438   0.34314  -0.1660  0.0089  1.0000  -1.4083   0.0000   0.0000   0.0000   0.3988
  25.300   0.9156   0.34496   0.34372  -0.1661  0.0085  1.0000  -1.3713   0.0000   0.0000   0.0000   0.3994
  25.400   0.9128   0.34524   0.34400  -0.1661  0.0082  1.0000  -1.3456   0.0000   0.0000   0.0000   0.3999
  25.500   0.9101   0.34542   0.34419  -0.1660  0.0079  1.0000  -1.3258   0.0000   0.0000   0.0000   0.4003
  25.600   0.9075   0.34554   0.34431  -0.1660  0.0077  1.0000  -1.3094   0.0000   0.0000   0.0000   0.4006
  25.700   0.9051   0.34570   0.34448  -0.1659  0.0075  1.0000  -1.2956   0.0000   0.0000   0.0000   0.4010
  25.800   0.9029   0.34587   0.34466  -0.1659  0.0074  1.0000  -1.2836   0.0000   0.0000   0.0000   0.4013
  25.900   0.9008   0.34603   0.34482  -0.1659  0.0072  1.0000  -1.2729   0.0000   0.0000   0.0000   0.4016
  26.000   0.8987   0.34619   0.34498  -0.1660  0.0071  1.0000  -1.2634   0.0000   0.0000   0.0000   0.4020
  26.100   0.8968   0.34636   0.34516  -0.1660  0.0069  1.0000  -1.2550   0.0000   0.0000   0.0000   0.4023
  26.200   0.8950   0.34653   0.34534  -0.1660  0.0068  1.0000  -1.2474   0.0000   0.0000   0.0000   0.4026
  26.300   0.8932   0.34672   0.34553  -0.1661  0.0067  1.0000  -1.2408   0.0000   0.0000   0.0000   0.4028
  26.400   0.8916   0.34692   0.34574  -0.1662  0.0065  1.0000  -1.2349   0.0000   0.0000   0.0000   0.4031
  26.500   0.8900   0.34711   0.34594  -0.1662  0.0064  1.0000  -1.2297   0.0000   0.0000   0.0000   0.4034
  26.600   0.8885   0.34731   0.34615  -0.1663  0.0063  1.0000  -1.2253   0.0000   0.0000   0.0000   0.4037
  26.700   0.8871   0.34752   0.34636  -0.1664  0.0062  1.0000  -1.2215   0.0000   0.0000   0.0000   0.4039
  26.800   0.8857   0.34774   0.34658  -0.1665  0.0061  1.0000  -1.2184   0.0000   0.0000   0.0000   0.4042
  26.900   0.8844   0.34796   0.34680  -0.1666  0.0060  1.0000  -1.2160   0.0000   0.0000   0.0000   0.4044
  27.000   0.8831   0.34818   0.34703  -0.1668  0.0059  1.0000  -1.2142   0.0000   0.0000   0.0000   0.4047
  27.100   0.8819   0.34840   0.34726  -0.1669  0.0059  1.0000  -1.2131   0.0000   0.0000   0.0000   0.4049
  27.200   0.8808   0.34863   0.34749  -0.1670  0.0058  1.0000  -1.2125   0.0000   0.0000   0.0000   0.4051
  27.300   0.8797   0.34886   0.34773  -0.1672  0.0057  1.0000  -1.2125   0.0000   0.0000   0.0000   0.4053
  27.400   0.8786   0.34910   0.34797  -0.1673  0.0056  1.0000  -1.2131   0.0000   0.0000   0.0000   0.4055
  27.500   0.8776   0.34932   0.34820  -0.1675  0.0056  1.0000  -1.2142   0.0000   0.0000   0.0000   0.4058
  27.600   0.8766   0.34956   0.34844  -0.1676  0.0055  1.0000  -1.2160   0.0000   0.0000   0.0000   0.4060
  27.700   0.8757   0.34979   0.34868  -0.1678  0.0054  1.0000  -1.2183   0.0000   0.0000   0.0000   0.4062
  27.800   0.8748   0.35003   0.34892  -0.1680  0.0054  1.0000  -1.2212   0.0000   0.0000   0.0000   0.4064
  27.900   0.8740   0.35026   0.34915  -0.1681  0.0053  1.0000  -1.2246   0.0000   0.0000   0.0000   0.4065
  28.000   0.8731   0.35049   0.34939  -0.1683  0.0053  1.0000  -1.2286   0.0000   0.0000   0.0000   0.4067
  28.100   0.8723   0.35072   0.34962  -0.1685  0.0052  1.0000  -1.2331   0.0000   0.0000   0.0000   0.4069
  28.200   0.8715   0.35094   0.34985  -0.1687  0.0052  1.0000  -1.2382   0.0000   0.0000   0.0000   0.4071
  28.300   0.8708   0.35116   0.35008  -0.1688  0.0051  1.0000  -1.2438   0.0000   0.0000   0.0000   0.4072
  28.400   0.8700   0.35138   0.35029  -0.1690  0.0051  1.0000  -1.2499   0.0000   0.0000   0.0000   0.4074
  28.500   0.8693   0.35157   0.35049  -0.1692  0.0050  1.0000  -1.2573   0.0000   0.0000   0.0000   0.4075
  28.600   0.8687   0.35175   0.35068  -0.1694  0.0050  1.0000  -1.2658   0.0000   0.0000   0.0000   0.4077
  28.700   0.8680   0.35194   0.35087  -0.1696  0.0049  1.0000  -1.2796   0.0000   0.0000   0.0000   0.4078
  28.800   0.8674   0.35208   0.35102  -0.1697  0.0049  1.0000  -1.2969   0.0000   0.0000   0.0000   0.4079
  28.900   0.8667   0.35219   0.35113  -0.1699  0.0048  1.0000  -1.3154   0.0000   0.0000   0.0000   0.4080
  29.000   0.8661   0.35226   0.35121  -0.1700  0.0048  1.0000  -1.3349   0.0000   0.0000   0.0000   0.4080
  29.100   0.8652   0.35231   0.35126  -0.1701  0.0047  1.0000  -1.3511   0.0000   0.0000   0.0000   0.4081
  29.200   0.8555   0.35238   0.35132  -0.1692  0.0044  1.0000  -1.2053   0.0000   0.0000   0.0000   0.4096
  29.300   0.8547   0.35283   0.35177  -0.1695  0.0043  1.0000  -1.2052   0.0000   0.0000   0.0000   0.4099
  29.400   0.8540   0.35327   0.35221  -0.1697  0.0043  1.0000  -1.2050   0.0000   0.0000   0.0000   0.4102
  29.500   0.8533   0.35371   0.35265  -0.1700  0.0043  1.0000  -1.2050   0.0000   0.0000   0.0000   0.4104
  29.600   0.8526   0.35414   0.35309  -0.1702  0.0043  1.0000  -1.2051   0.0000   0.0000   0.0000   0.4107
  29.700   0.8519   0.35457   0.35353  -0.1704  0.0043  1.0000  -1.2054   0.0000   0.0000   0.0000   0.4109
  29.800   0.8512   0.35500   0.35396  -0.1707  0.0043  1.0000  -1.2057   0.0000   0.0000   0.0000   0.4112


