xflr5 v6.61

 Calculated polar for: WORTMANN FX 60-126 AIRFOIL

 1 1 Reynolds number fixed          Mach number fixed         

 xtrf =   1.000 (top)        1.000 (bottom)
 Mach =   0.000     Re =     0.200 e 6     Ncrit =   9.000

  alpha     CL        CD       CDp       Cm    Top Xtr Bot Xtr   Cpmin    Chinge    XCp    
 ------- -------- --------- --------- -------- ------- ------- -------- --------- ---------
 -10.000  -0.3632   0.10011   0.09654  -0.0394  1.0000  0.0567  -1.7229   0.0000   0.0000   0.0000   0.1278
  -9.900  -0.3619   0.09874   0.09518  -0.0399  1.0000  0.0572  -1.7263   0.0000   0.0000   0.0000   0.1262
  -9.800  -0.3610   0.09733   0.09379  -0.0404  1.0000  0.0576  -1.7326   0.0000   0.0000   0.0000   0.1246
  -9.500  -0.4028   0.07765   0.07415  -0.0532  1.0000  0.0378  -2.5801   0.0000   0.0000   0.0000   0.1046
  -9.400  -0.4132   0.07407   0.07056  -0.0564  1.0000  0.0380  -2.6903   0.0000   0.0000   0.0000   0.1005
  -9.300  -0.4235   0.07130   0.06779  -0.0586  1.0000  0.0381  -2.7714   0.0000   0.0000   0.0000   0.0988
  -9.200  -0.4342   0.06911   0.06560  -0.0601  1.0000  0.0381  -2.8361   0.0000   0.0000   0.0000   0.0992
  -9.100  -0.4455   0.06741   0.06391  -0.0608  1.0000  0.0381  -2.8891   0.0000   0.0000   0.0000   0.1016
  -9.000  -0.4577   0.06618   0.06271  -0.0605  1.0000  0.0381  -2.9326   0.0000   0.0000   0.0000   0.1062
  -8.900  -0.4708   0.06536   0.06191  -0.0594  1.0000  0.0381  -2.9691   0.0000   0.0000   0.0000   0.1127
  -8.800  -0.4845   0.06477   0.06135  -0.0578  1.0000  0.0380  -3.0018   0.0000   0.0000   0.0000   0.1200
  -8.700  -0.4982   0.06417   0.06077  -0.0562  1.0000  0.0380  -3.0340   0.0000   0.0000   0.0000   0.1267
  -8.600  -0.5105   0.06320   0.05981  -0.0558  1.0000  0.0380  -3.0695   0.0000   0.0000   0.0000   0.1306
  -8.500  -0.5218   0.06207   0.05867  -0.0560  1.0000  0.0380  -3.1054   0.0000   0.0000   0.0000   0.1330
  -8.400  -0.5318   0.06080   0.05739  -0.0567  1.0000  0.0380  -3.1403   0.0000   0.0000   0.0000   0.1339
  -8.200  -0.5734   0.04252   0.03805  -0.0721  0.9959  0.0276  -3.9561   0.0000   0.0000   0.0000   0.1150
  -8.100  -0.5573   0.04218   0.03759  -0.0737  0.9940  0.0271  -3.8886   0.0000   0.0000   0.0000   0.1084
  -7.900  -0.5329   0.03795   0.03311  -0.0780  0.9909  0.0259  -3.8743   0.0000   0.0000   0.0000   0.0942
  -7.800  -0.5213   0.03541   0.03034  -0.0806  0.9889  0.0254  -3.8898   0.0000   0.0000   0.0000   0.0859
  -7.700  -0.5085   0.03332   0.02804  -0.0827  0.9869  0.0251  -3.8896   0.0000   0.0000   0.0000   0.0777
  -7.600  -0.4945   0.03148   0.02599  -0.0848  0.9853  0.0247  -3.8797   0.0000   0.0000   0.0000   0.0688
  -7.500  -0.4796   0.02985   0.02416  -0.0867  0.9840  0.0244  -3.8620   0.0000   0.0000   0.0000   0.0595
  -7.400  -0.4643   0.02841   0.02254  -0.0884  0.9830  0.0242  -3.8380   0.0000   0.0000   0.0000   0.0497
  -7.300  -0.4521   0.02726   0.02123  -0.0893  0.9809  0.0240  -3.8131   0.0000   0.0000   0.0000   0.0425
  -7.200  -0.4387   0.02619   0.02002  -0.0903  0.9792  0.0239  -3.7826   0.0000   0.0000   0.0000   0.0341
  -7.100  -0.4247   0.02520   0.01890  -0.0913  0.9777  0.0238  -3.7472   0.0000   0.0000   0.0000   0.0248
  -7.000  -0.4101   0.02429   0.01788  -0.0923  0.9765  0.0237  -3.7074   0.0000   0.0000   0.0000   0.0145
  -6.900  -0.3952   0.02345   0.01695  -0.0933  0.9754  0.0237  -3.6637   0.0000   0.0000   0.0000   0.0032
  -6.800  -0.3798   0.02267   0.01608  -0.0944  0.9744  0.0238  -3.6165   0.0000   0.0000   0.0000  -0.0094
  -6.700  -0.3639   0.02195   0.01529  -0.0956  0.9736  0.0240  -3.5659   0.0000   0.0000   0.0000  -0.0237
  -6.600  -0.3521   0.02137   0.01465  -0.0959  0.9710  0.0241  -3.5221   0.0000   0.0000   0.0000  -0.0335
  -6.500  -0.3383   0.02078   0.01401  -0.0966  0.9689  0.0244  -3.4727   0.0000   0.0000   0.0000  -0.0470
  -6.400  -0.3232   0.02021   0.01339  -0.0976  0.9671  0.0247  -3.4191   0.0000   0.0000   0.0000  -0.0637
  -6.300  -0.3069   0.01966   0.01279  -0.0988  0.9656  0.0252  -3.3625   0.0000   0.0000   0.0000  -0.0838
  -6.200  -0.2899   0.01914   0.01221  -0.1001  0.9643  0.0258  -3.3030   0.0000   0.0000   0.0000  -0.1077
  -6.100  -0.2723   0.01867   0.01164  -0.1016  0.9631  0.0264  -3.2350   0.0000   0.0000   0.0000  -0.1359
  -6.000  -0.2539   0.01779   0.01071  -0.1035  0.9622  0.0281  -3.2005   0.0000   0.0000   0.0000  -0.1711
  -5.900  -0.2412   0.01728   0.01018  -0.1042  0.9592  0.0305  -3.1564   0.0000   0.0000   0.0000  -0.1958
  -5.800  -0.2265   0.01689   0.00975  -0.1051  0.9567  0.0345  -3.1144   0.0000   0.0000   0.0000  -0.2280
  -5.700  -0.2089   0.01580   0.00880  -0.1069  0.9552  0.0602  -3.1586   0.0000   0.0000   0.0000  -0.2768
  -5.600  -0.1925   0.01530   0.00841  -0.1083  0.9537  0.0867  -3.1004   0.0000   0.0000   0.0000  -0.3286
  -5.500  -0.1763   0.01507   0.00819  -0.1095  0.9524  0.1030  -3.0057   0.0000   0.0000   0.0000  -0.3882
  -5.400  -0.1595   0.01474   0.00796  -0.1109  0.9513  0.1188  -2.9036   0.0000   0.0000   0.0000  -0.4638
  -5.300  -0.1424   0.01444   0.00777  -0.1124  0.9503  0.1450  -2.7959   0.0000   0.0000   0.0000  -0.5590
  -5.200  -0.1251   0.01400   0.00758  -0.1142  0.9495  0.1837  -2.6856   0.0000   0.0000   0.0000  -0.6849
  -5.100  -0.1077   0.01367   0.00743  -0.1158  0.9487  0.2246  -2.5754   0.0000   0.0000   0.0000  -0.8502
  -5.000  -0.0975   0.01353   0.00738  -0.1158  0.9452  0.2530  -2.4938   0.0000   0.0000   0.0000  -0.9640
  -4.900  -0.0846   0.01340   0.00733  -0.1163  0.9424  0.2777  -2.4012   0.0000   0.0000   0.0000  -1.1547
  -4.800  -0.0702   0.01329   0.00730  -0.1170  0.9403  0.2995  -2.3032   0.0000   0.0000   0.0000  -1.4522
  -4.700  -0.0550   0.01322   0.00722  -0.1178  0.9385  0.3148  -2.2037   0.0000   0.0000   0.0000  -1.9328
  -4.600  -0.0395   0.01316   0.00719  -0.1186  0.9370  0.3291  -2.1029   0.0000   0.0000   0.0000  -2.8088
  -4.500  -0.0234   0.01311   0.00709  -0.1195  0.9355  0.3409  -2.0017   0.0000   0.0000   0.0000  -4.9396
  -4.400  -0.0074   0.01304   0.00706  -0.1203  0.9342  0.3519  -1.9009   0.0000   0.0000   0.0000  -16.3248
  -4.300   0.0073   0.01301   0.00700  -0.1209  0.9322  0.3622  -1.8068   0.0000   0.0000   0.0000  17.0581
  -4.200   0.0165   0.01304   0.00696  -0.1204  0.9273  0.3696  -1.7346   0.0000   0.0000   0.0000   7.6900
  -4.100   0.0294   0.01297   0.00692  -0.1207  0.9242  0.3773  -1.6493   0.0000   0.0000   0.0000   4.4178
  -4.000   0.0434   0.01292   0.00684  -0.1210  0.9217  0.3855  -1.5649   0.0000   0.0000   0.0000   3.0813
  -3.900   0.0581   0.01288   0.00676  -0.1215  0.9196  0.3936  -1.4746   0.0000   0.0000   0.0000   2.3734
  -3.800   0.0730   0.01284   0.00665  -0.1221  0.9177  0.4007  -1.3851   0.0000   0.0000   0.0000   1.9457
  -3.700   0.0875   0.01276   0.00658  -0.1225  0.9160  0.4071  -1.2984   0.0000   0.0000   0.0000   1.6699
  -3.600   0.0962   0.01278   0.00662  -0.1220  0.9114  0.4123  -1.2324   0.0000   0.0000   0.0000   1.5356
  -3.500   0.1071   0.01278   0.00663  -0.1218  0.9078  0.4184  -1.1595   0.0000   0.0000   0.0000   1.4021
  -3.400   0.1195   0.01277   0.00659  -0.1219  0.9048  0.4247  -1.0835   0.0000   0.0000   0.0000   1.2835
  -3.300   0.1324   0.01276   0.00652  -0.1221  0.9024  0.4307  -1.0068   0.0000   0.0000   0.0000   1.1833
  -3.200   0.1456   0.01273   0.00644  -0.1223  0.9002  0.4363  -0.9308   0.0000   0.0000   0.0000   1.1000
  -3.100   0.1584   0.01265   0.00641  -0.1225  0.8982  0.4423  -0.8564   0.0000   0.0000   0.0000   1.0314
  -3.000   0.1706   0.01264   0.00642  -0.1224  0.8958  0.4481  -0.7854   0.0000   0.0000   0.0000   0.9754
  -2.900   0.1797   0.01269   0.00647  -0.1220  0.8910  0.4536  -0.7581   0.0000   0.0000   0.0000   0.9358
  -2.800   0.1907   0.01270   0.00646  -0.1218  0.8871  0.4595  -0.7312   0.0000   0.0000   0.0000   0.8949
  -2.700   0.2026   0.01270   0.00641  -0.1217  0.8838  0.4651  -0.7034   0.0000   0.0000   0.0000   0.8565
  -2.600   0.2147   0.01263   0.00633  -0.1217  0.8809  0.4704  -0.6755   0.0000   0.0000   0.0000   0.8218
  -2.500   0.2267   0.01255   0.00629  -0.1216  0.8783  0.4756  -0.6476   0.0000   0.0000   0.0000   0.7907
  -2.300   0.2481   0.01256   0.00630  -0.1210  0.8705  0.4851  -0.5961   0.0000   0.0000   0.0000   0.7415
  -2.200   0.2586   0.01256   0.00628  -0.1208  0.8660  0.4900  -0.5708   0.0000   0.0000   0.0000   0.7201
  -2.100   0.2701   0.01254   0.00623  -0.1206  0.8622  0.4950  -0.5631   0.0000   0.0000   0.0000   0.6994
  -2.000   0.2821   0.01254   0.00613  -0.1206  0.8589  0.4997  -0.5722   0.0000   0.0000   0.0000   0.6798
  -1.900   0.2936   0.01243   0.00604  -0.1204  0.8560  0.5049  -0.5811   0.0000   0.0000   0.0000   0.6622
  -1.800   0.3050   0.01240   0.00603  -0.1201  0.8533  0.5097  -0.5900   0.0000   0.0000   0.0000   0.6458
  -1.700   0.3145   0.01244   0.00609  -0.1198  0.8480  0.5142  -0.5975   0.0000   0.0000   0.0000   0.6324
  -1.600   0.3251   0.01245   0.00610  -0.1195  0.8434  0.5192  -0.6058   0.0000   0.0000   0.0000   0.6189
  -1.500   0.3362   0.01245   0.00608  -0.1193  0.8394  0.5243  -0.6144   0.0000   0.0000   0.0000   0.6059
  -1.400   0.3478   0.01244   0.00604  -0.1192  0.8359  0.5293  -0.6234   0.0000   0.0000   0.0000   0.5935
  -1.300   0.3596   0.01242   0.00596  -0.1191  0.8326  0.5336  -0.6324   0.0000   0.0000   0.0000   0.5818
  -1.200   0.3709   0.01233   0.00589  -0.1188  0.8295  0.5382  -0.6413   0.0000   0.0000   0.0000   0.5709
  -1.100   0.3806   0.01233   0.00593  -0.1185  0.8239  0.5421  -0.6490   0.0000   0.0000   0.0000   0.5617
  -1.000   0.3910   0.01232   0.00594  -0.1182  0.8188  0.5461  -0.6573   0.0000   0.0000   0.0000   0.5524
  -0.900   0.4020   0.01229   0.00590  -0.1180  0.8142  0.5501  -0.6660   0.0000   0.0000   0.0000   0.5434
  -0.800   0.4134   0.01226   0.00584  -0.1178  0.8101  0.5542  -0.6762   0.0000   0.0000   0.0000   0.5347
  -0.700   0.4250   0.01223   0.00577  -0.1177  0.8065  0.5583  -0.6870   0.0000   0.0000   0.0000   0.5265
  -0.600   0.4364   0.01224   0.00574  -0.1176  0.8022  0.5622  -0.6974   0.0000   0.0000   0.0000   0.5189
  -0.500   0.4472   0.01226   0.00574  -0.1175  0.7967  0.5656  -0.7074   0.0000   0.0000   0.0000   0.5120
  -0.400   0.4578   0.01216   0.00568  -0.1173  0.7917  0.5695  -0.7174   0.0000   0.0000   0.0000   0.5053
  -0.300   0.4686   0.01211   0.00565  -0.1170  0.7872  0.5732  -0.7276   0.0000   0.0000   0.0000   0.4988
  -0.200   0.4798   0.01209   0.00561  -0.1168  0.7832  0.5770  -0.7381   0.0000   0.0000   0.0000   0.4924
  -0.100   0.4912   0.01207   0.00557  -0.1167  0.7795  0.5809  -0.7489   0.0000   0.0000   0.0000   0.4863
   0.000   0.5022   0.01208   0.00558  -0.1165  0.7749  0.5849  -0.7591   0.0000   0.0000   0.0000   0.4807
   0.100   0.5129   0.01208   0.00558  -0.1164  0.7690  0.5889  -0.7692   0.0000   0.0000   0.0000   0.4754
   0.200   0.5240   0.01206   0.00555  -0.1163  0.7633  0.5926  -0.7796   0.0000   0.0000   0.0000   0.4703
   0.300   0.5354   0.01205   0.00549  -0.1162  0.7582  0.5960  -0.7903   0.0000   0.0000   0.0000   0.4653
   0.400   0.5468   0.01199   0.00540  -0.1161  0.7535  0.5994  -0.8011   0.0000   0.0000   0.0000   0.4604
   0.500   0.5580   0.01195   0.00534  -0.1159  0.7490  0.6029  -0.8117   0.0000   0.0000   0.0000   0.4557
   0.600   0.5683   0.01193   0.00537  -0.1157  0.7428  0.6064  -0.8233   0.0000   0.0000   0.0000   0.4515
   0.700   0.5790   0.01191   0.00538  -0.1155  0.7368  0.6103  -0.8357   0.0000   0.0000   0.0000   0.4473
   0.800   0.5899   0.01190   0.00536  -0.1153  0.7313  0.6145  -0.8483   0.0000   0.0000   0.0000   0.4431
   0.900   0.6012   0.01189   0.00531  -0.1151  0.7262  0.6191  -0.8612   0.0000   0.0000   0.0000   0.4391
   1.000   0.6127   0.01192   0.00526  -0.1150  0.7214  0.6237  -0.8744   0.0000   0.0000   0.0000   0.4352
   1.100   0.6236   0.01194   0.00530  -0.1150  0.7151  0.6279  -0.8879   0.0000   0.0000   0.0000   0.4317
   1.200   0.6343   0.01190   0.00528  -0.1148  0.7083  0.6320  -0.9032   0.0000   0.0000   0.0000   0.4282
   1.300   0.6448   0.01185   0.00524  -0.1145  0.7018  0.6361  -0.9204   0.0000   0.0000   0.0000   0.4247
   1.400   0.6556   0.01184   0.00519  -0.1143  0.6956  0.6403  -0.9399   0.0000   0.0000   0.0000   0.4213
   1.500   0.6665   0.01185   0.00517  -0.1140  0.6893  0.6445  -0.9595   0.0000   0.0000   0.0000   0.4180
   1.600   0.6770   0.01185   0.00519  -0.1139  0.6818  0.6489  -0.9786   0.0000   0.0000   0.0000   0.4150
   1.700   0.6878   0.01185   0.00517  -0.1137  0.6742  0.6532  -0.9983   0.0000   0.0000   0.0000   0.4120
   1.800   0.6989   0.01187   0.00512  -0.1135  0.6672  0.6575  -1.0183   0.0000   0.0000   0.0000   0.4090
   1.900   0.7101   0.01191   0.00508  -0.1134  0.6606  0.6615  -1.0386   0.0000   0.0000   0.0000   0.4062
   2.000   0.7203   0.01187   0.00511  -0.1132  0.6534  0.6657  -1.0578   0.0000   0.0000   0.0000   0.4035
   2.100   0.7308   0.01186   0.00512  -0.1130  0.6460  0.6700  -1.0773   0.0000   0.0000   0.0000   0.4009
   2.200   0.7414   0.01188   0.00513  -0.1128  0.6393  0.6745  -1.0972   0.0000   0.0000   0.0000   0.3983
   2.300   0.7523   0.01192   0.00516  -0.1126  0.6335  0.6793  -1.1173   0.0000   0.0000   0.0000   0.3957
   2.400   0.7633   0.01198   0.00518  -0.1125  0.6282  0.6843  -1.1376   0.0000   0.0000   0.0000   0.3934
   2.500   0.7744   0.01201   0.00524  -0.1125  0.6225  0.6893  -1.1579   0.0000   0.0000   0.0000   0.3911
   2.600   0.7852   0.01202   0.00527  -0.1124  0.6166  0.6941  -1.1780   0.0000   0.0000   0.0000   0.3889
   2.700   0.7956   0.01203   0.00530  -0.1122  0.6109  0.6989  -1.1979   0.0000   0.0000   0.0000   0.3866
   2.800   0.8060   0.01206   0.00532  -0.1120  0.6054  0.7042  -1.2180   0.0000   0.0000   0.0000   0.3844
   2.900   0.8167   0.01213   0.00535  -0.1118  0.6001  0.7101  -1.2384   0.0000   0.0000   0.0000   0.3823
   3.000   0.8276   0.01219   0.00540  -0.1117  0.5947  0.7163  -1.2589   0.0000   0.0000   0.0000   0.3803
   3.100   0.8383   0.01221   0.00546  -0.1116  0.5886  0.7225  -1.2793   0.0000   0.0000   0.0000   0.3783
   3.200   0.8484   0.01222   0.00551  -0.1113  0.5821  0.7286  -1.2993   0.0000   0.0000   0.0000   0.3763
   3.300   0.8585   0.01225   0.00554  -0.1110  0.5756  0.7355  -1.3194   0.0000   0.0000   0.0000   0.3743
   3.400   0.8689   0.01232   0.00557  -0.1108  0.5692  0.7432  -1.3400   0.0000   0.0000   0.0000   0.3724
   3.500   0.8796   0.01240   0.00562  -0.1107  0.5629  0.7509  -1.3607   0.0000   0.0000   0.0000   0.3706
   3.600   0.8894   0.01238   0.00568  -0.1103  0.5564  0.7582  -1.3856   0.0000   0.0000   0.0000   0.3687
   3.700   0.8994   0.01240   0.00573  -0.1100  0.5494  0.7663  -1.4119   0.0000   0.0000   0.0000   0.3669
   3.800   0.9097   0.01246   0.00577  -0.1098  0.5427  0.7751  -1.4388   0.0000   0.0000   0.0000   0.3652
   3.900   0.9194   0.01252   0.00580  -0.1095  0.5364  0.7833  -1.4650   0.0000   0.0000   0.0000   0.3634
   4.000   0.9291   0.01256   0.00586  -0.1091  0.5305  0.7928  -1.4912   0.0000   0.0000   0.0000   0.3617
   4.100   0.9394   0.01257   0.00593  -0.1089  0.5243  0.8038  -1.5181   0.0000   0.0000   0.0000   0.3601
   4.200   0.9486   0.01257   0.00604  -0.1085  0.5177  0.8151  -1.5439   0.0000   0.0000   0.0000   0.3583
   4.300   0.9581   0.01259   0.00609  -0.1081  0.5114  0.8294  -1.5701   0.0000   0.0000   0.0000   0.3567
   4.400   0.9663   0.01260   0.00611  -0.1073  0.5056  0.8469  -1.5949   0.0000   0.0000   0.0000   0.3549
   4.600   0.9811   0.01244   0.00610  -0.1055  0.4947  1.0000  -1.6425   0.0000   0.0000   0.0000   0.3511
   4.700   0.9931   0.01253   0.00619  -0.1058  0.4880  1.0000  -1.6724   0.0000   0.0000   0.0000   0.3499
   4.800   1.0047   0.01264   0.00626  -0.1060  0.4814  1.0000  -1.7018   0.0000   0.0000   0.0000   0.3488
   4.900   1.0158   0.01277   0.00633  -0.1060  0.4749  1.0000  -1.7309   0.0000   0.0000   0.0000   0.3476
   5.000   1.0267   0.01293   0.00641  -0.1060  0.4686  1.0000  -1.7635   0.0000   0.0000   0.0000   0.3464
   5.100   1.0379   0.01302   0.00652  -0.1061  0.4628  1.0000  -1.8036   0.0000   0.0000   0.0000   0.3452
   5.200   1.0489   0.01311   0.00662  -0.1061  0.4561  1.0000  -1.8437   0.0000   0.0000   0.0000   0.3440
   5.300   1.0595   0.01322   0.00672  -0.1061  0.4489  1.0000  -1.8835   0.0000   0.0000   0.0000   0.3429
   5.400   1.0699   0.01336   0.00681  -0.1060  0.4416  1.0000  -1.9230   0.0000   0.0000   0.0000   0.3417
   5.500   1.0799   0.01353   0.00691  -0.1058  0.4346  1.0000  -1.9623   0.0000   0.0000   0.0000   0.3405
   5.600   1.0907   0.01362   0.00703  -0.1058  0.4281  1.0000  -2.0030   0.0000   0.0000   0.0000   0.3393
   5.700   1.1011   0.01373   0.00714  -0.1057  0.4209  1.0000  -2.0433   0.0000   0.0000   0.0000   0.3382
   5.800   1.1112   0.01387   0.00725  -0.1055  0.4135  1.0000  -2.0833   0.0000   0.0000   0.0000   0.3371
   5.900   1.1209   0.01405   0.00736  -0.1053  0.4062  1.0000  -2.1228   0.0000   0.0000   0.0000   0.3359
   6.000   1.1310   0.01419   0.00755  -0.1052  0.3994  1.0000  -2.1629   0.0000   0.0000   0.0000   0.3348
   6.100   1.1414   0.01430   0.00768  -0.1051  0.3919  1.0000  -2.2039   0.0000   0.0000   0.0000   0.3338
   6.200   1.1513   0.01444   0.00782  -0.1049  0.3837  1.0000  -2.2443   0.0000   0.0000   0.0000   0.3327
   6.300   1.1607   0.01463   0.00795  -0.1046  0.3754  1.0000  -2.2854   0.0000   0.0000   0.0000   0.3316
   6.400   1.1702   0.01481   0.00810  -0.1044  0.3678  1.0000  -2.3324   0.0000   0.0000   0.0000   0.3305
   6.500   1.1802   0.01494   0.00825  -0.1042  0.3597  1.0000  -2.3807   0.0000   0.0000   0.0000   0.3295
   6.600   1.1895   0.01513   0.00840  -0.1039  0.3510  1.0000  -2.4277   0.0000   0.0000   0.0000   0.3285
   6.700   1.1982   0.01536   0.00856  -0.1036  0.3423  1.0000  -2.4735   0.0000   0.0000   0.0000   0.3274
   6.800   1.2078   0.01553   0.00874  -0.1034  0.3342  1.0000  -2.5215   0.0000   0.0000   0.0000   0.3264
   6.900   1.2173   0.01569   0.00891  -0.1031  0.3246  1.0000  -2.5698   0.0000   0.0000   0.0000   0.3254
   7.000   1.2259   0.01593   0.00909  -0.1028  0.3145  1.0000  -2.6159   0.0000   0.0000   0.0000   0.3244
   7.100   1.2344   0.01618   0.00929  -0.1024  0.3050  1.0000  -2.6620   0.0000   0.0000   0.0000   0.3234
   7.200   1.2432   0.01639   0.00949  -0.1021  0.2942  1.0000  -2.7093   0.0000   0.0000   0.0000   0.3224
   7.300   1.2506   0.01671   0.00971  -0.1016  0.2831  1.0000  -2.7533   0.0000   0.0000   0.0000   0.3214
   7.400   1.2591   0.01695   0.00993  -0.1012  0.2723  1.0000  -2.8000   0.0000   0.0000   0.0000   0.3204
   7.500   1.2673   0.01721   0.01016  -0.1008  0.2595  1.0000  -2.8461   0.0000   0.0000   0.0000   0.3194
   7.600   1.2743   0.01756   0.01042  -0.1003  0.2477  1.0000  -2.8894   0.0000   0.0000   0.0000   0.3184
   7.700   1.2821   0.01785   0.01067  -0.0999  0.2363  1.0000  -2.9350   0.0000   0.0000   0.0000   0.3175
   7.800   1.2884   0.01826   0.01097  -0.0993  0.2253  1.0000  -2.9769   0.0000   0.0000   0.0000   0.3165
   7.900   1.2965   0.01854   0.01124  -0.0989  0.2155  1.0000  -3.0230   0.0000   0.0000   0.0000   0.3155
   8.000   1.3040   0.01885   0.01152  -0.0984  0.2052  1.0000  -3.0679   0.0000   0.0000   0.0000   0.3146
   8.100   1.3100   0.01929   0.01186  -0.0977  0.1959  1.0000  -3.1088   0.0000   0.0000   0.0000   0.3136
   8.200   1.3178   0.01958   0.01222  -0.0973  0.1885  1.0000  -3.1544   0.0000   0.0000   0.0000   0.3127
   8.300   1.3246   0.01995   0.01254  -0.0968  0.1812  1.0000  -3.1975   0.0000   0.0000   0.0000   0.3118
   8.400   1.3301   0.02041   0.01292  -0.0960  0.1741  1.0000  -3.2373   0.0000   0.0000   0.0000   0.3108
   8.500   1.3368   0.02078   0.01327  -0.0955  0.1679  1.0000  -3.2799   0.0000   0.0000   0.0000   0.3098
   8.600   1.3448   0.02104   0.01358  -0.0950  0.1622  1.0000  -3.3264   0.0000   0.0000   0.0000   0.3090
   8.700   1.3515   0.02139   0.01392  -0.0945  0.1562  1.0000  -3.3697   0.0000   0.0000   0.0000   0.3080
   8.800   1.3568   0.02184   0.01431  -0.0938  0.1506  1.0000  -3.4096   0.0000   0.0000   0.0000   0.3071
   8.900   1.3618   0.02231   0.01474  -0.0930  0.1454  1.0000  -3.4478   0.0000   0.0000   0.0000   0.3061
   9.000   1.3692   0.02259   0.01506  -0.0925  0.1412  1.0000  -3.4932   0.0000   0.0000   0.0000   0.3052
   9.100   1.3754   0.02295   0.01542  -0.0919  0.1369  1.0000  -3.5356   0.0000   0.0000   0.0000   0.3043
   9.200   1.3803   0.02337   0.01581  -0.0911  0.1327  1.0000  -3.5747   0.0000   0.0000   0.0000   0.3034
   9.300   1.3834   0.02387   0.01626  -0.0900  0.1285  1.0000  -3.6084   0.0000   0.0000   0.0000   0.3023
   9.400   1.3851   0.02455   0.01687  -0.0888  0.1240  1.0000  -3.6358   0.0000   0.0000   0.0000   0.3012
   9.500   1.3925   0.02476   0.01716  -0.0883  0.1215  1.0000  -3.6814   0.0000   0.0000   0.0000   0.3004
   9.600   1.3988   0.02506   0.01752  -0.0877  0.1184  1.0000  -3.7236   0.0000   0.0000   0.0000   0.2995
   9.700   1.4044   0.02541   0.01791  -0.0870  0.1152  1.0000  -3.7641   0.0000   0.0000   0.0000   0.2986
   9.800   1.4092   0.02582   0.01832  -0.0862  0.1122  1.0000  -3.8229   0.0000   0.0000   0.0000   0.2977
   9.900   1.4130   0.02629   0.01878  -0.0854  0.1094  1.0000  -3.8976   0.0000   0.0000   0.0000   0.2967
  10.000   1.4156   0.02686   0.01933  -0.0844  0.1067  1.0000  -3.9657   0.0000   0.0000   0.0000   0.2958
  10.100   1.4165   0.02762   0.02006  -0.0832  0.1038  1.0000  -4.0231   0.0000   0.0000   0.0000   0.2948
  10.200   1.4216   0.02804   0.02052  -0.0825  0.1020  1.0000  -4.1046   0.0000   0.0000   0.0000   0.2939
  10.300   1.4269   0.02842   0.02096  -0.0819  0.1001  1.0000  -4.1886   0.0000   0.0000   0.0000   0.2931
  10.400   1.4317   0.02885   0.02143  -0.0812  0.0981  1.0000  -4.2703   0.0000   0.0000   0.0000   0.2923
  10.500   1.4361   0.02931   0.02193  -0.0805  0.0961  1.0000  -4.3505   0.0000   0.0000   0.0000   0.2915
  10.600   1.4402   0.02980   0.02244  -0.0798  0.0941  1.0000  -4.4293   0.0000   0.0000   0.0000   0.2906
  10.700   1.4434   0.03035   0.02299  -0.0791  0.0922  1.0000  -4.5041   0.0000   0.0000   0.0000   0.2898
  10.800   1.4459   0.03097   0.02360  -0.0782  0.0903  1.0000  -4.5745   0.0000   0.0000   0.0000   0.2890
  10.900   1.4476   0.03170   0.02431  -0.0774  0.0883  1.0000  -4.6396   0.0000   0.0000   0.0000   0.2882
  11.000   1.4489   0.03260   0.02523  -0.0764  0.0858  1.0000  -4.6956   0.0000   0.0000   0.0000   0.2873
  11.100   1.4521   0.03336   0.02601  -0.0757  0.0838  1.0000  -4.7663   0.0000   0.0000   0.0000   0.2865
  11.200   1.4567   0.03376   0.02648  -0.0751  0.0827  1.0000  -4.8510   0.0000   0.0000   0.0000   0.2858
  11.300   1.4611   0.03420   0.02699  -0.0746  0.0812  1.0000  -4.9350   0.0000   0.0000   0.0000   0.2851
  11.400   1.4651   0.03469   0.02754  -0.0741  0.0795  1.0000  -5.0177   0.0000   0.0000   0.0000   0.2844
  11.500   1.4689   0.03520   0.02809  -0.0736  0.0777  1.0000  -5.1001   0.0000   0.0000   0.0000   0.2838
  11.600   1.4724   0.03572   0.02865  -0.0731  0.0758  1.0000  -5.1824   0.0000   0.0000   0.0000   0.2831
  11.700   1.4755   0.03628   0.02923  -0.0726  0.0741  1.0000  -5.2632   0.0000   0.0000   0.0000   0.2825
  11.800   1.4781   0.03688   0.02985  -0.0721  0.0724  1.0000  -5.3420   0.0000   0.0000   0.0000   0.2819
  11.900   1.4797   0.03759   0.03056  -0.0716  0.0708  1.0000  -5.4146   0.0000   0.0000   0.0000   0.2813
  12.000   1.4800   0.03847   0.03142  -0.0710  0.0691  1.0000  -5.4772   0.0000   0.0000   0.0000   0.2807
  12.100   1.4792   0.03957   0.03251  -0.0702  0.0673  1.0000  -5.5287   0.0000   0.0000   0.0000   0.2800
  12.200   1.4826   0.04018   0.03316  -0.0698  0.0662  1.0000  -5.6116   0.0000   0.0000   0.0000   0.2795
  12.300   1.4864   0.04073   0.03379  -0.0695  0.0651  1.0000  -5.6985   0.0000   0.0000   0.0000   0.2790
  12.400   1.4897   0.04136   0.03446  -0.0692  0.0638  1.0000  -5.7825   0.0000   0.0000   0.0000   0.2785
  12.500   1.4927   0.04202   0.03517  -0.0689  0.0625  1.0000  -5.8652   0.0000   0.0000   0.0000   0.2780
  12.600   1.4954   0.04271   0.03590  -0.0686  0.0613  1.0000  -5.9468   0.0000   0.0000   0.0000   0.2775
  12.700   1.4978   0.04345   0.03668  -0.0683  0.0602  1.0000  -6.0261   0.0000   0.0000   0.0000   0.2771
  12.800   1.4998   0.04425   0.03751  -0.0680  0.0591  1.0000  -6.1023   0.0000   0.0000   0.0000   0.2766
  12.900   1.5013   0.04510   0.03839  -0.0677  0.0581  1.0000  -6.1754   0.0000   0.0000   0.0000   0.2762
  13.000   1.5025   0.04601   0.03932  -0.0674  0.0572  1.0000  -6.2452   0.0000   0.0000   0.0000   0.2758
  13.100   1.5031   0.04699   0.04032  -0.0671  0.0565  1.0000  -6.3103   0.0000   0.0000   0.0000   0.2753
  13.200   1.5034   0.04802   0.04136  -0.0667  0.0557  1.0000  -6.3728   0.0000   0.0000   0.0000   0.2749
  13.300   1.5035   0.04906   0.04243  -0.0664  0.0549  1.0000  -6.4336   0.0000   0.0000   0.0000   0.2744
  13.400   1.5035   0.05012   0.04351  -0.0659  0.0541  1.0000  -6.4924   0.0000   0.0000   0.0000   0.2740
  13.500   1.5034   0.05122   0.04463  -0.0655  0.0532  1.0000  -6.5489   0.0000   0.0000   0.0000   0.2735
  13.600   1.5033   0.05234   0.04577  -0.0649  0.0522  1.0000  -6.6046   0.0000   0.0000   0.0000   0.2729
  13.700   1.5041   0.05340   0.04687  -0.0644  0.0515  1.0000  -6.6662   0.0000   0.0000   0.0000   0.2724
  13.800   1.5056   0.05432   0.04785  -0.0643  0.0512  1.0000  -6.7395   0.0000   0.0000   0.0000   0.2721
  13.900   1.5071   0.05527   0.04887  -0.0642  0.0508  1.0000  -6.8118   0.0000   0.0000   0.0000   0.2718
  14.000   1.5082   0.05626   0.04994  -0.0642  0.0503  1.0000  -6.8822   0.0000   0.0000   0.0000   0.2715
  14.100   1.5090   0.05731   0.05106  -0.0642  0.0498  1.0000  -6.9502   0.0000   0.0000   0.0000   0.2713
  14.200   1.5098   0.05838   0.05220  -0.0643  0.0491  1.0000  -7.0184   0.0000   0.0000   0.0000   0.2711
  14.300   1.5106   0.05945   0.05334  -0.0643  0.0484  1.0000  -7.0867   0.0000   0.0000   0.0000   0.2709
  14.400   1.5110   0.06060   0.05460  -0.0643  0.0478  1.0000  -7.1534   0.0000   0.0000   0.0000   0.2707
  14.500   1.5112   0.06179   0.05584  -0.0644  0.0471  1.0000  -7.2175   0.0000   0.0000   0.0000   0.2705
  14.600   1.5115   0.06298   0.05709  -0.0646  0.0463  1.0000  -7.2822   0.0000   0.0000   0.0000   0.2704
  14.700   1.5118   0.06418   0.05835  -0.0647  0.0455  1.0000  -7.3471   0.0000   0.0000   0.0000   0.2703
  14.800   1.5117   0.06546   0.05968  -0.0649  0.0448  1.0000  -7.4083   0.0000   0.0000   0.0000   0.2702
  14.900   1.5114   0.06677   0.06104  -0.0652  0.0442  1.0000  -7.4678   0.0000   0.0000   0.0000   0.2701
  15.000   1.5111   0.06809   0.06241  -0.0654  0.0436  1.0000  -7.5274   0.0000   0.0000   0.0000   0.2701
  15.100   1.5108   0.06942   0.06379  -0.0657  0.0430  1.0000  -7.5864   0.0000   0.0000   0.0000   0.2700
  15.200   1.5100   0.07086   0.06528  -0.0660  0.0424  1.0000  -7.6403   0.0000   0.0000   0.0000   0.2701
  15.300   1.5089   0.07235   0.06681  -0.0664  0.0419  1.0000  -7.6924   0.0000   0.0000   0.0000   0.2701
  15.400   1.5076   0.07386   0.06836  -0.0667  0.0413  1.0000  -7.7430   0.0000   0.0000   0.0000   0.2702
  15.500   1.5060   0.07543   0.06997  -0.0671  0.0408  1.0000  -7.7896   0.0000   0.0000   0.0000   0.2703
  15.600   1.5035   0.07714   0.07171  -0.0676  0.0403  1.0000  -7.8285   0.0000   0.0000   0.0000   0.2704
  15.700   1.5008   0.07887   0.07348  -0.0680  0.0397  1.0000  -7.8648   0.0000   0.0000   0.0000   0.2706
  15.800   1.4979   0.08060   0.07524  -0.0684  0.0391  1.0000  -7.8974   0.0000   0.0000   0.0000   0.2707
  15.900   1.4945   0.08233   0.07700  -0.0687  0.0385  1.0000  -7.9253   0.0000   0.0000   0.0000   0.2708
  16.000   1.4916   0.08406   0.07878  -0.0691  0.0380  1.0000  -7.9554   0.0000   0.0000   0.0000   0.2709
  16.100   1.4907   0.08566   0.08045  -0.0697  0.0377  1.0000  -8.0047   0.0000   0.0000   0.0000   0.2711
  16.200   1.4901   0.08724   0.08212  -0.0703  0.0373  1.0000  -8.0551   0.0000   0.0000   0.0000   0.2713
  16.300   1.4895   0.08883   0.08378  -0.0709  0.0369  1.0000  -8.1050   0.0000   0.0000   0.0000   0.2716
  16.400   1.4882   0.09054   0.08557  -0.0717  0.0364  1.0000  -8.1486   0.0000   0.0000   0.0000   0.2718
  16.500   1.4869   0.09230   0.08740  -0.0724  0.0358  1.0000  -8.1905   0.0000   0.0000   0.0000   0.2722
  16.600   1.4857   0.09403   0.08920  -0.0732  0.0351  1.0000  -8.2342   0.0000   0.0000   0.0000   0.2725
  16.700   1.4847   0.09576   0.09100  -0.0740  0.0344  1.0000  -8.2790   0.0000   0.0000   0.0000   0.2728
  16.800   1.4828   0.09766   0.09296  -0.0749  0.0336  1.0000  -8.3151   0.0000   0.0000   0.0000   0.2733
  16.900   1.4807   0.09962   0.09498  -0.0758  0.0328  1.0000  -8.3484   0.0000   0.0000   0.0000   0.2738
  17.000   1.4788   0.10157   0.09698  -0.0768  0.0320  1.0000  -8.3821   0.0000   0.0000   0.0000   0.2742
  17.100   1.4763   0.10362   0.09908  -0.0778  0.0312  1.0000  -8.4097   0.0000   0.0000   0.0000   0.2748
  17.200   1.4723   0.10595   0.10144  -0.0790  0.0305  1.0000  -8.4223   0.0000   0.0000   0.0000   0.2755
  17.300   1.4681   0.10832   0.10383  -0.0802  0.0297  1.0000  -8.4312   0.0000   0.0000   0.0000   0.2763
  17.400   1.4634   0.11077   0.10631  -0.0815  0.0289  1.0000  -8.4338   0.0000   0.0000   0.0000   0.2771
  17.500   1.4575   0.11345   0.10902  -0.0829  0.0282  1.0000  -8.4213   0.0000   0.0000   0.0000   0.2780
  17.600   1.4511   0.11619   0.11179  -0.0842  0.0275  1.0000  -8.4017   0.0000   0.0000   0.0000   0.2790
  17.700   1.4447   0.11886   0.11446  -0.0855  0.0265  1.0000  -8.3776   0.0000   0.0000   0.0000   0.2799
  17.800   1.4422   0.12111   0.11683  -0.0867  0.0258  1.0000  -8.3883   0.0000   0.0000   0.0000   0.2807
  17.900   1.4386   0.12357   0.11939  -0.0881  0.0249  1.0000  -8.3846   0.0000   0.0000   0.0000   0.2815
  18.000   1.4344   0.12609   0.12199  -0.0894  0.0237  1.0000  -8.3734   0.0000   0.0000   0.0000   0.2824
  18.100   1.4296   0.12872   0.12469  -0.0909  0.0225  1.0000  -8.3557   0.0000   0.0000   0.0000   0.2834
  18.200   1.4234   0.13166   0.12770  -0.0925  0.0217  1.0000  -8.3248   0.0000   0.0000   0.0000   0.2847
  18.300   1.4170   0.13463   0.13072  -0.0942  0.0209  1.0000  -8.2916   0.0000   0.0000   0.0000   0.2860
  18.400   1.4104   0.13765   0.13378  -0.0960  0.0203  1.0000  -8.2554   0.0000   0.0000   0.0000   0.2873
  18.500   1.4030   0.14088   0.13705  -0.0978  0.0198  1.0000  -8.2092   0.0000   0.0000   0.0000   0.2888
  18.600   1.3959   0.14407   0.14029  -0.0997  0.0194  1.0000  -8.1630   0.0000   0.0000   0.0000   0.2904
  18.700   1.3887   0.14728   0.14354  -0.1016  0.0190  1.0000  -8.1142   0.0000   0.0000   0.0000   0.2919
  18.800   1.3809   0.15066   0.14697  -0.1037  0.0187  1.0000  -8.0569   0.0000   0.0000   0.0000   0.2937
  18.900   1.3734   0.15402   0.15038  -0.1057  0.0184  1.0000  -7.9983   0.0000   0.0000   0.0000   0.2954
  19.000   1.3658   0.15739   0.15379  -0.1078  0.0181  1.0000  -7.9359   0.0000   0.0000   0.0000   0.2972
  19.100   1.3581   0.16076   0.15721  -0.1099  0.0178  1.0000  -7.8677   0.0000   0.0000   0.0000   0.2991
  19.200   1.3505   0.16404   0.16052  -0.1121  0.0174  1.0000  -7.7956   0.0000   0.0000   0.0000   0.3010
  19.300   1.3439   0.16714   0.16364  -0.1141  0.0170  1.0000  -7.7291   0.0000   0.0000   0.0000   0.3027
  19.400   1.3379   0.17028   0.16685  -0.1162  0.0168  1.0000  -7.6685   0.0000   0.0000   0.0000   0.3045
  19.500   1.3318   0.17347   0.17010  -0.1182  0.0165  1.0000  -7.6050   0.0000   0.0000   0.0000   0.3063
  19.600   1.3258   0.17668   0.17338  -0.1203  0.0162  1.0000  -7.5393   0.0000   0.0000   0.0000   0.3081
  19.700   1.3192   0.18017   0.17692  -0.1225  0.0161  1.0000  -7.4621   0.0000   0.0000   0.0000   0.3101
  19.800   1.3126   0.18368   0.18049  -0.1246  0.0158  1.0000  -7.3831   0.0000   0.0000   0.0000   0.3121
  19.900   1.3063   0.18722   0.18408  -0.1268  0.0156  1.0000  -7.3026   0.0000   0.0000   0.0000   0.3141
  20.000   1.2995   0.19099   0.18791  -0.1291  0.0154  1.0000  -7.2112   0.0000   0.0000   0.0000   0.3162
  20.100   1.2918   0.19506   0.19204  -0.1315  0.0153  1.0000  -7.1055   0.0000   0.0000   0.0000   0.3186
  20.200   1.2845   0.19919   0.19622  -0.1339  0.0152  1.0000  -6.9968   0.0000   0.0000   0.0000   0.3210
  20.300   1.2757   0.20385   0.20094  -0.1366  0.0152  1.0000  -6.8618   0.0000   0.0000   0.0000   0.3238
  20.400   1.2666   0.20872   0.20587  -0.1393  0.0152  1.0000  -6.7144   0.0000   0.0000   0.0000   0.3267
  20.500   1.2564   0.21416   0.21136  -0.1423  0.0152  1.0000  -6.5368   0.0000   0.0000   0.0000   0.3300
  20.600   1.2403   0.22184   0.21912  -0.1462  0.0156  1.0000  -6.2426   0.0000   0.0000   0.0000   0.3348
  20.700   1.2038   0.23806   0.23541  -0.1538  0.0163  1.0000  -5.4798   0.0000   0.0000   0.0000   0.3456
  20.800   1.1412   0.27290   0.27007  -0.1659  0.0145  1.0000  -3.6175   0.0000   0.0000   0.0000   0.3656
  20.900   1.1373   0.27858   0.27574  -0.1677  0.0140  1.0000  -3.4099   0.0000   0.0000   0.0000   0.3678
  21.000   1.1350   0.28330   0.28044  -0.1692  0.0138  1.0000  -3.2598   0.0000   0.0000   0.0000   0.3694
  21.100   1.1335   0.28755   0.28468  -0.1705  0.0137  1.0000  -3.1375   0.0000   0.0000   0.0000   0.3707
  21.200   1.1325   0.29152   0.28865  -0.1717  0.0136  1.0000  -3.0323   0.0000   0.0000   0.0000   0.3718
  21.300   1.1318   0.29530   0.29242  -0.1729  0.0136  1.0000  -2.9391   0.0000   0.0000   0.0000   0.3729
  21.400   1.1313   0.29895   0.29607  -0.1739  0.0137  1.0000  -2.8544   0.0000   0.0000   0.0000   0.3738
  21.500   1.1309   0.30254   0.29966  -0.1750  0.0139  1.0000  -2.7745   0.0000   0.0000   0.0000   0.3747
  21.600   1.1307   0.30597   0.30309  -0.1760  0.0141  1.0000  -2.7043   0.0000   0.0000   0.0000   0.3755
  21.700   1.1307   0.30925   0.30636  -0.1769  0.0143  1.0000  -2.6431   0.0000   0.0000   0.0000   0.3762
  21.800   1.1309   0.31237   0.30948  -0.1778  0.0146  1.0000  -2.5913   0.0000   0.0000   0.0000   0.3768
  21.900   1.1312   0.31532   0.31243  -0.1786  0.0148  1.0000  -2.5486   0.0000   0.0000   0.0000   0.3773
  22.000   1.1317   0.31810   0.31521  -0.1793  0.0151  1.0000  -2.5152   0.0000   0.0000   0.0000   0.3777
  22.100   1.1323   0.32071   0.31782  -0.1799  0.0154  1.0000  -2.4912   0.0000   0.0000   0.0000   0.3781
  22.200   1.1331   0.32314   0.32025  -0.1805  0.0157  1.0000  -2.4773   0.0000   0.0000   0.0000   0.3782
  22.300   1.1341   0.32539   0.32251  -0.1809  0.0160  1.0000  -2.4736   0.0000   0.0000   0.0000   0.3783
  22.400   1.1345   0.32765   0.32478  -0.1811  0.0166  1.0000  -2.4771   0.0000   0.0000   0.0000   0.3781
  22.700   1.1308   0.34376   0.34092  -0.1811  0.0263  1.0000  -2.1350   0.0000   0.0000   0.0000   0.3786
  22.800   1.1311   0.34638   0.34354  -0.1817  0.0263  1.0000  -2.1179   0.0000   0.0000   0.0000   0.3790
  22.900   1.1313   0.34898   0.34614  -0.1823  0.0263  1.0000  -2.1009   0.0000   0.0000   0.0000   0.3793
  23.000   1.1314   0.35155   0.34871  -0.1829  0.0263  1.0000  -2.0838   0.0000   0.0000   0.0000   0.3797
  23.100   1.1313   0.35410   0.35127  -0.1836  0.0263  1.0000  -2.0664   0.0000   0.0000   0.0000   0.3801
  23.200   1.1312   0.35662   0.35380  -0.1842  0.0262  1.0000  -2.0485   0.0000   0.0000   0.0000   0.3805
  23.300   1.1306   0.35918   0.35635  -0.1849  0.0262  1.0000  -2.0253   0.0000   0.0000   0.0000   0.3811
  23.400   1.1298   0.36170   0.35888  -0.1856  0.0261  1.0000  -2.0009   0.0000   0.0000   0.0000   0.3817
  23.500   1.1286   0.36423   0.36141  -0.1865  0.0261  1.0000  -1.9719   0.0000   0.0000   0.0000   0.3824
  23.600   1.1272   0.36674   0.36393  -0.1873  0.0260  1.0000  -1.9405   0.0000   0.0000   0.0000   0.3832
  23.700   1.1255   0.36925   0.36644  -0.1882  0.0259  1.0000  -1.9055   0.0000   0.0000   0.0000   0.3841
  23.800   1.1237   0.37180   0.36899  -0.1892  0.0256  1.0000  -1.8648   0.0000   0.0000   0.0000   0.3851
  23.900   1.1219   0.37446   0.37165  -0.1902  0.0253  1.0000  -1.8175   0.0000   0.0000   0.0000   0.3863
  24.000   1.1200   0.37712   0.37431  -0.1910  0.0247  1.0000  -1.7772   0.0000   0.0000   0.0000   0.3871
  24.100   1.1176   0.37960   0.37680  -0.1914  0.0242  1.0000  -1.7490   0.0000   0.0000   0.0000   0.3877
  24.200   1.1144   0.38191   0.37912  -0.1915  0.0238  1.0000  -1.7258   0.0000   0.0000   0.0000   0.3882
  24.300   1.1097   0.38402   0.38124  -0.1913  0.0235  1.0000  -1.7030   0.0000   0.0000   0.0000   0.3886
  24.400   1.1014   0.38571   0.38295  -0.1904  0.0232  1.0000  -1.6746   0.0000   0.0000   0.0000   0.3891
  24.700   0.9198   0.34497   0.34249  -0.1606  0.0243  1.0000  -1.2751   0.0000   0.0000   0.0000   0.3940
  24.800   0.9161   0.34501   0.34254  -0.1605  0.0239  1.0000  -1.2545   0.0000   0.0000   0.0000   0.3945
  24.900   0.9127   0.34502   0.34256  -0.1603  0.0235  1.0000  -1.2368   0.0000   0.0000   0.0000   0.3949
  25.000   0.9094   0.34500   0.34255  -0.1602  0.0232  1.0000  -1.2211   0.0000   0.0000   0.0000   0.3953
  25.100   0.9064   0.34505   0.34261  -0.1601  0.0229  1.0000  -1.2072   0.0000   0.0000   0.0000   0.3957
  25.200   0.9035   0.34508   0.34265  -0.1600  0.0226  1.0000  -1.1944   0.0000   0.0000   0.0000   0.3960
  25.300   0.9008   0.34512   0.34270  -0.1599  0.0223  1.0000  -1.1828   0.0000   0.0000   0.0000   0.3963
  25.400   0.8983   0.34517   0.34276  -0.1598  0.0220  1.0000  -1.1721   0.0000   0.0000   0.0000   0.3967
  25.500   0.8959   0.34524   0.34284  -0.1597  0.0218  1.0000  -1.1622   0.0000   0.0000   0.0000   0.3970
  25.600   0.8936   0.34532   0.34293  -0.1597  0.0215  1.0000  -1.1532   0.0000   0.0000   0.0000   0.3972
  25.700   0.8914   0.34541   0.34303  -0.1597  0.0213  1.0000  -1.1450   0.0000   0.0000   0.0000   0.3975
  25.800   0.8894   0.34551   0.34314  -0.1596  0.0210  1.0000  -1.1375   0.0000   0.0000   0.0000   0.3978
  25.900   0.8875   0.34562   0.34326  -0.1596  0.0208  1.0000  -1.1307   0.0000   0.0000   0.0000   0.3981
  26.000   0.8856   0.34573   0.34338  -0.1596  0.0206  1.0000  -1.1247   0.0000   0.0000   0.0000   0.3983
  26.100   0.8839   0.34585   0.34351  -0.1597  0.0203  1.0000  -1.1194   0.0000   0.0000   0.0000   0.3985
  26.200   0.8822   0.34597   0.34363  -0.1597  0.0201  1.0000  -1.1148   0.0000   0.0000   0.0000   0.3988
  26.300   0.8806   0.34609   0.34377  -0.1597  0.0199  1.0000  -1.1110   0.0000   0.0000   0.0000   0.3990
  26.400   0.8791   0.34622   0.34390  -0.1598  0.0197  1.0000  -1.1080   0.0000   0.0000   0.0000   0.3992
  26.500   0.8777   0.34634   0.34403  -0.1598  0.0195  1.0000  -1.1058   0.0000   0.0000   0.0000   0.3994
  26.600   0.8763   0.34646   0.34416  -0.1598  0.0193  1.0000  -1.1044   0.0000   0.0000   0.0000   0.3996
  26.700   0.8750   0.34657   0.34428  -0.1599  0.0192  1.0000  -1.1039   0.0000   0.0000   0.0000   0.3997
  26.800   0.8738   0.34668   0.34442  -0.1599  0.0190  1.0000  -1.1044   0.0000   0.0000   0.0000   0.3999
  26.900   0.8726   0.34676   0.34451  -0.1600  0.0188  1.0000  -1.1057   0.0000   0.0000   0.0000   0.4000
  27.000   0.8714   0.34683   0.34459  -0.1600  0.0186  1.0000  -1.1081   0.0000   0.0000   0.0000   0.4001
  27.100   0.8703   0.34692   0.34469  -0.1600  0.0185  1.0000  -1.1117   0.0000   0.0000   0.0000   0.4002
  27.200   0.8693   0.34696   0.34474  -0.1600  0.0183  1.0000  -1.1164   0.0000   0.0000   0.0000   0.4002
  27.300   0.8682   0.34697   0.34476  -0.1600  0.0182  1.0000  -1.1223   0.0000   0.0000   0.0000   0.4002
  27.400   0.8672   0.34696   0.34475  -0.1600  0.0181  1.0000  -1.1295   0.0000   0.0000   0.0000   0.4002
  27.500   0.8663   0.34691   0.34472  -0.1599  0.0179  1.0000  -1.1384   0.0000   0.0000   0.0000   0.4001
  27.600   0.8653   0.34684   0.34466  -0.1598  0.0178  1.0000  -1.1488   0.0000   0.0000   0.0000   0.4000
  27.700   0.8644   0.34677   0.34460  -0.1596  0.0176  1.0000  -1.1612   0.0000   0.0000   0.0000   0.3997
  27.800   0.8636   0.34672   0.34456  -0.1592  0.0175  1.0000  -1.1759   0.0000   0.0000   0.0000   0.3993
  27.900   0.8629   0.34693   0.34479  -0.1586  0.0173  1.0000  -1.1946   0.0000   0.0000   0.0000   0.3985
  28.000   0.8604   0.34821   0.34605  -0.1578  0.0171  1.0000  -1.1725   0.0000   0.0000   0.0000   0.3982
  28.100   0.8593   0.34854   0.34639  -0.1580  0.0171  1.0000  -1.1619   0.0000   0.0000   0.0000   0.3985
  28.200   0.8582   0.34887   0.34672  -0.1583  0.0171  1.0000  -1.1513   0.0000   0.0000   0.0000   0.3989
  28.300   0.8571   0.34919   0.34706  -0.1585  0.0171  1.0000  -1.1405   0.0000   0.0000   0.0000   0.3992
  28.400   0.8560   0.34952   0.34739  -0.1588  0.0171  1.0000  -1.1300   0.0000   0.0000   0.0000   0.3996
  28.500   0.8549   0.34987   0.34775  -0.1590  0.0170  1.0000  -1.1196   0.0000   0.0000   0.0000   0.3999
  28.600   0.8539   0.35021   0.34809  -0.1593  0.0170  1.0000  -1.1094   0.0000   0.0000   0.0000   0.4003
  28.700   0.8527   0.35052   0.34841  -0.1596  0.0170  1.0000  -1.0973   0.0000   0.0000   0.0000   0.4007
  28.800   0.8515   0.35083   0.34872  -0.1599  0.0170  1.0000  -1.0843   0.0000   0.0000   0.0000   0.4012
  28.900   0.8504   0.35114   0.34905  -0.1602  0.0170  1.0000  -1.0714   0.0000   0.0000   0.0000   0.4017
  29.000   0.8492   0.35147   0.34938  -0.1605  0.0170  1.0000  -1.0610   0.0000   0.0000   0.0000   0.4021
  29.100   0.8482   0.35182   0.34974  -0.1608  0.0170  1.0000  -1.0566   0.0000   0.0000   0.0000   0.4026
  29.200   0.8471   0.35218   0.35010  -0.1612  0.0169  1.0000  -1.0522   0.0000   0.0000   0.0000   0.4030
  29.300   0.8461   0.35255   0.35048  -0.1615  0.0169  1.0000  -1.0479   0.0000   0.0000   0.0000   0.4035
  29.400   0.8452   0.35294   0.35088  -0.1619  0.0169  1.0000  -1.0436   0.0000   0.0000   0.0000   0.4039
  29.500   0.8443   0.35335   0.35129  -0.1622  0.0169  1.0000  -1.0393   0.0000   0.0000   0.0000   0.4044
  29.600   0.8435   0.35378   0.35173  -0.1626  0.0169  1.0000  -1.0350   0.0000   0.0000   0.0000   0.4048
  29.700   0.8427   0.35422   0.35218  -0.1630  0.0168  1.0000  -1.0307   0.0000   0.0000   0.0000   0.4052
  29.800   0.8419   0.35469   0.35265  -0.1634  0.0168  1.0000  -1.0263   0.0000   0.0000   0.0000   0.4057
  29.900   0.8412   0.35518   0.35315  -0.1637  0.0168  1.0000  -1.0219   0.0000   0.0000   0.0000   0.4061
  30.000   0.8406   0.35570   0.35367  -0.1641  0.0167  1.0000  -1.0173   0.0000   0.0000   0.0000   0.4065


