xflr5 v6.61

 Calculated polar for: WORTMANN FX 049-915 AIRFOIL

 1 1 Reynolds number fixed          Mach number fixed         

 xtrf =   1.000 (top)        1.000 (bottom)
 Mach =   0.000     Re =     0.500 e 6     Ncrit =   9.000

  alpha     CL        CD       CDp       Cm    Top Xtr Bot Xtr   Cpmin    Chinge    XCp    
 ------- -------- --------- --------- -------- ------- ------- -------- --------- ---------
  -1.400   0.2183   0.03035   0.02481  -0.0488  0.4840  0.0775  -0.8880   0.0000   0.0000   0.0000   0.4777
  -1.300   0.2305   0.02933   0.02372  -0.0487  0.4832  0.0800  -0.9013   0.0000   0.0000   0.0000   0.4651
  -1.200   0.2437   0.02843   0.02275  -0.0488  0.4824  0.0821  -0.9158   0.0000   0.0000   0.0000   0.4534
  -1.100   0.2611   0.02710   0.02134  -0.0492  0.4811  0.0845  -0.9385   0.0000   0.0000   0.0000   0.4412
  -1.000   0.2784   0.02585   0.02002  -0.0497  0.4797  0.0868  -0.9644   0.0000   0.0000   0.0000   0.4307
  -0.900   0.2937   0.02487   0.01899  -0.0501  0.4785  0.0890  -0.9861   0.0000   0.0000   0.0000   0.4221
  -0.800   0.3080   0.02406   0.01812  -0.0504  0.4774  0.0911  -1.0054   0.0000   0.0000   0.0000   0.4147
  -0.700   0.3216   0.02335   0.01738  -0.0506  0.4764  0.0932  -1.0231   0.0000   0.0000   0.0000   0.4082
  -0.600   0.3346   0.02272   0.01671  -0.0508  0.4754  0.0954  -1.0395   0.0000   0.0000   0.0000   0.4024
  -0.500   0.3474   0.02216   0.01611  -0.0510  0.4744  0.0977  -1.0550   0.0000   0.0000   0.0000   0.3971
  -0.400   0.3598   0.02164   0.01556  -0.0512  0.4735  0.1002  -1.0697   0.0000   0.0000   0.0000   0.3923
  -0.300   0.3719   0.02117   0.01506  -0.0513  0.4727  0.1028  -1.0836   0.0000   0.0000   0.0000   0.3878
  -0.200   0.3838   0.02074   0.01461  -0.0515  0.4718  0.1057  -1.0968   0.0000   0.0000   0.0000   0.3837
   0.300   0.4394   0.01909   0.01287  -0.0518  0.4678  0.1239  -1.1540   0.0000   0.0000   0.0000   0.3666
   0.400   0.4500   0.01884   0.01260  -0.0519  0.4671  0.1283  -1.1641   0.0000   0.0000   0.0000   0.3637
   0.500   0.4605   0.01860   0.01236  -0.0519  0.4663  0.1327  -1.1739   0.0000   0.0000   0.0000   0.3610
   0.600   0.4709   0.01839   0.01215  -0.0519  0.4656  0.1369  -1.1835   0.0000   0.0000   0.0000   0.3583
   0.700   0.4812   0.01822   0.01198  -0.0518  0.4649  0.1405  -1.1928   0.0000   0.0000   0.0000   0.3558
   0.800   0.4915   0.01812   0.01188  -0.0519  0.4643  0.1436  -1.2019   0.0000   0.0000   0.0000   0.3534
   1.100   0.5216   0.01721   0.01084  -0.0516  0.4622  0.1695  -1.2282   0.0000   0.0000   0.0000   0.3464
   1.200   0.5321   0.01700   0.01058  -0.0514  0.4614  0.1748  -1.2373   0.0000   0.0000   0.0000   0.3441
   1.300   0.5431   0.01677   0.01031  -0.0514  0.4606  0.1785  -1.2474   0.0000   0.0000   0.0000   0.3419
   1.400   0.5545   0.01654   0.01002  -0.0513  0.4596  0.1807  -1.2583   0.0000   0.0000   0.0000   0.3398
   1.500   0.5660   0.01631   0.00973  -0.0513  0.4586  0.1791  -1.2695   0.0000   0.0000   0.0000   0.3377
   1.600   0.5780   0.01613   0.00949  -0.0514  0.4575  0.1690  -1.2811   0.0000   0.0000   0.0000   0.3359
   1.700   0.5901   0.01596   0.00928  -0.0515  0.4564  0.1601  -1.2938   0.0000   0.0000   0.0000   0.3341
   1.800   0.6023   0.01581   0.00910  -0.0516  0.4552  0.1520  -1.3066   0.0000   0.0000   0.0000   0.3324
   2.000   0.6283   0.01550   0.00848  -0.0516  0.4527  0.1347  -1.3325   0.0000   0.0000   0.0000   0.3286
   2.100   0.6418   0.01540   0.00833  -0.0516  0.4514  0.1163  -1.3458   0.0000   0.0000   0.0000   0.3268
   2.200   0.6538   0.01523   0.00803  -0.0517  0.4501  0.1027  -1.3583   0.0000   0.0000   0.0000   0.3252
   2.300   0.6653   0.01507   0.00780  -0.0517  0.4488  0.0962  -1.3706   0.0000   0.0000   0.0000   0.3239
   2.400   0.6769   0.01492   0.00761  -0.0519  0.4475  0.0917  -1.3831   0.0000   0.0000   0.0000   0.3226
   2.500   0.6884   0.01479   0.00744  -0.0520  0.4462  0.0882  -1.3955   0.0000   0.0000   0.0000   0.3214
   2.600   0.7000   0.01466   0.00728  -0.0521  0.4448  0.0852  -1.4079   0.0000   0.0000   0.0000   0.3202
   2.700   0.7114   0.01456   0.00714  -0.0522  0.4435  0.0825  -1.4201   0.0000   0.0000   0.0000   0.3190
   4.100   0.6686   0.02934   0.02255  -0.0308  0.4628  0.0717  -1.3459   0.0000   0.0000   0.0000   0.2905
   4.200   0.6701   0.02983   0.02303  -0.0298  0.4624  0.0711  -1.3469   0.0000   0.0000   0.0000   0.2887
   4.300   0.6712   0.03024   0.02344  -0.0286  0.4619  0.0706  -1.3480   0.0000   0.0000   0.0000   0.2868
   4.400   0.6720   0.03060   0.02378  -0.0273  0.4614  0.0701  -1.3492   0.0000   0.0000   0.0000   0.2847
   4.500   0.6732   0.03093   0.02411  -0.0261  0.4607  0.0697  -1.3507   0.0000   0.0000   0.0000   0.2827
   4.600   0.6750   0.03127   0.02444  -0.0250  0.4600  0.0693  -1.3527   0.0000   0.0000   0.0000   0.2808
   4.700   0.6773   0.03161   0.02476  -0.0240  0.4593  0.0689  -1.3552   0.0000   0.0000   0.0000   0.2790
   4.800   0.6803   0.03194   0.02509  -0.0231  0.4586  0.0686  -1.3582   0.0000   0.0000   0.0000   0.2774
   4.900   0.6837   0.03227   0.02541  -0.0223  0.4577  0.0683  -1.3615   0.0000   0.0000   0.0000   0.2759
   5.000   0.6874   0.03258   0.02569  -0.0216  0.4568  0.0680  -1.3651   0.0000   0.0000   0.0000   0.2745
   5.100   0.6913   0.03288   0.02598  -0.0209  0.4558  0.0680  -1.3689   0.0000   0.0000   0.0000   0.2732
   5.600   0.7145   0.03416   0.02729  -0.0180  0.4497  0.0686  -1.3914   0.0000   0.0000   0.0000   0.2675
   5.700   0.7202   0.03436   0.02748  -0.0176  0.4484  0.0695  -1.3970   0.0000   0.0000   0.0000   0.2665
   5.800   0.7264   0.03453   0.02766  -0.0171  0.4470  0.0712  -1.4030   0.0000   0.0000   0.0000   0.2655
   5.900   0.7330   0.03468   0.02781  -0.0167  0.4456  0.0748  -1.4095   0.0000   0.0000   0.0000   0.2646
   6.000   0.7396   0.03481   0.02796  -0.0163  0.4441  0.0787  -1.4159   0.0000   0.0000   0.0000   0.2637
   6.100   0.7445   0.03505   0.02822  -0.0159  0.4425  0.0816  -1.4204   0.0000   0.0000   0.0000   0.2628
   6.200   0.7485   0.03536   0.02855  -0.0153  0.4407  0.0840  -1.4233   0.0000   0.0000   0.0000   0.2618
   6.300   0.7524   0.03568   0.02888  -0.0148  0.4388  0.0864  -1.4259   0.0000   0.0000   0.0000   0.2608
   6.400   0.7571   0.03594   0.02916  -0.0143  0.4365  0.0889  -1.4290   0.0000   0.0000   0.0000   0.2599
   6.500   0.7634   0.03610   0.02934  -0.0139  0.4338  0.0916  -1.4338   0.0000   0.0000   0.0000   0.2591
   6.600   0.7724   0.03608   0.02934  -0.0138  0.4309  0.0949  -1.4417   0.0000   0.0000   0.0000   0.2586
   6.700   0.7837   0.03591   0.02918  -0.0137  0.4288  0.0990  -1.4534   0.0000   0.0000   0.0000   0.2581
   6.800   0.7955   0.03571   0.02900  -0.0138  0.4269  0.1035  -1.4659   0.0000   0.0000   0.0000   0.2578
   6.900   0.8075   0.03551   0.02880  -0.0138  0.4251  0.1083  -1.4786   0.0000   0.0000   0.0000   0.2574
   7.000   0.8197   0.03530   0.02861  -0.0138  0.4234  0.1128  -1.4915   0.0000   0.0000   0.0000   0.2571
   7.100   0.8321   0.03508   0.02840  -0.0139  0.4217  0.1172  -1.5046   0.0000   0.0000   0.0000   0.2568
   7.200   0.8447   0.03485   0.02820  -0.0140  0.4201  0.1205  -1.5179   0.0000   0.0000   0.0000   0.2565
   7.300   0.8573   0.03462   0.02799  -0.0141  0.4186  0.1237  -1.5313   0.0000   0.0000   0.0000   0.2562
   7.400   0.8700   0.03439   0.02778  -0.0141  0.4172  0.1269  -1.5448   0.0000   0.0000   0.0000   0.2559
   7.500   0.8828   0.03415   0.02756  -0.0142  0.4159  0.1302  -1.5584   0.0000   0.0000   0.0000   0.2557
   7.600   0.8955   0.03391   0.02735  -0.0143  0.4146  0.1335  -1.5721   0.0000   0.0000   0.0000   0.2554
   7.700   0.9082   0.03366   0.02713  -0.0144  0.4135  0.1369  -1.5858   0.0000   0.0000   0.0000   0.2551
   7.800   0.9209   0.03341   0.02691  -0.0144  0.4124  0.1403  -1.5994   0.0000   0.0000   0.0000   0.2548
   7.900   0.9336   0.03314   0.02668  -0.0145  0.4113  0.1437  -1.6131   0.0000   0.0000   0.0000   0.2545
   8.000   0.9463   0.03287   0.02645  -0.0146  0.4103  0.1473  -1.6268   0.0000   0.0000   0.0000   0.2542
   8.100   0.9534   0.03144   0.02644  -0.0139  0.4094  0.7496  -1.6365   0.0000   0.0000   0.0000   0.2532
   8.200   1.3959   0.01274   0.00701  -0.0776  0.3660  1.0000  -2.1586   0.0000   0.0000   0.0000   0.2935
   8.300   1.4048   0.01271   0.00689  -0.0772  0.3593  1.0000  -2.1914   0.0000   0.0000   0.0000   0.2927
   8.400   1.4126   0.01271   0.00675  -0.0767  0.3489  1.0000  -2.2226   0.0000   0.0000   0.0000   0.2919
   8.600   1.4043   0.01368   0.00702  -0.0718  0.2577  1.0000  -2.2455   0.0000   0.0000   0.0000   0.2883
   8.700   1.4009   0.01426   0.00742  -0.0696  0.2321  1.0000  -2.2573   0.0000   0.0000   0.0000   0.2868
   8.800   1.3957   0.01498   0.00797  -0.0672  0.2162  1.0000  -2.2660   0.0000   0.0000   0.0000   0.2851
   8.900   1.3892   0.01572   0.00858  -0.0646  0.2032  1.0000  -2.2724   0.0000   0.0000   0.0000   0.2833
   9.000   1.3824   0.01645   0.00919  -0.0620  0.1911  1.0000  -2.2781   0.0000   0.0000   0.0000   0.2815
   9.100   1.3754   0.01708   0.00975  -0.0593  0.1791  1.0000  -2.2836   0.0000   0.0000   0.0000   0.2796
   9.200   1.3686   0.01757   0.01022  -0.0566  0.1668  1.0000  -2.2894   0.0000   0.0000   0.0000   0.2777
   9.300   1.3643   0.01806   0.01068  -0.0545  0.1496  1.0000  -2.2993   0.0000   0.0000   0.0000   0.2761
   9.400   1.3607   0.01854   0.01113  -0.0526  0.1426  1.0000  -2.3103   0.0000   0.0000   0.0000   0.2746
   9.500   1.3569   0.01906   0.01164  -0.0508  0.1388  1.0000  -2.3209   0.0000   0.0000   0.0000   0.2733
   9.600   1.3576   0.01946   0.01205  -0.0497  0.1372  1.0000  -2.3392   0.0000   0.0000   0.0000   0.2723
   9.800   1.1478   0.04494   0.04056  -0.0483  0.3517  1.0000  -1.9403   0.0000   0.0000   0.0000   0.2772
   9.900   1.1264   0.04753   0.04316  -0.0474  0.3510  1.0000  -1.9124   0.0000   0.0000   0.0000   0.2770
  10.000   1.1107   0.04975   0.04539  -0.0468  0.3498  1.0000  -1.8951   0.0000   0.0000   0.0000   0.2768
  10.100   1.0978   0.05179   0.04744  -0.0463  0.3484  1.0000  -1.8830   0.0000   0.0000   0.0000   0.2766
  10.200   1.0890   0.05352   0.04918  -0.0460  0.3466  1.0000  -1.8788   0.0000   0.0000   0.0000   0.2764
  10.300   1.0815   0.05518   0.05085  -0.0457  0.3446  1.0000  -1.8767   0.0000   0.0000   0.0000   0.2762
  10.400   1.0745   0.05679   0.05247  -0.0454  0.3424  1.0000  -1.8757   0.0000   0.0000   0.0000   0.2761
  10.500   1.0684   0.05836   0.05404  -0.0452  0.3399  1.0000  -1.8762   0.0000   0.0000   0.0000   0.2759
  10.600   1.0629   0.05986   0.05555  -0.0450  0.3372  1.0000  -1.8779   0.0000   0.0000   0.0000   0.2757
  10.700   1.0579   0.06132   0.05701  -0.0448  0.3342  1.0000  -1.8806   0.0000   0.0000   0.0000   0.2756
  10.800   1.0535   0.06271   0.05841  -0.0447  0.3307  1.0000  -1.8842   0.0000   0.0000   0.0000   0.2754
  10.900   1.0495   0.06405   0.05975  -0.0446  0.3269  1.0000  -1.8887   0.0000   0.0000   0.0000   0.2752
  11.000   1.0458   0.06533   0.06103  -0.0444  0.3223  1.0000  -1.8939   0.0000   0.0000   0.0000   0.2750
  11.100   1.0424   0.06657   0.06226  -0.0443  0.3170  1.0000  -1.8997   0.0000   0.0000   0.0000   0.2748
  11.200   1.0391   0.06777   0.06345  -0.0442  0.3104  1.0000  -1.9057   0.0000   0.0000   0.0000   0.2746
  11.300   1.0357   0.06893   0.06460  -0.0441  0.3018  1.0000  -1.9115   0.0000   0.0000   0.0000   0.2744
  11.400   1.0319   0.07008   0.06571  -0.0440  0.2905  1.0000  -1.9168   0.0000   0.0000   0.0000   0.2742
  11.500   1.0274   0.07128   0.06685  -0.0439  0.2777  1.0000  -1.9205   0.0000   0.0000   0.0000   0.2740
  11.600   1.0216   0.07266   0.06816  -0.0438  0.2654  1.0000  -1.9209   0.0000   0.0000   0.0000   0.2740
  11.700   1.0162   0.07404   0.06949  -0.0437  0.2534  1.0000  -1.9219   0.0000   0.0000   0.0000   0.2739
  11.800   1.0172   0.07479   0.07020  -0.0437  0.2465  1.0000  -1.9365   0.0000   0.0000   0.0000   0.2736
  11.900   1.0196   0.07539   0.07075  -0.0436  0.2408  1.0000  -1.9544   0.0000   0.0000   0.0000   0.2732
  12.000   1.0213   0.07603   0.07131  -0.0435  0.2335  1.0000  -1.9709   0.0000   0.0000   0.0000   0.2728
  12.100   1.0221   0.07672   0.07189  -0.0434  0.2238  1.0000  -1.9857   0.0000   0.0000   0.0000   0.2724
  12.200   1.0208   0.07753   0.07251  -0.0432  0.2089  1.0000  -1.9963   0.0000   0.0000   0.0000   0.2721
  12.300   1.0199   0.07826   0.07305  -0.0430  0.1930  1.0000  -2.0079   0.0000   0.0000   0.0000   0.2717
  12.400   1.0209   0.07883   0.07345  -0.0428  0.1741  1.0000  -2.0235   0.0000   0.0000   0.0000   0.2713
  12.500   1.0253   0.07922   0.07376  -0.0427  0.1491  1.0000  -2.0457   0.0000   0.0000   0.0000   0.2708
  12.600   1.0292   0.07955   0.07404  -0.0426  0.1420  1.0000  -2.0672   0.0000   0.0000   0.0000   0.2703
  12.700   1.0329   0.07988   0.07431  -0.0424  0.1364  1.0000  -2.0885   0.0000   0.0000   0.0000   0.2698
  12.800   1.0370   0.08018   0.07457  -0.0423  0.1318  1.0000  -2.1107   0.0000   0.0000   0.0000   0.2692
  13.100   1.0308   0.08202   0.07566  -0.0414  0.0652  1.0000  -2.1387   0.0000   0.0000   0.0000   0.2680
  13.200   1.0355   0.08234   0.07594  -0.0413  0.0625  1.0000  -2.1623   0.0000   0.0000   0.0000   0.2675
  13.300   1.0401   0.08266   0.07623  -0.0412  0.0598  1.0000  -2.1860   0.0000   0.0000   0.0000   0.2670
  13.400   1.0446   0.08299   0.07652  -0.0411  0.0574  1.0000  -2.2095   0.0000   0.0000   0.0000   0.2665
  13.500   1.0492   0.08333   0.07681  -0.0410  0.0550  1.0000  -2.2334   0.0000   0.0000   0.0000   0.2661
  13.600   1.0537   0.08367   0.07709  -0.0409  0.0527  1.0000  -2.2573   0.0000   0.0000   0.0000   0.2656
  13.700   1.0583   0.08401   0.07738  -0.0408  0.0505  1.0000  -2.2816   0.0000   0.0000   0.0000   0.2651
  13.800   1.0629   0.08436   0.07768  -0.0407  0.0483  1.0000  -2.3062   0.0000   0.0000   0.0000   0.2646
  13.900   1.0678   0.08470   0.07796  -0.0406  0.0461  1.0000  -2.3316   0.0000   0.0000   0.0000   0.2642
  14.000   1.0729   0.08502   0.07824  -0.0406  0.0439  1.0000  -2.3578   0.0000   0.0000   0.0000   0.2637
  14.100   1.0782   0.08532   0.07850  -0.0405  0.0416  1.0000  -2.3850   0.0000   0.0000   0.0000   0.2632
  14.200   1.0839   0.08560   0.07874  -0.0404  0.0393  1.0000  -2.4134   0.0000   0.0000   0.0000   0.2628
  14.300   1.0899   0.08587   0.07899  -0.0404  0.0367  1.0000  -2.4429   0.0000   0.0000   0.0000   0.2623
  14.400   1.0959   0.08615   0.07924  -0.0403  0.0338  1.0000  -2.4744   0.0000   0.0000   0.0000   0.2618
  14.500   1.1020   0.08643   0.07951  -0.0403  0.0307  1.0000  -2.5484   0.0000   0.0000   0.0000   0.2613
  14.600   1.1081   0.08673   0.07980  -0.0402  0.0276  1.0000  -2.6219   0.0000   0.0000   0.0000   0.2609
  14.700   1.1142   0.08704   0.08009  -0.0402  0.0244  1.0000  -2.6945   0.0000   0.0000   0.0000   0.2604
  14.800   1.1204   0.08735   0.08039  -0.0401  0.0207  1.0000  -2.7634   0.0000   0.0000   0.0000   0.2599
  14.900   1.1257   0.08774   0.08079  -0.0399  0.0178  1.0000  -2.8163   0.0000   0.0000   0.0000   0.2593
  15.000   1.1309   0.08811   0.08121  -0.0398  0.0176  1.0000  -2.8779   0.0000   0.0000   0.0000   0.2588
  15.100   1.1358   0.08850   0.08166  -0.0396  0.0174  1.0000  -2.9354   0.0000   0.0000   0.0000   0.2583
  15.200   1.1406   0.08891   0.08215  -0.0394  0.0173  1.0000  -2.9882   0.0000   0.0000   0.0000   0.2577
  15.300   1.1449   0.08935   0.08270  -0.0392  0.0172  1.0000  -3.0351   0.0000   0.0000   0.0000   0.2571
  15.400   1.1489   0.08980   0.08328  -0.0389  0.0171  1.0000  -3.0771   0.0000   0.0000   0.0000   0.2565
  15.500   1.1526   0.09027   0.08390  -0.0386  0.0171  1.0000  -3.1137   0.0000   0.0000   0.0000   0.2558
  15.600   1.1558   0.09075   0.08455  -0.0382  0.0171  1.0000  -3.1435   0.0000   0.0000   0.0000   0.2551
  15.700   1.1582   0.09127   0.08527  -0.0377  0.0171  1.0000  -3.1640   0.0000   0.0000   0.0000   0.2544
  15.800   1.1592   0.09192   0.08614  -0.0371  0.0173  1.0000  -3.1696   0.0000   0.0000   0.0000   0.2536
  17.600   1.0746   0.13257   0.12815  -0.0485  0.0307  1.0000  -3.1722   0.0000   0.0000   0.0000   0.2633
  17.700   1.0753   0.13393   0.12969  -0.0483  0.0356  1.0000  -3.1759   0.0000   0.0000   0.0000   0.2628
  17.800   1.0703   0.13717   0.13343  -0.0472  0.0435  1.0000  -3.0482   0.0000   0.0000   0.0000   0.2620
  17.900   1.0622   0.14103   0.13749  -0.0475  0.0465  1.0000  -2.9660   0.0000   0.0000   0.0000   0.2625
  18.000   1.0539   0.14499   0.14156  -0.0480  0.0484  1.0000  -2.8992   0.0000   0.0000   0.0000   0.2633
  18.100   1.0455   0.14907   0.14572  -0.0488  0.0497  1.0000  -2.8400   0.0000   0.0000   0.0000   0.2644
  18.200   1.0371   0.15325   0.14997  -0.0498  0.0504  1.0000  -2.7859   0.0000   0.0000   0.0000   0.2657
  18.300   1.0286   0.15753   0.15429  -0.0509  0.0507  1.0000  -2.7360   0.0000   0.0000   0.0000   0.2671
  18.400   1.0202   0.16187   0.15866  -0.0522  0.0506  1.0000  -2.6907   0.0000   0.0000   0.0000   0.2688
  18.500   1.0118   0.16626   0.16307  -0.0538  0.0495  1.0000  -2.6576   0.0000   0.0000   0.0000   0.2708
  18.600   1.0034   0.17069   0.16750  -0.0553  0.0485  1.0000  -2.6211   0.0000   0.0000   0.0000   0.2728
  18.700   0.9949   0.17526   0.17208  -0.0566  0.0484  1.0000  -2.5713   0.0000   0.0000   0.0000   0.2745
  18.800   0.9864   0.18009   0.17693  -0.0577  0.0490  1.0000  -2.5075   0.0000   0.0000   0.0000   0.2762
  18.900   0.9778   0.18506   0.18191  -0.0588  0.0498  1.0000  -2.4391   0.0000   0.0000   0.0000   0.2778
  19.000   0.9692   0.19007   0.18692  -0.0599  0.0505  1.0000  -2.3703   0.0000   0.0000   0.0000   0.2795
  19.100   0.9605   0.19510   0.19196  -0.0609  0.0513  1.0000  -2.3013   0.0000   0.0000   0.0000   0.2813
  19.200   0.9518   0.20014   0.19700  -0.0620  0.0522  1.0000  -2.2318   0.0000   0.0000   0.0000   0.2831
  19.300   0.9431   0.20516   0.20204  -0.0631  0.0531  1.0000  -2.1619   0.0000   0.0000   0.0000   0.2849
  19.400   0.9342   0.21016   0.20704  -0.0641  0.0540  1.0000  -2.0915   0.0000   0.0000   0.0000   0.2867
  19.500   0.9252   0.21511   0.21200  -0.0650  0.0551  1.0000  -2.0210   0.0000   0.0000   0.0000   0.2885
  19.600   0.9160   0.21999   0.21689  -0.0659  0.0562  1.0000  -1.9504   0.0000   0.0000   0.0000   0.2902
  19.700   0.9066   0.22479   0.22169  -0.0667  0.0574  1.0000  -1.8797   0.0000   0.0000   0.0000   0.2920
  19.800   0.8968   0.22949   0.22640  -0.0674  0.0587  1.0000  -1.8090   0.0000   0.0000   0.0000   0.2937
  19.900   0.8865   0.23408   0.23100  -0.0680  0.0599  1.0000  -1.7379   0.0000   0.0000   0.0000   0.2954
  20.000   0.8757   0.23855   0.23548  -0.0685  0.0611  1.0000  -1.6657   0.0000   0.0000   0.0000   0.2970
  20.100   0.8641   0.24289   0.23983  -0.0688  0.0622  1.0000  -1.5919   0.0000   0.0000   0.0000   0.2986
  20.200   0.8515   0.24706   0.24401  -0.0690  0.0633  1.0000  -1.5157   0.0000   0.0000   0.0000   0.3002
  20.300   0.8378   0.25098   0.24795  -0.0690  0.0643  1.0000  -1.4369   0.0000   0.0000   0.0000   0.3017
  20.400   0.8234   0.25429   0.25126  -0.0686  0.0651  1.0000  -1.3603   0.0000   0.0000   0.0000   0.3030
  20.500   0.8085   0.25511   0.25209  -0.0674  0.0655  1.0000  -1.3013   0.0000   0.0000   0.0000   0.3033
  20.600   0.7949   0.25530   0.25228  -0.0660  0.0658  1.0000  -1.2520   0.0000   0.0000   0.0000   0.3032
  20.700   0.7833   0.25562   0.25261  -0.0648  0.0660  1.0000  -1.2101   0.0000   0.0000   0.0000   0.3031
  20.800   0.7736   0.25610   0.25310  -0.0640  0.0662  1.0000  -1.1738   0.0000   0.0000   0.0000   0.3032
  20.900   0.7654   0.25681   0.25381  -0.0637  0.0663  1.0000  -1.1396   0.0000   0.0000   0.0000   0.3039
  21.000   0.7590   0.25782   0.25485  -0.0643  0.0664  1.0000  -1.1065   0.0000   0.0000   0.0000   0.3056
  21.100   0.7543   0.25915   0.25620  -0.0658  0.0665  1.0000  -1.0746   0.0000   0.0000   0.0000   0.3083
  21.200   0.7514   0.26071   0.25779  -0.0679  0.0665  1.0000  -1.0450   0.0000   0.0000   0.0000   0.3116
  21.300   0.7498   0.26241   0.25953  -0.0705  0.0666  1.0000  -1.0181   0.0000   0.0000   0.0000   0.3153
  21.400   0.7499   0.26387   0.26102  -0.0729  0.0665  1.0000  -1.0009   0.0000   0.0000   0.0000   0.3186
  21.500   0.7512   0.26492   0.26210  -0.0750  0.0663  1.0000  -0.9953   0.0000   0.0000   0.0000   0.3212
  21.600   0.7536   0.26566   0.26286  -0.0767  0.0660  1.0000  -0.9986   0.0000   0.0000   0.0000   0.3231


