xflr5 v6.61

 Calculated polar for: WORTMANN FX 049-915 AIRFOIL

 1 1 Reynolds number fixed          Mach number fixed         

 xtrf =   1.000 (top)        1.000 (bottom)
 Mach =   0.000     Re =     0.400 e 6     Ncrit =   9.000

  alpha     CL        CD       CDp       Cm    Top Xtr Bot Xtr   Cpmin    Chinge    XCp    
 ------- -------- --------- --------- -------- ------- ------- -------- --------- ---------
  -0.900   0.1863   0.03817   0.03284  -0.0431  0.4889  0.1110  -0.8470   0.0000   0.0000   0.0000   0.4859
  -0.800   0.2084   0.03648   0.03106  -0.0438  0.4875  0.1140  -0.8716   0.0000   0.0000   0.0000   0.4638
  -0.700   0.2263   0.03527   0.02979  -0.0442  0.4863  0.1170  -0.8913   0.0000   0.0000   0.0000   0.4484
  -0.600   0.2423   0.03427   0.02873  -0.0445  0.4854  0.1200  -0.9089   0.0000   0.0000   0.0000   0.4361
  -0.500   0.2572   0.03341   0.02782  -0.0447  0.4844  0.1231  -0.9253   0.0000   0.0000   0.0000   0.4258
  -0.400   0.2715   0.03264   0.02700  -0.0449  0.4836  0.1264  -0.9410   0.0000   0.0000   0.0000   0.4169
  -0.300   0.2853   0.03194   0.02626  -0.0451  0.4827  0.1297  -0.9561   0.0000   0.0000   0.0000   0.4091
  -0.200   0.2988   0.03132   0.02559  -0.0452  0.4819  0.1331  -0.9707   0.0000   0.0000   0.0000   0.4021
  -0.100   0.3120   0.03076   0.02499  -0.0453  0.4811  0.1364  -0.9851   0.0000   0.0000   0.0000   0.3958
   0.000   0.3249   0.03028   0.02448  -0.0455  0.4803  0.1395  -0.9993   0.0000   0.0000   0.0000   0.3902
   0.100   0.3378   0.02991   0.02409  -0.0456  0.4795  0.1424  -1.0134   0.0000   0.0000   0.0000   0.3850
   0.200   0.3510   0.02992   0.02412  -0.0459  0.4787  0.1456  -1.0278   0.0000   0.0000   0.0000   0.3805
   0.600   0.3906   0.02666   0.02069  -0.0452  0.4758  0.2119  -1.0729   0.0000   0.0000   0.0000   0.3646
   0.700   0.4017   0.02620   0.02022  -0.0451  0.4751  0.2194  -1.0852   0.0000   0.0000   0.0000   0.3610
   0.800   0.4133   0.02575   0.01974  -0.0451  0.4743  0.2254  -1.0976   0.0000   0.0000   0.0000   0.3576
   0.900   0.4253   0.02530   0.01926  -0.0451  0.4735  0.2294  -1.1103   0.0000   0.0000   0.0000   0.3543
   1.000   0.4378   0.02487   0.01877  -0.0451  0.4727  0.2314  -1.1233   0.0000   0.0000   0.0000   0.3512
   1.100   0.4507   0.02447   0.01828  -0.0451  0.4718  0.2311  -1.1366   0.0000   0.0000   0.0000   0.3482
   1.200   0.4640   0.02408   0.01780  -0.0452  0.4710  0.2283  -1.1501   0.0000   0.0000   0.0000   0.3453
   1.300   0.4819   0.02366   0.01719  -0.0454  0.4698  0.1985  -1.1670   0.0000   0.0000   0.0000   0.3421
   1.400   0.4942   0.02333   0.01676  -0.0454  0.4690  0.1809  -1.1797   0.0000   0.0000   0.0000   0.3395
   1.500   0.5058   0.02311   0.01649  -0.0454  0.4682  0.1700  -1.1920   0.0000   0.0000   0.0000   0.3371
   1.600   0.5175   0.02294   0.01629  -0.0453  0.4673  0.1612  -1.2042   0.0000   0.0000   0.0000   0.3350
   1.700   0.5291   0.02281   0.01615  -0.0453  0.4665  0.1537  -1.2163   0.0000   0.0000   0.0000   0.3329
   1.900   0.5543   0.02230   0.01528  -0.0450  0.4646  0.1358  -1.2416   0.0000   0.0000   0.0000   0.3281
   2.000   0.5670   0.02213   0.01503  -0.0449  0.4637  0.1244  -1.2543   0.0000   0.0000   0.0000   0.3260
   2.100   0.5795   0.02197   0.01481  -0.0447  0.4627  0.1122  -1.2669   0.0000   0.0000   0.0000   0.3239
   2.200   0.5904   0.02182   0.01457  -0.0446  0.4619  0.1041  -1.2784   0.0000   0.0000   0.0000   0.3221
   2.300   0.6006   0.02170   0.01440  -0.0445  0.4610  0.0990  -1.2893   0.0000   0.0000   0.0000   0.3205
   2.400   0.6108   0.02161   0.01426  -0.0443  0.4602  0.0952  -1.3001   0.0000   0.0000   0.0000   0.3189
   2.500   0.6209   0.02154   0.01415  -0.0442  0.4594  0.0922  -1.3109   0.0000   0.0000   0.0000   0.3174
   2.600   0.6309   0.02148   0.01406  -0.0441  0.4586  0.0897  -1.3216   0.0000   0.0000   0.0000   0.3160
   2.700   0.6410   0.02143   0.01399  -0.0440  0.4578  0.0875  -1.3323   0.0000   0.0000   0.0000   0.3146
   2.800   0.6510   0.02139   0.01392  -0.0439  0.4571  0.0856  -1.3430   0.0000   0.0000   0.0000   0.3133
   2.900   0.6610   0.02136   0.01387  -0.0438  0.4563  0.0839  -1.3536   0.0000   0.0000   0.0000   0.3120
   3.000   0.6709   0.02133   0.01382  -0.0437  0.4555  0.0822  -1.3642   0.0000   0.0000   0.0000   0.3107
   3.100   0.6809   0.02130   0.01378  -0.0436  0.4547  0.0805  -1.3748   0.0000   0.0000   0.0000   0.3095
   3.700   0.6379   0.02951   0.02225  -0.0326  0.4628  0.0766  -1.3135   0.0000   0.0000   0.0000   0.2960
   3.800   0.6317   0.03055   0.02330  -0.0308  0.4631  0.0763  -1.3056   0.0000   0.0000   0.0000   0.2936
   3.900   0.6273   0.03134   0.02410  -0.0292  0.4629  0.0760  -1.3003   0.0000   0.0000   0.0000   0.2911
   4.000   0.6237   0.03192   0.02468  -0.0274  0.4626  0.0756  -1.2967   0.0000   0.0000   0.0000   0.2884
   4.100   0.6216   0.03246   0.02521  -0.0259  0.4621  0.0752  -1.2945   0.0000   0.0000   0.0000   0.2860
   4.200   0.6212   0.03299   0.02574  -0.0246  0.4615  0.0748  -1.2937   0.0000   0.0000   0.0000   0.2839
   4.300   0.6219   0.03349   0.02623  -0.0236  0.4608  0.0743  -1.2939   0.0000   0.0000   0.0000   0.2820
   4.400   0.6231   0.03395   0.02668  -0.0226  0.4600  0.0739  -1.2946   0.0000   0.0000   0.0000   0.2802
   4.500   0.6247   0.03438   0.02710  -0.0218  0.4590  0.0735  -1.2959   0.0000   0.0000   0.0000   0.2786
   4.600   0.6268   0.03477   0.02748  -0.0210  0.4580  0.0731  -1.2976   0.0000   0.0000   0.0000   0.2770
   4.700   0.6294   0.03514   0.02783  -0.0202  0.4569  0.0727  -1.2999   0.0000   0.0000   0.0000   0.2756
   4.800   0.6327   0.03547   0.02815  -0.0196  0.4557  0.0724  -1.3028   0.0000   0.0000   0.0000   0.2742
   4.900   0.6365   0.03578   0.02844  -0.0190  0.4545  0.0721  -1.3062   0.0000   0.0000   0.0000   0.2729
   5.000   0.6409   0.03606   0.02871  -0.0184  0.4533  0.0718  -1.3101   0.0000   0.0000   0.0000   0.2717
   5.100   0.6457   0.03631   0.02895  -0.0179  0.4520  0.0716  -1.3145   0.0000   0.0000   0.0000   0.2705
   5.200   0.6508   0.03654   0.02917  -0.0174  0.4506  0.0715  -1.3193   0.0000   0.0000   0.0000   0.2694
   5.300   0.6564   0.03675   0.02937  -0.0169  0.4492  0.0715  -1.3244   0.0000   0.0000   0.0000   0.2683
   5.400   0.6623   0.03693   0.02955  -0.0165  0.4477  0.0716  -1.3300   0.0000   0.0000   0.0000   0.2673
   5.500   0.6685   0.03709   0.02970  -0.0161  0.4462  0.0718  -1.3358   0.0000   0.0000   0.0000   0.2663
   5.600   0.6750   0.03724   0.02984  -0.0157  0.4445  0.0722  -1.3420   0.0000   0.0000   0.0000   0.2654
   5.700   0.6819   0.03736   0.02996  -0.0154  0.4428  0.0730  -1.3486   0.0000   0.0000   0.0000   0.2645
   5.800   0.6890   0.03746   0.03007  -0.0151  0.4409  0.0742  -1.3553   0.0000   0.0000   0.0000   0.2636
   5.900   0.6964   0.03754   0.03015  -0.0147  0.4390  0.0764  -1.3624   0.0000   0.0000   0.0000   0.2628
   6.000   0.7036   0.03763   0.03025  -0.0144  0.4370  0.0802  -1.3692   0.0000   0.0000   0.0000   0.2620
   6.100   0.7099   0.03777   0.03041  -0.0140  0.4347  0.0842  -1.3746   0.0000   0.0000   0.0000   0.2611
   6.200   0.7161   0.03793   0.03058  -0.0136  0.4321  0.0877  -1.3794   0.0000   0.0000   0.0000   0.2603
   6.300   0.7230   0.03805   0.03072  -0.0133  0.4289  0.0912  -1.3844   0.0000   0.0000   0.0000   0.2595
   6.400   0.7317   0.03803   0.03072  -0.0131  0.4250  0.0951  -1.3910   0.0000   0.0000   0.0000   0.2588
   6.500   0.7434   0.03783   0.03054  -0.0130  0.4205  0.0998  -1.4002   0.0000   0.0000   0.0000   0.2584
   6.600   0.7560   0.03760   0.03032  -0.0131  0.4171  0.1052  -1.4112   0.0000   0.0000   0.0000   0.2580
   6.700   0.7680   0.03742   0.03013  -0.0131  0.4151  0.1111  -1.4233   0.0000   0.0000   0.0000   0.2576
   6.800   0.7800   0.03724   0.02997  -0.0131  0.4134  0.1164  -1.4354   0.0000   0.0000   0.0000   0.2573
   6.900   0.7919   0.03707   0.02982  -0.0131  0.4117  0.1208  -1.4474   0.0000   0.0000   0.0000   0.2569
   7.000   0.8037   0.03690   0.02968  -0.0131  0.4102  0.1243  -1.4592   0.0000   0.0000   0.0000   0.2565
   7.100   0.8153   0.03674   0.02955  -0.0131  0.4087  0.1277  -1.4709   0.0000   0.0000   0.0000   0.2561
   7.200   0.8269   0.03660   0.02944  -0.0131  0.4074  0.1311  -1.4824   0.0000   0.0000   0.0000   0.2558
   7.300   0.8383   0.03646   0.02933  -0.0130  0.4061  0.1345  -1.4937   0.0000   0.0000   0.0000   0.2554
   7.400   0.8495   0.03632   0.02923  -0.0130  0.4050  0.1378  -1.5048   0.0000   0.0000   0.0000   0.2550
   7.500   0.8605   0.03619   0.02914  -0.0130  0.4039  0.1411  -1.5158   0.0000   0.0000   0.0000   0.2546
   7.600   0.8714   0.03606   0.02905  -0.0129  0.4029  0.1444  -1.5266   0.0000   0.0000   0.0000   0.2542
   7.700   0.8822   0.03594   0.02898  -0.0128  0.4020  0.1540  -1.5373   0.0000   0.0000   0.0000   0.2538
   7.900   1.0975   0.03513   0.03030  -0.0520  0.4054  1.0000  -1.7196   0.0000   0.0000   0.0000   0.2863
   8.000   1.1081   0.03499   0.03016  -0.0518  0.4045  1.0000  -1.7355   0.0000   0.0000   0.0000   0.2855
   8.100   1.1216   0.03459   0.02976  -0.0518  0.4045  1.0000  -1.7559   0.0000   0.0000   0.0000   0.2848
   8.200   1.1369   0.03407   0.02923  -0.0521  0.4053  1.0000  -1.7795   0.0000   0.0000   0.0000   0.2842
   8.300   1.1512   0.03364   0.02880  -0.0524  0.4070  1.0000  -1.8029   0.0000   0.0000   0.0000   0.2837
   8.400   1.3247   0.02072   0.01542  -0.0664  0.3940  1.0000  -2.0641   0.0000   0.0000   0.0000   0.2880
   8.500   1.4048   0.01487   0.00888  -0.0743  0.3689  1.0000  -2.2261   0.0000   0.0000   0.0000   0.2904
   8.600   1.4161   0.01467   0.00857  -0.0742  0.3624  1.0000  -2.2637   0.0000   0.0000   0.0000   0.2897
   8.700   1.4258   0.01453   0.00831  -0.0739  0.3538  1.0000  -2.2988   0.0000   0.0000   0.0000   0.2890
   8.800   1.4339   0.01447   0.00811  -0.0734  0.3432  1.0000  -2.3315   0.0000   0.0000   0.0000   0.2882
   8.900   1.4269   0.01471   0.00776  -0.0702  0.2916  1.0000  -2.3398   0.0000   0.0000   0.0000   0.2860
   9.000   1.4176   0.01551   0.00851  -0.0673  0.2502  1.0000  -2.3413   0.0000   0.0000   0.0000   0.2841
   9.100   1.4130   0.01606   0.00889  -0.0649  0.2318  1.0000  -2.3514   0.0000   0.0000   0.0000   0.2824
   9.200   1.4066   0.01676   0.00945  -0.0624  0.2181  1.0000  -2.3581   0.0000   0.0000   0.0000   0.2807
   9.300   1.3991   0.01746   0.01003  -0.0597  0.2068  1.0000  -2.3629   0.0000   0.0000   0.0000   0.2788
   9.400   1.3899   0.01802   0.01052  -0.0566  0.1996  1.0000  -2.3649   0.0000   0.0000   0.0000   0.2767
   9.500   1.3806   0.01862   0.01107  -0.0537  0.1928  1.0000  -2.3662   0.0000   0.0000   0.0000   0.2747
   9.600   1.3715   0.01930   0.01171  -0.0511  0.1859  1.0000  -2.3675   0.0000   0.0000   0.0000   0.2729
   9.700   1.3626   0.02007   0.01245  -0.0489  0.1786  1.0000  -2.3688   0.0000   0.0000   0.0000   0.2713
   9.800   1.3539   0.02098   0.01338  -0.0471  0.1715  1.0000  -2.3697   0.0000   0.0000   0.0000   0.2701
   9.900   1.3452   0.02211   0.01454  -0.0459  0.1652  1.0000  -2.3694   0.0000   0.0000   0.0000   0.2692
  10.000   1.3379   0.02332   0.01578  -0.0451  0.1559  1.0000  -2.3714   0.0000   0.0000   0.0000   0.2685
  10.100   1.3289   0.02492   0.01744  -0.0447  0.1509  1.0000  -2.3691   0.0000   0.0000   0.0000   0.2682
  10.200   1.3219   0.02634   0.01890  -0.0443  0.1458  1.0000  -2.3706   0.0000   0.0000   0.0000   0.2679
  10.300   1.3085   0.02874   0.02141  -0.0444  0.1490  1.0000  -2.3575   0.0000   0.0000   0.0000   0.2680
  10.400   1.2967   0.03062   0.02336  -0.0440  0.1508  1.0000  -2.3486   0.0000   0.0000   0.0000   0.2678
  10.500   1.2872   0.03206   0.02484  -0.0434  0.1484  1.0000  -2.3450   0.0000   0.0000   0.0000   0.2673
  10.600   1.2786   0.03346   0.02628  -0.0427  0.1460  1.0000  -2.3428   0.0000   0.0000   0.0000   0.2668
  10.700   1.2667   0.03536   0.02827  -0.0422  0.1468  1.0000  -2.3334   0.0000   0.0000   0.0000   0.2665
  10.800   1.0624   0.06186   0.05710  -0.0435  0.3403  1.0000  -1.9045   0.0000   0.0000   0.0000   0.2740
  10.900   1.0570   0.06336   0.05861  -0.0434  0.3375  1.0000  -1.9061   0.0000   0.0000   0.0000   0.2739
  11.000   1.0521   0.06479   0.06005  -0.0432  0.3344  1.0000  -1.9087   0.0000   0.0000   0.0000   0.2737
  11.100   1.0477   0.06616   0.06142  -0.0431  0.3309  1.0000  -1.9123   0.0000   0.0000   0.0000   0.2736
  11.200   1.0439   0.06744   0.06271  -0.0430  0.3271  1.0000  -1.9172   0.0000   0.0000   0.0000   0.2734
  11.300   1.0409   0.06862   0.06389  -0.0429  0.3228  1.0000  -1.9236   0.0000   0.0000   0.0000   0.2732
  11.400   1.0388   0.06967   0.06495  -0.0428  0.3178  1.0000  -1.9321   0.0000   0.0000   0.0000   0.2730
  11.500   1.0373   0.07065   0.06592  -0.0427  0.3120  1.0000  -1.9419   0.0000   0.0000   0.0000   0.2727
  11.600   1.0363   0.07154   0.06681  -0.0426  0.3051  1.0000  -1.9529   0.0000   0.0000   0.0000   0.2724
  11.700   1.0356   0.07236   0.06761  -0.0425  0.2965  1.0000  -1.9647   0.0000   0.0000   0.0000   0.2721
  11.800   1.0350   0.07311   0.06832  -0.0424  0.2852  1.0000  -1.9769   0.0000   0.0000   0.0000   0.2718
  11.900   1.0333   0.07394   0.06908  -0.0423  0.2721  1.0000  -1.9868   0.0000   0.0000   0.0000   0.2715
  12.000   1.0290   0.07505   0.07013  -0.0422  0.2596  1.0000  -1.9908   0.0000   0.0000   0.0000   0.2713
  12.100   1.0260   0.07612   0.07115  -0.0422  0.2496  1.0000  -1.9968   0.0000   0.0000   0.0000   0.2712
  12.200   1.0289   0.07664   0.07163  -0.0421  0.2444  1.0000  -2.0161   0.0000   0.0000   0.0000   0.2708
  12.300   1.0316   0.07718   0.07211  -0.0420  0.2383  1.0000  -2.0350   0.0000   0.0000   0.0000   0.2703
  12.400   1.0336   0.07774   0.07259  -0.0419  0.2303  1.0000  -2.0527   0.0000   0.0000   0.0000   0.2699
  12.500   1.0346   0.07833   0.07305  -0.0418  0.2194  1.0000  -2.0686   0.0000   0.0000   0.0000   0.2695
  12.600   1.0338   0.07893   0.07345  -0.0416  0.2039  1.0000  -2.0808   0.0000   0.0000   0.0000   0.2692
  12.700   1.0332   0.07944   0.07376  -0.0414  0.1874  1.0000  -2.0936   0.0000   0.0000   0.0000   0.2687
  12.800   1.0349   0.07991   0.07408  -0.0412  0.1668  1.0000  -2.1110   0.0000   0.0000   0.0000   0.2683
  12.900   1.0389   0.08033   0.07445  -0.0411  0.1459  1.0000  -2.1330   0.0000   0.0000   0.0000   0.2678
  13.000   1.0426   0.08067   0.07474  -0.0410  0.1397  1.0000  -2.1546   0.0000   0.0000   0.0000   0.2673
  13.100   1.0459   0.08103   0.07502  -0.0408  0.1327  1.0000  -2.1757   0.0000   0.0000   0.0000   0.2669
  13.200   1.0505   0.08134   0.07530  -0.0407  0.1290  1.0000  -2.1995   0.0000   0.0000   0.0000   0.2664
  14.000   1.0679   0.08511   0.07805  -0.0395  0.0516  1.0000  -2.3528   0.0000   0.0000   0.0000   0.2629
  14.100   1.0721   0.08549   0.07837  -0.0395  0.0493  1.0000  -2.3775   0.0000   0.0000   0.0000   0.2625
  14.200   1.0766   0.08587   0.07868  -0.0394  0.0471  1.0000  -2.4031   0.0000   0.0000   0.0000   0.2620
  14.300   1.0814   0.08622   0.07896  -0.0393  0.0447  1.0000  -2.4298   0.0000   0.0000   0.0000   0.2616
  14.400   1.0866   0.08654   0.07922  -0.0393  0.0422  1.0000  -2.4581   0.0000   0.0000   0.0000   0.2611
  14.500   1.0924   0.08682   0.07947  -0.0392  0.0393  1.0000  -2.4938   0.0000   0.0000   0.0000   0.2606
  14.600   1.0984   0.08711   0.07972  -0.0391  0.0361  1.0000  -2.5671   0.0000   0.0000   0.0000   0.2602
  14.700   1.1044   0.08742   0.08000  -0.0391  0.0324  1.0000  -2.6402   0.0000   0.0000   0.0000   0.2597
  14.800   1.1103   0.08776   0.08032  -0.0391  0.0286  1.0000  -2.7113   0.0000   0.0000   0.0000   0.2593
  14.900   1.1162   0.08811   0.08066  -0.0390  0.0245  1.0000  -2.7788   0.0000   0.0000   0.0000   0.2588
  15.800   1.0181   0.11576   0.10923  -0.0478  0.0312  1.0000  -2.5098   0.0000   0.0000   0.0000   0.2697
  15.900   1.0209   0.11670   0.11016  -0.0480  0.0280  1.0000  -2.5604   0.0000   0.0000   0.0000   0.2696
  16.000   1.0239   0.11764   0.11108  -0.0482  0.0245  1.0000  -2.6083   0.0000   0.0000   0.0000   0.2694
  16.100   1.0252   0.11889   0.11244  -0.0482  0.0187  1.0000  -2.6157   0.0000   0.0000   0.0000   0.2692
  16.300   1.1062   0.10643   0.10107  -0.0394  0.0182  1.0000  -3.0137   0.0000   0.0000   0.0000   0.2565
  16.400   1.1135   0.10653   0.10120  -0.0391  0.0193  1.0000  -3.0767   0.0000   0.0000   0.0000   0.2557
  16.500   1.1214   0.10660   0.10127  -0.0388  0.0205  1.0000  -3.1451   0.0000   0.0000   0.0000   0.2548
  16.600   1.1297   0.10665   0.10131  -0.0385  0.0221  1.0000  -3.2166   0.0000   0.0000   0.0000   0.2541
  16.700   1.1379   0.10670   0.10135  -0.0382  0.0240  1.0000  -3.2885   0.0000   0.0000   0.0000   0.2533
  16.800   1.1458   0.10680   0.10145  -0.0379  0.0264  1.0000  -3.3573   0.0000   0.0000   0.0000   0.2525
  16.900   1.1526   0.10698   0.10168  -0.0375  0.0295  1.0000  -3.4170   0.0000   0.0000   0.0000   0.2517
  17.000   1.1577   0.10733   0.10215  -0.0369  0.0337  1.0000  -3.4549   0.0000   0.0000   0.0000   0.2508
  17.100   1.0438   0.12918   0.12426  -0.0475  0.0187  1.0000  -2.8834   0.0000   0.0000   0.0000   0.2650
  17.200   1.0478   0.13002   0.12512  -0.0475  0.0196  1.0000  -2.9287   0.0000   0.0000   0.0000   0.2646
  17.300   1.0521   0.13081   0.12593  -0.0476  0.0206  1.0000  -2.9774   0.0000   0.0000   0.0000   0.2642
  17.400   1.0567   0.13157   0.12669  -0.0476  0.0219  1.0000  -3.0283   0.0000   0.0000   0.0000   0.2638
  17.500   1.0614   0.13232   0.12745  -0.0476  0.0233  1.0000  -3.0800   0.0000   0.0000   0.0000   0.2633
  17.600   1.0662   0.13307   0.12821  -0.0477  0.0251  1.0000  -3.1315   0.0000   0.0000   0.0000   0.2629
  17.700   1.0704   0.13391   0.12907  -0.0477  0.0273  1.0000  -3.1783   0.0000   0.0000   0.0000   0.2624
  17.800   1.0737   0.13489   0.13011  -0.0476  0.0299  1.0000  -3.2158   0.0000   0.0000   0.0000   0.2620
  17.900   1.0757   0.13615   0.13150  -0.0475  0.0332  1.0000  -3.2346   0.0000   0.0000   0.0000   0.2616
  18.000   1.0748   0.13820   0.13383  -0.0470  0.0378  1.0000  -3.1981   0.0000   0.0000   0.0000   0.2610
  18.100   1.0685   0.14171   0.13762  -0.0469  0.0414  1.0000  -3.1113   0.0000   0.0000   0.0000   0.2611
  18.200   1.0608   0.14557   0.14163  -0.0474  0.0433  1.0000  -3.0412   0.0000   0.0000   0.0000   0.2618
  18.300   1.0527   0.14957   0.14575  -0.0481  0.0445  1.0000  -2.9804   0.0000   0.0000   0.0000   0.2628
  18.400   1.0444   0.15370   0.14995  -0.0491  0.0453  1.0000  -2.9255   0.0000   0.0000   0.0000   0.2640
  18.500   1.0358   0.15793   0.15424  -0.0502  0.0456  1.0000  -2.8754   0.0000   0.0000   0.0000   0.2655
  18.600   1.0271   0.16226   0.15861  -0.0515  0.0455  1.0000  -2.8300   0.0000   0.0000   0.0000   0.2672
  18.700   1.0182   0.16669   0.16306  -0.0531  0.0445  1.0000  -2.7945   0.0000   0.0000   0.0000   0.2692
  18.800   1.0094   0.17122   0.16761  -0.0547  0.0437  1.0000  -2.7565   0.0000   0.0000   0.0000   0.2712
  18.900   1.0007   0.17584   0.17224  -0.0560  0.0436  1.0000  -2.7051   0.0000   0.0000   0.0000   0.2730
  19.000   0.9920   0.18053   0.17695  -0.0572  0.0439  1.0000  -2.6456   0.0000   0.0000   0.0000   0.2747
  19.100   0.9833   0.18536   0.18180  -0.0583  0.0444  1.0000  -2.5790   0.0000   0.0000   0.0000   0.2763
  19.200   0.9746   0.19043   0.18688  -0.0592  0.0455  1.0000  -2.5006   0.0000   0.0000   0.0000   0.2778
  19.300   0.9658   0.19560   0.19207  -0.0601  0.0465  1.0000  -2.4210   0.0000   0.0000   0.0000   0.2795
  19.400   0.9570   0.20074   0.19722  -0.0611  0.0474  1.0000  -2.3438   0.0000   0.0000   0.0000   0.2812
  19.500   0.9481   0.20584   0.20233  -0.0621  0.0483  1.0000  -2.2678   0.0000   0.0000   0.0000   0.2829
  19.600   0.9392   0.21087   0.20737  -0.0631  0.0493  1.0000  -2.1927   0.0000   0.0000   0.0000   0.2847
  19.700   0.9302   0.21582   0.21232  -0.0640  0.0503  1.0000  -2.1182   0.0000   0.0000   0.0000   0.2864
  19.800   0.9212   0.22066   0.21717  -0.0648  0.0515  1.0000  -2.0443   0.0000   0.0000   0.0000   0.2881
  19.900   0.9120   0.22537   0.22189  -0.0656  0.0528  1.0000  -1.9714   0.0000   0.0000   0.0000   0.2898
  20.000   0.9027   0.22991   0.22644  -0.0663  0.0542  1.0000  -1.8993   0.0000   0.0000   0.0000   0.2914
  20.100   0.8931   0.23428   0.23082  -0.0668  0.0556  1.0000  -1.8283   0.0000   0.0000   0.0000   0.2929
  20.200   0.8831   0.23846   0.23501  -0.0672  0.0572  1.0000  -1.7579   0.0000   0.0000   0.0000   0.2943
  20.300   0.8726   0.24243   0.23899  -0.0675  0.0587  1.0000  -1.6878   0.0000   0.0000   0.0000   0.2957
  20.400   0.8613   0.24616   0.24273  -0.0676  0.0601  1.0000  -1.6175   0.0000   0.0000   0.0000   0.2970
  20.500   0.8491   0.24961   0.24619  -0.0675  0.0615  1.0000  -1.5463   0.0000   0.0000   0.0000   0.2982
  20.600   0.8357   0.25261   0.24920  -0.0671  0.0627  1.0000  -1.4738   0.0000   0.0000   0.0000   0.2993
  20.700   0.8199   0.25350   0.25010  -0.0659  0.0635  1.0000  -1.4080   0.0000   0.0000   0.0000   0.2996
  20.800   0.8034   0.25371   0.25032  -0.0644  0.0642  1.0000  -1.3431   0.0000   0.0000   0.0000   0.2997
  20.900   0.7865   0.25434   0.25097  -0.0634  0.0649  1.0000  -1.2697   0.0000   0.0000   0.0000   0.3004
  21.000   0.7705   0.25586   0.25251  -0.0637  0.0657  1.0000  -1.1856   0.0000   0.0000   0.0000   0.3030
  21.100   0.7608   0.25791   0.25460  -0.0655  0.0662  1.0000  -1.1202   0.0000   0.0000   0.0000   0.3069
  21.200   0.7559   0.25995   0.25669  -0.0679  0.0664  1.0000  -1.0752   0.0000   0.0000   0.0000   0.3109
  21.300   0.7534   0.26196   0.25874  -0.0705  0.0666  1.0000  -1.0409   0.0000   0.0000   0.0000   0.3149
  21.400   0.7523   0.26391   0.26073  -0.0732  0.0666  1.0000  -1.0129   0.0000   0.0000   0.0000   0.3187
  21.500   0.7520   0.26582   0.26268  -0.0758  0.0667  1.0000  -0.9891   0.0000   0.0000   0.0000   0.3223
  21.600   0.7523   0.26768   0.26458  -0.0784  0.0667  1.0000  -0.9684   0.0000   0.0000   0.0000   0.3257
  21.700   0.7534   0.26909   0.26602  -0.0806  0.0666  1.0000  -0.9567   0.0000   0.0000   0.0000   0.3286
  21.800   0.7549   0.27020   0.26716  -0.0826  0.0664  1.0000  -0.9509   0.0000   0.0000   0.0000   0.3309
  21.900   0.7569   0.27112   0.26810  -0.0844  0.0662  1.0000  -0.9496   0.0000   0.0000   0.0000   0.3329
  22.000   0.7598   0.27160   0.26860  -0.0858  0.0657  1.0000  -0.9580   0.0000   0.0000   0.0000   0.3341
  22.100   0.7729   0.26718   0.26412  -0.0819  0.0617  1.0000  -1.0913   0.0000   0.0000   0.0000   0.3262
  22.200   0.7812   0.26567   0.26253  -0.0796  0.0529  1.0000  -1.1840   0.0000   0.0000   0.0000   0.3215
  22.300   0.7832   0.26631   0.26318  -0.0807  0.0463  1.0000  -1.2143   0.0000   0.0000   0.0000   0.3225
  22.400   0.7863   0.26642   0.26330  -0.0816  0.0402  1.0000  -1.2679   0.0000   0.0000   0.0000   0.3229
  22.500   0.7919   0.26560   0.26246  -0.0817  0.0348  1.0000  -1.3639   0.0000   0.0000   0.0000   0.3217
  22.600   0.8035   0.26269   0.25952  -0.0796  0.0296  1.0000  -1.5592   0.0000   0.0000   0.0000   0.3167
  22.700   0.8133   0.26014   0.25694  -0.0782  0.0260  1.0000  -1.7436   0.0000   0.0000   0.0000   0.3128
  22.800   0.8168   0.25925   0.25606  -0.0794  0.0224  1.0000  -1.8301   0.0000   0.0000   0.0000   0.3134
  24.000   0.7827   0.29110   0.28838  -0.1159  0.0175  1.0000  -0.9636   0.0000   0.0000   0.0000   0.3670
  24.100   0.7833   0.29238   0.28968  -0.1171  0.0174  1.0000  -0.9534   0.0000   0.0000   0.0000   0.3683
  24.200   0.7840   0.29364   0.29095  -0.1182  0.0174  1.0000  -0.9437   0.0000   0.0000   0.0000   0.3695
  24.300   0.7846   0.29489   0.29221  -0.1192  0.0173  1.0000  -0.9343   0.0000   0.0000   0.0000   0.3706
  24.400   0.7852   0.29612   0.29345  -0.1203  0.0173  1.0000  -0.9254   0.0000   0.0000   0.0000   0.3717
  24.500   0.7858   0.29733   0.29468  -0.1213  0.0172  1.0000  -0.9167   0.0000   0.0000   0.0000   0.3727
  24.600   0.7864   0.29853   0.29589  -0.1222  0.0172  1.0000  -0.9084   0.0000   0.0000   0.0000   0.3737
  24.700   0.7870   0.29971   0.29708  -0.1232  0.0171  1.0000  -0.9003   0.0000   0.0000   0.0000   0.3746
  24.800   0.7875   0.30088   0.29826  -0.1241  0.0171  1.0000  -0.8924   0.0000   0.0000   0.0000   0.3756
  24.900   0.7881   0.30203   0.29943  -0.1250  0.0170  1.0000  -0.8847   0.0000   0.0000   0.0000   0.3765
  25.000   0.7886   0.30317   0.30058  -0.1258  0.0170  1.0000  -0.8773   0.0000   0.0000   0.0000   0.3773
  25.100   0.7891   0.30430   0.30172  -0.1267  0.0169  1.0000  -0.8702   0.0000   0.0000   0.0000   0.3781
  25.200   0.7896   0.30542   0.30285  -0.1275  0.0169  1.0000  -0.8633   0.0000   0.0000   0.0000   0.3789
  25.300   0.7902   0.30654   0.30397  -0.1283  0.0169  1.0000  -0.8566   0.0000   0.0000   0.0000   0.3797
  25.400   0.7907   0.30764   0.30508  -0.1291  0.0168  1.0000  -0.8501   0.0000   0.0000   0.0000   0.3804
  25.500   0.7912   0.30873   0.30618  -0.1298  0.0168  1.0000  -0.8438   0.0000   0.0000   0.0000   0.3811
  25.600   0.7917   0.30981   0.30727  -0.1306  0.0167  1.0000  -0.8376   0.0000   0.0000   0.0000   0.3818
  25.700   0.7922   0.31089   0.30835  -0.1313  0.0167  1.0000  -0.8317   0.0000   0.0000   0.0000   0.3825
  25.800   0.7926   0.31196   0.30942  -0.1320  0.0166  1.0000  -0.8259   0.0000   0.0000   0.0000   0.3831
  25.900   0.7931   0.31302   0.31049  -0.1327  0.0166  1.0000  -0.8204   0.0000   0.0000   0.0000   0.3838
  26.000   0.7936   0.31407   0.31155  -0.1334  0.0165  1.0000  -0.8155   0.0000   0.0000   0.0000   0.3844
  26.100   0.7941   0.31512   0.31261  -0.1341  0.0165  1.0000  -0.8107   0.0000   0.0000   0.0000   0.3850
  26.200   0.7945   0.31616   0.31365  -0.1348  0.0164  1.0000  -0.8061   0.0000   0.0000   0.0000   0.3856
  26.300   0.7950   0.31719   0.31469  -0.1354  0.0164  1.0000  -0.8015   0.0000   0.0000   0.0000   0.3861


