xflr5 v6.61

 Calculated polar for: WORTMANN FX 049-915 AIRFOIL

 1 1 Reynolds number fixed          Mach number fixed         

 xtrf =   1.000 (top)        1.000 (bottom)
 Mach =   0.000     Re =     0.719 e 6     Ncrit =   9.000

  alpha     CL        CD       CDp       Cm    Top Xtr Bot Xtr   Cpmin    Chinge    XCp    
 ------- -------- --------- --------- -------- ------- ------- -------- --------- ---------
  -4.900   0.0126   0.03581   0.03191  -0.0704  0.4813  0.0497  -1.4290   0.0000   0.0000   0.0000   5.9792
  -4.800  -0.0012   0.02915   0.02479  -0.0660  0.4811  0.0373  -1.7295   0.0000   0.0000   0.0000  -55.7129
  -4.700  -0.0163   0.01897   0.01328  -0.0576  0.4801  0.0224  -2.2967   0.0000   0.0000   0.0000  -3.4211
  -4.500  -0.0100   0.01358   0.00702  -0.0517  0.4794  0.0300  -2.5134   0.0000   0.0000   0.0000  -5.1527
  -4.400   0.0029   0.01362   0.00723  -0.0523  0.4786  0.0366  -2.3849   0.0000   0.0000   0.0000  19.2780
  -4.300   0.0163   0.01396   0.00770  -0.0531  0.4778  0.0400  -2.2410   0.0000   0.0000   0.0000   3.6290
  -4.200   0.0290   0.01439   0.00825  -0.0538  0.4771  0.0430  -2.1010   0.0000   0.0000   0.0000   2.1744
  -4.100   0.0411   0.01486   0.00885  -0.0545  0.4764  0.0459  -1.9653   0.0000   0.0000   0.0000   1.6180
  -4.000   0.0533   0.01542   0.00952  -0.0552  0.4757  0.0488  -1.8303   0.0000   0.0000   0.0000   1.3177
  -3.900   0.0657   0.01617   0.01039  -0.0560  0.4751  0.0516  -1.6895   0.0000   0.0000   0.0000   1.1263
  -3.800   0.0788   0.01717   0.01153  -0.0570  0.4744  0.0545  -1.5395   0.0000   0.0000   0.0000   0.9919
  -3.700   0.1321   0.02885   0.02421  -0.0659  0.4733  0.0666  -1.0067   0.0000   0.0000   0.0000   0.7583
  -3.600   0.1425   0.02878   0.02412  -0.0660  0.4726  0.0668  -1.0163   0.0000   0.0000   0.0000   0.7212
  -3.500   0.1517   0.02844   0.02373  -0.0659  0.4720  0.0670  -1.0247   0.0000   0.0000   0.0000   0.6915
   1.500   0.6191   0.01092   0.00424  -0.0578  0.4394  0.1358  -1.3927   0.0000   0.0000   0.0000   0.3399
   1.600   0.6285   0.01082   0.00414  -0.0576  0.4388  0.1407  -1.3999   0.0000   0.0000   0.0000   0.3382
   1.700   0.6381   0.01073   0.00406  -0.0575  0.4382  0.1441  -1.4071   0.0000   0.0000   0.0000   0.3365
   1.800   0.6478   0.01066   0.00401  -0.0574  0.4376  0.1462  -1.4145   0.0000   0.0000   0.0000   0.3349
   2.500   0.7240   0.01070   0.00366  -0.0568  0.4328  0.0939  -1.4702   0.0000   0.0000   0.0000   0.3241
   2.600   0.7345   0.01070   0.00364  -0.0568  0.4322  0.0870  -1.4780   0.0000   0.0000   0.0000   0.3228
   2.700   0.7319   0.01203   0.00525  -0.0550  0.4461  0.0814  -1.4486   0.0000   0.0000   0.0000   0.3206
   2.800   0.7335   0.01283   0.00616  -0.0537  0.4499  0.0796  -1.4433   0.0000   0.0000   0.0000   0.3187
   2.900   0.7345   0.01365   0.00707  -0.0524  0.4527  0.0781  -1.4422   0.0000   0.0000   0.0000   0.3168
   3.000   0.7350   0.01451   0.00801  -0.0511  0.4548  0.0767  -1.4407   0.0000   0.0000   0.0000   0.3149
   3.100   0.7350   0.01540   0.00897  -0.0497  0.4565  0.0755  -1.4386   0.0000   0.0000   0.0000   0.3129
   3.200   0.7346   0.01632   0.00994  -0.0483  0.4580  0.0744  -1.4362   0.0000   0.0000   0.0000   0.3110
   3.300   0.7341   0.01723   0.01090  -0.0469  0.4591  0.0733  -1.4339   0.0000   0.0000   0.0000   0.3091
   3.400   0.7337   0.01812   0.01182  -0.0456  0.4601  0.0723  -1.4318   0.0000   0.0000   0.0000   0.3072
   3.500   0.7337   0.01897   0.01271  -0.0443  0.4608  0.0714  -1.4302   0.0000   0.0000   0.0000   0.3054
   3.600   0.7339   0.01979   0.01355  -0.0431  0.4614  0.0705  -1.4289   0.0000   0.0000   0.0000   0.3037
   3.700   0.7344   0.02056   0.01435  -0.0419  0.4618  0.0696  -1.4281   0.0000   0.0000   0.0000   0.3019
   3.800   0.7355   0.02131   0.01511  -0.0409  0.4621  0.0687  -1.4278   0.0000   0.0000   0.0000   0.3003
   4.100   0.7419   0.02325   0.01700  -0.0379  0.4624  0.0669  -1.4308   0.0000   0.0000   0.0000   0.2955
   4.200   0.7441   0.02384   0.01759  -0.0370  0.4624  0.0669  -1.4322   0.0000   0.0000   0.0000   0.2940
   4.300   0.7466   0.02439   0.01815  -0.0361  0.4622  0.0668  -1.4339   0.0000   0.0000   0.0000   0.2925
   4.400   0.7492   0.02492   0.01868  -0.0352  0.4621  0.0668  -1.4359   0.0000   0.0000   0.0000   0.2910
   4.500   0.7520   0.02541   0.01918  -0.0343  0.4618  0.0668  -1.4382   0.0000   0.0000   0.0000   0.2896
   4.600   0.7550   0.02587   0.01965  -0.0334  0.4615  0.0668  -1.4407   0.0000   0.0000   0.0000   0.2881
   4.700   0.7582   0.02630   0.02009  -0.0326  0.4612  0.0668  -1.4436   0.0000   0.0000   0.0000   0.2867
   4.800   0.7615   0.02671   0.02050  -0.0318  0.4608  0.0669  -1.4467   0.0000   0.0000   0.0000   0.2853
   4.900   0.7650   0.02709   0.02089  -0.0310  0.4604  0.0670  -1.4500   0.0000   0.0000   0.0000   0.2839
   5.000   0.7687   0.02745   0.02125  -0.0302  0.4599  0.0671  -1.4536   0.0000   0.0000   0.0000   0.2825
   5.100   0.7725   0.02778   0.02160  -0.0294  0.4594  0.0672  -1.4574   0.0000   0.0000   0.0000   0.2812
   5.200   0.7762   0.02808   0.02190  -0.0285  0.4588  0.0673  -1.4612   0.0000   0.0000   0.0000   0.2798
   5.300   0.7795   0.02833   0.02216  -0.0275  0.4582  0.0674  -1.4649   0.0000   0.0000   0.0000   0.2782
   5.400   0.7826   0.02856   0.02239  -0.0265  0.4575  0.0676  -1.4687   0.0000   0.0000   0.0000   0.2766
   5.500   0.7861   0.02878   0.02262  -0.0255  0.4567  0.0678  -1.4727   0.0000   0.0000   0.0000   0.2751
   5.700   0.7944   0.02921   0.02308  -0.0238  0.4552  0.0702  -1.4820   0.0000   0.0000   0.0000   0.2723
   5.800   0.7992   0.02941   0.02329  -0.0231  0.4544  0.0728  -1.4871   0.0000   0.0000   0.0000   0.2710
   5.900   0.8040   0.02961   0.02351  -0.0224  0.4536  0.0750  -1.4923   0.0000   0.0000   0.0000   0.2698
   6.000   0.8058   0.02999   0.02390  -0.0213  0.4527  0.0767  -1.4941   0.0000   0.0000   0.0000   0.2683
   6.100   0.8059   0.03045   0.02438  -0.0201  0.4517  0.0780  -1.4939   0.0000   0.0000   0.0000   0.2667
   6.200   0.8058   0.03097   0.02491  -0.0190  0.4507  0.0794  -1.4933   0.0000   0.0000   0.0000   0.2652
   6.300   0.8060   0.03151   0.02547  -0.0181  0.4494  0.0806  -1.4926   0.0000   0.0000   0.0000   0.2638
   6.400   0.8069   0.03202   0.02599  -0.0172  0.4479  0.0820  -1.4924   0.0000   0.0000   0.0000   0.2626
   6.500   0.8094   0.03241   0.02640  -0.0165  0.4463  0.0836  -1.4942   0.0000   0.0000   0.0000   0.2615
   6.600   0.8164   0.03253   0.02653  -0.0162  0.4449  0.0857  -1.5011   0.0000   0.0000   0.0000   0.2608
   6.700   0.8273   0.03240   0.02641  -0.0162  0.4437  0.0883  -1.5128   0.0000   0.0000   0.0000   0.2603
   6.800   0.8383   0.03226   0.02629  -0.0162  0.4425  0.0911  -1.5246   0.0000   0.0000   0.0000   0.2599
   6.900   0.8494   0.03211   0.02616  -0.0162  0.4413  0.0940  -1.5366   0.0000   0.0000   0.0000   0.2595
   7.000   0.8607   0.03196   0.02602  -0.0162  0.4402  0.0973  -1.5488   0.0000   0.0000   0.0000   0.2591
   7.100   0.8723   0.03179   0.02586  -0.0162  0.4390  0.1007  -1.5612   0.0000   0.0000   0.0000   0.2588
   7.200   0.8840   0.03160   0.02569  -0.0162  0.4378  0.1044  -1.5739   0.0000   0.0000   0.0000   0.2584
   7.300   0.8957   0.03141   0.02551  -0.0162  0.4366  0.1079  -1.5867   0.0000   0.0000   0.0000   0.2581
   7.400   0.9077   0.03120   0.02531  -0.0163  0.4355  0.1113  -1.5998   0.0000   0.0000   0.0000   0.2577
   7.500   0.9199   0.03098   0.02511  -0.0164  0.4343  0.1147  -1.6131   0.0000   0.0000   0.0000   0.2574
   7.600   0.9321   0.03075   0.02490  -0.0164  0.4332  0.1175  -1.6266   0.0000   0.0000   0.0000   0.2571
   7.700   0.9445   0.03052   0.02469  -0.0165  0.4321  0.1204  -1.6402   0.0000   0.0000   0.0000   0.2568
   7.800   0.9570   0.03029   0.02448  -0.0166  0.4310  0.1233  -1.6538   0.0000   0.0000   0.0000   0.2566
   7.900   0.9697   0.03006   0.02426  -0.0167  0.4299  0.1264  -1.6677   0.0000   0.0000   0.0000   0.2563
   8.000   0.9825   0.02983   0.02404  -0.0169  0.4288  0.1295  -1.6817   0.0000   0.0000   0.0000   0.2561
   8.100   0.9954   0.02959   0.02382  -0.0170  0.4277  0.1327  -1.6957   0.0000   0.0000   0.0000   0.2559
   8.200   1.0096   0.02926   0.02352  -0.0173  0.4268  0.1362  -1.7117   0.0000   0.0000   0.0000   0.2558
   8.400   1.3640   0.01396   0.00725  -0.0689  0.1915  1.0000  -2.1403   0.0000   0.0000   0.0000   0.2882
   8.500   1.3617   0.01458   0.00774  -0.0670  0.1701  1.0000  -2.1532   0.0000   0.0000   0.0000   0.2867
   8.600   1.3637   0.01501   0.00810  -0.0658  0.1454  1.0000  -2.1733   0.0000   0.0000   0.0000   0.2855
   8.700   1.3661   0.01538   0.00843  -0.0646  0.1396  1.0000  -2.1942   0.0000   0.0000   0.0000   0.2844
   9.400   1.2253   0.03438   0.02973  -0.0538  0.2441  1.0000  -2.0314   0.0000   0.0000   0.0000   0.2797
   9.500   1.2228   0.03486   0.02996  -0.0528  0.2261  1.0000  -2.0430   0.0000   0.0000   0.0000   0.2788
   9.600   1.2202   0.03523   0.03006  -0.0516  0.2084  1.0000  -2.0548   0.0000   0.0000   0.0000   0.2777
   9.700   1.2175   0.03560   0.03016  -0.0505  0.1910  1.0000  -2.0662   0.0000   0.0000   0.0000   0.2766
   9.800   1.2206   0.03561   0.02993  -0.0496  0.1613  1.0000  -2.0884   0.0000   0.0000   0.0000   0.2756
   9.900   1.2266   0.03559   0.02979  -0.0491  0.1425  1.0000  -2.1153   0.0000   0.0000   0.0000   0.2748
  10.000   1.2317   0.03564   0.02977  -0.0486  0.1377  1.0000  -2.1407   0.0000   0.0000   0.0000   0.2740
  10.900   1.0172   0.06718   0.06333  -0.0461  0.2834  1.0000  -1.8202   0.0000   0.0000   0.0000   0.2779
  11.000   1.0092   0.06891   0.06501  -0.0460  0.2721  1.0000  -1.8161   0.0000   0.0000   0.0000   0.2779
  11.100   1.0022   0.07057   0.06663  -0.0459  0.2602  1.0000  -1.8138   0.0000   0.0000   0.0000   0.2780
  11.200   0.9993   0.07180   0.06781  -0.0459  0.2491  1.0000  -1.8200   0.0000   0.0000   0.0000   0.2778
  11.300   1.0013   0.07249   0.06847  -0.0458  0.2438  1.0000  -1.8363   0.0000   0.0000   0.0000   0.2774
  11.400   1.0026   0.07324   0.06914  -0.0457  0.2375  1.0000  -1.8514   0.0000   0.0000   0.0000   0.2770
  11.500   1.0029   0.07405   0.06986  -0.0456  0.2291  1.0000  -1.8646   0.0000   0.0000   0.0000   0.2767
  11.600   1.0007   0.07504   0.07069  -0.0454  0.2154  1.0000  -1.8728   0.0000   0.0000   0.0000   0.2764
  11.700   0.9991   0.07595   0.07142  -0.0453  0.2009  1.0000  -1.8823   0.0000   0.0000   0.0000   0.2761
  11.800   0.9989   0.07669   0.07196  -0.0451  0.1841  1.0000  -1.8948   0.0000   0.0000   0.0000   0.2757
  11.900   1.0031   0.07712   0.07227  -0.0449  0.1593  1.0000  -1.9160   0.0000   0.0000   0.0000   0.2751
  12.000   1.0078   0.07752   0.07262  -0.0448  0.1447  1.0000  -1.9384   0.0000   0.0000   0.0000   0.2746
  12.100   1.0120   0.07794   0.07300  -0.0447  0.1400  1.0000  -1.9598   0.0000   0.0000   0.0000   0.2741
  12.200   1.0160   0.07836   0.07337  -0.0446  0.1348  1.0000  -1.9810   0.0000   0.0000   0.0000   0.2736
  15.700   1.0337   0.11396   0.10850  -0.0497  0.0179  1.0000  -2.5642   0.0000   0.0000   0.0000   0.2711
  15.800   1.0362   0.11490   0.10945  -0.0499  0.0177  1.0000  -2.6157   0.0000   0.0000   0.0000   0.2710
  15.900   1.0388   0.11582   0.11039  -0.0501  0.0175  1.0000  -2.6676   0.0000   0.0000   0.0000   0.2709
  16.000   1.0415   0.11673   0.11133  -0.0503  0.0174  1.0000  -2.7198   0.0000   0.0000   0.0000   0.2707
  16.100   1.0443   0.11764   0.11225  -0.0505  0.0172  1.0000  -2.7720   0.0000   0.0000   0.0000   0.2705
  16.200   1.0471   0.11854   0.11318  -0.0507  0.0170  1.0000  -2.8236   0.0000   0.0000   0.0000   0.2703
  16.300   1.0498   0.11945   0.11412  -0.0509  0.0169  1.0000  -2.8740   0.0000   0.0000   0.0000   0.2701
  16.400   1.0525   0.12037   0.11508  -0.0510  0.0167  1.0000  -2.9225   0.0000   0.0000   0.0000   0.2699
  16.500   1.0552   0.12131   0.11607  -0.0512  0.0166  1.0000  -2.9679   0.0000   0.0000   0.0000   0.2697
  16.600   1.0577   0.12227   0.11711  -0.0513  0.0165  1.0000  -3.0090   0.0000   0.0000   0.0000   0.2694
  16.700   1.0602   0.12323   0.11817  -0.0514  0.0164  1.0000  -3.0450   0.0000   0.0000   0.0000   0.2691
  16.800   1.0626   0.12423   0.11930  -0.0514  0.0164  1.0000  -3.0739   0.0000   0.0000   0.0000   0.2688
  16.900   1.0645   0.12527   0.12050  -0.0514  0.0164  1.0000  -3.0945   0.0000   0.0000   0.0000   0.2684
  17.000   1.0659   0.12637   0.12179  -0.0513  0.0164  1.0000  -3.1056   0.0000   0.0000   0.0000   0.2680
  17.100   1.0665   0.12755   0.12320  -0.0511  0.0165  1.0000  -3.1037   0.0000   0.0000   0.0000   0.2675
  17.200   1.0656   0.12892   0.12481  -0.0508  0.0167  1.0000  -3.0799   0.0000   0.0000   0.0000   0.2670
  19.600   0.8703   0.23515   0.23260  -0.0701  0.0640  1.0000  -1.5770   0.0000   0.0000   0.0000   0.3002
  19.700   0.8584   0.24012   0.23758  -0.0707  0.0647  1.0000  -1.5001   0.0000   0.0000   0.0000   0.3022
  19.800   0.8463   0.24484   0.24231  -0.0711  0.0653  1.0000  -1.4251   0.0000   0.0000   0.0000   0.3041
  19.900   0.8355   0.24890   0.24639  -0.0714  0.0658  1.0000  -1.3615   0.0000   0.0000   0.0000   0.3056
  20.000   0.8267   0.25218   0.24966  -0.0714  0.0661  1.0000  -1.3131   0.0000   0.0000   0.0000   0.3067
  20.100   0.8194   0.25482   0.25231  -0.0714  0.0662  1.0000  -1.2760   0.0000   0.0000   0.0000   0.3075
  20.200   0.8123   0.25676   0.25426  -0.0711  0.0663  1.0000  -1.2454   0.0000   0.0000   0.0000   0.3079
  20.300   0.8030   0.25719   0.25469  -0.0702  0.0664  1.0000  -1.2161   0.0000   0.0000   0.0000   0.3079
  20.400   0.7936   0.25716   0.25467  -0.0690  0.0664  1.0000  -1.1889   0.0000   0.0000   0.0000   0.3077
  20.500   0.7852   0.25724   0.25475  -0.0680  0.0664  1.0000  -1.1646   0.0000   0.0000   0.0000   0.3073
  20.600   0.7776   0.25742   0.25493  -0.0670  0.0664  1.0000  -1.1428   0.0000   0.0000   0.0000   0.3069
  20.700   0.7706   0.25765   0.25517  -0.0660  0.0664  1.0000  -1.1229   0.0000   0.0000   0.0000   0.3065
  20.800   0.7642   0.25793   0.25544  -0.0652  0.0664  1.0000  -1.1044   0.0000   0.0000   0.0000   0.3062
  20.900   0.7602   0.25814   0.25565  -0.0646  0.0663  1.0000  -1.0961   0.0000   0.0000   0.0000   0.3059
  21.000   0.7579   0.25836   0.25588  -0.0645  0.0662  1.0000  -1.0934   0.0000   0.0000   0.0000   0.3060
  21.100   0.7595   0.25834   0.25586  -0.0646  0.0657  1.0000  -1.1110   0.0000   0.0000   0.0000   0.3058


