xflr5 v6.61

 Calculated polar for: WORTMANN FX 63-137 AIRFOIL

 1 1 Reynolds number fixed          Mach number fixed         

 xtrf =   1.000 (top)        1.000 (bottom)
 Mach =   0.000     Re =     0.563 e 6     Ncrit =   9.000

  alpha     CL        CD       CDp       Cm    Top Xtr Bot Xtr   Cpmin    Chinge    XCp    
 ------- -------- --------- --------- -------- ------- ------- -------- --------- ---------
 -10.000  -0.3225   0.02357   0.02004  -0.1642  0.9281  0.0113  -6.6485   0.0000   0.0000   0.0000  -0.2862
  -9.900  -0.3071   0.02297   0.01937  -0.1663  0.9243  0.0115  -6.5061   0.0000   0.0000   0.0000  -0.3191
  -9.800  -0.2911   0.02227   0.01858  -0.1685  0.9209  0.0117  -6.3674   0.0000   0.0000   0.0000  -0.3578
  -9.700  -0.2747   0.02150   0.01770  -0.1709  0.9177  0.0119  -6.2331   0.0000   0.0000   0.0000  -0.4022
  -9.600  -0.2606   0.02076   0.01686  -0.1727  0.9133  0.0121  -6.1173   0.0000   0.0000   0.0000  -0.4441
  -9.500  -0.2472   0.02005   0.01604  -0.1742  0.9082  0.0123  -6.0299   0.0000   0.0000   0.0000  -0.4872
  -9.400  -0.2330   0.01933   0.01521  -0.1758  0.9036  0.0125  -5.9407   0.0000   0.0000   0.0000  -0.5389
  -9.300  -0.2183   0.01865   0.01440  -0.1775  0.8995  0.0128  -5.8497   0.0000   0.0000   0.0000  -0.5990
  -9.200  -0.2045   0.01806   0.01367  -0.1788  0.8955  0.0131  -5.7602   0.0000   0.0000   0.0000  -0.6619
  -9.100  -0.1922   0.01758   0.01310  -0.1796  0.8909  0.0134  -5.6701   0.0000   0.0000   0.0000  -0.7245
  -9.000  -0.1793   0.01715   0.01258  -0.1805  0.8865  0.0137  -5.5748   0.0000   0.0000   0.0000  -0.7986
  -8.900  -0.1662   0.01676   0.01210  -0.1814  0.8823  0.0140  -5.4758   0.0000   0.0000   0.0000  -0.8862
  -8.800  -0.1528   0.01642   0.01166  -0.1822  0.8784  0.0143  -5.3741   0.0000   0.0000   0.0000  -0.9904
  -8.700  -0.1403   0.01612   0.01128  -0.1829  0.8745  0.0146  -5.2746   0.0000   0.0000   0.0000  -1.1049
  -8.600  -0.1285   0.01584   0.01094  -0.1833  0.8703  0.0148  -5.1776   0.0000   0.0000   0.0000  -1.2319
  -8.500  -0.1164   0.01558   0.01062  -0.1838  0.8661  0.0151  -5.0785   0.0000   0.0000   0.0000  -1.3893
  -8.400  -0.1040   0.01534   0.01031  -0.1843  0.8620  0.0153  -4.9783   0.0000   0.0000   0.0000  -1.5879
  -8.300  -0.0915   0.01511   0.01001  -0.1848  0.8582  0.0154  -4.8777   0.0000   0.0000   0.0000  -1.8448
  -8.100  -0.0667   0.01466   0.00943  -0.1858  0.8514  0.0157  -4.6802   0.0000   0.0000   0.0000  -2.6345
  -8.000  -0.0548   0.01449   0.00923  -0.1862  0.8481  0.0159  -4.5803   0.0000   0.0000   0.0000  -3.2668
  -7.900  -0.0428   0.01436   0.00906  -0.1865  0.8448  0.0160  -4.4786   0.0000   0.0000   0.0000  -4.2518
  -7.800  -0.0306   0.01417   0.00881  -0.1869  0.8415  0.0161  -4.3814   0.0000   0.0000   0.0000  -6.0617
  -7.700  -0.0179   0.01389   0.00845  -0.1874  0.8383  0.0161  -4.2908   0.0000   0.0000   0.0000  -10.5455
  -7.600  -0.0052   0.01363   0.00812  -0.1880  0.8352  0.0161  -4.1994   0.0000   0.0000   0.0000  -37.0379
  -7.500   0.0076   0.01341   0.00781  -0.1885  0.8322  0.0161  -4.1070   0.0000   0.0000   0.0000  25.9507
  -7.400   0.0203   0.01320   0.00754  -0.1891  0.8294  0.0161  -4.0141   0.0000   0.0000   0.0000   9.8561
  -7.300   0.0327   0.01299   0.00729  -0.1895  0.8269  0.0162  -3.9224   0.0000   0.0000   0.0000   6.2308
  -7.200   0.0451   0.01280   0.00706  -0.1899  0.8243  0.0162  -3.8303   0.0000   0.0000   0.0000   4.5924
  -7.100   0.0575   0.01263   0.00685  -0.1903  0.8213  0.0162  -3.7380   0.0000   0.0000   0.0000   3.6609
  -7.000   0.0698   0.01248   0.00665  -0.1907  0.8182  0.0162  -3.6457   0.0000   0.0000   0.0000   3.0605
  -6.900   0.0822   0.01235   0.00644  -0.1910  0.8149  0.0163  -3.5510   0.0000   0.0000   0.0000   2.6415
  -6.800   0.0945   0.01222   0.00627  -0.1914  0.8116  0.0163  -3.4597   0.0000   0.0000   0.0000   2.3321
  -6.700   0.1068   0.01212   0.00612  -0.1917  0.8081  0.0164  -3.3688   0.0000   0.0000   0.0000   2.0947
  -6.600   0.1191   0.01203   0.00597  -0.1920  0.8045  0.0164  -3.2782   0.0000   0.0000   0.0000   1.9059
  -6.500   0.1312   0.01192   0.00584  -0.1923  0.8017  0.0164  -3.1892   0.0000   0.0000   0.0000   1.7551
  -6.400   0.1432   0.01182   0.00572  -0.1925  0.7983  0.0165  -3.1006   0.0000   0.0000   0.0000   1.6298
  -6.300   0.1552   0.01174   0.00561  -0.1928  0.7947  0.0166  -3.0126   0.0000   0.0000   0.0000   1.5242
  -6.200   0.1671   0.01167   0.00551  -0.1930  0.7909  0.0166  -2.9253   0.0000   0.0000   0.0000   1.4339
  -6.100   0.1790   0.01161   0.00542  -0.1931  0.7871  0.0167  -2.8387   0.0000   0.0000   0.0000   1.3559
  -6.000   0.1908   0.01157   0.00534  -0.1933  0.7832  0.0167  -2.7529   0.0000   0.0000   0.0000   1.2879
  -5.900   0.2026   0.01155   0.00528  -0.1935  0.7790  0.0168  -2.6673   0.0000   0.0000   0.0000   1.2277
  -5.800   0.2143   0.01151   0.00523  -0.1936  0.7760  0.0169  -2.5865   0.0000   0.0000   0.0000   1.1745
  -5.700   0.2259   0.01147   0.00520  -0.1937  0.7727  0.0170  -2.5168   0.0000   0.0000   0.0000   1.1272
  -5.600   0.2373   0.01145   0.00518  -0.1938  0.7688  0.0171  -2.4460   0.0000   0.0000   0.0000   1.0848
  -5.300   0.2696   0.01168   0.00543  -0.1933  0.7562  0.0174  -2.2086   0.0000   0.0000   0.0000   0.9821
  -5.100   0.2961   0.01124   0.00486  -0.1945  0.7487  0.0179  -2.1288   0.0000   0.0000   0.0000   0.9202
  -5.000   0.3095   0.01103   0.00461  -0.1951  0.7456  0.0183  -2.0874   0.0000   0.0000   0.0000   0.8929
  -4.900   0.3227   0.01086   0.00439  -0.1957  0.7422  0.0187  -2.0447   0.0000   0.0000   0.0000   0.8681
  -4.800   0.3356   0.01072   0.00421  -0.1961  0.7386  0.0193  -2.0009   0.0000   0.0000   0.0000   0.8455
  -4.700   0.3482   0.01062   0.00407  -0.1965  0.7350  0.0198  -1.9550   0.0000   0.0000   0.0000   0.8247
  -4.600   0.3605   0.01054   0.00396  -0.1968  0.7314  0.0204  -1.9070   0.0000   0.0000   0.0000   0.8056
  -4.500   0.3728   0.01048   0.00387  -0.1971  0.7280  0.0209  -1.8573   0.0000   0.0000   0.0000   0.7879
  -4.400   0.3849   0.01043   0.00379  -0.1973  0.7246  0.0214  -1.8062   0.0000   0.0000   0.0000   0.7713
  -4.300   0.3970   0.01040   0.00372  -0.1976  0.7215  0.0220  -1.7529   0.0000   0.0000   0.0000   0.7558
  -4.200   0.4095   0.01033   0.00365  -0.1979  0.7198  0.0224  -1.6997   0.0000   0.0000   0.0000   0.7410
  -4.100   0.4220   0.01026   0.00358  -0.1982  0.7180  0.0228  -1.6469   0.0000   0.0000   0.0000   0.7270
  -4.000   0.4345   0.01019   0.00351  -0.1985  0.7159  0.0231  -1.5950   0.0000   0.0000   0.0000   0.7138
  -3.900   0.4469   0.01012   0.00344  -0.1988  0.7136  0.0234  -1.5440   0.0000   0.0000   0.0000   0.7014
  -3.800   0.4594   0.01006   0.00337  -0.1991  0.7111  0.0237  -1.4940   0.0000   0.0000   0.0000   0.6896
  -3.700   0.4719   0.01000   0.00329  -0.1994  0.7084  0.0239  -1.4447   0.0000   0.0000   0.0000   0.6784
  -3.600   0.4841   0.00996   0.00324  -0.1997  0.7056  0.0245  -1.3914   0.0000   0.0000   0.0000   0.6679
  -3.500   0.4960   0.00993   0.00321  -0.1999  0.7027  0.0253  -1.3362   0.0000   0.0000   0.0000   0.6581
  -3.400   0.5079   0.00992   0.00319  -0.2000  0.6998  0.0260  -1.2820   0.0000   0.0000   0.0000   0.6487
  -3.300   0.5197   0.00991   0.00316  -0.2002  0.6968  0.0266  -1.2299   0.0000   0.0000   0.0000   0.6397
  -3.100   0.5450   0.00977   0.00296  -0.2009  0.6911  0.0277  -1.1429   0.0000   0.0000   0.0000   0.6226
  -3.000   0.5578   0.00970   0.00286  -0.2013  0.6890  0.0280  -1.1014   0.0000   0.0000   0.0000   0.6145
  -2.900   0.5704   0.00964   0.00279  -0.2016  0.6867  0.0281  -1.0601   0.0000   0.0000   0.0000   0.6068
  -2.800   0.5829   0.00959   0.00272  -0.2018  0.6842  0.0282  -1.0192   0.0000   0.0000   0.0000   0.5995
  -2.700   0.5952   0.00955   0.00265  -0.2021  0.6815  0.0284  -0.9795   0.0000   0.0000   0.0000   0.5925
  -2.600   0.6075   0.00952   0.00259  -0.2023  0.6788  0.0286  -0.9399   0.0000   0.0000   0.0000   0.5857
  -2.500   0.6197   0.00949   0.00254  -0.2025  0.6759  0.0288  -0.9003   0.0000   0.0000   0.0000   0.5793
  -2.400   0.6318   0.00947   0.00249  -0.2027  0.6730  0.0291  -0.8870   0.0000   0.0000   0.0000   0.5731
  -2.300   0.6438   0.00946   0.00242  -0.2029  0.6701  0.0295  -0.8957   0.0000   0.0000   0.0000   0.5671
  -2.200   0.6557   0.00945   0.00239  -0.2030  0.6671  0.0300  -0.9044   0.0000   0.0000   0.0000   0.5614
  -2.100   0.6675   0.00945   0.00236  -0.2031  0.6640  0.0307  -0.9130   0.0000   0.0000   0.0000   0.5559
  -2.000   0.6794   0.00946   0.00233  -0.2033  0.6609  0.0314  -0.9217   0.0000   0.0000   0.0000   0.5506
  -1.900   0.6916   0.00943   0.00231  -0.2035  0.6591  0.0323  -0.9306   0.0000   0.0000   0.0000   0.5455
  -1.800   0.7038   0.00941   0.00228  -0.2037  0.6568  0.0333  -0.9395   0.0000   0.0000   0.0000   0.5405
  -1.700   0.7158   0.00939   0.00226  -0.2039  0.6541  0.0344  -0.9483   0.0000   0.0000   0.0000   0.5357
  -1.600   0.7279   0.00938   0.00223  -0.2040  0.6510  0.0361  -0.9578   0.0000   0.0000   0.0000   0.5310
  -1.500   0.7398   0.00937   0.00221  -0.2042  0.6477  0.0373  -0.9681   0.0000   0.0000   0.0000   0.5265
  -1.400   0.7515   0.00938   0.00219  -0.2043  0.6440  0.0376  -0.9783   0.0000   0.0000   0.0000   0.5222
  -1.300   0.7631   0.00939   0.00218  -0.2044  0.6402  0.0378  -0.9885   0.0000   0.0000   0.0000   0.5180
  -1.200   0.7746   0.00941   0.00217  -0.2044  0.6362  0.0379  -0.9986   0.0000   0.0000   0.0000   0.5139
  -1.000   0.7974   0.00946   0.00216  -0.2045  0.6288  0.0382  -1.0187   0.0000   0.0000   0.0000   0.5061
  -0.900   0.8092   0.00946   0.00215  -0.2046  0.6258  0.0383  -1.0290   0.0000   0.0000   0.0000   0.5024
  -0.800   0.8209   0.00947   0.00215  -0.2047  0.6226  0.0386  -1.0392   0.0000   0.0000   0.0000   0.4987
  -0.700   0.8325   0.00949   0.00215  -0.2048  0.6192  0.0390  -1.0495   0.0000   0.0000   0.0000   0.4952
  -0.600   0.8440   0.00951   0.00215  -0.2049  0.6156  0.0395  -1.0597   0.0000   0.0000   0.0000   0.4917
  -0.500   0.8554   0.00953   0.00215  -0.2049  0.6118  0.0400  -1.0698   0.0000   0.0000   0.0000   0.4884
  -0.400   0.8667   0.00957   0.00216  -0.2049  0.6080  0.0408  -1.0799   0.0000   0.0000   0.0000   0.4852
  -0.300   0.8779   0.00960   0.00217  -0.2049  0.6041  0.0417  -1.0899   0.0000   0.0000   0.0000   0.4820
  -0.200   0.8890   0.00965   0.00218  -0.2049  0.6000  0.0430  -1.0999   0.0000   0.0000   0.0000   0.4789
  -0.100   0.9005   0.00967   0.00220  -0.2050  0.5968  0.0451  -1.1101   0.0000   0.0000   0.0000   0.4759
   0.000   0.9123   0.00967   0.00221  -0.2051  0.5941  0.0469  -1.1205   0.0000   0.0000   0.0000   0.4729
   0.100   0.9241   0.00967   0.00223  -0.2052  0.5907  0.0491  -1.1310   0.0000   0.0000   0.0000   0.4701
   0.200   0.9359   0.00968   0.00227  -0.2054  0.5865  0.0516  -1.1415   0.0000   0.0000   0.0000   0.4673
   0.300   0.9475   0.00969   0.00229  -0.2055  0.5817  0.0638  -1.1518   0.0000   0.0000   0.0000   0.4646
   0.400   0.9587   0.00973   0.00231  -0.2055  0.5763  0.0675  -1.1619   0.0000   0.0000   0.0000   0.4619
   0.500   0.9698   0.00978   0.00235  -0.2055  0.5698  0.0763  -1.1720   0.0000   0.0000   0.0000   0.4593
   0.600   0.9810   0.00981   0.00239  -0.2056  0.5626  0.0926  -1.1824   0.0000   0.0000   0.0000   0.4568
   0.700   0.9922   0.00986   0.00242  -0.2056  0.5548  0.1082  -1.1943   0.0000   0.0000   0.0000   0.4543
   0.800   1.0038   0.00987   0.00247  -0.2058  0.5454  0.1460  -1.2066   0.0000   0.0000   0.0000   0.4520
   0.900   1.0178   0.00977   0.00254  -0.2068  0.5353  0.2499  -1.2204   0.0000   0.0000   0.0000   0.4500
   1.000   1.0310   0.00970   0.00259  -0.2074  0.5287  0.3044  -1.2337   0.0000   0.0000   0.0000   0.4479
   1.100   1.0440   0.00964   0.00266  -0.2080  0.5203  0.3542  -1.2471   0.0000   0.0000   0.0000   0.4457
   1.200   1.0552   0.00970   0.00273  -0.2081  0.5096  0.3800  -1.2592   0.0000   0.0000   0.0000   0.4436
   1.300   1.0663   0.00977   0.00284  -0.2082  0.4986  0.4221  -1.2732   0.0000   0.0000   0.0000   0.4415
   1.400   1.0777   0.00981   0.00295  -0.2084  0.4906  0.4611  -1.2879   0.0000   0.0000   0.0000   0.4394
   1.500   1.0886   0.00989   0.00307  -0.2084  0.4824  0.4917  -1.3022   0.0000   0.0000   0.0000   0.4374
   1.600   1.0989   0.01001   0.00317  -0.2082  0.4743  0.5099  -1.3161   0.0000   0.0000   0.0000   0.4353
   1.700   1.1092   0.01011   0.00328  -0.2081  0.4671  0.5240  -1.3300   0.0000   0.0000   0.0000   0.4333
   1.800   1.1203   0.01016   0.00333  -0.2081  0.4629  0.5303  -1.3445   0.0000   0.0000   0.0000   0.4313
   1.900   1.1311   0.01023   0.00339  -0.2080  0.4567  0.5336  -1.3589   0.0000   0.0000   0.0000   0.4293
   2.000   1.1416   0.01032   0.00347  -0.2079  0.4471  0.5389  -1.3731   0.0000   0.0000   0.0000   0.4274
   2.200   1.1614   0.01060   0.00370  -0.2075  0.4290  0.5519  -1.4004   0.0000   0.0000   0.0000   0.4236
   2.300   1.1716   0.01071   0.00379  -0.2073  0.4225  0.5576  -1.4144   0.0000   0.0000   0.0000   0.4218
   2.400   1.1816   0.01084   0.00387  -0.2071  0.4161  0.5628  -1.4287   0.0000   0.0000   0.0000   0.4200
   2.500   1.1914   0.01097   0.00397  -0.2069  0.4094  0.5682  -1.4454   0.0000   0.0000   0.0000   0.4182
   2.600   1.2016   0.01108   0.00408  -0.2067  0.4029  0.5766  -1.4623   0.0000   0.0000   0.0000   0.4164
   2.700   1.2125   0.01114   0.00416  -0.2067  0.3997  0.5852  -1.4800   0.0000   0.0000   0.0000   0.4147
   2.800   1.2231   0.01121   0.00424  -0.2066  0.3951  0.5931  -1.4975   0.0000   0.0000   0.0000   0.4130
   2.900   1.2333   0.01132   0.00433  -0.2064  0.3868  0.5997  -1.5159   0.0000   0.0000   0.0000   0.4113
   3.000   1.2423   0.01150   0.00447  -0.2061  0.3736  0.6078  -1.5358   0.0000   0.0000   0.0000   0.4097
   3.100   1.2516   0.01167   0.00461  -0.2057  0.3653  0.6151  -1.5560   0.0000   0.0000   0.0000   0.4080
   3.200   1.2612   0.01182   0.00472  -0.2054  0.3585  0.6215  -1.5765   0.0000   0.0000   0.0000   0.4064
   3.300   1.2706   0.01198   0.00484  -0.2051  0.3517  0.6266  -1.5969   0.0000   0.0000   0.0000   0.4048
   3.500   1.2899   0.01225   0.00506  -0.2046  0.3388  0.6360  -1.6383   0.0000   0.0000   0.0000   0.4017
   3.600   1.3005   0.01231   0.00514  -0.2045  0.3355  0.6402  -1.6602   0.0000   0.0000   0.0000   0.4002
   3.700   1.3109   0.01239   0.00522  -0.2044  0.3300  0.6438  -1.6849   0.0000   0.0000   0.0000   0.3987
   3.800   1.3202   0.01254   0.00534  -0.2041  0.3185  0.6473  -1.7159   0.0000   0.0000   0.0000   0.3972
   3.900   1.3281   0.01281   0.00555  -0.2036  0.3049  0.6506  -1.7446   0.0000   0.0000   0.0000   0.3958
   4.000   1.3371   0.01299   0.00569  -0.2032  0.2972  0.6537  -1.7751   0.0000   0.0000   0.0000   0.3943
   4.100   1.3458   0.01319   0.00582  -0.2028  0.2895  0.6566  -1.8055   0.0000   0.0000   0.0000   0.3929
   4.200   1.3547   0.01338   0.00596  -0.2024  0.2816  0.6593  -1.8361   0.0000   0.0000   0.0000   0.3915
   4.400   1.3747   0.01357   0.00615  -0.2021  0.2726  0.6660  -1.9015   0.0000   0.0000   0.0000   0.3887
   4.500   1.3841   0.01370   0.00628  -0.2018  0.2636  0.6695  -1.9335   0.0000   0.0000   0.0000   0.3874
   4.600   1.3908   0.01402   0.00651  -0.2011  0.2470  0.6727  -1.9613   0.0000   0.0000   0.0000   0.3860
   4.700   1.3992   0.01423   0.00667  -0.2006  0.2403  0.6760  -1.9918   0.0000   0.0000   0.0000   0.3847
   4.800   1.4075   0.01443   0.00684  -0.2001  0.2338  0.6794  -2.0224   0.0000   0.0000   0.0000   0.3833
   4.900   1.4158   0.01464   0.00700  -0.1997  0.2269  0.6828  -2.0530   0.0000   0.0000   0.0000   0.3820
   5.000   1.4250   0.01478   0.00712  -0.1993  0.2218  0.6861  -2.0852   0.0000   0.0000   0.0000   0.3807
   5.100   1.4347   0.01488   0.00723  -0.1991  0.2191  0.6893  -2.1186   0.0000   0.0000   0.0000   0.3795
   5.300   1.4523   0.01518   0.00752  -0.1983  0.2035  0.6964  -2.1825   0.0000   0.0000   0.0000   0.3770
   5.400   1.4579   0.01555   0.00780  -0.1974  0.1908  0.7002  -2.2092   0.0000   0.0000   0.0000   0.3757
   5.500   1.4643   0.01585   0.00803  -0.1966  0.1822  0.7040  -2.2374   0.0000   0.0000   0.0000   0.3744
   5.600   1.4707   0.01615   0.00828  -0.1958  0.1718  0.7080  -2.2654   0.0000   0.0000   0.0000   0.3731
   5.700   1.4792   0.01630   0.00843  -0.1954  0.1662  0.7124  -2.2973   0.0000   0.0000   0.0000   0.3719
   5.800   1.4838   0.01669   0.00874  -0.1943  0.1458  0.7165  -2.3229   0.0000   0.0000   0.0000   0.3706
   5.900   1.4879   0.01712   0.00905  -0.1932  0.1369  0.7205  -2.3475   0.0000   0.0000   0.0000   0.3693
   6.000   1.4930   0.01746   0.00933  -0.1922  0.1266  0.7252  -2.3735   0.0000   0.0000   0.0000   0.3680
   6.100   1.5003   0.01763   0.00952  -0.1915  0.1214  0.7306  -2.4039   0.0000   0.0000   0.0000   0.3668
   6.300   1.5007   0.01861   0.01035  -0.1877  0.0925  0.7409  -2.4406   0.0000   0.0000   0.0000   0.3640
   6.400   1.5063   0.01887   0.01060  -0.1868  0.0871  0.7466  -2.4680   0.0000   0.0000   0.0000   0.3627
   6.500   1.5135   0.01905   0.01079  -0.1862  0.0845  0.7521  -2.4981   0.0000   0.0000   0.0000   0.3615
   6.600   1.5211   0.01919   0.01097  -0.1856  0.0838  0.7585  -2.5295   0.0000   0.0000   0.0000   0.3604
   6.700   1.5287   0.01934   0.01115  -0.1850  0.0830  0.7652  -2.5608   0.0000   0.0000   0.0000   0.3592
   6.800   1.5361   0.01950   0.01133  -0.1844  0.0819  0.7721  -2.5920   0.0000   0.0000   0.0000   0.3581
   7.000   1.5505   0.01985   0.01173  -0.1831  0.0784  0.7861  -2.6535   0.0000   0.0000   0.0000   0.3558
   7.100   1.5570   0.02005   0.01196  -0.1824  0.0746  0.7941  -2.6834   0.0000   0.0000   0.0000   0.3547
   7.200   1.5609   0.02043   0.01231  -0.1812  0.0665  0.8023  -2.7094   0.0000   0.0000   0.0000   0.3535
   7.300   1.5661   0.02071   0.01260  -0.1803  0.0651  0.8108  -2.7373   0.0000   0.0000   0.0000   0.3524
   7.400   1.5709   0.02101   0.01290  -0.1793  0.0637  0.8209  -2.7646   0.0000   0.0000   0.0000   0.3512
   7.500   1.5756   0.02133   0.01321  -0.1784  0.0620  0.8316  -2.7916   0.0000   0.0000   0.0000   0.3501
   7.600   1.5802   0.02162   0.01352  -0.1773  0.0602  0.8448  -2.8183   0.0000   0.0000   0.0000   0.3489
   7.700   1.5849   0.02190   0.01383  -0.1764  0.0582  0.8610  -2.8451   0.0000   0.0000   0.0000   0.3478
   7.800   1.5890   0.02213   0.01411  -0.1752  0.0565  0.8870  -2.8708   0.0000   0.0000   0.0000   0.3466
   7.900   1.5883   0.02224   0.01429  -0.1731  0.0554  1.0005  -2.8877   0.0000   0.0000   0.0000   0.3452
   8.000   1.5942   0.02255   0.01460  -0.1724  0.0540  1.0005  -2.9165   0.0000   0.0000   0.0000   0.3442
   8.100   1.6003   0.02285   0.01491  -0.1717  0.0526  1.0005  -2.9453   0.0000   0.0000   0.0000   0.3432
   8.200   1.6065   0.02314   0.01520  -0.1711  0.0517  1.0005  -2.9757   0.0000   0.0000   0.0000   0.3422
   8.300   1.6131   0.02341   0.01549  -0.1705  0.0514  1.0005  -3.0098   0.0000   0.0000   0.0000   0.3412
   8.400   1.6195   0.02369   0.01579  -0.1699  0.0510  1.0005  -3.0433   0.0000   0.0000   0.0000   0.3402
   8.500   1.6256   0.02399   0.01610  -0.1693  0.0505  1.0005  -3.0764   0.0000   0.0000   0.0000   0.3393
   8.600   1.6316   0.02429   0.01643  -0.1687  0.0500  1.0005  -3.1091   0.0000   0.0000   0.0000   0.3383
   8.700   1.6374   0.02461   0.01676  -0.1680  0.0493  1.0005  -3.1414   0.0000   0.0000   0.0000   0.3374
   8.800   1.6429   0.02495   0.01712  -0.1673  0.0485  1.0005  -3.1730   0.0000   0.0000   0.0000   0.3364
   8.900   1.6491   0.02525   0.01748  -0.1667  0.0491  1.0005  -3.2013   0.0000   0.0000   0.0000   0.3355
   9.000   1.6547   0.02560   0.01784  -0.1661  0.0487  1.0005  -3.2322   0.0000   0.0000   0.0000   0.3346
   9.100   1.6601   0.02596   0.01822  -0.1654  0.0480  1.0005  -3.2635   0.0000   0.0000   0.0000   0.3337
   9.200   1.6652   0.02635   0.01862  -0.1647  0.0472  1.0005  -3.2947   0.0000   0.0000   0.0000   0.3328
   9.300   1.6699   0.02677   0.01905  -0.1640  0.0461  1.0005  -3.3256   0.0000   0.0000   0.0000   0.3319
   9.400   1.6744   0.02722   0.01950  -0.1633  0.0449  1.0005  -3.3564   0.0000   0.0000   0.0000   0.3310
   9.500   1.6783   0.02771   0.02000  -0.1625  0.0435  1.0005  -3.3868   0.0000   0.0000   0.0000   0.3301
   9.600   1.6815   0.02827   0.02055  -0.1616  0.0420  1.0005  -3.4158   0.0000   0.0000   0.0000   0.3292
   9.700   1.6844   0.02886   0.02114  -0.1608  0.0402  1.0005  -3.4440   0.0000   0.0000   0.0000   0.3284
   9.800   1.6878   0.02941   0.02170  -0.1600  0.0383  1.0005  -3.4721   0.0000   0.0000   0.0000   0.3275
   9.900   1.6930   0.02983   0.02212  -0.1594  0.0376  1.0005  -3.5086   0.0000   0.0000   0.0000   0.3267
  10.000   1.6976   0.03030   0.02259  -0.1588  0.0363  1.0005  -3.5440   0.0000   0.0000   0.0000   0.3259
  10.100   1.7014   0.03084   0.02312  -0.1581  0.0338  1.0005  -3.5792   0.0000   0.0000   0.0000   0.3251
  10.200   1.7001   0.03180   0.02401  -0.1570  0.0264  1.0005  -3.6151   0.0000   0.0000   0.0000   0.3243
  10.300   1.6978   0.03287   0.02502  -0.1557  0.0221  1.0005  -3.6299   0.0000   0.0000   0.0000   0.3235
  10.400   1.6969   0.03382   0.02594  -0.1547  0.0174  1.0005  -3.6388   0.0000   0.0000   0.0000   0.3227
  10.500   1.7004   0.03440   0.02653  -0.1540  0.0159  1.0005  -3.6723   0.0000   0.0000   0.0000   0.3219
  10.700   1.6918   0.03698   0.02913  -0.1514  0.0044  1.0005  -3.6983   0.0000   0.0000   0.0000   0.3204
  10.800   1.6941   0.03772   0.02988  -0.1507  0.0042  1.0005  -3.7325   0.0000   0.0000   0.0000   0.3197
  10.900   1.6961   0.03848   0.03068  -0.1500  0.0040  1.0005  -3.7652   0.0000   0.0000   0.0000   0.3190
  11.000   1.6982   0.03925   0.03147  -0.1493  0.0039  1.0005  -3.7973   0.0000   0.0000   0.0000   0.3183
  11.100   1.7006   0.04000   0.03225  -0.1487  0.0037  1.0005  -3.8294   0.0000   0.0000   0.0000   0.3175
  11.200   1.7032   0.04073   0.03301  -0.1481  0.0036  1.0005  -3.8614   0.0000   0.0000   0.0000   0.3168
  11.300   1.7059   0.04146   0.03377  -0.1475  0.0035  1.0005  -3.8932   0.0000   0.0000   0.0000   0.3162
  11.400   1.7082   0.04224   0.03458  -0.1469  0.0034  1.0005  -3.9239   0.0000   0.0000   0.0000   0.3155
  11.500   1.7104   0.04303   0.03540  -0.1463  0.0033  1.0005  -3.9545   0.0000   0.0000   0.0000   0.3148
  11.600   1.7129   0.04380   0.03620  -0.1458  0.0033  1.0005  -3.9858   0.0000   0.0000   0.0000   0.3142
  11.700   1.7155   0.04456   0.03700  -0.1453  0.0032  1.0005  -4.0174   0.0000   0.0000   0.0000   0.3135
  11.800   1.7181   0.04533   0.03783  -0.1447  0.0032  1.0005  -4.0484   0.0000   0.0000   0.0000   0.3129
  11.900   1.7202   0.04616   0.03869  -0.1442  0.0031  1.0005  -4.0784   0.0000   0.0000   0.0000   0.3122
  12.000   1.7221   0.04703   0.03959  -0.1437  0.0031  1.0005  -4.1079   0.0000   0.0000   0.0000   0.3116
  12.100   1.7242   0.04787   0.04047  -0.1432  0.0031  1.0005  -4.1380   0.0000   0.0000   0.0000   0.3110
  12.200   1.7264   0.04870   0.04134  -0.1427  0.0030  1.0005  -4.1685   0.0000   0.0000   0.0000   0.3104
  12.300   1.7287   0.04953   0.04220  -0.1422  0.0030  1.0005  -4.2056   0.0000   0.0000   0.0000   0.3098
  12.400   1.7309   0.05036   0.04307  -0.1417  0.0030  1.0005  -4.2642   0.0000   0.0000   0.0000   0.3092
  12.500   1.7327   0.05126   0.04400  -0.1413  0.0030  1.0005  -4.3209   0.0000   0.0000   0.0000   0.3086
  12.600   1.7339   0.05223   0.04501  -0.1408  0.0030  1.0005  -4.3752   0.0000   0.0000   0.0000   0.3081
  12.700   1.7352   0.05319   0.04601  -0.1404  0.0030  1.0005  -4.4302   0.0000   0.0000   0.0000   0.3076
  12.800   1.7367   0.05412   0.04698  -0.1399  0.0030  1.0005  -4.4858   0.0000   0.0000   0.0000   0.3070
  12.900   1.7381   0.05505   0.04795  -0.1395  0.0030  1.0005  -4.5415   0.0000   0.0000   0.0000   0.3065
  13.000   1.7395   0.05599   0.04893  -0.1390  0.0030  1.0005  -4.5972   0.0000   0.0000   0.0000   0.3059
  13.100   1.7401   0.05704   0.05003  -0.1386  0.0030  1.0005  -4.6491   0.0000   0.0000   0.0000   0.3054
  13.200   1.7404   0.05814   0.05117  -0.1382  0.0030  1.0005  -4.6998   0.0000   0.0000   0.0000   0.3049
  13.300   1.7412   0.05920   0.05227  -0.1378  0.0030  1.0005  -4.7524   0.0000   0.0000   0.0000   0.3045
  13.400   1.7421   0.06024   0.05335  -0.1374  0.0030  1.0005  -4.8063   0.0000   0.0000   0.0000   0.3040
  13.500   1.7432   0.06128   0.05442  -0.1370  0.0030  1.0005  -4.8607   0.0000   0.0000   0.0000   0.3035
  13.600   1.7443   0.06232   0.05551  -0.1367  0.0030  1.0005  -4.9151   0.0000   0.0000   0.0000   0.3030
  13.700   1.7448   0.06344   0.05667  -0.1363  0.0030  1.0005  -4.9670   0.0000   0.0000   0.0000   0.3025
  13.800   1.7447   0.06468   0.05796  -0.1361  0.0030  1.0005  -5.0147   0.0000   0.0000   0.0000   0.3021
  13.900   1.7447   0.06590   0.05922  -0.1358  0.0030  1.0005  -5.0637   0.0000   0.0000   0.0000   0.3017
  14.000   1.7450   0.06708   0.06043  -0.1355  0.0030  1.0005  -5.1142   0.0000   0.0000   0.0000   0.3013
  14.100   1.7455   0.06824   0.06164  -0.1352  0.0030  1.0005  -5.1653   0.0000   0.0000   0.0000   0.3009
  14.200   1.7460   0.06941   0.06285  -0.1349  0.0030  1.0005  -5.2164   0.0000   0.0000   0.0000   0.3005
  14.300   1.7457   0.07069   0.06418  -0.1347  0.0030  1.0005  -5.2633   0.0000   0.0000   0.0000   0.3001
  14.400   1.7447   0.07209   0.06562  -0.1345  0.0030  1.0005  -5.3064   0.0000   0.0000   0.0000   0.2998
  14.500   1.7443   0.07341   0.06698  -0.1343  0.0030  1.0005  -5.3526   0.0000   0.0000   0.0000   0.2995
  14.600   1.7443   0.07468   0.06829  -0.1341  0.0031  1.0005  -5.4002   0.0000   0.0000   0.0000   0.2991
  14.700   1.7442   0.07594   0.06959  -0.1339  0.0031  1.0005  -5.4481   0.0000   0.0000   0.0000   0.2988
  14.800   1.7441   0.07721   0.07090  -0.1337  0.0031  1.0005  -5.4954   0.0000   0.0000   0.0000   0.2984
  14.900   1.7438   0.07852   0.07226  -0.1335  0.0031  1.0005  -5.5414   0.0000   0.0000   0.0000   0.2981
  15.000   1.7423   0.08005   0.07382  -0.1335  0.0031  1.0005  -5.5807   0.0000   0.0000   0.0000   0.2979
  15.100   1.7410   0.08153   0.07535  -0.1334  0.0031  1.0005  -5.6209   0.0000   0.0000   0.0000   0.2977
  15.200   1.7401   0.08294   0.07681  -0.1333  0.0031  1.0005  -5.6634   0.0000   0.0000   0.0000   0.2974
  15.300   1.7394   0.08433   0.07823  -0.1332  0.0031  1.0005  -5.7072   0.0000   0.0000   0.0000   0.2971
  15.400   1.7387   0.08572   0.07967  -0.1331  0.0032  1.0005  -5.7507   0.0000   0.0000   0.0000   0.2969
  15.500   1.7372   0.08725   0.08127  -0.1331  0.0032  1.0005  -5.7915   0.0000   0.0000   0.0000   0.2967
  15.600   1.7349   0.08892   0.08298  -0.1332  0.0032  1.0005  -5.8260   0.0000   0.0000   0.0000   0.2966
  15.700   1.7333   0.09046   0.08457  -0.1332  0.0032  1.0005  -5.8643   0.0000   0.0000   0.0000   0.2964
  15.800   1.7321   0.09194   0.08610  -0.1332  0.0032  1.0005  -5.9048   0.0000   0.0000   0.0000   0.2962
  15.900   1.7309   0.09341   0.08761  -0.1332  0.0032  1.0005  -5.9446   0.0000   0.0000   0.0000   0.2960
  16.000   1.7294   0.09490   0.08914  -0.1332  0.0033  1.0005  -5.9829   0.0000   0.0000   0.0000   0.2958
  16.100   1.7270   0.09651   0.09080  -0.1333  0.0033  1.0005  -6.0163   0.0000   0.0000   0.0000   0.2957
  16.200   1.7237   0.09834   0.09268  -0.1334  0.0033  1.0005  -6.0434   0.0000   0.0000   0.0000   0.2957
  16.300   1.7211   0.10006   0.09444  -0.1336  0.0033  1.0005  -6.0744   0.0000   0.0000   0.0000   0.2957
  16.400   1.7189   0.10170   0.09613  -0.1337  0.0033  1.0005  -6.1076   0.0000   0.0000   0.0000   0.2956
  16.500   1.7168   0.10334   0.09782  -0.1339  0.0033  1.0005  -6.1410   0.0000   0.0000   0.0000   0.2956
  16.600   1.7143   0.10507   0.09959  -0.1341  0.0034  1.0005  -6.1715   0.0000   0.0000   0.0000   0.2955
  16.700   1.7105   0.10706   0.10164  -0.1344  0.0034  1.0005  -6.1939   0.0000   0.0000   0.0000   0.2957
  16.800   1.7075   0.10890   0.10353  -0.1347  0.0034  1.0005  -6.2210   0.0000   0.0000   0.0000   0.2957
  16.900   1.7051   0.11063   0.10530  -0.1350  0.0034  1.0005  -6.2517   0.0000   0.0000   0.0000   0.2958
  17.000   1.7029   0.11233   0.10705  -0.1353  0.0034  1.0005  -6.2830   0.0000   0.0000   0.0000   0.2958
  17.100   1.7008   0.11404   0.10881  -0.1356  0.0035  1.0005  -6.3143   0.0000   0.0000   0.0000   0.2958
  17.200   1.6980   0.11587   0.11069  -0.1360  0.0035  1.0005  -6.3415   0.0000   0.0000   0.0000   0.2959
  17.300   1.6939   0.11798   0.11285  -0.1365  0.0035  1.0005  -6.3591   0.0000   0.0000   0.0000   0.2962
  17.400   1.6906   0.11993   0.11485  -0.1370  0.0035  1.0005  -6.3819   0.0000   0.0000   0.0000   0.2963
  17.500   1.6877   0.12178   0.11675  -0.1375  0.0035  1.0005  -6.4072   0.0000   0.0000   0.0000   0.2965
  17.600   1.6852   0.12361   0.11863  -0.1379  0.0036  1.0005  -6.4338   0.0000   0.0000   0.0000   0.2966
  17.700   1.6817   0.12561   0.12068  -0.1385  0.0036  1.0005  -6.4542   0.0000   0.0000   0.0000   0.2969
  17.800   1.6773   0.12781   0.12294  -0.1392  0.0036  1.0005  -6.4677   0.0000   0.0000   0.0000   0.2973
  17.900   1.6741   0.12979   0.12496  -0.1398  0.0036  1.0005  -6.4880   0.0000   0.0000   0.0000   0.2976
  18.000   1.6714   0.13165   0.12688  -0.1404  0.0036  1.0005  -6.5121   0.0000   0.0000   0.0000   0.2978
  18.100   1.6689   0.13349   0.12877  -0.1410  0.0037  1.0005  -6.5369   0.0000   0.0000   0.0000   0.2980
  18.200   1.6663   0.13536   0.13069  -0.1416  0.0037  1.0005  -6.5602   0.0000   0.0000   0.0000   0.2982
  18.300   1.6625   0.13747   0.13286  -0.1424  0.0037  1.0005  -6.5746   0.0000   0.0000   0.0000   0.2986
  18.400   1.6580   0.13973   0.13517  -0.1433  0.0037  1.0005  -6.5836   0.0000   0.0000   0.0000   0.2992
  18.500   1.6547   0.14177   0.13726  -0.1440  0.0038  1.0005  -6.6003   0.0000   0.0000   0.0000   0.2995
  18.600   1.6518   0.14373   0.13928  -0.1448  0.0038  1.0005  -6.6190   0.0000   0.0000   0.0000   0.2999
  18.700   1.6489   0.14570   0.14130  -0.1456  0.0038  1.0005  -6.6371   0.0000   0.0000   0.0000   0.3003
  18.800   1.6443   0.14802   0.14368  -0.1466  0.0038  1.0005  -6.6425   0.0000   0.0000   0.0000   0.3009
  18.900   1.6402   0.15025   0.14596  -0.1476  0.0038  1.0005  -6.6509   0.0000   0.0000   0.0000   0.3015
  19.000   1.6373   0.15226   0.14802  -0.1485  0.0039  1.0005  -6.6666   0.0000   0.0000   0.0000   0.3019
  19.100   1.6346   0.15421   0.15002  -0.1493  0.0039  1.0005  -6.6838   0.0000   0.0000   0.0000   0.3023
  19.200   1.6320   0.15615   0.15202  -0.1502  0.0039  1.0005  -6.7003   0.0000   0.0000   0.0000   0.3027
  19.300   1.6291   0.15814   0.15406  -0.1511  0.0039  1.0005  -6.7148   0.0000   0.0000   0.0000   0.3032
  19.400   1.6249   0.16045   0.15643  -0.1523  0.0040  1.0005  -6.7179   0.0000   0.0000   0.0000   0.3039
  19.500   1.6207   0.16279   0.15883  -0.1534  0.0040  1.0005  -6.7199   0.0000   0.0000   0.0000   0.3046
  19.600   1.6174   0.16492   0.16100  -0.1545  0.0040  1.0005  -6.7285   0.0000   0.0000   0.0000   0.3052
  19.700   1.6146   0.16690   0.16303  -0.1556  0.0040  1.0005  -6.7390   0.0000   0.0000   0.0000   0.3058
  19.800   1.6119   0.16883   0.16502  -0.1567  0.0041  1.0005  -6.7489   0.0000   0.0000   0.0000   0.3064
  19.900   1.6077   0.17109   0.16733  -0.1581  0.0041  1.0005  -6.7463   0.0000   0.0000   0.0000   0.3072
  20.000   1.6044   0.17317   0.16947  -0.1593  0.0041  1.0005  -6.7494   0.0000   0.0000   0.0000   0.3080
  20.100   1.6019   0.17508   0.17144  -0.1605  0.0041  1.0005  -6.7579   0.0000   0.0000   0.0000   0.3086
  20.200   1.5996   0.17697   0.17337  -0.1616  0.0042  1.0005  -6.7673   0.0000   0.0000   0.0000   0.3092
  20.300   1.5972   0.17887   0.17533  -0.1628  0.0042  1.0005  -6.7756   0.0000   0.0000   0.0000   0.3098
  20.400   1.5948   0.18083   0.17734  -0.1639  0.0042  1.0005  -6.7818   0.0000   0.0000   0.0000   0.3104
  20.500   1.5918   0.18296   0.17952  -0.1652  0.0042  1.0005  -6.7824   0.0000   0.0000   0.0000   0.3111
  20.600   1.5875   0.18542   0.18204  -0.1668  0.0043  1.0005  -6.7715   0.0000   0.0000   0.0000   0.3121
  20.700   1.5841   0.18769   0.18436  -0.1681  0.0043  1.0005  -6.7669   0.0000   0.0000   0.0000   0.3130
  20.800   1.5811   0.18989   0.18661  -0.1695  0.0043  1.0005  -6.7636   0.0000   0.0000   0.0000   0.3138
  20.900   1.5781   0.19211   0.18888  -0.1708  0.0044  1.0005  -6.7593   0.0000   0.0000   0.0000   0.3146
  21.000   1.5745   0.19453   0.19136  -0.1723  0.0044  1.0005  -6.7476   0.0000   0.0000   0.0000   0.3155
  21.100   1.5701   0.19718   0.19407  -0.1739  0.0044  1.0005  -6.7278   0.0000   0.0000   0.0000   0.3166
  21.200   1.5665   0.19964   0.19658  -0.1754  0.0044  1.0005  -6.7111   0.0000   0.0000   0.0000   0.3175
  21.300   1.5627   0.20214   0.19915  -0.1769  0.0045  1.0005  -6.6869   0.0000   0.0000   0.0000   0.3185
  21.400   1.5553   0.20545   0.20257  -0.1788  0.0046  1.0005  -6.5916   0.0000   0.0000   0.0000   0.3201
  21.500   1.5547   0.20729   0.20444  -0.1799  0.0047  1.0005  -6.6169   0.0000   0.0000   0.0000   0.3206
  21.600   1.5540   0.20916   0.20634  -0.1810  0.0047  1.0005  -6.6410   0.0000   0.0000   0.0000   0.3210
  21.700   1.5531   0.21111   0.20832  -0.1822  0.0047  1.0005  -6.6621   0.0000   0.0000   0.0000   0.3216
  21.800   1.5508   0.21349   0.21074  -0.1836  0.0048  1.0005  -6.6661   0.0000   0.0000   0.0000   0.3224
  21.900   1.5484   0.21591   0.21321  -0.1851  0.0048  1.0005  -6.6688   0.0000   0.0000   0.0000   0.3233
  22.000   1.5467   0.21811   0.21545  -0.1864  0.0049  1.0005  -6.6800   0.0000   0.0000   0.0000   0.3240
  22.100   1.5456   0.22021   0.21758  -0.1876  0.0049  1.0005  -6.6957   0.0000   0.0000   0.0000   0.3246
  22.200   1.5445   0.22231   0.21971  -0.1888  0.0050  1.0005  -6.7115   0.0000   0.0000   0.0000   0.3252
  22.300   1.5432   0.22446   0.22189  -0.1901  0.0050  1.0005  -6.7252   0.0000   0.0000   0.0000   0.3259
  22.400   1.5403   0.22717   0.22464  -0.1917  0.0050  1.0005  -6.7173   0.0000   0.0000   0.0000   0.3269
  22.500   1.5380   0.22967   0.22718  -0.1932  0.0051  1.0005  -6.7174   0.0000   0.0000   0.0000   0.3278
  22.600   1.5366   0.23192   0.22946  -0.1945  0.0051  1.0005  -6.7272   0.0000   0.0000   0.0000   0.3285
  22.700   1.5356   0.23409   0.23166  -0.1957  0.0052  1.0005  -6.7401   0.0000   0.0000   0.0000   0.3291
  22.800   1.5346   0.23623   0.23383  -0.1969  0.0053  1.0005  -6.7542   0.0000   0.0000   0.0000   0.3297
  22.900   1.5336   0.23842   0.23605  -0.1982  0.0053  1.0005  -6.7664   0.0000   0.0000   0.0000   0.3304
  23.000   1.5324   0.24069   0.23836  -0.1995  0.0054  1.0005  -6.7750   0.0000   0.0000   0.0000   0.3310
  23.100   1.5308   0.24309   0.24079  -0.2008  0.0055  1.0005  -6.7784   0.0000   0.0000   0.0000   0.3318
  23.200   1.5283   0.24583   0.24357  -0.2024  0.0055  1.0005  -6.7687   0.0000   0.0000   0.0000   0.3328
  23.300   1.5244   0.24911   0.24690  -0.2042  0.0056  1.0005  -6.7383   0.0000   0.0000   0.0000   0.3341
  23.400   1.5217   0.25199   0.24982  -0.2058  0.0056  1.0005  -6.7230   0.0000   0.0000   0.0000   0.3352
  23.500   1.5192   0.25482   0.25269  -0.2074  0.0057  1.0005  -6.7094   0.0000   0.0000   0.0000   0.3362
  23.600   1.5166   0.25774   0.25565  -0.2090  0.0058  1.0005  -6.6918   0.0000   0.0000   0.0000   0.3372
  23.700   1.5125   0.26125   0.25922  -0.2109  0.0058  1.0005  -6.6515   0.0000   0.0000   0.0000   0.3387
  23.800   1.5082   0.26487   0.26288  -0.2128  0.0059  1.0005  -6.6069   0.0000   0.0000   0.0000   0.3401
  23.900   1.5053   0.26805   0.26612  -0.2145  0.0060  1.0005  -6.5778   0.0000   0.0000   0.0000   0.3413
  24.000   1.5023   0.27129   0.26940  -0.2162  0.0061  1.0005  -6.5451   0.0000   0.0000   0.0000   0.3425
  24.100   1.4988   0.27477   0.27294  -0.2179  0.0062  1.0005  -6.5013   0.0000   0.0000   0.0000   0.3438
  24.200   1.4944   0.27866   0.27689  -0.2199  0.0063  1.0005  -6.4412   0.0000   0.0000   0.0000   0.3454
  24.300   1.4876   0.28368   0.28197  -0.2224  0.0063  1.0005  -6.3431   0.0000   0.0000   0.0000   0.3476
  24.400   1.4809   0.28876   0.28711  -0.2248  0.0064  1.0005  -6.2408   0.0000   0.0000   0.0000   0.3499
  24.500   1.4738   0.29413   0.29254  -0.2273  0.0064  1.0005  -6.1270   0.0000   0.0000   0.0000   0.3522
  24.600   1.4654   0.30030   0.29876  -0.2301  0.0064  1.0005  -5.9852   0.0000   0.0000   0.0000   0.3550
  24.700   1.4579   0.30624   0.30477  -0.2327  0.0065  1.0005  -5.8422   0.0000   0.0000   0.0000   0.3575
  24.800   1.4477   0.31374   0.31234  -0.2358  0.0066  1.0005  -5.6407   0.0000   0.0000   0.0000   0.3609
  24.900   1.4305   0.32547   0.32411  -0.2403  0.0065  1.0005  -5.2846   0.0000   0.0000   0.0000   0.3664


