xflr5 v6.61

 Calculated polar for: WORTMANN FX 60-126 AIRFOIL

 1 1 Reynolds number fixed          Mach number fixed         

 xtrf =   1.000 (top)        1.000 (bottom)
 Mach =   0.000     Re =     0.160 e 6     Ncrit =   9.000

  alpha     CL        CD       CDp       Cm    Top Xtr Bot Xtr   Cpmin    Chinge    XCp    
 ------- -------- --------- --------- -------- ------- ------- -------- --------- ---------
 -10.000  -0.3695   0.10148   0.09753  -0.0407  1.0000  0.0701  -1.7355   0.0000   0.0000   0.0000   0.1265
  -9.900  -0.3665   0.10029   0.09635  -0.0408  1.0000  0.0705  -1.7243   0.0000   0.0000   0.0000   0.1256
  -9.400  -0.4157   0.07432   0.07043  -0.0547  1.0000  0.0373  -2.7475   0.0000   0.0000   0.0000   0.1053
  -9.300  -0.4221   0.07197   0.06811  -0.0554  1.0000  0.0367  -2.8003   0.0000   0.0000   0.0000   0.1058
  -9.200  -0.4315   0.06920   0.06537  -0.0568  1.0000  0.0362  -2.8768   0.0000   0.0000   0.0000   0.1058
  -9.100  -0.4429   0.06655   0.06274  -0.0581  1.0000  0.0359  -2.9564   0.0000   0.0000   0.0000   0.1066
  -9.000  -0.4555   0.06432   0.06053  -0.0590  1.0000  0.0357  -3.0277   0.0000   0.0000   0.0000   0.1087
  -8.900  -0.4690   0.06268   0.05890  -0.0590  1.0000  0.0356  -3.0860   0.0000   0.0000   0.0000   0.1127
  -8.800  -0.4834   0.06160   0.05785  -0.0582  1.0000  0.0357  -3.1318   0.0000   0.0000   0.0000   0.1185
  -8.700  -0.4982   0.06089   0.05716  -0.0569  1.0000  0.0357  -3.1698   0.0000   0.0000   0.0000   0.1251
  -8.600  -0.5122   0.05997   0.05626  -0.0562  1.0000  0.0358  -3.2091   0.0000   0.0000   0.0000   0.1300
  -8.500  -0.5247   0.05868   0.05497  -0.0564  1.0000  0.0358  -3.2519   0.0000   0.0000   0.0000   0.1326
  -8.400  -0.5359   0.05719   0.05346  -0.0572  1.0000  0.0357  -3.2954   0.0000   0.0000   0.0000   0.1337
  -8.300  -0.5456   0.05551   0.05174  -0.0584  1.0000  0.0356  -3.3390   0.0000   0.0000   0.0000   0.1336
  -8.200  -0.5535   0.05377   0.04994  -0.0594  1.0000  0.0354  -3.3800   0.0000   0.0000   0.0000   0.1335
  -8.100  -0.5599   0.05197   0.04806  -0.0603  1.0000  0.0350  -3.4197   0.0000   0.0000   0.0000   0.1334
  -8.000  -0.5648   0.05005   0.04604  -0.0613  1.0000  0.0346  -3.4602   0.0000   0.0000   0.0000   0.1328
  -7.900  -0.5681   0.04798   0.04386  -0.0623  1.0000  0.0340  -3.5031   0.0000   0.0000   0.0000   0.1316
  -7.800  -0.5698   0.04573   0.04146  -0.0636  1.0000  0.0334  -3.5512   0.0000   0.0000   0.0000   0.1299
  -7.700  -0.5698   0.04324   0.03876  -0.0650  1.0000  0.0325  -3.6099   0.0000   0.0000   0.0000   0.1274
  -7.600  -0.5628   0.03930   0.03441  -0.0686  0.9991  0.0310  -3.7253   0.0000   0.0000   0.0000   0.1196
  -7.500  -0.5481   0.03485   0.02929  -0.0728  0.9974  0.0290  -3.8856   0.0000   0.0000   0.0000   0.1084
  -7.400  -0.5319   0.03287   0.02695  -0.0751  0.9960  0.0282  -3.9103   0.0000   0.0000   0.0000   0.1000
  -7.300  -0.5163   0.03160   0.02546  -0.0767  0.9944  0.0278  -3.8888   0.0000   0.0000   0.0000   0.0924
  -7.200  -0.5010   0.03053   0.02420  -0.0782  0.9929  0.0276  -3.8537   0.0000   0.0000   0.0000   0.0849
  -7.100  -0.4857   0.02951   0.02303  -0.0795  0.9916  0.0275  -3.8138   0.0000   0.0000   0.0000   0.0771
  -7.000  -0.4703   0.02851   0.02189  -0.0809  0.9905  0.0274  -3.7727   0.0000   0.0000   0.0000   0.0688
  -6.900  -0.4563   0.02753   0.02079  -0.0819  0.9889  0.0274  -3.7344   0.0000   0.0000   0.0000   0.0612
  -6.800  -0.4421   0.02656   0.01970  -0.0829  0.9874  0.0274  -3.6964   0.0000   0.0000   0.0000   0.0530
  -6.700  -0.4275   0.02558   0.01863  -0.0839  0.9861  0.0275  -3.6583   0.0000   0.0000   0.0000   0.0440
  -6.600  -0.4127   0.02463   0.01760  -0.0850  0.9849  0.0277  -3.6187   0.0000   0.0000   0.0000   0.0343
  -6.500  -0.3975   0.02374   0.01666  -0.0861  0.9839  0.0280  -3.5752   0.0000   0.0000   0.0000   0.0235
  -6.400  -0.3819   0.02295   0.01583  -0.0873  0.9828  0.0285  -3.5262   0.0000   0.0000   0.0000   0.0114
  -6.300  -0.3684   0.02230   0.01515  -0.0881  0.9806  0.0290  -3.4760   0.0000   0.0000   0.0000   0.0007
  -6.200  -0.3531   0.02171   0.01454  -0.0892  0.9786  0.0298  -3.4188   0.0000   0.0000   0.0000  -0.0129
  -6.100  -0.3367   0.02117   0.01398  -0.0904  0.9768  0.0308  -3.3583   0.0000   0.0000   0.0000  -0.0293
  -6.000  -0.3192   0.02066   0.01344  -0.0919  0.9753  0.0321  -3.2987   0.0000   0.0000   0.0000  -0.0490
  -5.900  -0.3007   0.02016   0.01283  -0.0935  0.9739  0.0340  -3.2381   0.0000   0.0000   0.0000  -0.0724
  -5.800  -0.2855   0.01972   0.01233  -0.0945  0.9714  0.0363  -3.1983   0.0000   0.0000   0.0000  -0.0926
  -5.700  -0.2691   0.01897   0.01153  -0.0959  0.9690  0.0406  -3.1864   0.0000   0.0000   0.0000  -0.1184
  -5.600  -0.2506   0.01802   0.01068  -0.0979  0.9673  0.0555  -3.1933   0.0000   0.0000   0.0000  -0.1531
  -5.500  -0.2318   0.01711   0.00996  -0.1000  0.9659  0.0918  -3.1746   0.0000   0.0000   0.0000  -0.1947
  -5.400  -0.2142   0.01676   0.00968  -0.1016  0.9644  0.1131  -3.0806   0.0000   0.0000   0.0000  -0.2383
  -5.300  -0.1965   0.01642   0.00947  -0.1034  0.9631  0.1376  -2.9746   0.0000   0.0000   0.0000  -0.2907
  -5.200  -0.1788   0.01609   0.00931  -0.1051  0.9621  0.1711  -2.8640   0.0000   0.0000   0.0000  -0.3540
  -5.100  -0.1668   0.01577   0.00919  -0.1058  0.9590  0.2044  -2.7764   0.0000   0.0000   0.0000  -0.4007
  -5.000  -0.1524   0.01551   0.00910  -0.1068  0.9565  0.2405  -2.6797   0.0000   0.0000   0.0000  -0.4684
  -4.900  -0.1367   0.01534   0.00902  -0.1079  0.9544  0.2703  -2.5789   0.0000   0.0000   0.0000  -0.5579
  -4.800  -0.1204   0.01524   0.00898  -0.1090  0.9525  0.2939  -2.4745   0.0000   0.0000   0.0000  -0.6764
  -4.700  -0.1034   0.01520   0.00892  -0.1102  0.9509  0.3137  -2.3681   0.0000   0.0000   0.0000  -0.8390
  -4.600  -0.0861   0.01518   0.00893  -0.1114  0.9496  0.3310  -2.2596   0.0000   0.0000   0.0000  -1.0712
  -4.500  -0.0682   0.01517   0.00891  -0.1127  0.9484  0.3456  -2.1505   0.0000   0.0000   0.0000  -1.4346
  -4.400  -0.0602   0.01521   0.00896  -0.1121  0.9437  0.3552  -2.0790   0.0000   0.0000   0.0000  -1.6478
  -4.300  -0.0458   0.01524   0.00892  -0.1127  0.9410  0.3668  -1.9851   0.0000   0.0000   0.0000  -2.2562
  -4.200  -0.0299   0.01522   0.00890  -0.1135  0.9388  0.3765  -1.8862   0.0000   0.0000   0.0000  -3.6112
  -4.100  -0.0130   0.01522   0.00892  -0.1146  0.9369  0.3860  -1.7839   0.0000   0.0000   0.0000  -8.7431
  -4.000   0.0054   0.01522   0.00886  -0.1158  0.9354  0.3963  -1.6791   0.0000   0.0000   0.0000  21.8993
  -3.900   0.0242   0.01519   0.00872  -0.1172  0.9340  0.4054  -1.5799   0.0000   0.0000   0.0000   5.1745
  -3.800   0.0369   0.01518   0.00875  -0.1173  0.9307  0.4120  -1.4962   0.0000   0.0000   0.0000   3.4792
  -3.700   0.0480   0.01520   0.00877  -0.1172  0.9262  0.4185  -1.4198   0.0000   0.0000   0.0000   2.7312
  -3.600   0.0629   0.01519   0.00872  -0.1178  0.9232  0.4261  -1.3316   0.0000   0.0000   0.0000   2.1508
  -3.500   0.0792   0.01520   0.00863  -0.1186  0.9209  0.4341  -1.2405   0.0000   0.0000   0.0000   1.7695
  -3.400   0.0947   0.01511   0.00861  -0.1193  0.9190  0.4414  -1.1521   0.0000   0.0000   0.0000   1.5257
  -3.300   0.1105   0.01511   0.00863  -0.1199  0.9174  0.4486  -1.0644   0.0000   0.0000   0.0000   1.3491
  -3.200   0.1264   0.01512   0.00863  -0.1206  0.9159  0.4562  -0.9781   0.0000   0.0000   0.0000   1.2153
  -3.100   0.1335   0.01521   0.00869  -0.1198  0.9103  0.4620  -0.9221   0.0000   0.0000   0.0000   1.1581
  -3.000   0.1459   0.01524   0.00865  -0.1200  0.9067  0.4680  -0.8507   0.0000   0.0000   0.0000   1.0818
  -2.900   0.1588   0.01516   0.00863  -0.1201  0.9040  0.4735  -0.7804   0.0000   0.0000   0.0000   1.0146
  -2.800   0.1726   0.01513   0.00863  -0.1204  0.9017  0.4789  -0.7496   0.0000   0.0000   0.0000   0.9547
  -2.700   0.1869   0.01511   0.00861  -0.1207  0.8997  0.4847  -0.7185   0.0000   0.0000   0.0000   0.9023
  -2.600   0.2016   0.01509   0.00856  -0.1212  0.8979  0.4912  -0.6872   0.0000   0.0000   0.0000   0.8565
  -2.500   0.2132   0.01513   0.00855  -0.1212  0.8943  0.4971  -0.6603   0.0000   0.0000   0.0000   0.8231
  -2.400   0.2224   0.01514   0.00855  -0.1207  0.8891  0.5022  -0.6366   0.0000   0.0000   0.0000   0.7972
  -2.300   0.2338   0.01508   0.00854  -0.1205  0.8854  0.5073  -0.6098   0.0000   0.0000   0.0000   0.7694
  -2.200   0.2463   0.01505   0.00853  -0.1204  0.8823  0.5126  -0.5816   0.0000   0.0000   0.0000   0.7425
  -2.100   0.2594   0.01501   0.00849  -0.1205  0.8797  0.5184  -0.5541   0.0000   0.0000   0.0000   0.7174
  -2.000   0.2731   0.01496   0.00841  -0.1206  0.8774  0.5245  -0.5641   0.0000   0.0000   0.0000   0.6943
  -1.900   0.2845   0.01498   0.00834  -0.1205  0.8735  0.5299  -0.5728   0.0000   0.0000   0.0000   0.6758
  -1.800   0.2939   0.01496   0.00831  -0.1201  0.8678  0.5344  -0.5802   0.0000   0.0000   0.0000   0.6607
  -1.700   0.3047   0.01487   0.00825  -0.1198  0.8636  0.5387  -0.5886   0.0000   0.0000   0.0000   0.6448
  -1.600   0.3164   0.01480   0.00820  -0.1195  0.8601  0.5428  -0.5977   0.0000   0.0000   0.0000   0.6293
  -1.500   0.3287   0.01473   0.00812  -0.1194  0.8572  0.5472  -0.6071   0.0000   0.0000   0.0000   0.6146
  -1.400   0.3414   0.01467   0.00805  -0.1194  0.8547  0.5520  -0.6167   0.0000   0.0000   0.0000   0.6007
  -1.300   0.3517   0.01469   0.00806  -0.1191  0.8502  0.5568  -0.6247   0.0000   0.0000   0.0000   0.5895
  -1.200   0.3619   0.01472   0.00806  -0.1189  0.8449  0.5614  -0.6325   0.0000   0.0000   0.0000   0.5792
  -1.100   0.3735   0.01471   0.00800  -0.1189  0.8407  0.5654  -0.6413   0.0000   0.0000   0.0000   0.5687
  -1.000   0.3847   0.01456   0.00787  -0.1187  0.8370  0.5693  -0.6501   0.0000   0.0000   0.0000   0.5587
  -0.900   0.3964   0.01446   0.00778  -0.1184  0.8338  0.5730  -0.6592   0.0000   0.0000   0.0000   0.5488
  -0.800   0.4084   0.01438   0.00770  -0.1182  0.8309  0.5768  -0.6700   0.0000   0.0000   0.0000   0.5394
  -0.700   0.4183   0.01439   0.00772  -0.1179  0.8258  0.5808  -0.6794   0.0000   0.0000   0.0000   0.5316
  -0.600   0.4282   0.01438   0.00772  -0.1176  0.8200  0.5851  -0.6888   0.0000   0.0000   0.0000   0.5241
  -0.500   0.4394   0.01434   0.00766  -0.1174  0.8152  0.5896  -0.6992   0.0000   0.0000   0.0000   0.5165
  -0.400   0.4514   0.01428   0.00756  -0.1173  0.8111  0.5941  -0.7101   0.0000   0.0000   0.0000   0.5092
  -0.300   0.4637   0.01422   0.00744  -0.1173  0.8075  0.5980  -0.7213   0.0000   0.0000   0.0000   0.5021
  -0.100   0.4845   0.01409   0.00735  -0.1167  0.7981  0.6050  -0.7411   0.0000   0.0000   0.0000   0.4897
   0.000   0.4949   0.01405   0.00734  -0.1164  0.7927  0.6084  -0.7510   0.0000   0.0000   0.0000   0.4840
   0.100   0.5059   0.01400   0.00729  -0.1162  0.7880  0.6122  -0.7614   0.0000   0.0000   0.0000   0.4783
   0.200   0.5174   0.01394   0.00721  -0.1161  0.7839  0.6161  -0.7721   0.0000   0.0000   0.0000   0.4728
   0.300   0.5293   0.01389   0.00712  -0.1160  0.7803  0.6203  -0.7832   0.0000   0.0000   0.0000   0.4675
   0.400   0.5409   0.01388   0.00708  -0.1159  0.7760  0.6245  -0.7939   0.0000   0.0000   0.0000   0.4625
   0.500   0.5515   0.01391   0.00710  -0.1158  0.7697  0.6286  -0.8037   0.0000   0.0000   0.0000   0.4582
   0.600   0.5619   0.01383   0.00705  -0.1156  0.7641  0.6328  -0.8152   0.0000   0.0000   0.0000   0.4537
   0.800   0.5836   0.01370   0.00694  -0.1150  0.7547  0.6414  -0.8404   0.0000   0.0000   0.0000   0.4448
   0.900   0.5952   0.01366   0.00687  -0.1148  0.7507  0.6462  -0.8536   0.0000   0.0000   0.0000   0.4405
   1.000   0.6055   0.01368   0.00690  -0.1146  0.7447  0.6511  -0.8656   0.0000   0.0000   0.0000   0.4367
   1.100   0.6163   0.01368   0.00690  -0.1144  0.7385  0.6559  -0.8782   0.0000   0.0000   0.0000   0.4331
   1.200   0.6277   0.01367   0.00686  -0.1144  0.7330  0.6604  -0.8940   0.0000   0.0000   0.0000   0.4296
   1.300   0.6386   0.01358   0.00677  -0.1142  0.7281  0.6644  -0.9096   0.0000   0.0000   0.0000   0.4260
   1.400   0.6498   0.01353   0.00670  -0.1139  0.7238  0.6683  -0.9287   0.0000   0.0000   0.0000   0.4224
   1.500   0.6607   0.01353   0.00670  -0.1137  0.7190  0.6724  -0.9481   0.0000   0.0000   0.0000   0.4191
   1.600   0.6710   0.01354   0.00675  -0.1135  0.7127  0.6769  -0.9667   0.0000   0.0000   0.0000   0.4161
   1.700   0.6817   0.01352   0.00674  -0.1134  0.7064  0.6816  -0.9861   0.0000   0.0000   0.0000   0.4131
   1.800   0.6929   0.01350   0.00668  -0.1132  0.7003  0.6865  -1.0061   0.0000   0.0000   0.0000   0.4101
   1.900   0.7047   0.01348   0.00658  -0.1132  0.6947  0.6913  -1.0269   0.0000   0.0000   0.0000   0.4071
   2.000   0.7150   0.01343   0.00654  -0.1128  0.6885  0.6956  -1.0463   0.0000   0.0000   0.0000   0.4042
   2.100   0.7247   0.01340   0.00656  -0.1124  0.6809  0.7000  -1.0650   0.0000   0.0000   0.0000   0.4015
   2.200   0.7350   0.01337   0.00653  -0.1121  0.6735  0.7049  -1.0844   0.0000   0.0000   0.0000   0.3988
   2.300   0.7458   0.01334   0.00646  -0.1118  0.6668  0.7103  -1.1047   0.0000   0.0000   0.0000   0.3961
   2.400   0.7573   0.01337   0.00643  -0.1117  0.6606  0.7159  -1.1257   0.0000   0.0000   0.0000   0.3935
   2.500   0.7677   0.01338   0.00649  -0.1116  0.6532  0.7215  -1.1452   0.0000   0.0000   0.0000   0.3912
   2.600   0.7774   0.01334   0.00650  -0.1112  0.6460  0.7267  -1.1643   0.0000   0.0000   0.0000   0.3888
   2.700   0.7876   0.01333   0.00648  -0.1108  0.6395  0.7326  -1.1841   0.0000   0.0000   0.0000   0.3864
   2.800   0.7983   0.01335   0.00646  -0.1106  0.6336  0.7392  -1.2045   0.0000   0.0000   0.0000   0.3841
   2.900   0.8094   0.01340   0.00647  -0.1104  0.6281  0.7463  -1.2252   0.0000   0.0000   0.0000   0.3819
   3.000   0.8195   0.01341   0.00654  -0.1102  0.6218  0.7530  -1.2448   0.0000   0.0000   0.0000   0.3799
   3.100   0.8292   0.01340   0.00658  -0.1098  0.6157  0.7598  -1.2641   0.0000   0.0000   0.0000   0.3777
   3.200   0.8394   0.01342   0.00661  -0.1096  0.6098  0.7677  -1.2841   0.0000   0.0000   0.0000   0.3757
   3.300   0.8502   0.01346   0.00661  -0.1094  0.6043  0.7763  -1.3048   0.0000   0.0000   0.0000   0.3737
   3.400   0.8602   0.01349   0.00662  -0.1090  0.5992  0.7839  -1.3248   0.0000   0.0000   0.0000   0.3717
   3.500   0.8699   0.01351   0.00668  -0.1087  0.5937  0.7926  -1.3444   0.0000   0.0000   0.0000   0.3697
   3.600   0.8801   0.01353   0.00675  -0.1085  0.5874  0.8024  -1.3682   0.0000   0.0000   0.0000   0.3680
   3.700   0.8895   0.01352   0.00678  -0.1080  0.5809  0.8115  -1.3935   0.0000   0.0000   0.0000   0.3660
   3.800   0.8990   0.01352   0.00679  -0.1075  0.5747  0.8224  -1.4192   0.0000   0.0000   0.0000   0.3641
   3.900   0.9085   0.01355   0.00678  -0.1071  0.5687  0.8343  -1.4451   0.0000   0.0000   0.0000   0.3622
   4.000   0.9173   0.01356   0.00680  -0.1065  0.5630  0.8490  -1.4700   0.0000   0.0000   0.0000   0.3603
   4.100   0.9248   0.01350   0.00684  -0.1056  0.5568  0.8681  -1.4932   0.0000   0.0000   0.0000   0.3584
   4.200   0.9313   0.01339   0.00683  -0.1045  0.5506  0.9015  -1.5152   0.0000   0.0000   0.0000   0.3562
   4.300   0.9427   0.01335   0.00685  -0.1045  0.5435  1.0000  -1.5440   0.0000   0.0000   0.0000   0.3548
   4.400   0.9554   0.01348   0.00688  -0.1049  0.5367  1.0000  -1.5743   0.0000   0.0000   0.0000   0.3536
   4.500   0.9675   0.01361   0.00696  -0.1052  0.5300  1.0000  -1.6040   0.0000   0.0000   0.0000   0.3524
   4.600   0.9791   0.01368   0.00706  -0.1054  0.5227  1.0000  -1.6328   0.0000   0.0000   0.0000   0.3512
   4.700   0.9904   0.01377   0.00713  -0.1055  0.5150  1.0000  -1.6618   0.0000   0.0000   0.0000   0.3500
   4.800   1.0015   0.01389   0.00719  -0.1055  0.5079  1.0000  -1.6908   0.0000   0.0000   0.0000   0.3487
   4.900   1.0125   0.01405   0.00725  -0.1055  0.5013  1.0000  -1.7198   0.0000   0.0000   0.0000   0.3475
   5.000   1.0235   0.01415   0.00737  -0.1055  0.4951  1.0000  -1.7522   0.0000   0.0000   0.0000   0.3463
   5.100   1.0343   0.01424   0.00748  -0.1055  0.4883  1.0000  -1.7915   0.0000   0.0000   0.0000   0.3451
   5.200   1.0450   0.01435   0.00757  -0.1055  0.4815  1.0000  -1.8309   0.0000   0.0000   0.0000   0.3438
   5.300   1.0555   0.01448   0.00766  -0.1054  0.4749  1.0000  -1.8705   0.0000   0.0000   0.0000   0.3426
   5.400   1.0659   0.01466   0.00774  -0.1052  0.4684  1.0000  -1.9101   0.0000   0.0000   0.0000   0.3414
   5.500   1.0764   0.01476   0.00788  -0.1052  0.4618  1.0000  -1.9498   0.0000   0.0000   0.0000   0.3402
   5.600   1.0868   0.01485   0.00801  -0.1051  0.4543  1.0000  -1.9895   0.0000   0.0000   0.0000   0.3391
   5.700   1.0970   0.01498   0.00811  -0.1049  0.4467  1.0000  -2.0293   0.0000   0.0000   0.0000   0.3379
   5.800   1.1069   0.01513   0.00821  -0.1047  0.4396  1.0000  -2.0690   0.0000   0.0000   0.0000   0.3367
   5.900   1.1169   0.01530   0.00833  -0.1045  0.4328  1.0000  -2.1089   0.0000   0.0000   0.0000   0.3356
   6.000   1.1272   0.01540   0.00848  -0.1044  0.4255  1.0000  -2.1492   0.0000   0.0000   0.0000   0.3345
   6.100   1.1371   0.01553   0.00867  -0.1042  0.4178  1.0000  -2.1890   0.0000   0.0000   0.0000   0.3334
   6.200   1.1467   0.01570   0.00879  -0.1039  0.4101  1.0000  -2.2288   0.0000   0.0000   0.0000   0.3323
   6.300   1.1560   0.01592   0.00892  -0.1036  0.4026  1.0000  -2.2684   0.0000   0.0000   0.0000   0.3311
   6.400   1.1660   0.01602   0.00909  -0.1035  0.3950  1.0000  -2.3092   0.0000   0.0000   0.0000   0.3301
   6.500   1.1757   0.01616   0.00925  -0.1032  0.3863  1.0000  -2.3561   0.0000   0.0000   0.0000   0.3290
   6.600   1.1848   0.01635   0.00939  -0.1029  0.3777  1.0000  -2.4025   0.0000   0.0000   0.0000   0.3280
   6.700   1.1936   0.01658   0.00955  -0.1025  0.3694  1.0000  -2.4484   0.0000   0.0000   0.0000   0.3269
   6.800   1.2033   0.01672   0.00974  -0.1023  0.3608  1.0000  -2.4960   0.0000   0.0000   0.0000   0.3259
   6.900   1.2122   0.01691   0.00991  -0.1020  0.3515  1.0000  -2.5425   0.0000   0.0000   0.0000   0.3248
   7.000   1.2204   0.01717   0.01008  -0.1015  0.3424  1.0000  -2.5875   0.0000   0.0000   0.0000   0.3238
   7.100   1.2294   0.01737   0.01029  -0.1012  0.3333  1.0000  -2.6344   0.0000   0.0000   0.0000   0.3228
   7.200   1.2382   0.01757   0.01050  -0.1009  0.3227  1.0000  -2.6809   0.0000   0.0000   0.0000   0.3218
   7.300   1.2458   0.01785   0.01070  -0.1004  0.3121  1.0000  -2.7251   0.0000   0.0000   0.0000   0.3207
   7.400   1.2542   0.01810   0.01094  -0.1000  0.3018  1.0000  -2.7708   0.0000   0.0000   0.0000   0.3197
   7.500   1.2620   0.01837   0.01117  -0.0995  0.2907  1.0000  -2.8156   0.0000   0.0000   0.0000   0.3187
   7.600   1.2683   0.01876   0.01143  -0.0989  0.2798  1.0000  -2.8569   0.0000   0.0000   0.0000   0.3177
   7.700   1.2768   0.01898   0.01169  -0.0985  0.2682  1.0000  -2.9033   0.0000   0.0000   0.0000   0.3167
   7.800   1.2836   0.01933   0.01197  -0.0979  0.2560  1.0000  -2.9458   0.0000   0.0000   0.0000   0.3157
   7.900   1.2902   0.01969   0.01227  -0.0973  0.2450  1.0000  -2.9880   0.0000   0.0000   0.0000   0.3148
   8.000   1.2971   0.02003   0.01256  -0.0968  0.2340  1.0000  -3.0310   0.0000   0.0000   0.0000   0.3138
   8.100   1.3021   0.02052   0.01291  -0.0960  0.2239  1.0000  -3.0693   0.0000   0.0000   0.0000   0.3128
   8.200   1.3099   0.02081   0.01329  -0.0956  0.2141  1.0000  -3.1140   0.0000   0.0000   0.0000   0.3118
   8.300   1.3165   0.02118   0.01363  -0.0950  0.2046  1.0000  -3.1561   0.0000   0.0000   0.0000   0.3109
   8.400   1.3212   0.02170   0.01404  -0.0942  0.1963  1.0000  -3.1934   0.0000   0.0000   0.0000   0.3099
   8.500   1.3286   0.02202   0.01438  -0.0937  0.1894  1.0000  -3.2371   0.0000   0.0000   0.0000   0.3090
   8.600   1.3350   0.02240   0.01475  -0.0931  0.1827  1.0000  -3.2787   0.0000   0.0000   0.0000   0.3080
   8.700   1.3401   0.02288   0.01515  -0.0923  0.1765  1.0000  -3.3168   0.0000   0.0000   0.0000   0.3071
   8.800   1.3439   0.02350   0.01567  -0.0914  0.1701  1.0000  -3.3505   0.0000   0.0000   0.0000   0.3060
   8.900   1.3517   0.02377   0.01602  -0.0910  0.1653  1.0000  -3.3951   0.0000   0.0000   0.0000   0.3052
   9.000   1.3584   0.02411   0.01640  -0.0904  0.1598  1.0000  -3.4372   0.0000   0.0000   0.0000   0.3042
   9.100   1.3638   0.02454   0.01680  -0.0897  0.1546  1.0000  -3.4761   0.0000   0.0000   0.0000   0.3033
   9.200   1.3673   0.02508   0.01729  -0.0887  0.1498  1.0000  -3.5103   0.0000   0.0000   0.0000   0.3023
   9.300   1.3711   0.02565   0.01782  -0.0878  0.1452  1.0000  -3.5433   0.0000   0.0000   0.0000   0.3013
   9.400   1.3771   0.02598   0.01821  -0.0871  0.1414  1.0000  -3.5832   0.0000   0.0000   0.0000   0.3004
   9.500   1.3822   0.02637   0.01862  -0.0863  0.1374  1.0000  -3.6215   0.0000   0.0000   0.0000   0.2994
   9.600   1.3864   0.02682   0.01906  -0.0855  0.1336  1.0000  -3.6575   0.0000   0.0000   0.0000   0.2985
   9.700   1.3894   0.02737   0.01956  -0.0845  0.1300  1.0000  -3.6904   0.0000   0.0000   0.0000   0.2975
   9.800   1.3918   0.02811   0.02022  -0.0835  0.1259  1.0000  -3.7191   0.0000   0.0000   0.0000   0.2965
   9.900   1.3967   0.02865   0.02078  -0.0828  0.1227  1.0000  -3.7639   0.0000   0.0000   0.0000   0.2956
  10.000   1.4021   0.02900   0.02121  -0.0821  0.1200  1.0000  -3.8448   0.0000   0.0000   0.0000   0.2948
  10.100   1.4070   0.02940   0.02167  -0.0814  0.1171  1.0000  -3.9238   0.0000   0.0000   0.0000   0.2939
  10.200   1.4114   0.02984   0.02214  -0.0806  0.1142  1.0000  -4.0013   0.0000   0.0000   0.0000   0.2930
  10.300   1.4154   0.03031   0.02263  -0.0799  0.1116  1.0000  -4.0773   0.0000   0.0000   0.0000   0.2922
  10.400   1.4188   0.03085   0.02317  -0.0791  0.1091  1.0000  -4.1505   0.0000   0.0000   0.0000   0.2913
  10.500   1.4215   0.03152   0.02380  -0.0782  0.1067  1.0000  -4.2195   0.0000   0.0000   0.0000   0.2905
  10.600   1.4245   0.03244   0.02466  -0.0774  0.1038  1.0000  -4.2866   0.0000   0.0000   0.0000   0.2896
  10.700   1.4293   0.03296   0.02524  -0.0768  0.1021  1.0000  -4.3657   0.0000   0.0000   0.0000   0.2888
  10.800   1.4338   0.03344   0.02579  -0.0761  0.1004  1.0000  -4.4447   0.0000   0.0000   0.0000   0.2880
  10.900   1.4381   0.03396   0.02637  -0.0754  0.0985  1.0000  -4.5227   0.0000   0.0000   0.0000   0.2872
  11.000   1.4421   0.03451   0.02697  -0.0747  0.0966  1.0000  -4.5997   0.0000   0.0000   0.0000   0.2864
  11.100   1.4460   0.03507   0.02761  -0.0741  0.0948  1.0000  -4.6725   0.0000   0.0000   0.0000   0.2857
  11.200   1.4496   0.03566   0.02823  -0.0734  0.0931  1.0000  -4.7478   0.0000   0.0000   0.0000   0.2849
  11.300   1.4529   0.03628   0.02886  -0.0728  0.0915  1.0000  -4.8227   0.0000   0.0000   0.0000   0.2842
  11.400   1.4561   0.03694   0.02953  -0.0721  0.0899  1.0000  -4.8973   0.0000   0.0000   0.0000   0.2835
  11.500   1.4598   0.03770   0.03027  -0.0715  0.0881  1.0000  -4.9738   0.0000   0.0000   0.0000   0.2827
  11.600   1.4667   0.03871   0.03122  -0.0710  0.0856  1.0000  -5.0634   0.0000   0.0000   0.0000   0.2820
  11.700   1.4735   0.03966   0.03220  -0.0705  0.0838  1.0000  -5.1512   0.0000   0.0000   0.0000   0.2813
  11.800   1.4769   0.04023   0.03285  -0.0699  0.0831  1.0000  -5.2269   0.0000   0.0000   0.0000   0.2806
  11.900   1.4799   0.04082   0.03352  -0.0692  0.0822  1.0000  -5.3012   0.0000   0.0000   0.0000   0.2799
  12.000   1.4823   0.04144   0.03423  -0.0686  0.0812  1.0000  -5.3723   0.0000   0.0000   0.0000   0.2792
  12.100   1.4846   0.04209   0.03495  -0.0679  0.0800  1.0000  -5.4433   0.0000   0.0000   0.0000   0.2785
  12.200   1.4866   0.04275   0.03568  -0.0673  0.0788  1.0000  -5.5143   0.0000   0.0000   0.0000   0.2779
  12.300   1.4885   0.04342   0.03641  -0.0668  0.0775  1.0000  -5.5848   0.0000   0.0000   0.0000   0.2773
  12.400   1.4901   0.04410   0.03713  -0.0662  0.0761  1.0000  -5.6557   0.0000   0.0000   0.0000   0.2767
  12.500   1.4916   0.04477   0.03784  -0.0657  0.0748  1.0000  -5.7273   0.0000   0.0000   0.0000   0.2761
  12.600   1.4927   0.04546   0.03856  -0.0653  0.0735  1.0000  -5.7982   0.0000   0.0000   0.0000   0.2756
  12.700   1.4937   0.04618   0.03929  -0.0648  0.0722  1.0000  -5.8690   0.0000   0.0000   0.0000   0.2751
  12.800   1.4944   0.04695   0.04006  -0.0644  0.0710  1.0000  -5.9387   0.0000   0.0000   0.0000   0.2746
  12.900   1.4950   0.04782   0.04092  -0.0640  0.0697  1.0000  -6.0072   0.0000   0.0000   0.0000   0.2741
  13.000   1.4972   0.04886   0.04192  -0.0635  0.0679  1.0000  -6.0810   0.0000   0.0000   0.0000   0.2735
  13.100   1.4989   0.04991   0.04300  -0.0631  0.0666  1.0000  -6.1492   0.0000   0.0000   0.0000   0.2730
  13.200   1.4988   0.05072   0.04390  -0.0627  0.0659  1.0000  -6.2104   0.0000   0.0000   0.0000   0.2726
  13.300   1.4985   0.05159   0.04486  -0.0624  0.0651  1.0000  -6.2699   0.0000   0.0000   0.0000   0.2722
  13.400   1.4983   0.05249   0.04585  -0.0622  0.0642  1.0000  -6.3305   0.0000   0.0000   0.0000   0.2718
  13.500   1.4984   0.05341   0.04684  -0.0619  0.0632  1.0000  -6.3929   0.0000   0.0000   0.0000   0.2714
  13.600   1.4983   0.05437   0.04786  -0.0617  0.0622  1.0000  -6.4547   0.0000   0.0000   0.0000   0.2711
  13.700   1.4983   0.05535   0.04889  -0.0616  0.0612  1.0000  -6.5172   0.0000   0.0000   0.0000   0.2708
  13.800   1.4984   0.05633   0.04992  -0.0615  0.0603  1.0000  -6.5810   0.0000   0.0000   0.0000   0.2705
  13.900   1.4984   0.05735   0.05099  -0.0614  0.0594  1.0000  -6.6440   0.0000   0.0000   0.0000   0.2702
  14.000   1.4983   0.05841   0.05208  -0.0613  0.0585  1.0000  -6.7058   0.0000   0.0000   0.0000   0.2700
  14.100   1.4982   0.05949   0.05320  -0.0612  0.0578  1.0000  -6.7676   0.0000   0.0000   0.0000   0.2698
  14.200   1.4980   0.06059   0.05434  -0.0612  0.0570  1.0000  -6.8288   0.0000   0.0000   0.0000   0.2695
  14.300   1.4976   0.06175   0.05553  -0.0612  0.0563  1.0000  -6.8872   0.0000   0.0000   0.0000   0.2693
  14.400   1.4973   0.06292   0.05673  -0.0611  0.0556  1.0000  -6.9460   0.0000   0.0000   0.0000   0.2691
  14.500   1.4972   0.06409   0.05791  -0.0611  0.0548  1.0000  -7.0058   0.0000   0.0000   0.0000   0.2688
  14.600   1.4977   0.06523   0.05911  -0.0609  0.0539  1.0000  -7.0712   0.0000   0.0000   0.0000   0.2685
  14.700   1.4982   0.06646   0.06035  -0.0605  0.0527  1.0000  -7.1310   0.0000   0.0000   0.0000   0.2680
  14.800   1.4971   0.06803   0.06198  -0.0600  0.0515  1.0000  -7.1705   0.0000   0.0000   0.0000   0.2676
  14.900   1.4954   0.06934   0.06337  -0.0603  0.0512  1.0000  -7.2185   0.0000   0.0000   0.0000   0.2676
  15.000   1.4936   0.07070   0.06482  -0.0606  0.0509  1.0000  -7.2650   0.0000   0.0000   0.0000   0.2676
  15.100   1.4919   0.07209   0.06629  -0.0609  0.0504  1.0000  -7.3116   0.0000   0.0000   0.0000   0.2677
  15.200   1.4898   0.07357   0.06785  -0.0613  0.0500  1.0000  -7.3541   0.0000   0.0000   0.0000   0.2678
  15.300   1.4873   0.07514   0.06951  -0.0618  0.0495  1.0000  -7.3924   0.0000   0.0000   0.0000   0.2679
  15.400   1.4850   0.07670   0.07116  -0.0622  0.0489  1.0000  -7.4311   0.0000   0.0000   0.0000   0.2680
  15.500   1.4824   0.07832   0.07286  -0.0626  0.0484  1.0000  -7.4668   0.0000   0.0000   0.0000   0.2682
  15.600   1.4798   0.07998   0.07461  -0.0631  0.0479  1.0000  -7.5008   0.0000   0.0000   0.0000   0.2684
  15.700   1.4773   0.08165   0.07635  -0.0636  0.0474  1.0000  -7.5358   0.0000   0.0000   0.0000   0.2685
  15.800   1.4749   0.08334   0.07812  -0.0641  0.0469  1.0000  -7.5698   0.0000   0.0000   0.0000   0.2687
  15.900   1.4721   0.08512   0.07997  -0.0647  0.0464  1.0000  -7.6001   0.0000   0.0000   0.0000   0.2690
  16.000   1.4694   0.08690   0.08183  -0.0653  0.0459  1.0000  -7.6311   0.0000   0.0000   0.0000   0.2693
  16.100   1.4669   0.08867   0.08366  -0.0659  0.0453  1.0000  -7.6638   0.0000   0.0000   0.0000   0.2696
  16.200   1.4642   0.09049   0.08555  -0.0666  0.0448  1.0000  -7.6945   0.0000   0.0000   0.0000   0.2699
  16.300   1.4614   0.09238   0.08750  -0.0674  0.0443  1.0000  -7.7232   0.0000   0.0000   0.0000   0.2703
  16.400   1.4588   0.09422   0.08940  -0.0682  0.0438  1.0000  -7.7546   0.0000   0.0000   0.0000   0.2707
  16.500   1.4565   0.09603   0.09127  -0.0690  0.0432  1.0000  -7.7891   0.0000   0.0000   0.0000   0.2711
  16.600   1.4538   0.09794   0.09322  -0.0699  0.0426  1.0000  -7.8195   0.0000   0.0000   0.0000   0.2716
  16.700   1.4512   0.09985   0.09517  -0.0708  0.0421  1.0000  -7.8505   0.0000   0.0000   0.0000   0.2721
  16.800   1.4488   0.10173   0.09708  -0.0718  0.0415  1.0000  -7.8842   0.0000   0.0000   0.0000   0.2726
  16.900   1.4464   0.10363   0.09902  -0.0727  0.0410  1.0000  -7.9165   0.0000   0.0000   0.0000   0.2731
  17.000   1.4430   0.10571   0.10113  -0.0738  0.0404  1.0000  -7.9390   0.0000   0.0000   0.0000   0.2737
  17.100   1.4398   0.10774   0.10319  -0.0748  0.0398  1.0000  -7.9613   0.0000   0.0000   0.0000   0.2743
  17.200   1.4365   0.10975   0.10522  -0.0757  0.0392  1.0000  -7.9813   0.0000   0.0000   0.0000   0.2748
  17.300   1.4327   0.11177   0.10725  -0.0765  0.0385  1.0000  -7.9925   0.0000   0.0000   0.0000   0.2753
  17.400   1.4278   0.11410   0.10963  -0.0775  0.0380  1.0000  -7.9890   0.0000   0.0000   0.0000   0.2760
  17.500   1.4225   0.11674   0.11237  -0.0791  0.0378  1.0000  -7.9799   0.0000   0.0000   0.0000   0.2771
  17.600   1.4175   0.11937   0.11509  -0.0806  0.0375  1.0000  -7.9707   0.0000   0.0000   0.0000   0.2781
  17.700   1.4121   0.12208   0.11790  -0.0822  0.0372  1.0000  -7.9567   0.0000   0.0000   0.0000   0.2793
  17.800   1.4059   0.12496   0.12088  -0.0839  0.0369  1.0000  -7.9327   0.0000   0.0000   0.0000   0.2805
  17.900   1.3999   0.12784   0.12385  -0.0857  0.0366  1.0000  -7.9081   0.0000   0.0000   0.0000   0.2818
  18.000   1.3935   0.13084   0.12694  -0.0875  0.0363  1.0000  -7.8763   0.0000   0.0000   0.0000   0.2832
  18.100   1.3863   0.13402   0.13021  -0.0895  0.0360  1.0000  -7.8339   0.0000   0.0000   0.0000   0.2848
  18.200   1.3793   0.13720   0.13348  -0.0914  0.0357  1.0000  -7.7908   0.0000   0.0000   0.0000   0.2863
  18.300   1.3712   0.14062   0.13699  -0.0936  0.0355  1.0000  -7.7333   0.0000   0.0000   0.0000   0.2881
  18.400   1.3623   0.14431   0.14076  -0.0959  0.0353  1.0000  -7.6614   0.0000   0.0000   0.0000   0.2901
  18.500   1.3527   0.14815   0.14469  -0.0983  0.0353  1.0000  -7.5781   0.0000   0.0000   0.0000   0.2922
  18.600   1.3406   0.15255   0.14918  -0.1012  0.0355  1.0000  -7.4584   0.0000   0.0000   0.0000   0.2949
  18.700   1.3275   0.15716   0.15388  -0.1042  0.0358  1.0000  -7.3192   0.0000   0.0000   0.0000   0.2979
  18.800   1.3104   0.16288   0.15968  -0.1080  0.0364  1.0000  -7.1179   0.0000   0.0000   0.0000   0.3018
  18.900   1.2801   0.17218   0.16906  -0.1140  0.0377  1.0000  -6.7171   0.0000   0.0000   0.0000   0.3086
  19.000   1.1037   0.24480   0.24159  -0.1491  0.0494  1.0000  -3.2457   0.0000   0.0000   0.0000   0.3594
  19.100   1.0991   0.24970   0.24647  -0.1519  0.0477  1.0000  -3.0985   0.0000   0.0000   0.0000   0.3626
  19.200   1.0992   0.25199   0.24876  -0.1535  0.0444  1.0000  -3.0759   0.0000   0.0000   0.0000   0.3638
  19.300   1.1285   0.23816   0.23503  -0.1476  0.0396  1.0000  -3.8461   0.0000   0.0000   0.0000   0.3536
  19.400   1.1368   0.23533   0.23222  -0.1463  0.0383  1.0000  -4.0913   0.0000   0.0000   0.0000   0.3510
  19.500   1.1202   0.24737   0.24420  -0.1519  0.0360  1.0000  -3.5994   0.0000   0.0000   0.0000   0.3585
  19.600   1.1131   0.25434   0.25115  -0.1551  0.0336  1.0000  -3.3467   0.0000   0.0000   0.0000   0.3624
  19.700   1.1128   0.25739   0.25419  -0.1565  0.0317  1.0000  -3.2884   0.0000   0.0000   0.0000   0.3636
  19.800   1.1168   0.25785   0.25467  -0.1568  0.0301  1.0000  -3.3589   0.0000   0.0000   0.0000   0.3630
  19.900   1.1247   0.25583   0.25268  -0.1561  0.0288  1.0000  -3.5565   0.0000   0.0000   0.0000   0.3610
  20.000   1.1330   0.25339   0.25027  -0.1554  0.0278  1.0000  -3.7804   0.0000   0.0000   0.0000   0.3588
  20.100   1.1382   0.25223   0.24913  -0.1552  0.0268  1.0000  -3.9438   0.0000   0.0000   0.0000   0.3575
  20.200   1.1272   0.26194   0.25877  -0.1589  0.0253  1.0000  -3.5431   0.0000   0.0000   0.0000   0.3625
  20.300   1.1218   0.26876   0.26557  -0.1614  0.0240  1.0000  -3.2884   0.0000   0.0000   0.0000   0.3656
  20.400   1.1197   0.27335   0.27014  -0.1631  0.0229  1.0000  -3.1487   0.0000   0.0000   0.0000   0.3674
  20.500   1.1189   0.27706   0.27384  -0.1645  0.0221  1.0000  -3.0544   0.0000   0.0000   0.0000   0.3687
  20.600   1.1191   0.28006   0.27684  -0.1656  0.0213  1.0000  -2.9962   0.0000   0.0000   0.0000   0.3695
  20.700   1.1200   0.28258   0.27936  -0.1665  0.0206  1.0000  -2.9635   0.0000   0.0000   0.0000   0.3701
  20.800   1.1215   0.28465   0.28143  -0.1673  0.0200  1.0000  -2.9543   0.0000   0.0000   0.0000   0.3704
  20.900   1.1236   0.28631   0.28309  -0.1679  0.0195  1.0000  -2.9671   0.0000   0.0000   0.0000   0.3704
  21.000   1.1267   0.28712   0.28392  -0.1683  0.0189  1.0000  -3.0239   0.0000   0.0000   0.0000   0.3700
  21.100   1.1317   0.28639   0.28321  -0.1683  0.0183  1.0000  -3.1630   0.0000   0.0000   0.0000   0.3689
  21.200   1.1345   0.28708   0.28391  -0.1687  0.0179  1.0000  -3.2322   0.0000   0.0000   0.0000   0.3686
  21.300   1.1354   0.28915   0.28598  -0.1694  0.0176  1.0000  -3.2307   0.0000   0.0000   0.0000   0.3689
  21.400   1.1350   0.29238   0.28921  -0.1703  0.0174  1.0000  -3.1679   0.0000   0.0000   0.0000   0.3696
  21.500   1.1347   0.29584   0.29267  -0.1713  0.0174  1.0000  -3.0932   0.0000   0.0000   0.0000   0.3704
  21.600   1.1345   0.29954   0.29636  -0.1723  0.0176  1.0000  -3.0047   0.0000   0.0000   0.0000   0.3713
  21.700   1.1193   0.31628   0.31303  -0.1766  0.0236  1.0000  -2.2794   0.0000   0.0000   0.0000   0.3781
  21.800   1.1206   0.31859   0.31534  -0.1769  0.0246  1.0000  -2.2718   0.0000   0.0000   0.0000   0.3780
  21.900   1.1236   0.31994   0.31671  -0.1761  0.0256  1.0000  -2.3278   0.0000   0.0000   0.0000   0.3765
  22.300   1.1214   0.33489   0.33167  -0.1814  0.0298  1.0000  -2.0047   0.0000   0.0000   0.0000   0.3814
  22.400   1.1222   0.33723   0.33401  -0.1820  0.0296  1.0000  -1.9962   0.0000   0.0000   0.0000   0.3816
  22.500   1.1230   0.33954   0.33633  -0.1826  0.0295  1.0000  -1.9894   0.0000   0.0000   0.0000   0.3818
  22.600   1.1238   0.34182   0.33861  -0.1831  0.0293  1.0000  -1.9841   0.0000   0.0000   0.0000   0.3820
  22.700   1.1245   0.34407   0.34087  -0.1836  0.0291  1.0000  -1.9802   0.0000   0.0000   0.0000   0.3821
  22.800   1.1252   0.34631   0.34312  -0.1841  0.0289  1.0000  -1.9775   0.0000   0.0000   0.0000   0.3823
  22.900   1.1259   0.34852   0.34534  -0.1846  0.0288  1.0000  -1.9760   0.0000   0.0000   0.0000   0.3824
  23.000   1.1265   0.35072   0.34754  -0.1850  0.0286  1.0000  -1.9757   0.0000   0.0000   0.0000   0.3825
  23.100   1.1270   0.35290   0.34973  -0.1854  0.0284  1.0000  -1.9766   0.0000   0.0000   0.0000   0.3825
  23.200   1.1275   0.35506   0.35189  -0.1857  0.0283  1.0000  -1.9788   0.0000   0.0000   0.0000   0.3826
  23.300   1.1278   0.35721   0.35405  -0.1860  0.0281  1.0000  -1.9823   0.0000   0.0000   0.0000   0.3826
  23.400   1.1281   0.35934   0.35619  -0.1862  0.0280  1.0000  -1.9873   0.0000   0.0000   0.0000   0.3825
  23.500   1.1283   0.36146   0.35832  -0.1864  0.0278  1.0000  -1.9938   0.0000   0.0000   0.0000   0.3824
  23.600   1.1284   0.36359   0.36046  -0.1864  0.0277  1.0000  -2.0020   0.0000   0.0000   0.0000   0.3823
  23.700   1.1284   0.36573   0.36261  -0.1864  0.0275  1.0000  -2.0123   0.0000   0.0000   0.0000   0.3820
  23.800   1.1283   0.36791   0.36480  -0.1863  0.0274  1.0000  -2.0247   0.0000   0.0000   0.0000   0.3817
  23.900   1.1281   0.37019   0.36709  -0.1859  0.0272  1.0000  -2.0399   0.0000   0.0000   0.0000   0.3812
  24.000   1.1279   0.37275   0.36967  -0.1853  0.0270  1.0000  -2.0589   0.0000   0.0000   0.0000   0.3805
  24.100   0.9604   0.34650   0.34365  -0.1621  0.0279  1.0000  -1.5342   0.0000   0.0000   0.0000   0.3880
  24.200   0.9531   0.34541   0.34258  -0.1610  0.0277  1.0000  -1.5218   0.0000   0.0000   0.0000   0.3881
  24.300   0.9468   0.34451   0.34170  -0.1600  0.0276  1.0000  -1.5143   0.0000   0.0000   0.0000   0.3881
  24.400   0.9415   0.34374   0.34095  -0.1590  0.0274  1.0000  -1.5113   0.0000   0.0000   0.0000   0.3880
  24.500   0.9369   0.34310   0.34033  -0.1581  0.0273  1.0000  -1.5125   0.0000   0.0000   0.0000   0.3878
  24.600   0.9330   0.34266   0.33990  -0.1570  0.0271  1.0000  -1.5188   0.0000   0.0000   0.0000   0.3873
  24.700   0.9302   0.34282   0.34009  -0.1557  0.0268  1.0000  -1.5337   0.0000   0.0000   0.0000   0.3862
  24.800   0.9225   0.34356   0.34081  -0.1544  0.0266  1.0000  -1.4923   0.0000   0.0000   0.0000   0.3863
  24.900   0.9186   0.34345   0.34071  -0.1542  0.0266  1.0000  -1.4717   0.0000   0.0000   0.0000   0.3868
  25.000   0.9149   0.34337   0.34064  -0.1541  0.0265  1.0000  -1.4518   0.0000   0.0000   0.0000   0.3872
  25.100   0.9114   0.34332   0.34060  -0.1540  0.0265  1.0000  -1.4324   0.0000   0.0000   0.0000   0.3877
  25.200   0.9081   0.34330   0.34059  -0.1539  0.0265  1.0000  -1.4136   0.0000   0.0000   0.0000   0.3881
  25.300   0.9050   0.34328   0.34059  -0.1538  0.0265  1.0000  -1.3952   0.0000   0.0000   0.0000   0.3886
  25.400   0.9019   0.34328   0.34060  -0.1538  0.0265  1.0000  -1.3770   0.0000   0.0000   0.0000   0.3891
  25.500   0.8988   0.34325   0.34058  -0.1539  0.0265  1.0000  -1.3570   0.0000   0.0000   0.0000   0.3896
  25.600   0.8956   0.34322   0.34055  -0.1539  0.0264  1.0000  -1.3362   0.0000   0.0000   0.0000   0.3902
  25.700   0.8924   0.34316   0.34051  -0.1540  0.0264  1.0000  -1.3144   0.0000   0.0000   0.0000   0.3909
  25.800   0.8894   0.34313   0.34048  -0.1542  0.0264  1.0000  -1.2926   0.0000   0.0000   0.0000   0.3915
  25.900   0.8864   0.34312   0.34048  -0.1543  0.0264  1.0000  -1.2711   0.0000   0.0000   0.0000   0.3922
  26.000   0.8836   0.34315   0.34052  -0.1545  0.0263  1.0000  -1.2500   0.0000   0.0000   0.0000   0.3929
  26.100   0.8810   0.34321   0.34059  -0.1547  0.0263  1.0000  -1.2291   0.0000   0.0000   0.0000   0.3935
  26.200   0.8785   0.34332   0.34070  -0.1550  0.0263  1.0000  -1.2084   0.0000   0.0000   0.0000   0.3942
  26.300   0.8762   0.34347   0.34086  -0.1553  0.0262  1.0000  -1.1879   0.0000   0.0000   0.0000   0.3949
  26.400   0.8740   0.34368   0.34108  -0.1556  0.0262  1.0000  -1.1673   0.0000   0.0000   0.0000   0.3956
  26.500   0.8720   0.34394   0.34134  -0.1559  0.0261  1.0000  -1.1466   0.0000   0.0000   0.0000   0.3963
  26.600   0.8702   0.34428   0.34169  -0.1563  0.0260  1.0000  -1.1256   0.0000   0.0000   0.0000   0.3970
  26.700   0.8685   0.34471   0.34213  -0.1568  0.0259  1.0000  -1.1044   0.0000   0.0000   0.0000   0.3977
  26.800   0.8671   0.34525   0.34270  -0.1573  0.0257  1.0000  -1.0830   0.0000   0.0000   0.0000   0.3985
  26.900   0.8660   0.34587   0.34334  -0.1577  0.0255  1.0000  -1.0616   0.0000   0.0000   0.0000   0.3991
  27.000   0.8650   0.34655   0.34402  -0.1582  0.0253  1.0000  -1.0415   0.0000   0.0000   0.0000   0.3998
  27.100   0.8640   0.34719   0.34467  -0.1586  0.0249  1.0000  -1.0242   0.0000   0.0000   0.0000   0.4003
  27.200   0.8631   0.34775   0.34523  -0.1589  0.0246  1.0000  -1.0098   0.0000   0.0000   0.0000   0.4007
  27.300   0.8621   0.34823   0.34572  -0.1592  0.0242  1.0000  -0.9980   0.0000   0.0000   0.0000   0.4011
  27.400   0.8611   0.34866   0.34616  -0.1594  0.0239  1.0000  -0.9880   0.0000   0.0000   0.0000   0.4014
  27.500   0.8600   0.34903   0.34654  -0.1596  0.0236  1.0000  -0.9792   0.0000   0.0000   0.0000   0.4017
  27.600   0.8591   0.34941   0.34693  -0.1598  0.0232  1.0000  -0.9715   0.0000   0.0000   0.0000   0.4020
  27.700   0.8581   0.34978   0.34731  -0.1600  0.0229  1.0000  -0.9646   0.0000   0.0000   0.0000   0.4022
  27.800   0.8572   0.35014   0.34767  -0.1601  0.0226  1.0000  -0.9583   0.0000   0.0000   0.0000   0.4025
  27.900   0.8563   0.35048   0.34803  -0.1603  0.0223  1.0000  -0.9526   0.0000   0.0000   0.0000   0.4027
  28.000   0.8554   0.35083   0.34838  -0.1605  0.0221  1.0000  -0.9475   0.0000   0.0000   0.0000   0.4030
  28.100   0.8546   0.35116   0.34873  -0.1607  0.0218  1.0000  -0.9428   0.0000   0.0000   0.0000   0.4032
  28.200   0.8537   0.35150   0.34907  -0.1609  0.0215  1.0000  -0.9385   0.0000   0.0000   0.0000   0.4034
  28.300   0.8530   0.35183   0.34941  -0.1611  0.0213  1.0000  -0.9348   0.0000   0.0000   0.0000   0.4036
  28.400   0.8522   0.35216   0.34975  -0.1613  0.0210  1.0000  -0.9314   0.0000   0.0000   0.0000   0.4039
  28.500   0.8515   0.35248   0.35008  -0.1615  0.0208  1.0000  -0.9285   0.0000   0.0000   0.0000   0.4041
  28.600   0.8507   0.35281   0.35042  -0.1616  0.0205  1.0000  -0.9261   0.0000   0.0000   0.0000   0.4043
  28.700   0.8500   0.35312   0.35074  -0.1618  0.0203  1.0000  -0.9241   0.0000   0.0000   0.0000   0.4044
  28.800   0.8494   0.35343   0.35106  -0.1620  0.0201  1.0000  -0.9225   0.0000   0.0000   0.0000   0.4046
  28.900   0.8487   0.35373   0.35137  -0.1622  0.0199  1.0000  -0.9215   0.0000   0.0000   0.0000   0.4048
  29.000   0.8481   0.35403   0.35168  -0.1624  0.0197  1.0000  -0.9209   0.0000   0.0000   0.0000   0.4050
  29.100   0.8475   0.35432   0.35197  -0.1626  0.0195  1.0000  -0.9251   0.0000   0.0000   0.0000   0.4051
  29.200   0.8469   0.35460   0.35226  -0.1628  0.0193  1.0000  -0.9321   0.0000   0.0000   0.0000   0.4053
  29.300   0.8463   0.35487   0.35254  -0.1630  0.0191  1.0000  -0.9396   0.0000   0.0000   0.0000   0.4054
  29.400   0.8457   0.35512   0.35280  -0.1632  0.0189  1.0000  -0.9476   0.0000   0.0000   0.0000   0.4055
  29.500   0.8452   0.35536   0.35305  -0.1633  0.0187  1.0000  -0.9562   0.0000   0.0000   0.0000   0.4057
  29.600   0.8446   0.35560   0.35330  -0.1635  0.0186  1.0000  -0.9656   0.0000   0.0000   0.0000   0.4057
  29.700   0.8441   0.35580   0.35351  -0.1637  0.0184  1.0000  -0.9755   0.0000   0.0000   0.0000   0.4058
  29.800   0.8435   0.35598   0.35370  -0.1638  0.0183  1.0000  -0.9863   0.0000   0.0000   0.0000   0.4059
  29.900   0.8430   0.35613   0.35386  -0.1639  0.0181  1.0000  -0.9979   0.0000   0.0000   0.0000   0.4059
  30.000   0.8424   0.35625   0.35399  -0.1640  0.0180  1.0000  -1.0105   0.0000   0.0000   0.0000   0.4059


