xflr5 v6.61

 Calculated polar for: WORTMANN FX 057-816 AIRFOIL

 1 1 Reynolds number fixed          Mach number fixed         

 xtrf =   1.000 (top)        1.000 (bottom)
 Mach =   0.000     Re =     0.160 e 6     Ncrit =   9.000

  alpha     CL        CD       CDp       Cm    Top Xtr Bot Xtr   Cpmin    Chinge    XCp    
 ------- -------- --------- --------- -------- ------- ------- -------- --------- ---------
 -10.000  -0.2483   0.14761   0.14396  -0.0546  0.9453  0.0666  -1.0985   0.0000   0.0000   0.0000   0.0027
  -9.900  -0.2426   0.14610   0.14245  -0.0563  0.9438  0.0665  -1.1006   0.0000   0.0000   0.0000  -0.0098
  -9.800  -0.2366   0.14452   0.14086  -0.0580  0.9423  0.0665  -1.1030   0.0000   0.0000   0.0000  -0.0236
  -9.400  -0.2299   0.13818   0.13449  -0.0594  0.9135  0.0663  -1.1213   0.0000   0.0000   0.0000  -0.0366
  -9.300  -0.2297   0.13652   0.13284  -0.0596  0.9076  0.0663  -1.1276   0.0000   0.0000   0.0000  -0.0371
  -9.200  -0.2282   0.13481   0.13112  -0.0601  0.9029  0.0662  -1.1344   0.0000   0.0000   0.0000  -0.0408
  -9.100  -0.2263   0.13301   0.12932  -0.0608  0.8988  0.0661  -1.1420   0.0000   0.0000   0.0000  -0.0463
  -9.000  -0.2240   0.13111   0.12741  -0.0617  0.8951  0.0659  -1.1510   0.0000   0.0000   0.0000  -0.0529
  -8.900  -0.2217   0.12906   0.12536  -0.0627  0.8919  0.0657  -1.1622   0.0000   0.0000   0.0000  -0.0602
  -8.800  -0.2197   0.12680   0.12310  -0.0637  0.8889  0.0654  -1.1775   0.0000   0.0000   0.0000  -0.0677
  -8.700  -0.2189   0.12416   0.12045  -0.0649  0.8863  0.0648  -1.2012   0.0000   0.0000   0.0000  -0.0741
  -8.600  -0.2210   0.12075   0.11704  -0.0661  0.8840  0.0636  -1.2445   0.0000   0.0000   0.0000  -0.0760
  -8.500  -0.2262   0.11699   0.11328  -0.0673  0.8819  0.0616  -1.3039   0.0000   0.0000   0.0000  -0.0738
  -8.400  -0.2301   0.11383   0.11011  -0.0687  0.8798  0.0596  -1.3548   0.0000   0.0000   0.0000  -0.0738
  -8.300  -0.2325   0.11110   0.10738  -0.0701  0.8776  0.0578  -1.3978   0.0000   0.0000   0.0000  -0.0763
  -8.200  -0.2339   0.10861   0.10488  -0.0716  0.8755  0.0562  -1.4366   0.0000   0.0000   0.0000  -0.0806
  -8.100  -0.2349   0.10626   0.10253  -0.0734  0.8734  0.0547  -1.4738   0.0000   0.0000   0.0000  -0.0863
  -8.000  -0.2355   0.10400   0.10026  -0.0752  0.8713  0.0534  -1.5106   0.0000   0.0000   0.0000  -0.0930
  -7.900  -0.2332   0.11076   0.10701  -0.0778  0.8535  0.0520  -1.5435   0.0000   0.0000   0.0000  -0.1070
  -7.600  -0.2562   0.09986   0.09610  -0.0769  0.8436  0.0509  -1.6297   0.0000   0.0000   0.0000  -0.0702
  -7.500  -0.2694   0.09736   0.09360  -0.0744  0.8306  0.0511  -1.6483   0.0000   0.0000   0.0000  -0.0448
  -7.400  -0.2796   0.09589   0.09212  -0.0731  0.8202  0.0510  -1.6713   0.0000   0.0000   0.0000  -0.0291
  -7.300  -0.2880   0.09443   0.09064  -0.0725  0.8119  0.0508  -1.6982   0.0000   0.0000   0.0000  -0.0184
  -7.200  -0.2963   0.09301   0.08920  -0.0720  0.8046  0.0505  -1.7260   0.0000   0.0000   0.0000  -0.0089
  -7.100  -0.3045   0.09164   0.08780  -0.0714  0.7981  0.0502  -1.7537   0.0000   0.0000   0.0000   0.0002
  -7.000  -0.3102   0.08982   0.08594  -0.0714  0.7927  0.0496  -1.7856   0.0000   0.0000   0.0000   0.0052
  -6.900  -0.3136   0.08759   0.08365  -0.0718  0.7880  0.0488  -1.8215   0.0000   0.0000   0.0000   0.0066
  -6.800  -0.3156   0.08513   0.08113  -0.0725  0.7838  0.0479  -1.8600   0.0000   0.0000   0.0000   0.0062
  -6.700  -0.3163   0.08252   0.07844  -0.0733  0.7801  0.0470  -1.9001   0.0000   0.0000   0.0000   0.0046
  -6.600  -0.3161   0.07987   0.07569  -0.0740  0.7767  0.0460  -1.9402   0.0000   0.0000   0.0000   0.0023
  -6.500  -0.3146   0.07713   0.07284  -0.0748  0.7736  0.0449  -1.9820   0.0000   0.0000   0.0000  -0.0012
  -6.400  -0.3119   0.07444   0.07002  -0.0754  0.7704  0.0439  -2.0279   0.0000   0.0000   0.0000  -0.0053
  -6.300  -0.3082   0.07195   0.06739  -0.0759  0.7667  0.0429  -2.0745   0.0000   0.0000   0.0000  -0.0099
  -3.900  -0.1708   0.06453   0.05992  -0.0569  0.6225  0.2725  -0.9373   0.0000   0.0000   0.0000  -0.0970
  -3.800  -0.1652   0.06352   0.05904  -0.0551  0.6217  0.2856  -0.9075   0.0000   0.0000   0.0000  -0.0978
  -3.700  -0.1596   0.06274   0.05827  -0.0540  0.6207  0.2923  -0.8881   0.0000   0.0000   0.0000  -0.1026
  -3.600  -0.1528   0.06204   0.05759  -0.0529  0.6197  0.2992  -0.8679   0.0000   0.0000   0.0000  -0.1109
  -3.500  -0.1463   0.06142   0.05698  -0.0518  0.6185  0.3067  -0.8488   0.0000   0.0000   0.0000  -0.1192
  -3.400  -0.1403   0.06085   0.05642  -0.0507  0.6172  0.3149  -0.8311   0.0000   0.0000   0.0000  -0.1270
  -3.300  -0.1347   0.06034   0.05591  -0.0496  0.6157  0.3236  -0.8147   0.0000   0.0000   0.0000  -0.1341
  -3.200  -0.1294   0.05993   0.05549  -0.0486  0.6141  0.3329  -0.7992   0.0000   0.0000   0.0000  -0.1410
  -3.100  -0.1240   0.05971   0.05527  -0.0475  0.6122  0.3424  -0.7837   0.0000   0.0000   0.0000  -0.1491
  -2.800  -0.0789   0.06737   0.06292  -0.0433  0.6053  0.3709  -0.6780   0.0000   0.0000   0.0000  -0.3232
  -2.700  -0.1333   0.05643   0.05193  -0.0422  0.6019  0.3933  -0.7631   0.0000   0.0000   0.0000  -0.0795
  -2.600  -0.1372   0.05543   0.05099  -0.0402  0.5992  0.4035  -0.7588   0.0000   0.0000   0.0000  -0.0554
  -2.500  -0.1409   0.05523   0.05084  -0.0381  0.5965  0.4105  -0.7528   0.0000   0.0000   0.0000  -0.0321
  -2.400  -0.1460   0.05532   0.05097  -0.0360  0.5941  0.4163  -0.7486   0.0000   0.0000   0.0000  -0.0078
  -2.300  -0.1517   0.05558   0.05126  -0.0340  0.5922  0.4217  -0.7455   0.0000   0.0000   0.0000   0.0153
  -2.200  -0.1572   0.05596   0.05168  -0.0321  0.5910  0.4272  -0.7421   0.0000   0.0000   0.0000   0.0358
  -2.100  -0.1625   0.05639   0.05215  -0.0302  0.5904  0.4329  -0.7388   0.0000   0.0000   0.0000   0.0544
  -2.000  -0.1679   0.05684   0.05262  -0.0284  0.5902  0.4390  -0.7358   0.0000   0.0000   0.0000   0.0713
  -1.900  -0.1727   0.05730   0.05311  -0.0267  0.5904  0.4456  -0.7324   0.0000   0.0000   0.0000   0.0862
   0.800   0.2899   0.03408   0.02478  -0.0512  0.5356  0.1076  -0.8716   0.0000   0.0000   0.0000   0.4253
   0.900   0.3044   0.03367   0.02429  -0.0513  0.5344  0.1057  -0.8858   0.0000   0.0000   0.0000   0.4172
   1.000   0.3179   0.03334   0.02387  -0.0515  0.5332  0.1041  -0.8986   0.0000   0.0000   0.0000   0.4102
   1.100   0.3309   0.03306   0.02351  -0.0516  0.5318  0.1026  -0.9104   0.0000   0.0000   0.0000   0.4041
   1.200   0.3435   0.03282   0.02320  -0.0517  0.5305  0.1013  -0.9214   0.0000   0.0000   0.0000   0.3985
   1.300   0.3558   0.03262   0.02293  -0.0518  0.5291  0.1000  -0.9317   0.0000   0.0000   0.0000   0.3934
   1.400   0.3679   0.03246   0.02270  -0.0519  0.5278  0.0989  -0.9415   0.0000   0.0000   0.0000   0.3887
   1.500   0.3798   0.03232   0.02250  -0.0520  0.5265  0.0979  -0.9509   0.0000   0.0000   0.0000   0.3843
   1.600   0.3916   0.03218   0.02230  -0.0521  0.5252  0.0970  -0.9602   0.0000   0.0000   0.0000   0.3802
   1.700   0.4036   0.03204   0.02210  -0.0522  0.5239  0.0961  -0.9697   0.0000   0.0000   0.0000   0.3764
   1.800   0.4156   0.03190   0.02190  -0.0523  0.5227  0.0954  -0.9794   0.0000   0.0000   0.0000   0.3727
   1.900   0.4278   0.03175   0.02170  -0.0524  0.5214  0.0947  -0.9892   0.0000   0.0000   0.0000   0.3693
   2.000   0.4400   0.03161   0.02150  -0.0525  0.5202  0.0941  -0.9991   0.0000   0.0000   0.0000   0.3660
   2.100   0.4523   0.03146   0.02130  -0.0527  0.5190  0.0936  -1.0091   0.0000   0.0000   0.0000   0.3630
   2.200   0.4646   0.03131   0.02111  -0.0528  0.5178  0.0931  -1.0192   0.0000   0.0000   0.0000   0.3601
   2.300   0.4770   0.03116   0.02091  -0.0530  0.5166  0.0928  -1.0294   0.0000   0.0000   0.0000   0.3573
   2.400   0.4895   0.03101   0.02072  -0.0531  0.5154  0.0925  -1.0396   0.0000   0.0000   0.0000   0.3547
   2.500   0.5020   0.03086   0.02053  -0.0533  0.5142  0.0923  -1.0499   0.0000   0.0000   0.0000   0.3522
   2.600   0.5145   0.03070   0.02035  -0.0535  0.5130  0.0923  -1.0602   0.0000   0.0000   0.0000   0.3498
   2.700   0.5271   0.03054   0.02016  -0.0536  0.5118  0.0924  -1.0705   0.0000   0.0000   0.0000   0.3475
   2.900   0.5348   0.03178   0.02145  -0.0525  0.5144  0.0941  -1.0576   0.0000   0.0000   0.0000   0.3437
   3.000   0.5406   0.03220   0.02185  -0.0521  0.5145  0.0949  -1.0561   0.0000   0.0000   0.0000   0.3419
   3.100   0.5469   0.03257   0.02221  -0.0518  0.5144  0.0960  -1.0557   0.0000   0.0000   0.0000   0.3400
   3.200   0.5525   0.03299   0.02261  -0.0514  0.5143  0.0974  -1.0543   0.0000   0.0000   0.0000   0.3383
   3.300   0.5572   0.03348   0.02309  -0.0509  0.5142  0.0992  -1.0516   0.0000   0.0000   0.0000   0.3366
   3.400   0.5608   0.03405   0.02365  -0.0504  0.5141  0.1014  -1.0473   0.0000   0.0000   0.0000   0.3349
   3.500   0.5634   0.03473   0.02431  -0.0498  0.5140  0.1043  -1.0413   0.0000   0.0000   0.0000   0.3334
   3.600   0.5645   0.03553   0.02510  -0.0492  0.5139  0.1079  -1.0332   0.0000   0.0000   0.0000   0.3319
   3.700   0.5644   0.03651   0.02597  -0.0485  0.5139  0.1127  -1.0229   0.0000   0.0000   0.0000   0.3306
   3.800   0.5632   0.03756   0.02697  -0.0477  0.5139  0.1180  -1.0111   0.0000   0.0000   0.0000   0.3293
   3.900   0.5611   0.03863   0.02809  -0.0469  0.5139  0.1229  -0.9979   0.0000   0.0000   0.0000   0.3281
   4.000   0.5581   0.03976   0.02929  -0.0461  0.5140  0.1254  -0.9833   0.0000   0.0000   0.0000   0.3270
   4.100   0.5541   0.04095   0.03054  -0.0453  0.5142  0.1273  -0.9672   0.0000   0.0000   0.0000   0.3259
   4.200   0.5492   0.04220   0.03185  -0.0444  0.5144  0.1289  -0.9500   0.0000   0.0000   0.0000   0.3249
   4.300   0.5437   0.04350   0.03320  -0.0435  0.5148  0.1302  -0.9341   0.0000   0.0000   0.0000   0.3239
   4.400   0.5375   0.04484   0.03459  -0.0426  0.5152  0.1313  -0.9254   0.0000   0.0000   0.0000   0.3231
   4.500   0.5307   0.04621   0.03600  -0.0418  0.5157  0.1323  -0.9160   0.0000   0.0000   0.0000   0.3222
   4.600   0.5235   0.04759   0.03742  -0.0409  0.5164  0.1330  -0.9060   0.0000   0.0000   0.0000   0.3215
   4.700   0.5158   0.04899   0.03885  -0.0400  0.5172  0.1336  -0.8996   0.0000   0.0000   0.0000   0.3208
   4.800   0.5079   0.05038   0.04027  -0.0391  0.5181  0.1341  -0.8928   0.0000   0.0000   0.0000   0.3201
   4.900   0.5038   0.05150   0.04145  -0.0385  0.5188  0.1358  -0.8900   0.0000   0.0000   0.0000   0.3193
   5.000   0.5004   0.05254   0.04255  -0.0379  0.5195  0.1377  -0.8879   0.0000   0.0000   0.0000   0.3184
   5.100   0.4946   0.05372   0.04378  -0.0372  0.5205  0.1387  -0.8831   0.0000   0.0000   0.0000   0.3177
   5.200   0.4895   0.05486   0.04496  -0.0366  0.5216  0.1400  -0.8790   0.0000   0.0000   0.0000   0.3170
   5.300   0.4853   0.05594   0.04610  -0.0360  0.5228  0.1415  -0.8757   0.0000   0.0000   0.0000   0.3163
   5.400   0.4812   0.05693   0.04714  -0.0354  0.5237  0.1431  -0.8728   0.0000   0.0000   0.0000   0.3155
   5.500   0.4781   0.05785   0.04813  -0.0348  0.5247  0.1449  -0.8707   0.0000   0.0000   0.0000   0.3146
   5.600   0.4760   0.05872   0.04906  -0.0344  0.5256  0.1469  -0.8697   0.0000   0.0000   0.0000   0.3138
   5.700   0.4747   0.05832   0.04988  -0.0342  0.5263  0.5506  -0.8703   0.0000   0.0000   0.0000   0.3135
   5.800   0.4666   0.05798   0.05037  -0.0304  0.5262  0.7956  -0.8689   0.0000   0.0000   0.0000   0.3064
   5.900   0.4661   0.05869   0.05113  -0.0298  0.5269  0.8102  -0.8700   0.0000   0.0000   0.0000   0.3048
   6.000   0.4666   0.05938   0.05186  -0.0292  0.5275  0.8197  -0.8719   0.0000   0.0000   0.0000   0.3034
   6.100   0.4680   0.06004   0.05255  -0.0288  0.5279  0.8272  -0.8748   0.0000   0.0000   0.0000   0.3020
   6.200   0.4701   0.06065   0.05320  -0.0283  0.5283  0.8333  -0.8784   0.0000   0.0000   0.0000   0.3007
   6.300   0.4730   0.06123   0.05381  -0.0279  0.5285  0.8383  -0.8827   0.0000   0.0000   0.0000   0.2993
   6.400   0.4765   0.06177   0.05439  -0.0275  0.5286  0.8423  -0.8878   0.0000   0.0000   0.0000   0.2978
   6.500   0.4807   0.06229   0.05493  -0.0271  0.5285  0.8457  -0.8936   0.0000   0.0000   0.0000   0.2964
   6.600   0.4856   0.06278   0.05545  -0.0268  0.5283  0.8486  -0.9001   0.0000   0.0000   0.0000   0.2950
   6.700   0.4910   0.06324   0.05593  -0.0265  0.5280  0.8508  -0.9073   0.0000   0.0000   0.0000   0.2936
   6.800   0.4971   0.06367   0.05640  -0.0261  0.5276  0.8525  -0.9152   0.0000   0.0000   0.0000   0.2921
   6.900   0.5040   0.06409   0.05685  -0.0259  0.5270  0.8546  -0.9238   0.0000   0.0000   0.0000   0.2908
   7.000   0.5124   0.06448   0.05727  -0.0260  0.5263  0.8610  -0.9336   0.0000   0.0000   0.0000   0.2900
   7.100   0.5213   0.06483   0.05766  -0.0260  0.5255  0.8676  -0.9441   0.0000   0.0000   0.0000   0.2890
   7.200   0.5304   0.06515   0.05801  -0.0259  0.5246  0.8743  -0.9550   0.0000   0.0000   0.0000   0.2879
   7.300   0.5397   0.06542   0.05834  -0.0257  0.5236  0.8808  -0.9663   0.0000   0.0000   0.0000   0.2866
   7.400   0.5494   0.06568   0.05864  -0.0255  0.5226  0.8871  -0.9781   0.0000   0.0000   0.0000   0.2853
   7.500   0.5595   0.06593   0.05893  -0.0253  0.5215  0.8932  -0.9905   0.0000   0.0000   0.0000   0.2840
   7.600   0.5702   0.06618   0.05922  -0.0251  0.5204  0.8991  -1.0034   0.0000   0.0000   0.0000   0.2827
   7.700   0.5816   0.06644   0.05951  -0.0250  0.5193  0.9048  -1.0172   0.0000   0.0000   0.0000   0.2816
   7.800   0.5935   0.06667   0.05977  -0.0249  0.5182  0.9103  -1.0315   0.0000   0.0000   0.0000   0.2805
   7.900   0.6055   0.06684   0.05997  -0.0248  0.5169  0.9154  -1.0464   0.0000   0.0000   0.0000   0.2794
   8.000   0.6183   0.06698   0.06014  -0.0247  0.5157  0.9204  -1.0622   0.0000   0.0000   0.0000   0.2783
   8.100   0.6320   0.06707   0.06025  -0.0246  0.5144  0.9251  -1.0794   0.0000   0.0000   0.0000   0.2772
   8.200   0.6459   0.06718   0.06037  -0.0246  0.5132  0.9294  -1.0970   0.0000   0.0000   0.0000   0.2762
   8.400   0.6776   0.06766   0.06091  -0.0253  0.5108  0.9408  -1.1736   0.0000   0.0000   0.0000   0.2753
   8.500   0.6960   0.06813   0.06141  -0.0262  0.5094  0.9493  -1.2164   0.0000   0.0000   0.0000   0.2755
   8.600   0.7153   0.06893   0.06225  -0.0273  0.5078  0.9587  -1.2610   0.0000   0.0000   0.0000   0.2759
   8.700   0.7009   0.07502   0.06836  -0.0257  0.4969  0.9577  -1.2484   0.0000   0.0000   0.0000   0.2742
   8.800   0.7164   0.07429   0.06768  -0.0269  0.4962  0.9720  -1.2865   0.0000   0.0000   0.0000   0.2749
   8.900   0.7284   0.07347   0.06690  -0.0273  0.4953  1.0000  -1.3198   0.0000   0.0000   0.0000   0.2747
   9.000   0.7380   0.07269   0.06613  -0.0274  0.4942  1.0000  -1.3497   0.0000   0.0000   0.0000   0.2741
   9.100   0.7468   0.07189   0.06533  -0.0274  0.4930  1.0000  -1.3781   0.0000   0.0000   0.0000   0.2736
   9.200   0.7539   0.07104   0.06449  -0.0274  0.4912  1.0000  -1.4037   0.0000   0.0000   0.0000   0.2730
   9.300   0.7562   0.07002   0.06347  -0.0271  0.4882  1.0000  -1.4206   0.0000   0.0000   0.0000   0.2723
   9.700   0.6736   0.07122   0.06469  -0.0227  0.4407  1.0000  -1.3096   0.0000   0.0000   0.0000   0.2687
   9.800   0.6796   0.07143   0.06492  -0.0228  0.4365  1.0000  -1.3316   0.0000   0.0000   0.0000   0.2683
   9.900   0.6868   0.07156   0.06507  -0.0228  0.4324  1.0000  -1.3562   0.0000   0.0000   0.0000   0.2679
  10.000   0.6951   0.07160   0.06513  -0.0229  0.4285  1.0000  -1.3832   0.0000   0.0000   0.0000   0.2675
  10.100   0.7043   0.07156   0.06511  -0.0230  0.4247  1.0000  -1.4125   0.0000   0.0000   0.0000   0.2670
  10.200   0.7143   0.07145   0.06501  -0.0231  0.4210  1.0000  -1.4434   0.0000   0.0000   0.0000   0.2665
  10.300   0.7250   0.07126   0.06484  -0.0231  0.4173  1.0000  -1.4761   0.0000   0.0000   0.0000   0.2659
  10.400   0.7365   0.07099   0.06459  -0.0232  0.4138  1.0000  -1.5108   0.0000   0.0000   0.0000   0.2653
  10.500   0.7488   0.07066   0.06428  -0.0233  0.4105  1.0000  -1.5475   0.0000   0.0000   0.0000   0.2647
  10.600   0.7618   0.07027   0.06391  -0.0234  0.4074  1.0000  -1.5860   0.0000   0.0000   0.0000   0.2641
  10.700   0.7758   0.06976   0.06341  -0.0234  0.4045  1.0000  -1.6272   0.0000   0.0000   0.0000   0.2635
  10.800   0.7909   0.06910   0.06277  -0.0235  0.4018  1.0000  -1.6716   0.0000   0.0000   0.0000   0.2628
  10.900   0.8064   0.06839   0.06207  -0.0235  0.3993  1.0000  -1.7174   0.0000   0.0000   0.0000   0.2621
  11.000   0.8218   0.06767   0.06137  -0.0235  0.3970  1.0000  -1.7635   0.0000   0.0000   0.0000   0.2614
  11.100   0.8369   0.06700   0.06072  -0.0235  0.3948  1.0000  -1.8090   0.0000   0.0000   0.0000   0.2607
  11.200   0.8516   0.06639   0.06013  -0.0236  0.3927  1.0000  -1.8535   0.0000   0.0000   0.0000   0.2601
  11.300   0.8661   0.06578   0.05954  -0.0236  0.3907  1.0000  -1.8981   0.0000   0.0000   0.0000   0.2595
  11.400   0.8804   0.06514   0.05893  -0.0236  0.3888  1.0000  -1.9427   0.0000   0.0000   0.0000   0.2588
  11.500   0.8958   0.06427   0.05807  -0.0235  0.3867  1.0000  -1.9913   0.0000   0.0000   0.0000   0.2581
  11.600   0.9142   0.06277   0.05657  -0.0233  0.3839  1.0000  -2.0508   0.0000   0.0000   0.0000   0.2571
  11.700   0.9365   0.06055   0.05432  -0.0230  0.3786  1.0000  -2.1224   0.0000   0.0000   0.0000   0.2558
  11.800   0.9560   0.05883   0.05254  -0.0228  0.3694  1.0000  -2.1866   0.0000   0.0000   0.0000   0.2548
  11.900   0.9514   0.06081   0.05456  -0.0231  0.3622  1.0000  -2.1874   0.0000   0.0000   0.0000   0.2551
  12.000   0.9434   0.06288   0.05666  -0.0232  0.3534  1.0000  -2.1806   0.0000   0.0000   0.0000   0.2553
  12.100   0.9373   0.06444   0.05820  -0.0233  0.3432  1.0000  -2.1790   0.0000   0.0000   0.0000   0.2553
  12.200   0.9364   0.06522   0.05895  -0.0232  0.3314  1.0000  -2.1913   0.0000   0.0000   0.0000   0.2550
  12.300   0.9455   0.06482   0.05844  -0.0230  0.3175  1.0000  -2.2289   0.0000   0.0000   0.0000   0.2543
  12.400   0.9668   0.06314   0.05664  -0.0227  0.3081  1.0000  -2.2961   0.0000   0.0000   0.0000   0.2533
  12.500   1.0012   0.05961   0.05289  -0.0222  0.2977  1.0000  -2.3973   0.0000   0.0000   0.0000   0.2517
  12.600   1.0105   0.05924   0.05238  -0.0220  0.2814  1.0000  -2.4353   0.0000   0.0000   0.0000   0.2511
  12.700   1.0217   0.05874   0.05177  -0.0218  0.2625  1.0000  -2.4777   0.0000   0.0000   0.0000   0.2505
  12.800   1.0315   0.05856   0.05156  -0.0218  0.2497  1.0000  -2.5161   0.0000   0.0000   0.0000   0.2500
  12.900   1.0353   0.05923   0.05227  -0.0219  0.2479  1.0000  -2.5397   0.0000   0.0000   0.0000   0.2499
  13.000   1.0384   0.05995   0.05302  -0.0220  0.2455  1.0000  -2.5618   0.0000   0.0000   0.0000   0.2497
  13.100   1.0406   0.06075   0.05385  -0.0221  0.2426  1.0000  -2.5817   0.0000   0.0000   0.0000   0.2496
  13.200   1.0402   0.06180   0.05494  -0.0222  0.2394  1.0000  -2.5949   0.0000   0.0000   0.0000   0.2495
  13.400   0.9564   0.07261   0.06617  -0.0236  0.2449  1.0000  -2.3988   0.0000   0.0000   0.0000   0.2524
  13.500   0.9556   0.07363   0.06721  -0.0238  0.2433  1.0000  -2.4096   0.0000   0.0000   0.0000   0.2525
  13.600   0.9559   0.07453   0.06814  -0.0240  0.2414  1.0000  -2.4236   0.0000   0.0000   0.0000   0.2525
  13.700   0.9572   0.07534   0.06898  -0.0242  0.2390  1.0000  -2.4402   0.0000   0.0000   0.0000   0.2524
  13.800   0.9593   0.07607   0.06972  -0.0243  0.2359  1.0000  -2.4591   0.0000   0.0000   0.0000   0.2523
  13.900   0.9619   0.07675   0.07040  -0.0245  0.2319  1.0000  -2.4795   0.0000   0.0000   0.0000   0.2522
  14.000   0.9649   0.07737   0.07101  -0.0246  0.2266  1.0000  -2.5013   0.0000   0.0000   0.0000   0.2521
  14.100   0.9681   0.07795   0.07157  -0.0248  0.2195  1.0000  -2.5240   0.0000   0.0000   0.0000   0.2519
  14.200   0.9712   0.07850   0.07206  -0.0249  0.2093  1.0000  -2.5473   0.0000   0.0000   0.0000   0.2517
  14.300   0.9739   0.07901   0.07243  -0.0249  0.1939  1.0000  -2.5704   0.0000   0.0000   0.0000   0.2514
  14.400   0.9750   0.07954   0.07267  -0.0249  0.1724  1.0000  -2.5908   0.0000   0.0000   0.0000   0.2511
  14.500   0.9734   0.08045   0.07335  -0.0250  0.1521  1.0000  -2.6024   0.0000   0.0000   0.0000   0.2510
  14.600   0.9751   0.08124   0.07403  -0.0252  0.1376  1.0000  -2.6213   0.0000   0.0000   0.0000   0.2509
  14.700   0.9769   0.08201   0.07467  -0.0253  0.1246  1.0000  -2.6414   0.0000   0.0000   0.0000   0.2508
  14.800   0.9778   0.08288   0.07537  -0.0255  0.1113  1.0000  -2.6592   0.0000   0.0000   0.0000   0.2507
  14.900   0.9783   0.08378   0.07607  -0.0257  0.0983  1.0000  -2.6914   0.0000   0.0000   0.0000   0.2507
  15.000   0.9796   0.08463   0.07672  -0.0259  0.0845  1.0000  -2.7360   0.0000   0.0000   0.0000   0.2507
  15.100   0.9837   0.08528   0.07731  -0.0261  0.0698  1.0000  -2.7933   0.0000   0.0000   0.0000   0.2505
  15.200   0.9889   0.08580   0.07781  -0.0263  0.0646  1.0000  -2.8577   0.0000   0.0000   0.0000   0.2503
  15.300   0.9939   0.08633   0.07831  -0.0265  0.0612  1.0000  -2.9222   0.0000   0.0000   0.0000   0.2501
  15.400   0.9988   0.08689   0.07881  -0.0266  0.0576  1.0000  -2.9857   0.0000   0.0000   0.0000   0.2500
  15.500   1.0033   0.08750   0.07935  -0.0268  0.0539  1.0000  -3.0469   0.0000   0.0000   0.0000   0.2498
  15.600   1.0073   0.08818   0.07992  -0.0270  0.0500  1.0000  -3.1041   0.0000   0.0000   0.0000   0.2497
  15.700   1.0105   0.08896   0.08054  -0.0272  0.0458  1.0000  -3.1543   0.0000   0.0000   0.0000   0.2496
  15.800   1.0134   0.08980   0.08120  -0.0274  0.0409  1.0000  -3.1952   0.0000   0.0000   0.0000   0.2494
  15.900   1.0165   0.09065   0.08203  -0.0273  0.0350  1.0000  -3.2149   0.0000   0.0000   0.0000   0.2490
  16.000   1.0201   0.09143   0.08297  -0.0271  0.0315  1.0000  -3.2270   0.0000   0.0000   0.0000   0.2485
  16.100   1.0243   0.09211   0.08381  -0.0269  0.0299  1.0000  -3.2502   0.0000   0.0000   0.0000   0.2479
  16.200   1.0288   0.09273   0.08458  -0.0267  0.0290  1.0000  -3.2801   0.0000   0.0000   0.0000   0.2474
  16.300   1.0338   0.09334   0.08534  -0.0266  0.0286  1.0000  -3.3145   0.0000   0.0000   0.0000   0.2469
  16.400   1.0391   0.09397   0.08609  -0.0264  0.0284  1.0000  -3.3543   0.0000   0.0000   0.0000   0.2463
  16.500   1.0444   0.09462   0.08686  -0.0262  0.0284  1.0000  -3.4027   0.0000   0.0000   0.0000   0.2458
  16.600   1.0497   0.09532   0.08768  -0.0261  0.0285  1.0000  -3.4490   0.0000   0.0000   0.0000   0.2454
  16.700   1.0548   0.09608   0.08857  -0.0260  0.0288  1.0000  -3.4926   0.0000   0.0000   0.0000   0.2449
  16.800   1.0596   0.09695   0.08956  -0.0259  0.0291  1.0000  -3.5329   0.0000   0.0000   0.0000   0.2445
  16.900   1.0633   0.09802   0.09076  -0.0259  0.0296  1.0000  -3.5664   0.0000   0.0000   0.0000   0.2443
  17.000   1.0667   0.09922   0.09208  -0.0260  0.0301  1.0000  -3.5955   0.0000   0.0000   0.0000   0.2441
  17.100   1.0694   0.10057   0.09357  -0.0262  0.0306  1.0000  -3.6187   0.0000   0.0000   0.0000   0.2439
  18.300   1.0037   0.14051   0.13500  -0.0404  0.0347  1.0000  -3.2815   0.0000   0.0000   0.0000   0.2579
  18.400   0.9945   0.14539   0.13995  -0.0424  0.0349  1.0000  -3.2218   0.0000   0.0000   0.0000   0.2603
  18.500   0.9851   0.15054   0.14518  -0.0445  0.0350  1.0000  -3.1562   0.0000   0.0000   0.0000   0.2628
  18.600   0.9753   0.15604   0.15075  -0.0468  0.0351  1.0000  -3.0836   0.0000   0.0000   0.0000   0.2655
  18.700   0.9645   0.16215   0.15690  -0.0494  0.0352  1.0000  -3.0004   0.0000   0.0000   0.0000   0.2688
  18.800   0.9540   0.16846   0.16326  -0.0519  0.0353  1.0000  -2.9113   0.0000   0.0000   0.0000   0.2721
  18.900   0.9446   0.17466   0.16950  -0.0543  0.0356  1.0000  -2.8211   0.0000   0.0000   0.0000   0.2752
  19.000   0.9358   0.18098   0.17585  -0.0566  0.0361  1.0000  -2.7266   0.0000   0.0000   0.0000   0.2782
  19.100   0.9277   0.18751   0.18242  -0.0588  0.0367  1.0000  -2.6255   0.0000   0.0000   0.0000   0.2813
  19.200   0.9198   0.19418   0.18913  -0.0610  0.0374  1.0000  -2.5214   0.0000   0.0000   0.0000   0.2844
  19.300   0.9118   0.20081   0.19579  -0.0634  0.0381  1.0000  -2.4197   0.0000   0.0000   0.0000   0.2877
  19.400   0.9036   0.20742   0.20243  -0.0658  0.0388  1.0000  -2.3184   0.0000   0.0000   0.0000   0.2911
  19.500   0.8953   0.21398   0.20902  -0.0682  0.0396  1.0000  -2.2177   0.0000   0.0000   0.0000   0.2947
  19.600   0.8874   0.22032   0.21539  -0.0706  0.0405  1.0000  -2.1212   0.0000   0.0000   0.0000   0.2982
  19.700   0.8798   0.22641   0.22152  -0.0729  0.0415  1.0000  -2.0289   0.0000   0.0000   0.0000   0.3017
  19.800   0.8725   0.23220   0.22736  -0.0753  0.0426  1.0000  -1.9403   0.0000   0.0000   0.0000   0.3053
  19.900   0.8651   0.23766   0.23286  -0.0776  0.0439  1.0000  -1.8544   0.0000   0.0000   0.0000   0.3089
  20.000   0.8569   0.24263   0.23790  -0.0800  0.0454  1.0000  -1.7666   0.0000   0.0000   0.0000   0.3128
  20.100   0.8418   0.24591   0.24130  -0.0831  0.0472  1.0000  -1.6488   0.0000   0.0000   0.0000   0.3188
  20.200   0.8303   0.24840   0.24389  -0.0854  0.0492  1.0000  -1.5563   0.0000   0.0000   0.0000   0.3233
  20.300   0.8213   0.25059   0.24616  -0.0872  0.0514  1.0000  -1.4797   0.0000   0.0000   0.0000   0.3270
  20.400   0.8132   0.25260   0.24823  -0.0886  0.0538  1.0000  -1.4112   0.0000   0.0000   0.0000   0.3301
  20.500   0.8051   0.25458   0.25027  -0.0899  0.0566  1.0000  -1.3445   0.0000   0.0000   0.0000   0.3330
  20.600   0.7952   0.25686   0.25262  -0.0910  0.0599  1.0000  -1.2674   0.0000   0.0000   0.0000   0.3362
  20.700   0.7753   0.26185   0.25770  -0.0922  0.0647  1.0000  -1.1182   0.0000   0.0000   0.0000   0.3414
  20.800   0.7682   0.26579   0.26169  -0.0931  0.0660  1.0000  -1.0538   0.0000   0.0000   0.0000   0.3439
  20.900   0.7661   0.26804   0.26396  -0.0937  0.0663  1.0000  -1.0294   0.0000   0.0000   0.0000   0.3453
  21.000   0.7647   0.26994   0.26588  -0.0944  0.0665  1.0000  -1.0117   0.0000   0.0000   0.0000   0.3464
  21.100   0.7636   0.27167   0.26763  -0.0950  0.0666  1.0000  -0.9971   0.0000   0.0000   0.0000   0.3474
  21.200   0.7628   0.27329   0.26928  -0.0957  0.0666  1.0000  -0.9842   0.0000   0.0000   0.0000   0.3483
  21.300   0.7620   0.27485   0.27085  -0.0963  0.0667  1.0000  -0.9726   0.0000   0.0000   0.0000   0.3492
  21.400   0.7614   0.27634   0.27236  -0.0969  0.0667  1.0000  -0.9618   0.0000   0.0000   0.0000   0.3501
  21.500   0.7609   0.27780   0.27383  -0.0975  0.0667  1.0000  -0.9517   0.0000   0.0000   0.0000   0.3510
  21.600   0.7604   0.27921   0.27527  -0.0981  0.0668  1.0000  -0.9421   0.0000   0.0000   0.0000   0.3518
  21.700   0.7600   0.28060   0.27667  -0.0987  0.0668  1.0000  -0.9331   0.0000   0.0000   0.0000   0.3526
  21.800   0.7596   0.28196   0.27804  -0.0993  0.0668  1.0000  -0.9244   0.0000   0.0000   0.0000   0.3534
  21.900   0.7593   0.28330   0.27940  -0.0998  0.0668  1.0000  -0.9162   0.0000   0.0000   0.0000   0.3542
  22.000   0.7590   0.28461   0.28073  -0.1004  0.0668  1.0000  -0.9082   0.0000   0.0000   0.0000   0.3549
  22.100   0.7588   0.28591   0.28204  -0.1010  0.0668  1.0000  -0.9006   0.0000   0.0000   0.0000   0.3556
  22.200   0.7586   0.28719   0.28333  -0.1015  0.0668  1.0000  -0.8932   0.0000   0.0000   0.0000   0.3564
  22.300   0.7584   0.28845   0.28460  -0.1021  0.0668  1.0000  -0.8860   0.0000   0.0000   0.0000   0.3571
  22.400   0.7583   0.28969   0.28586  -0.1027  0.0668  1.0000  -0.8791   0.0000   0.0000   0.0000   0.3578
  22.500   0.7582   0.29092   0.28710  -0.1032  0.0668  1.0000  -0.8724   0.0000   0.0000   0.0000   0.3585
  22.600   0.7580   0.29196   0.28815  -0.1038  0.0668  1.0000  -0.8661   0.0000   0.0000   0.0000   0.3592
  22.700   0.7576   0.29268   0.28889  -0.1043  0.0667  1.0000  -0.8603   0.0000   0.0000   0.0000   0.3599
  22.800   0.7573   0.29339   0.28961  -0.1049  0.0666  1.0000  -0.8548   0.0000   0.0000   0.0000   0.3606
  22.900   0.7570   0.29407   0.29030  -0.1054  0.0666  1.0000  -0.8495   0.0000   0.0000   0.0000   0.3613
  23.000   0.7568   0.29473   0.29097  -0.1060  0.0665  1.0000  -0.8446   0.0000   0.0000   0.0000   0.3620
  23.100   0.7566   0.29535   0.29160  -0.1065  0.0664  1.0000  -0.8400   0.0000   0.0000   0.0000   0.3626
  23.200   0.7565   0.29594   0.29220  -0.1070  0.0663  1.0000  -0.8358   0.0000   0.0000   0.0000   0.3633
  23.300   0.7564   0.29648   0.29276  -0.1076  0.0662  1.0000  -0.8320   0.0000   0.0000   0.0000   0.3639
  23.400   0.7564   0.29697   0.29326  -0.1081  0.0660  1.0000  -0.8287   0.0000   0.0000   0.0000   0.3645
  23.500   0.7565   0.29740   0.29369  -0.1087  0.0659  1.0000  -0.8260   0.0000   0.0000   0.0000   0.3651
  23.600   0.7566   0.29771   0.29401  -0.1092  0.0657  1.0000  -0.8239   0.0000   0.0000   0.0000   0.3657
  23.700   0.7567   0.29784   0.29415  -0.1097  0.0655  1.0000  -0.8223   0.0000   0.0000   0.0000   0.3663
  23.800   0.7569   0.29779   0.29411  -0.1103  0.0651  1.0000  -0.8221   0.0000   0.0000   0.0000   0.3668
  23.900   0.7574   0.29746   0.29379  -0.1108  0.0647  1.0000  -0.8242   0.0000   0.0000   0.0000   0.3673
  24.000   0.7586   0.29658   0.29292  -0.1114  0.0638  1.0000  -0.8310   0.0000   0.0000   0.0000   0.3677
  24.100   0.7599   0.29454   0.29089  -0.1123  0.0620  1.0000  -0.8416   0.0000   0.0000   0.0000   0.3683
  24.200   0.7618   0.29313   0.28948  -0.1137  0.0583  1.0000  -0.8480   0.0000   0.0000   0.0000   0.3696
  24.300   0.7631   0.29361   0.28997  -0.1150  0.0544  1.0000  -0.8483   0.0000   0.0000   0.0000   0.3708
  24.400   0.7639   0.29445   0.29082  -0.1160  0.0508  1.0000  -0.8497   0.0000   0.0000   0.0000   0.3717
  24.500   0.7646   0.29527   0.29165  -0.1167  0.0475  1.0000  -0.8533   0.0000   0.0000   0.0000   0.3725
  24.600   0.7652   0.29603   0.29241  -0.1174  0.0446  1.0000  -0.8590   0.0000   0.0000   0.0000   0.3731


