xflr5 v6.61

 Calculated polar for: WORTMANN FX 63-137 AIRFOIL

 1 1 Reynolds number fixed          Mach number fixed         

 xtrf =   1.000 (top)        1.000 (bottom)
 Mach =   0.000     Re =     0.450 e 6     Ncrit =   9.000

  alpha     CL        CD       CDp       Cm    Top Xtr Bot Xtr   Cpmin    Chinge    XCp    
 ------- -------- --------- --------- -------- ------- ------- -------- --------- ---------
  -9.300  -0.2433   0.03249   0.02941  -0.1499  0.9242  0.0142  -5.2369   0.0000   0.0000   0.0000  -0.3973
  -9.200  -0.2224   0.02605   0.02241  -0.1654  0.9177  0.0145  -5.3973   0.0000   0.0000   0.0000  -0.5274
  -9.100  -0.2085   0.02408   0.02020  -0.1692  0.9131  0.0149  -5.3837   0.0000   0.0000   0.0000  -0.5976
  -9.000  -0.1954   0.02282   0.01877  -0.1716  0.9083  0.0152  -5.3358   0.0000   0.0000   0.0000  -0.6659
  -8.900  -0.1812   0.02190   0.01770  -0.1735  0.9044  0.0155  -5.2636   0.0000   0.0000   0.0000  -0.7478
  -8.800  -0.1666   0.02121   0.01689  -0.1752  0.9009  0.0158  -5.1758   0.0000   0.0000   0.0000  -0.8450
  -8.700  -0.1518   0.02067   0.01625  -0.1767  0.8978  0.0161  -5.0782   0.0000   0.0000   0.0000  -0.9610
  -8.600  -0.1398   0.02029   0.01580  -0.1774  0.8937  0.0163  -4.9871   0.0000   0.0000   0.0000  -1.0688
  -8.500  -0.1277   0.01997   0.01541  -0.1781  0.8896  0.0165  -4.8920   0.0000   0.0000   0.0000  -1.1985
  -8.400  -0.1150   0.01969   0.01507  -0.1788  0.8858  0.0167  -4.7926   0.0000   0.0000   0.0000  -1.3633
  -8.300  -0.1020   0.01945   0.01476  -0.1795  0.8823  0.0169  -4.6905   0.0000   0.0000   0.0000  -1.5754
  -8.200  -0.0887   0.01923   0.01447  -0.1803  0.8790  0.0170  -4.5870   0.0000   0.0000   0.0000  -1.8561
  -8.100  -0.0756   0.01903   0.01420  -0.1809  0.8758  0.0171  -4.4846   0.0000   0.0000   0.0000  -2.2282
  -8.000  -0.0646   0.01885   0.01398  -0.1812  0.8720  0.0172  -4.3916   0.0000   0.0000   0.0000  -2.6536
  -7.900  -0.0530   0.01868   0.01376  -0.1815  0.8681  0.0173  -4.2966   0.0000   0.0000   0.0000  -3.2928
  -7.800  -0.0410   0.01852   0.01355  -0.1819  0.8643  0.0173  -4.2000   0.0000   0.0000   0.0000  -4.3359
  -7.700  -0.0284   0.01814   0.01310  -0.1826  0.8607  0.0174  -4.1147   0.0000   0.0000   0.0000  -6.3882
  -7.600  -0.0150   0.01737   0.01217  -0.1838  0.8574  0.0176  -4.0496   0.0000   0.0000   0.0000  -12.3653
  -7.400   0.0106   0.01618   0.01075  -0.1855  0.8512  0.0179  -3.9061   0.0000   0.0000   0.0000  18.2999
  -7.300   0.0225   0.01586   0.01036  -0.1859  0.8480  0.0179  -3.8245   0.0000   0.0000   0.0000   8.7698
  -7.200   0.0347   0.01556   0.01000  -0.1864  0.8448  0.0179  -3.7414   0.0000   0.0000   0.0000   5.7917
  -7.100   0.0470   0.01527   0.00964  -0.1868  0.8417  0.0179  -3.6575   0.0000   0.0000   0.0000   4.3449
  -7.000   0.0595   0.01500   0.00930  -0.1873  0.8388  0.0179  -3.5728   0.0000   0.0000   0.0000   3.4920
  -6.900   0.0721   0.01474   0.00894  -0.1878  0.8360  0.0179  -3.4852   0.0000   0.0000   0.0000   2.9299
  -6.800   0.0849   0.01450   0.00862  -0.1883  0.8332  0.0179  -3.4002   0.0000   0.0000   0.0000   2.5316
  -6.600   0.1101   0.01403   0.00804  -0.1893  0.8282  0.0180  -3.2326   0.0000   0.0000   0.0000   2.0164
  -6.500   0.1224   0.01380   0.00777  -0.1897  0.8257  0.0180  -3.1509   0.0000   0.0000   0.0000   1.8426
  -6.400   0.1347   0.01358   0.00752  -0.1901  0.8233  0.0181  -3.0692   0.0000   0.0000   0.0000   1.6991
  -6.300   0.1472   0.01337   0.00726  -0.1906  0.8207  0.0182  -2.9877   0.0000   0.0000   0.0000   1.5788
  -6.200   0.1597   0.01317   0.00702  -0.1910  0.8180  0.0182  -2.9062   0.0000   0.0000   0.0000   1.4764
  -6.100   0.1724   0.01298   0.00677  -0.1915  0.8153  0.0183  -2.8251   0.0000   0.0000   0.0000   1.3884
  -6.000   0.1852   0.01280   0.00654  -0.1919  0.8125  0.0184  -2.7442   0.0000   0.0000   0.0000   1.3120
  -5.900   0.1981   0.01263   0.00631  -0.1924  0.8096  0.0185  -2.6637   0.0000   0.0000   0.0000   1.2451
  -5.800   0.2110   0.01247   0.00610  -0.1929  0.8066  0.0187  -2.5834   0.0000   0.0000   0.0000   1.1858
  -5.700   0.2238   0.01232   0.00590  -0.1934  0.8037  0.0189  -2.5043   0.0000   0.0000   0.0000   1.1340
  -5.600   0.2363   0.01215   0.00572  -0.1938  0.8010  0.0191  -2.4272   0.0000   0.0000   0.0000   1.0888
  -5.500   0.2487   0.01200   0.00554  -0.1941  0.7979  0.0193  -2.3583   0.0000   0.0000   0.0000   1.0480
  -5.400   0.2611   0.01187   0.00537  -0.1945  0.7945  0.0196  -2.3084   0.0000   0.0000   0.0000   1.0110
  -5.300   0.2736   0.01175   0.00522  -0.1948  0.7910  0.0200  -2.2578   0.0000   0.0000   0.0000   0.9773
  -5.200   0.2860   0.01165   0.00508  -0.1951  0.7875  0.0204  -2.2063   0.0000   0.0000   0.0000   0.9466
  -5.100   0.2983   0.01157   0.00496  -0.1954  0.7838  0.0208  -2.1534   0.0000   0.0000   0.0000   0.9185
  -5.000   0.3107   0.01153   0.00487  -0.1957  0.7797  0.0213  -2.0983   0.0000   0.0000   0.0000   0.8926
  -4.900   0.3226   0.01146   0.00481  -0.1959  0.7763  0.0218  -2.0421   0.0000   0.0000   0.0000   0.8691
  -4.800   0.3343   0.01139   0.00474  -0.1961  0.7727  0.0223  -1.9851   0.0000   0.0000   0.0000   0.8477
  -4.700   0.3460   0.01133   0.00468  -0.1962  0.7687  0.0227  -1.9280   0.0000   0.0000   0.0000   0.8276
  -4.600   0.3578   0.01127   0.00461  -0.1964  0.7643  0.0232  -1.8719   0.0000   0.0000   0.0000   0.8088
  -4.500   0.3696   0.01122   0.00453  -0.1965  0.7600  0.0236  -1.8169   0.0000   0.0000   0.0000   0.7911
  -4.400   0.3815   0.01118   0.00445  -0.1967  0.7558  0.0240  -1.7629   0.0000   0.0000   0.0000   0.7744
  -4.300   0.3933   0.01116   0.00436  -0.1968  0.7517  0.0244  -1.7086   0.0000   0.0000   0.0000   0.7588
  -4.200   0.4055   0.01109   0.00428  -0.1971  0.7483  0.0247  -1.6582   0.0000   0.0000   0.0000   0.7439
  -4.100   0.4177   0.01101   0.00419  -0.1973  0.7451  0.0250  -1.6088   0.0000   0.0000   0.0000   0.7299
  -4.000   0.4300   0.01094   0.00410  -0.1976  0.7416  0.0252  -1.5602   0.0000   0.0000   0.0000   0.7166
  -3.900   0.4419   0.01089   0.00404  -0.1978  0.7382  0.0257  -1.5075   0.0000   0.0000   0.0000   0.7042
  -3.800   0.4535   0.01089   0.00402  -0.1979  0.7348  0.0264  -1.4512   0.0000   0.0000   0.0000   0.6926
  -3.700   0.4653   0.01087   0.00398  -0.1980  0.7315  0.0271  -1.3970   0.0000   0.0000   0.0000   0.6815
  -3.600   0.4794   0.01066   0.00372  -0.1988  0.7282  0.0284  -1.3563   0.0000   0.0000   0.0000   0.6702
  -3.500   0.4921   0.01059   0.00361  -0.1992  0.7251  0.0296  -1.3083   0.0000   0.0000   0.0000   0.6600
  -3.400   0.5045   0.01055   0.00354  -0.1995  0.7221  0.0304  -1.2601   0.0000   0.0000   0.0000   0.6503
  -3.300   0.5170   0.01048   0.00346  -0.1998  0.7201  0.0309  -1.2161   0.0000   0.0000   0.0000   0.6410
  -3.200   0.5297   0.01041   0.00338  -0.2001  0.7181  0.0310  -1.1755   0.0000   0.0000   0.0000   0.6321
  -3.100   0.5423   0.01034   0.00330  -0.2005  0.7159  0.0312  -1.1351   0.0000   0.0000   0.0000   0.6237
  -3.000   0.5548   0.01028   0.00322  -0.2008  0.7136  0.0313  -1.0949   0.0000   0.0000   0.0000   0.6156
  -2.900   0.5673   0.01022   0.00315  -0.2010  0.7110  0.0316  -1.0550   0.0000   0.0000   0.0000   0.6079
  -2.800   0.5797   0.01018   0.00309  -0.2013  0.7083  0.0319  -1.0154   0.0000   0.0000   0.0000   0.6005
  -2.700   0.5920   0.01013   0.00302  -0.2015  0.7055  0.0322  -0.9760   0.0000   0.0000   0.0000   0.5934
  -2.600   0.6043   0.01010   0.00296  -0.2017  0.7027  0.0327  -0.9369   0.0000   0.0000   0.0000   0.5866
  -2.500   0.6165   0.01007   0.00290  -0.2019  0.6999  0.0332  -0.8980   0.0000   0.0000   0.0000   0.5801
  -2.400   0.6286   0.01005   0.00284  -0.2021  0.6971  0.0339  -0.8832   0.0000   0.0000   0.0000   0.5739
  -2.300   0.6407   0.01004   0.00277  -0.2023  0.6943  0.0347  -0.8919   0.0000   0.0000   0.0000   0.5679
  -2.200   0.6527   0.01003   0.00273  -0.2025  0.6915  0.0356  -0.9006   0.0000   0.0000   0.0000   0.5621
  -2.100   0.6648   0.01001   0.00269  -0.2027  0.6894  0.0365  -0.9094   0.0000   0.0000   0.0000   0.5565
  -2.000   0.6769   0.00999   0.00265  -0.2028  0.6871  0.0373  -0.9182   0.0000   0.0000   0.0000   0.5512
  -1.900   0.6888   0.00997   0.00262  -0.2030  0.6845  0.0379  -0.9269   0.0000   0.0000   0.0000   0.5460
  -1.800   0.7007   0.00996   0.00259  -0.2031  0.6816  0.0384  -0.9357   0.0000   0.0000   0.0000   0.5410
  -1.700   0.7127   0.00995   0.00256  -0.2033  0.6787  0.0411  -0.9444   0.0000   0.0000   0.0000   0.5361
  -1.600   0.7246   0.00994   0.00252  -0.2034  0.6757  0.0434  -0.9534   0.0000   0.0000   0.0000   0.5315
  -1.500   0.7364   0.00994   0.00250  -0.2035  0.6728  0.0449  -0.9636   0.0000   0.0000   0.0000   0.5270
  -1.400   0.7481   0.00995   0.00248  -0.2036  0.6698  0.0465  -0.9738   0.0000   0.0000   0.0000   0.5226
  -1.300   0.7597   0.00996   0.00246  -0.2037  0.6669  0.0475  -0.9840   0.0000   0.0000   0.0000   0.5184
  -1.200   0.7713   0.00998   0.00245  -0.2038  0.6638  0.0484  -0.9941   0.0000   0.0000   0.0000   0.5143
  -1.100   0.7830   0.01000   0.00244  -0.2039  0.6608  0.0492  -1.0043   0.0000   0.0000   0.0000   0.5103
  -1.000   0.7950   0.00999   0.00244  -0.2041  0.6588  0.0499  -1.0146   0.0000   0.0000   0.0000   0.5064
  -0.900   0.8069   0.00998   0.00244  -0.2042  0.6565  0.0507  -1.0250   0.0000   0.0000   0.0000   0.5026
  -0.800   0.8187   0.00998   0.00245  -0.2043  0.6537  0.0514  -1.0353   0.0000   0.0000   0.0000   0.4990
  -0.700   0.8305   0.00997   0.00244  -0.2045  0.6506  0.0595  -1.0456   0.0000   0.0000   0.0000   0.4954
  -0.600   0.8421   0.00998   0.00245  -0.2046  0.6472  0.0620  -1.0558   0.0000   0.0000   0.0000   0.4920
  -0.500   0.8537   0.01000   0.00245  -0.2046  0.6436  0.0630  -1.0660   0.0000   0.0000   0.0000   0.4886
  -0.400   0.8651   0.01002   0.00245  -0.2047  0.6399  0.0644  -1.0762   0.0000   0.0000   0.0000   0.4853
  -0.300   0.8765   0.01004   0.00246  -0.2047  0.6362  0.0661  -1.0863   0.0000   0.0000   0.0000   0.4822
  -0.200   0.8877   0.01008   0.00247  -0.2047  0.6325  0.0680  -1.0964   0.0000   0.0000   0.0000   0.4790
  -0.100   0.8992   0.01010   0.00249  -0.2048  0.6290  0.0735  -1.1066   0.0000   0.0000   0.0000   0.4760
   0.000   0.9111   0.01009   0.00251  -0.2050  0.6260  0.0800  -1.1170   0.0000   0.0000   0.0000   0.4731
   0.100   0.9233   0.01007   0.00252  -0.2052  0.6226  0.0995  -1.1277   0.0000   0.0000   0.0000   0.4703
   0.200   0.9350   0.01008   0.00255  -0.2053  0.6190  0.1089  -1.1380   0.0000   0.0000   0.0000   0.4675
   0.300   0.9477   0.01002   0.00257  -0.2058  0.6152  0.1430  -1.1490   0.0000   0.0000   0.0000   0.4648
   0.400   0.9599   0.01000   0.00259  -0.2061  0.6114  0.1657  -1.1597   0.0000   0.0000   0.0000   0.4622
   0.500   0.9728   0.00993   0.00261  -0.2066  0.6075  0.2115  -1.1708   0.0000   0.0000   0.0000   0.4598
   0.600   0.9861   0.00985   0.00265  -0.2072  0.6035  0.2691  -1.1826   0.0000   0.0000   0.0000   0.4574
   0.700   0.9995   0.00976   0.00271  -0.2079  0.5992  0.3334  -1.1960   0.0000   0.0000   0.0000   0.4551
   0.800   1.0136   0.00964   0.00284  -0.2088  0.5952  0.4172  -1.2100   0.0000   0.0000   0.0000   0.4529
   0.900   1.0252   0.00965   0.00289  -0.2089  0.5901  0.4338  -1.2223   0.0000   0.0000   0.0000   0.4506
   1.000   1.0368   0.00966   0.00296  -0.2090  0.5830  0.4562  -1.2347   0.0000   0.0000   0.0000   0.4483
   1.100   1.0478   0.00971   0.00305  -0.2090  0.5743  0.4838  -1.2468   0.0000   0.0000   0.0000   0.4460
   1.300   1.0688   0.00986   0.00322  -0.2088  0.5591  0.5252  -1.2720   0.0000   0.0000   0.0000   0.4416
   1.400   1.0795   0.00994   0.00329  -0.2086  0.5525  0.5378  -1.2861   0.0000   0.0000   0.0000   0.4394
   1.500   1.0900   0.01002   0.00337  -0.2085  0.5462  0.5480  -1.3002   0.0000   0.0000   0.0000   0.4373
   1.600   1.1001   0.01012   0.00344  -0.2083  0.5397  0.5542  -1.3139   0.0000   0.0000   0.0000   0.4352
   1.700   1.1100   0.01024   0.00351  -0.2080  0.5331  0.5597  -1.3275   0.0000   0.0000   0.0000   0.4331
   1.800   1.1211   0.01029   0.00357  -0.2080  0.5286  0.5647  -1.3420   0.0000   0.0000   0.0000   0.4311
   1.900   1.1320   0.01034   0.00363  -0.2080  0.5220  0.5711  -1.3565   0.0000   0.0000   0.0000   0.4291
   2.000   1.1424   0.01042   0.00372  -0.2078  0.5131  0.5784  -1.3706   0.0000   0.0000   0.0000   0.4272
   2.100   1.1519   0.01056   0.00382  -0.2075  0.5033  0.5858  -1.3841   0.0000   0.0000   0.0000   0.4252
   2.200   1.1618   0.01069   0.00394  -0.2072  0.4959  0.5936  -1.3977   0.0000   0.0000   0.0000   0.4233
   2.300   1.1718   0.01080   0.00402  -0.2070  0.4887  0.6001  -1.4117   0.0000   0.0000   0.0000   0.4215
   2.400   1.1817   0.01090   0.00413  -0.2068  0.4816  0.6079  -1.4255   0.0000   0.0000   0.0000   0.4196
   2.500   1.1913   0.01103   0.00423  -0.2064  0.4749  0.6150  -1.4420   0.0000   0.0000   0.0000   0.4178
   2.600   1.2009   0.01117   0.00434  -0.2061  0.4686  0.6215  -1.4584   0.0000   0.0000   0.0000   0.4160
   2.700   1.2115   0.01125   0.00441  -0.2060  0.4645  0.6271  -1.4759   0.0000   0.0000   0.0000   0.4143
   2.800   1.2222   0.01132   0.00448  -0.2059  0.4591  0.6321  -1.4934   0.0000   0.0000   0.0000   0.4126
   2.900   1.2325   0.01139   0.00457  -0.2058  0.4511  0.6375  -1.5106   0.0000   0.0000   0.0000   0.4109
   3.000   1.2419   0.01153   0.00467  -0.2054  0.4407  0.6418  -1.5304   0.0000   0.0000   0.0000   0.4092
   3.100   1.2511   0.01169   0.00478  -0.2051  0.4322  0.6455  -1.5504   0.0000   0.0000   0.0000   0.4076
   3.200   1.2609   0.01181   0.00487  -0.2048  0.4258  0.6488  -1.5712   0.0000   0.0000   0.0000   0.4060
   3.300   1.2706   0.01194   0.00497  -0.2046  0.4195  0.6518  -1.5919   0.0000   0.0000   0.0000   0.4044
   3.400   1.2802   0.01208   0.00507  -0.2043  0.4131  0.6549  -1.6124   0.0000   0.0000   0.0000   0.4028
   3.500   1.2895   0.01223   0.00517  -0.2040  0.4066  0.6577  -1.6327   0.0000   0.0000   0.0000   0.4013
   3.600   1.2995   0.01235   0.00527  -0.2038  0.4015  0.6603  -1.6538   0.0000   0.0000   0.0000   0.3998
   3.700   1.3102   0.01240   0.00533  -0.2038  0.3975  0.6638  -1.6804   0.0000   0.0000   0.0000   0.3983
   3.800   1.3205   0.01248   0.00542  -0.2036  0.3914  0.6674  -1.7127   0.0000   0.0000   0.0000   0.3968
   3.900   1.3301   0.01260   0.00557  -0.2033  0.3817  0.6707  -1.7440   0.0000   0.0000   0.0000   0.3954
   4.000   1.3384   0.01282   0.00572  -0.2029  0.3706  0.6739  -1.7735   0.0000   0.0000   0.0000   0.3939
   4.100   1.3476   0.01296   0.00584  -0.2025  0.3638  0.6772  -1.8046   0.0000   0.0000   0.0000   0.3925
   4.200   1.3568   0.01312   0.00596  -0.2022  0.3571  0.6804  -1.8358   0.0000   0.0000   0.0000   0.3911
   4.300   1.3657   0.01329   0.00609  -0.2018  0.3504  0.6835  -1.8666   0.0000   0.0000   0.0000   0.3897
   4.400   1.3744   0.01348   0.00622  -0.2014  0.3435  0.6867  -1.8974   0.0000   0.0000   0.0000   0.3883
   4.500   1.3840   0.01361   0.00633  -0.2012  0.3383  0.6896  -1.9296   0.0000   0.0000   0.0000   0.3870
   4.600   1.3943   0.01369   0.00642  -0.2010  0.3343  0.6926  -1.9630   0.0000   0.0000   0.0000   0.3856
   4.700   1.4040   0.01378   0.00653  -0.2008  0.3272  0.6965  -1.9957   0.0000   0.0000   0.0000   0.3843
   4.800   1.4121   0.01399   0.00670  -0.2003  0.3134  0.7001  -2.0260   0.0000   0.0000   0.0000   0.3830
   4.900   1.4196   0.01424   0.00688  -0.1997  0.3035  0.7036  -2.0554   0.0000   0.0000   0.0000   0.3817
   5.000   1.4277   0.01444   0.00704  -0.1992  0.2959  0.7073  -2.0860   0.0000   0.0000   0.0000   0.3804
   5.100   1.4356   0.01466   0.00721  -0.1987  0.2883  0.7112  -2.1163   0.0000   0.0000   0.0000   0.3791
   5.200   1.4436   0.01488   0.00739  -0.1981  0.2807  0.7150  -2.1467   0.0000   0.0000   0.0000   0.3778
   5.300   1.4530   0.01500   0.00750  -0.1979  0.2764  0.7188  -2.1797   0.0000   0.0000   0.0000   0.3766
   5.400   1.4624   0.01511   0.00762  -0.1976  0.2709  0.7227  -2.2128   0.0000   0.0000   0.0000   0.3753
   5.500   1.4706   0.01529   0.00779  -0.1971  0.2594  0.7274  -2.2440   0.0000   0.0000   0.0000   0.3741
   5.600   1.4761   0.01563   0.00806  -0.1962  0.2460  0.7320  -2.2709   0.0000   0.0000   0.0000   0.3728
   5.700   1.4832   0.01587   0.00826  -0.1955  0.2394  0.7371  -2.3004   0.0000   0.0000   0.0000   0.3716
   5.800   1.4898   0.01615   0.00848  -0.1947  0.2316  0.7425  -2.3292   0.0000   0.0000   0.0000   0.3703
   5.900   1.4962   0.01643   0.00871  -0.1940  0.2221  0.7478  -2.3577   0.0000   0.0000   0.0000   0.3691
   6.000   1.5045   0.01659   0.00887  -0.1935  0.2143  0.7530  -2.3895   0.0000   0.0000   0.0000   0.3679
   6.100   1.5076   0.01705   0.00923  -0.1922  0.1928  0.7583  -2.4127   0.0000   0.0000   0.0000   0.3666
   6.200   1.5057   0.01776   0.00979  -0.1900  0.1698  0.7635  -2.4272   0.0000   0.0000   0.0000   0.3652
   6.300   1.5069   0.01819   0.01014  -0.1883  0.1463  0.7693  -2.4471   0.0000   0.0000   0.0000   0.3638
   6.400   1.5070   0.01872   0.01055  -0.1865  0.1359  0.7752  -2.4652   0.0000   0.0000   0.0000   0.3624
   6.500   1.5097   0.01915   0.01092  -0.1851  0.1248  0.7811  -2.4874   0.0000   0.0000   0.0000   0.3611
   6.600   1.5164   0.01934   0.01113  -0.1843  0.1198  0.7878  -2.5170   0.0000   0.0000   0.0000   0.3599
   6.700   1.5204   0.01969   0.01146  -0.1832  0.1044  0.7950  -2.5420   0.0000   0.0000   0.0000   0.3587
   6.800   1.5242   0.02007   0.01179  -0.1820  0.0998  0.8024  -2.5667   0.0000   0.0000   0.0000   0.3575
   6.900   1.5287   0.02039   0.01210  -0.1810  0.0966  0.8100  -2.5924   0.0000   0.0000   0.0000   0.3563
   7.000   1.5338   0.02068   0.01239  -0.1800  0.0939  0.8190  -2.6193   0.0000   0.0000   0.0000   0.3551
   7.100   1.5394   0.02095   0.01266  -0.1792  0.0910  0.8288  -2.6468   0.0000   0.0000   0.0000   0.3539
   7.200   1.5450   0.02119   0.01292  -0.1783  0.0883  0.8398  -2.6746   0.0000   0.0000   0.0000   0.3528
   7.300   1.5510   0.02140   0.01317  -0.1775  0.0859  0.8534  -2.7030   0.0000   0.0000   0.0000   0.3516
   7.400   1.5565   0.02157   0.01340  -0.1766  0.0843  0.8713  -2.7308   0.0000   0.0000   0.0000   0.3505
   7.500   1.5600   0.02167   0.01357  -0.1752  0.0838  0.9068  -2.7552   0.0000   0.0000   0.0000   0.3492
   7.600   1.5615   0.02178   0.01373  -0.1735  0.0832  1.0005  -2.7762   0.0000   0.0000   0.0000   0.3478
   7.700   1.5686   0.02202   0.01398  -0.1729  0.0821  1.0005  -2.8071   0.0000   0.0000   0.0000   0.3468
   7.800   1.5755   0.02227   0.01424  -0.1724  0.0806  1.0005  -2.8377   0.0000   0.0000   0.0000   0.3458
   7.900   1.5821   0.02254   0.01452  -0.1718  0.0783  1.0005  -2.8677   0.0000   0.0000   0.0000   0.3448
   8.000   1.5877   0.02287   0.01485  -0.1711  0.0737  1.0005  -2.8963   0.0000   0.0000   0.0000   0.3438
   8.100   1.5910   0.02336   0.01531  -0.1700  0.0667  1.0005  -2.9214   0.0000   0.0000   0.0000   0.3427
   8.200   1.5956   0.02377   0.01569  -0.1692  0.0653  1.0005  -2.9485   0.0000   0.0000   0.0000   0.3417
   8.300   1.5995   0.02422   0.01611  -0.1683  0.0638  1.0005  -2.9746   0.0000   0.0000   0.0000   0.3407
   8.400   1.6032   0.02469   0.01655  -0.1674  0.0622  1.0005  -3.0003   0.0000   0.0000   0.0000   0.3397
   8.500   1.6069   0.02516   0.01700  -0.1664  0.0604  1.0005  -3.0256   0.0000   0.0000   0.0000   0.3387
   8.600   1.6108   0.02563   0.01745  -0.1656  0.0586  1.0005  -3.0511   0.0000   0.0000   0.0000   0.3378
   8.700   1.6152   0.02606   0.01788  -0.1648  0.0568  1.0005  -3.0773   0.0000   0.0000   0.0000   0.3368
   8.800   1.6200   0.02648   0.01830  -0.1640  0.0552  1.0005  -3.1040   0.0000   0.0000   0.0000   0.3359
   8.900   1.6248   0.02690   0.01873  -0.1633  0.0538  1.0005  -3.1307   0.0000   0.0000   0.0000   0.3349
   9.000   1.6297   0.02732   0.01916  -0.1626  0.0525  1.0005  -3.1574   0.0000   0.0000   0.0000   0.3340
   9.100   1.6354   0.02768   0.01960  -0.1620  0.0532  1.0005  -3.1855   0.0000   0.0000   0.0000   0.3331
   9.200   1.6403   0.02811   0.02004  -0.1614  0.0522  1.0005  -3.2122   0.0000   0.0000   0.0000   0.3322
   9.300   1.6456   0.02852   0.02046  -0.1608  0.0516  1.0005  -3.2424   0.0000   0.0000   0.0000   0.3314
   9.400   1.6511   0.02891   0.02088  -0.1602  0.0513  1.0005  -3.2754   0.0000   0.0000   0.0000   0.3305
   9.500   1.6566   0.02930   0.02130  -0.1596  0.0509  1.0005  -3.3083   0.0000   0.0000   0.0000   0.3297
   9.600   1.6619   0.02971   0.02174  -0.1591  0.0504  1.0005  -3.3410   0.0000   0.0000   0.0000   0.3288
   9.700   1.6671   0.03014   0.02219  -0.1585  0.0497  1.0005  -3.3734   0.0000   0.0000   0.0000   0.3280
   9.800   1.6719   0.03060   0.02268  -0.1579  0.0490  1.0005  -3.4064   0.0000   0.0000   0.0000   0.3272
   9.900   1.6763   0.03108   0.02319  -0.1573  0.0480  1.0005  -3.4441   0.0000   0.0000   0.0000   0.3263
  10.000   1.6805   0.03160   0.02372  -0.1566  0.0469  1.0005  -3.4810   0.0000   0.0000   0.0000   0.3255
  10.100   1.6842   0.03216   0.02429  -0.1560  0.0455  1.0005  -3.5168   0.0000   0.0000   0.0000   0.3247
  10.200   1.6871   0.03279   0.02493  -0.1552  0.0439  1.0005  -3.5502   0.0000   0.0000   0.0000   0.3239
  10.300   1.6892   0.03350   0.02564  -0.1544  0.0422  1.0005  -3.5815   0.0000   0.0000   0.0000   0.3232
  10.400   1.6908   0.03424   0.02637  -0.1536  0.0403  1.0005  -3.6112   0.0000   0.0000   0.0000   0.3224
  10.500   1.6926   0.03497   0.02710  -0.1528  0.0383  1.0005  -3.6408   0.0000   0.0000   0.0000   0.3216
  10.600   1.6969   0.03550   0.02763  -0.1523  0.0374  1.0005  -3.6770   0.0000   0.0000   0.0000   0.3209
  10.700   1.7007   0.03608   0.02822  -0.1517  0.0360  1.0005  -3.7113   0.0000   0.0000   0.0000   0.3201
  10.800   1.7039   0.03671   0.02885  -0.1511  0.0336  1.0005  -3.7439   0.0000   0.0000   0.0000   0.3194
  10.900   1.7025   0.03775   0.02984  -0.1501  0.0266  1.0005  -3.7659   0.0000   0.0000   0.0000   0.3187
  11.000   1.6976   0.03915   0.03118  -0.1489  0.0218  1.0005  -3.7781   0.0000   0.0000   0.0000   0.3180
  11.100   1.6948   0.04038   0.03236  -0.1479  0.0166  1.0005  -3.7958   0.0000   0.0000   0.0000   0.3174
  11.200   1.6914   0.04169   0.03367  -0.1469  0.0092  1.0005  -3.8063   0.0000   0.0000   0.0000   0.3167
  11.300   1.6871   0.04310   0.03509  -0.1458  0.0074  1.0005  -3.8073   0.0000   0.0000   0.0000   0.3161
  11.400   1.6895   0.04389   0.03590  -0.1453  0.0057  1.0005  -3.8420   0.0000   0.0000   0.0000   0.3155
  11.500   1.6915   0.04471   0.03676  -0.1447  0.0047  1.0005  -3.8713   0.0000   0.0000   0.0000   0.3148
  11.600   1.6939   0.04550   0.03758  -0.1442  0.0045  1.0005  -3.9013   0.0000   0.0000   0.0000   0.3142
  11.700   1.6960   0.04633   0.03845  -0.1436  0.0043  1.0005  -3.9304   0.0000   0.0000   0.0000   0.3136
  11.800   1.6977   0.04721   0.03936  -0.1431  0.0042  1.0005  -3.9586   0.0000   0.0000   0.0000   0.3129
  11.900   1.6996   0.04808   0.04026  -0.1426  0.0041  1.0005  -3.9870   0.0000   0.0000   0.0000   0.3123
  12.000   1.7014   0.04895   0.04120  -0.1421  0.0040  1.0005  -4.0147   0.0000   0.0000   0.0000   0.3117
  12.100   1.7035   0.04980   0.04208  -0.1416  0.0039  1.0005  -4.0437   0.0000   0.0000   0.0000   0.3111
  12.200   1.7056   0.05065   0.04297  -0.1411  0.0039  1.0005  -4.0728   0.0000   0.0000   0.0000   0.3105
  12.300   1.7074   0.05155   0.04390  -0.1407  0.0038  1.0005  -4.1031   0.0000   0.0000   0.0000   0.3099
  12.400   1.7087   0.05251   0.04490  -0.1402  0.0038  1.0005  -4.1553   0.0000   0.0000   0.0000   0.3094
  12.500   1.7100   0.05347   0.04590  -0.1398  0.0037  1.0005  -4.2080   0.0000   0.0000   0.0000   0.3088
  12.600   1.7115   0.05440   0.04687  -0.1393  0.0037  1.0005  -4.2613   0.0000   0.0000   0.0000   0.3083
  12.700   1.7129   0.05533   0.04784  -0.1389  0.0037  1.0005  -4.3150   0.0000   0.0000   0.0000   0.3077
  12.800   1.7143   0.05627   0.04881  -0.1384  0.0037  1.0005  -4.3687   0.0000   0.0000   0.0000   0.3072
  12.900   1.7152   0.05731   0.04989  -0.1380  0.0036  1.0005  -4.4196   0.0000   0.0000   0.0000   0.3067
  13.000   1.7157   0.05839   0.05101  -0.1376  0.0036  1.0005  -4.4692   0.0000   0.0000   0.0000   0.3062
  13.100   1.7166   0.05944   0.05210  -0.1372  0.0036  1.0005  -4.5205   0.0000   0.0000   0.0000   0.3057
  13.200   1.7177   0.06047   0.05317  -0.1369  0.0036  1.0005  -4.5728   0.0000   0.0000   0.0000   0.3052
  13.300   1.7188   0.06149   0.05423  -0.1365  0.0036  1.0005  -4.6256   0.0000   0.0000   0.0000   0.3047
  13.400   1.7200   0.06253   0.05531  -0.1362  0.0035  1.0005  -4.6786   0.0000   0.0000   0.0000   0.3042
  13.500   1.7208   0.06363   0.05644  -0.1358  0.0035  1.0005  -4.7299   0.0000   0.0000   0.0000   0.3038
  13.600   1.7208   0.06484   0.05770  -0.1355  0.0035  1.0005  -4.7771   0.0000   0.0000   0.0000   0.3034
  13.700   1.7210   0.06605   0.05894  -0.1353  0.0035  1.0005  -4.8253   0.0000   0.0000   0.0000   0.3030
  13.800   1.7215   0.06721   0.06015  -0.1350  0.0035  1.0005  -4.8748   0.0000   0.0000   0.0000   0.3026
  13.900   1.7220   0.06837   0.06135  -0.1347  0.0035  1.0005  -4.9248   0.0000   0.0000   0.0000   0.3021
  14.000   1.7226   0.06953   0.06255  -0.1344  0.0035  1.0005  -4.9750   0.0000   0.0000   0.0000   0.3017
  14.100   1.7226   0.07078   0.06384  -0.1342  0.0035  1.0005  -5.0224   0.0000   0.0000   0.0000   0.3014
  14.200   1.7219   0.07214   0.06524  -0.1340  0.0035  1.0005  -5.0663   0.0000   0.0000   0.0000   0.3010
  14.300   1.7217   0.07344   0.06659  -0.1338  0.0035  1.0005  -5.1122   0.0000   0.0000   0.0000   0.3007
  14.400   1.7217   0.07470   0.06789  -0.1336  0.0035  1.0005  -5.1598   0.0000   0.0000   0.0000   0.3004
  14.500   1.7218   0.07594   0.06918  -0.1334  0.0035  1.0005  -5.2079   0.0000   0.0000   0.0000   0.3000
  14.600   1.7219   0.07720   0.07048  -0.1332  0.0035  1.0005  -5.2557   0.0000   0.0000   0.0000   0.2997
  14.700   1.7218   0.07848   0.07180  -0.1331  0.0035  1.0005  -5.3025   0.0000   0.0000   0.0000   0.2993
  14.800   1.7207   0.07993   0.07330  -0.1330  0.0035  1.0005  -5.3440   0.0000   0.0000   0.0000   0.2991
  14.900   1.7196   0.08140   0.07482  -0.1329  0.0035  1.0005  -5.3850   0.0000   0.0000   0.0000   0.2989
  15.000   1.7188   0.08280   0.07627  -0.1328  0.0035  1.0005  -5.4281   0.0000   0.0000   0.0000   0.2986
  15.100   1.7182   0.08418   0.07769  -0.1327  0.0035  1.0005  -5.4722   0.0000   0.0000   0.0000   0.2983
  15.200   1.7177   0.08554   0.07910  -0.1327  0.0035  1.0005  -5.5167   0.0000   0.0000   0.0000   0.2981
  15.300   1.7167   0.08700   0.08060  -0.1326  0.0035  1.0005  -5.5582   0.0000   0.0000   0.0000   0.2978
  15.400   1.7147   0.08862   0.08227  -0.1327  0.0035  1.0005  -5.5939   0.0000   0.0000   0.0000   0.2977
  15.500   1.7131   0.09016   0.08387  -0.1327  0.0035  1.0005  -5.6320   0.0000   0.0000   0.0000   0.2975
  15.600   1.7120   0.09164   0.08538  -0.1327  0.0035  1.0005  -5.6727   0.0000   0.0000   0.0000   0.2974
  15.700   1.7110   0.09308   0.08687  -0.1327  0.0035  1.0005  -5.7139   0.0000   0.0000   0.0000   0.2972
  15.800   1.7100   0.09450   0.08837  -0.1327  0.0036  1.0005  -5.7574   0.0000   0.0000   0.0000   0.2970
  15.900   1.7086   0.09597   0.08989  -0.1327  0.0036  1.0005  -5.7969   0.0000   0.0000   0.0000   0.2968
  16.000   1.7060   0.09768   0.09165  -0.1328  0.0036  1.0005  -5.8285   0.0000   0.0000   0.0000   0.2967
  16.100   1.7036   0.09937   0.09339  -0.1330  0.0036  1.0005  -5.8613   0.0000   0.0000   0.0000   0.2967
  16.200   1.7017   0.10098   0.09505  -0.1331  0.0036  1.0005  -5.8968   0.0000   0.0000   0.0000   0.2966
  16.300   1.7000   0.10256   0.09668  -0.1333  0.0036  1.0005  -5.9334   0.0000   0.0000   0.0000   0.2965
  16.400   1.6983   0.10414   0.09831  -0.1334  0.0036  1.0005  -5.9698   0.0000   0.0000   0.0000   0.2964
  16.500   1.6959   0.10586   0.10009  -0.1337  0.0036  1.0005  -6.0014   0.0000   0.0000   0.0000   0.2964
  16.600   1.6929   0.10773   0.10201  -0.1340  0.0036  1.0005  -6.0287   0.0000   0.0000   0.0000   0.2965
  16.700   1.6906   0.10947   0.10380  -0.1343  0.0036  1.0005  -6.0601   0.0000   0.0000   0.0000   0.2965
  16.800   1.6886   0.11115   0.10552  -0.1345  0.0036  1.0005  -6.0936   0.0000   0.0000   0.0000   0.2965
  16.900   1.6867   0.11280   0.10723  -0.1348  0.0037  1.0005  -6.1273   0.0000   0.0000   0.0000   0.2965
  17.000   1.6848   0.11447   0.10895  -0.1351  0.0037  1.0005  -6.1608   0.0000   0.0000   0.0000   0.2966
  17.100   1.6825   0.11625   0.11078  -0.1355  0.0037  1.0005  -6.1908   0.0000   0.0000   0.0000   0.2966
  17.200   1.6789   0.11826   0.11285  -0.1360  0.0037  1.0005  -6.2125   0.0000   0.0000   0.0000   0.2969
  17.300   1.6760   0.12016   0.11480  -0.1365  0.0037  1.0005  -6.2379   0.0000   0.0000   0.0000   0.2971
  17.400   1.6734   0.12198   0.11667  -0.1370  0.0037  1.0005  -6.2655   0.0000   0.0000   0.0000   0.2972
  17.500   1.6710   0.12378   0.11852  -0.1374  0.0037  1.0005  -6.2938   0.0000   0.0000   0.0000   0.2973
  17.600   1.6682   0.12567   0.12047  -0.1380  0.0037  1.0005  -6.3189   0.0000   0.0000   0.0000   0.2976
  17.700   1.6643   0.12780   0.12265  -0.1387  0.0038  1.0005  -6.3358   0.0000   0.0000   0.0000   0.2979
  17.800   1.6612   0.12975   0.12466  -0.1393  0.0038  1.0005  -6.3578   0.0000   0.0000   0.0000   0.2982
  17.900   1.6587   0.13160   0.12656  -0.1399  0.0038  1.0005  -6.3835   0.0000   0.0000   0.0000   0.2984
  18.000   1.6564   0.13341   0.12842  -0.1404  0.0038  1.0005  -6.4104   0.0000   0.0000   0.0000   0.2986
  18.100   1.6541   0.13524   0.13030  -0.1411  0.0038  1.0005  -6.4362   0.0000   0.0000   0.0000   0.2989
  18.200   1.6512   0.13719   0.13230  -0.1418  0.0038  1.0005  -6.4577   0.0000   0.0000   0.0000   0.2992
  18.300   1.6469   0.13942   0.13459  -0.1426  0.0038  1.0005  -6.4688   0.0000   0.0000   0.0000   0.2997
  18.400   1.6434   0.14149   0.13672  -0.1435  0.0038  1.0005  -6.4851   0.0000   0.0000   0.0000   0.3001
  18.500   1.6405   0.14347   0.13875  -0.1442  0.0039  1.0005  -6.5047   0.0000   0.0000   0.0000   0.3005
  18.600   1.6377   0.14543   0.14077  -0.1450  0.0039  1.0005  -6.5241   0.0000   0.0000   0.0000   0.3009
  18.700   1.6341   0.14756   0.14295  -0.1459  0.0039  1.0005  -6.5374   0.0000   0.0000   0.0000   0.3014
  18.800   1.6296   0.14988   0.14533  -0.1470  0.0039  1.0005  -6.5434   0.0000   0.0000   0.0000   0.3020
  18.900   1.6264   0.15196   0.14747  -0.1479  0.0039  1.0005  -6.5580   0.0000   0.0000   0.0000   0.3025
  19.000   1.6236   0.15395   0.14951  -0.1488  0.0039  1.0005  -6.5752   0.0000   0.0000   0.0000   0.3030
  19.100   1.6208   0.15593   0.15154  -0.1497  0.0039  1.0005  -6.5923   0.0000   0.0000   0.0000   0.3034
  19.200   1.6180   0.15794   0.15361  -0.1507  0.0040  1.0005  -6.6076   0.0000   0.0000   0.0000   0.3039
  19.300   1.6142   0.16016   0.15588  -0.1518  0.0040  1.0005  -6.6152   0.0000   0.0000   0.0000   0.3046
  19.400   1.6098   0.16255   0.15833  -0.1530  0.0040  1.0005  -6.6168   0.0000   0.0000   0.0000   0.3053
  19.500   1.6064   0.16471   0.16054  -0.1541  0.0040  1.0005  -6.6253   0.0000   0.0000   0.0000   0.3060
  19.600   1.6035   0.16672   0.16260  -0.1552  0.0040  1.0005  -6.6364   0.0000   0.0000   0.0000   0.3066
  19.700   1.6007   0.16868   0.16462  -0.1564  0.0040  1.0005  -6.6472   0.0000   0.0000   0.0000   0.3072
  19.800   1.5967   0.17092   0.16691  -0.1577  0.0040  1.0005  -6.6471   0.0000   0.0000   0.0000   0.3081
  19.900   1.5934   0.17303   0.16908  -0.1590  0.0041  1.0005  -6.6516   0.0000   0.0000   0.0000   0.3088
  20.000   1.5909   0.17499   0.17109  -0.1602  0.0041  1.0005  -6.6616   0.0000   0.0000   0.0000   0.3095
  20.100   1.5885   0.17692   0.17306  -0.1614  0.0041  1.0005  -6.6729   0.0000   0.0000   0.0000   0.3101
  20.200   1.5862   0.17886   0.17506  -0.1625  0.0041  1.0005  -6.6834   0.0000   0.0000   0.0000   0.3107
  20.300   1.5837   0.18086   0.17711  -0.1638  0.0041  1.0005  -6.6919   0.0000   0.0000   0.0000   0.3114
  20.400   1.5803   0.18311   0.17941  -0.1651  0.0041  1.0005  -6.6920   0.0000   0.0000   0.0000   0.3122
  20.500   1.5765   0.18550   0.18186  -0.1666  0.0042  1.0005  -6.6871   0.0000   0.0000   0.0000   0.3132
  20.600   1.5735   0.18772   0.18413  -0.1680  0.0042  1.0005  -6.6883   0.0000   0.0000   0.0000   0.3140
  20.700   1.5707   0.18990   0.18636  -0.1693  0.0042  1.0005  -6.6910   0.0000   0.0000   0.0000   0.3148
  20.800   1.5681   0.19208   0.18859  -0.1706  0.0042  1.0005  -6.6938   0.0000   0.0000   0.0000   0.3155
  20.900   1.5642   0.19463   0.19120  -0.1722  0.0042  1.0005  -6.6839   0.0000   0.0000   0.0000   0.3166
  21.000   1.5610   0.19701   0.19363  -0.1736  0.0042  1.0005  -6.6797   0.0000   0.0000   0.0000   0.3175
  21.100   1.5585   0.19924   0.19590  -0.1749  0.0043  1.0005  -6.6808   0.0000   0.0000   0.0000   0.3182
  21.200   1.5562   0.20142   0.19813  -0.1762  0.0043  1.0005  -6.6833   0.0000   0.0000   0.0000   0.3190
  21.300   1.5540   0.20360   0.20036  -0.1776  0.0043  1.0005  -6.6852   0.0000   0.0000   0.0000   0.3197
  21.400   1.5518   0.20581   0.20261  -0.1789  0.0043  1.0005  -6.6863   0.0000   0.0000   0.0000   0.3205
  21.500   1.5494   0.20808   0.20494  -0.1802  0.0043  1.0005  -6.6846   0.0000   0.0000   0.0000   0.3213
  21.600   1.5460   0.21070   0.20761  -0.1818  0.0044  1.0005  -6.6710   0.0000   0.0000   0.0000   0.3223
  21.700   1.5424   0.21339   0.21035  -0.1834  0.0044  1.0005  -6.6547   0.0000   0.0000   0.0000   0.3234
  21.800   1.5394   0.21592   0.21293  -0.1849  0.0044  1.0005  -6.6429   0.0000   0.0000   0.0000   0.3243
  21.900   1.5367   0.21840   0.21546  -0.1864  0.0044  1.0005  -6.6323   0.0000   0.0000   0.0000   0.3253
  22.000   1.5340   0.22091   0.21802  -0.1878  0.0044  1.0005  -6.6195   0.0000   0.0000   0.0000   0.3262
  22.100   1.5307   0.22361   0.22078  -0.1894  0.0045  1.0005  -6.5991   0.0000   0.0000   0.0000   0.3272
  22.200   1.5266   0.22662   0.22384  -0.1912  0.0045  1.0005  -6.5677   0.0000   0.0000   0.0000   0.3285
  22.300   1.5230   0.22949   0.22677  -0.1928  0.0045  1.0005  -6.5365   0.0000   0.0000   0.0000   0.3296
  22.400   1.5182   0.23271   0.23006  -0.1947  0.0045  1.0005  -6.4796   0.0000   0.0000   0.0000   0.3310
  22.500   1.5149   0.23552   0.23294  -0.1963  0.0046  1.0005  -6.4497   0.0000   0.0000   0.0000   0.3321
  22.600   1.5139   0.23776   0.23523  -0.1976  0.0046  1.0005  -6.4595   0.0000   0.0000   0.0000   0.3328
  22.700   1.5127   0.24006   0.23757  -0.1989  0.0047  1.0005  -6.4674   0.0000   0.0000   0.0000   0.3335
  22.800   1.5112   0.24245   0.23999  -0.2002  0.0047  1.0005  -6.4722   0.0000   0.0000   0.0000   0.3343
  22.900   1.5092   0.24508   0.24266  -0.2017  0.0047  1.0005  -6.4680   0.0000   0.0000   0.0000   0.3352
  23.000   1.5059   0.24820   0.24582  -0.2034  0.0048  1.0005  -6.4456   0.0000   0.0000   0.0000   0.3364
  23.100   1.5036   0.25099   0.24865  -0.2050  0.0048  1.0005  -6.4358   0.0000   0.0000   0.0000   0.3374
  23.200   1.5017   0.25366   0.25135  -0.2064  0.0048  1.0005  -6.4306   0.0000   0.0000   0.0000   0.3383
  23.300   1.4999   0.25634   0.25407  -0.2079  0.0048  1.0005  -6.4251   0.0000   0.0000   0.0000   0.3392
  23.400   1.4977   0.25915   0.25692  -0.2094  0.0049  1.0005  -6.4143   0.0000   0.0000   0.0000   0.3402
  23.500   1.4939   0.26263   0.26044  -0.2113  0.0049  1.0005  -6.3787   0.0000   0.0000   0.0000   0.3416
  23.600   1.4915   0.26562   0.26347  -0.2129  0.0049  1.0005  -6.3613   0.0000   0.0000   0.0000   0.3427
  23.700   1.4898   0.26839   0.26627  -0.2143  0.0050  1.0005  -6.3526   0.0000   0.0000   0.0000   0.3436
  23.800   1.4881   0.27113   0.26905  -0.2157  0.0050  1.0005  -6.3448   0.0000   0.0000   0.0000   0.3444
  23.900   1.4864   0.27396   0.27190  -0.2172  0.0051  1.0005  -6.3338   0.0000   0.0000   0.0000   0.3453
  24.000   1.4843   0.27693   0.27491  -0.2187  0.0051  1.0005  -6.3172   0.0000   0.0000   0.0000   0.3463
  24.100   1.4817   0.28015   0.27816  -0.2203  0.0051  1.0005  -6.2912   0.0000   0.0000   0.0000   0.3475
  24.200   1.4770   0.28433   0.28240  -0.2224  0.0052  1.0005  -6.2285   0.0000   0.0000   0.0000   0.3492
  24.300   1.4730   0.28827   0.28638  -0.2243  0.0052  1.0005  -6.1753   0.0000   0.0000   0.0000   0.3507
  24.400   1.4697   0.29201   0.29015  -0.2261  0.0052  1.0005  -6.1297   0.0000   0.0000   0.0000   0.3521
  24.500   1.4657   0.29609   0.29427  -0.2280  0.0053  1.0005  -6.0708   0.0000   0.0000   0.0000   0.3537
  24.600   1.4603   0.30091   0.29913  -0.2302  0.0053  1.0005  -5.9836   0.0000   0.0000   0.0000   0.3557
  24.700   1.4571   0.30473   0.30299  -0.2319  0.0053  1.0005  -5.9336   0.0000   0.0000   0.0000   0.3570
  24.800   1.4541   0.30855   0.30685  -0.2336  0.0054  1.0005  -5.8833   0.0000   0.0000   0.0000   0.3583
  24.900   1.4506   0.31269   0.31102  -0.2353  0.0055  1.0005  -5.8201   0.0000   0.0000   0.0000   0.3598
  25.000   1.4458   0.31756   0.31593  -0.2374  0.0055  1.0005  -5.7280   0.0000   0.0000   0.0000   0.3616
  25.100   1.4363   0.32512   0.32355  -0.2403  0.0056  1.0005  -5.5316   0.0000   0.0000   0.0000   0.3648
  25.200   1.4245   0.33437   0.33284  -0.2436  0.0056  1.0005  -5.2669   0.0000   0.0000   0.0000   0.3688
  25.300   1.4121   0.34468   0.34319  -0.2470  0.0058  1.0005  -4.9519   0.0000   0.0000   0.0000   0.3730


