xflr5 v6.61

 Calculated polar for: WORTMANN FX 057-816 AIRFOIL

 1 1 Reynolds number fixed          Mach number fixed         

 xtrf =   1.000 (top)        1.000 (bottom)
 Mach =   0.000     Re =     0.300 e 6     Ncrit =   9.000

  alpha     CL        CD       CDp       Cm    Top Xtr Bot Xtr   Cpmin    Chinge    XCp    
 ------- -------- --------- --------- -------- ------- ------- -------- --------- ---------
 -10.000   0.0068   0.10199   0.09893  -0.1150  0.7989  0.0598  -1.1107   0.0000   0.0000   0.0000  18.2028
  -9.900  -0.0008   0.09953   0.09648  -0.1150  0.7969  0.0573  -1.1640   0.0000   0.0000   0.0000  -158.5856
  -9.800  -0.0071   0.09741   0.09436  -0.1151  0.7949  0.0548  -1.2106   0.0000   0.0000   0.0000  -17.0229
  -9.700  -0.0349   0.11688   0.11384  -0.0996  0.7499  0.0631  -1.0591   0.0000   0.0000   0.0000  -2.8140
  -9.600  -0.0421   0.11450   0.11146  -0.0998  0.7499  0.0617  -1.1058   0.0000   0.0000   0.0000  -2.2881
  -9.500  -0.0506   0.11205   0.10902  -0.1000  0.7499  0.0597  -1.1584   0.0000   0.0000   0.0000  -1.8638
  -9.400  -0.0585   0.10990   0.10688  -0.1000  0.7498  0.0577  -1.2064   0.0000   0.0000   0.0000  -1.5783
  -9.300  -0.0656   0.10802   0.10500  -0.1001  0.7497  0.0557  -1.2489   0.0000   0.0000   0.0000  -1.3795
  -9.200  -0.0722   0.10634   0.10332  -0.1000  0.7497  0.0539  -1.2879   0.0000   0.0000   0.0000  -1.2297
  -9.100  -0.0785   0.10478   0.10177  -0.1000  0.7496  0.0522  -1.3249   0.0000   0.0000   0.0000  -1.1092
  -9.000  -0.0847   0.10330   0.10029  -0.0999  0.7495  0.0507  -1.3608   0.0000   0.0000   0.0000  -1.0076
  -8.900  -0.0910   0.10186   0.09886  -0.0999  0.7494  0.0494  -1.3960   0.0000   0.0000   0.0000  -0.9193
  -8.800  -0.0974   0.10044   0.09744  -0.0999  0.7493  0.0483  -1.4309   0.0000   0.0000   0.0000  -0.8409
  -8.700  -0.1040   0.09901   0.09602  -0.0998  0.7492  0.0473  -1.4656   0.0000   0.0000   0.0000  -0.7703
  -8.600  -0.1108   0.09758   0.09459  -0.0998  0.7490  0.0464  -1.5001   0.0000   0.0000   0.0000  -0.7064
  -8.500  -0.1179   0.09611   0.09313  -0.0999  0.7488  0.0457  -1.5345   0.0000   0.0000   0.0000  -0.6484
  -8.400  -0.1252   0.09457   0.09159  -0.1000  0.7486  0.0451  -1.5690   0.0000   0.0000   0.0000  -0.5966
  -8.300  -0.1326   0.09289   0.08991  -0.1003  0.7483  0.0446  -1.6040   0.0000   0.0000   0.0000  -0.5507
  -8.200  -0.1401   0.09097   0.08799  -0.1009  0.7478  0.0443  -1.6397   0.0000   0.0000   0.0000  -0.5107
  -8.100  -0.1476   0.08852   0.08552  -0.1016  0.7468  0.0440  -1.6787   0.0000   0.0000   0.0000  -0.4761
  -8.000  -0.1544   0.08490   0.08186  -0.1026  0.7446  0.0433  -1.7283   0.0000   0.0000   0.0000  -0.4501
  -7.900  -0.1626   0.08191   0.07884  -0.1026  0.7416  0.0429  -1.7696   0.0000   0.0000   0.0000  -0.4141
  -7.800  -0.1725   0.08003   0.07693  -0.1016  0.7386  0.0427  -1.7981   0.0000   0.0000   0.0000  -0.3696
  -7.700  -0.1833   0.07874   0.07561  -0.1000  0.7354  0.0427  -1.8203   0.0000   0.0000   0.0000  -0.3235
  -7.600  -0.1945   0.07776   0.07461  -0.0979  0.7320  0.0427  -1.8395   0.0000   0.0000   0.0000  -0.2794
  -7.500  -0.2050   0.07668   0.07351  -0.0959  0.7285  0.0426  -1.8625   0.0000   0.0000   0.0000  -0.2421
  -7.400  -0.2152   0.07554   0.07233  -0.0941  0.7247  0.0424  -1.8877   0.0000   0.0000   0.0000  -0.2096
  -7.300  -0.2260   0.07462   0.07138  -0.0918  0.7206  0.0422  -1.9086   0.0000   0.0000   0.0000  -0.1772
  -7.200  -0.2368   0.07372   0.07046  -0.0894  0.7163  0.0420  -1.9296   0.0000   0.0000   0.0000  -0.1473
  -7.100  -0.2473   0.07271   0.06941  -0.0872  0.7119  0.0417  -1.9537   0.0000   0.0000   0.0000  -0.1210
  -7.000  -0.2571   0.07152   0.06818  -0.0850  0.7077  0.0412  -1.9823   0.0000   0.0000   0.0000  -0.0981
  -6.900  -0.2664   0.07012   0.06673  -0.0830  0.7037  0.0406  -2.0165   0.0000   0.0000   0.0000  -0.0782
  -6.800  -0.2751   0.06848   0.06502  -0.0811  0.6999  0.0398  -2.0575   0.0000   0.0000   0.0000  -0.0608
  -6.700  -0.2830   0.06654   0.06300  -0.0794  0.6963  0.0388  -2.1072   0.0000   0.0000   0.0000  -0.0456
  -6.600  -0.2904   0.06429   0.06065  -0.0776  0.6929  0.0376  -2.1674   0.0000   0.0000   0.0000  -0.0320
  -6.500  -0.2976   0.06194   0.05817  -0.0758  0.6898  0.0364  -2.2319   0.0000   0.0000   0.0000  -0.0189
  -6.400  -0.3046   0.05936   0.05543  -0.0740  0.6868  0.0351  -2.3055   0.0000   0.0000   0.0000  -0.0065
  -6.300  -0.3113   0.05648   0.05235  -0.0720  0.6841  0.0337  -2.3919   0.0000   0.0000   0.0000   0.0054
  -6.200  -0.3176   0.05320   0.04882  -0.0698  0.6815  0.0322  -2.4962   0.0000   0.0000   0.0000   0.0170
  -6.100  -0.3227   0.04945   0.04476  -0.0676  0.6793  0.0305  -2.6202   0.0000   0.0000   0.0000   0.0277
  -6.000  -0.3261   0.04550   0.04041  -0.0652  0.6773  0.0290  -2.7625   0.0000   0.0000   0.0000   0.0371
  -5.900  -0.3258   0.04191   0.03638  -0.0631  0.6756  0.0278  -2.8862   0.0000   0.0000   0.0000   0.0433
  -5.800  -0.3205   0.03932   0.03342  -0.0617  0.6740  0.0276  -2.9514   0.0000   0.0000   0.0000   0.0444
  -5.700  -0.3106   0.03808   0.03205  -0.0610  0.6724  0.0291  -2.9360   0.0000   0.0000   0.0000   0.0401
  -5.600  -0.2923   0.03991   0.03428  -0.0619  0.6706  0.0383  -2.7560   0.0000   0.0000   0.0000   0.0244
  -5.500  -0.2719   0.04224   0.03693  -0.0637  0.6689  0.0467  -2.5304   0.0000   0.0000   0.0000   0.0016
  -5.400  -0.2508   0.04444   0.03935  -0.0656  0.6674  0.0527  -2.3127   0.0000   0.0000   0.0000  -0.0263
  -5.300  -0.2239   0.04771   0.04290  -0.0681  0.6660  0.0584  -2.0503   0.0000   0.0000   0.0000  -0.0702
  -4.700  -0.1842   0.05824   0.05360  -0.0644  0.6256  0.0720  -1.4850   0.0000   0.0000   0.0000  -0.1153
  -4.600  -0.1880   0.05391   0.04905  -0.0635  0.6251  0.0767  -1.5222   0.0000   0.0000   0.0000  -0.1033
  -4.500  -0.1820   0.05210   0.04722  -0.0633  0.6246  0.0816  -1.4757   0.0000   0.0000   0.0000  -0.1137
  -4.400  -0.1728   0.05132   0.04648  -0.0633  0.6240  0.0855  -1.4042   0.0000   0.0000   0.0000  -0.1327
  -4.300  -0.1631   0.05076   0.04596  -0.0633  0.6234  0.0888  -1.3633   0.0000   0.0000   0.0000  -0.1549
  -4.200  -0.1533   0.05023   0.04545  -0.0633  0.6228  0.0917  -1.3245   0.0000   0.0000   0.0000  -0.1803
  -4.100  -0.1432   0.04968   0.04489  -0.0633  0.6222  0.0945  -1.2883   0.0000   0.0000   0.0000  -0.2099
  -4.000  -0.1329   0.04908   0.04429  -0.0633  0.6215  0.0973  -1.2543   0.0000   0.0000   0.0000  -0.2451
  -3.900  -0.1222   0.04844   0.04364  -0.0634  0.6208  0.1000  -1.2212   0.0000   0.0000   0.0000  -0.2883
  -3.800  -0.1111   0.04798   0.04318  -0.0635  0.6200  0.1045  -1.1797   0.0000   0.0000   0.0000  -0.3424
  -3.700  -0.0994   0.04758   0.04279  -0.0636  0.6192  0.1103  -1.1361   0.0000   0.0000   0.0000  -0.4131
  -3.600  -0.0870   0.04704   0.04223  -0.0638  0.6182  0.1156  -1.0984   0.0000   0.0000   0.0000  -0.5083
  -3.500  -0.0743   0.04630   0.04146  -0.0640  0.6172  0.1196  -1.0674   0.0000   0.0000   0.0000  -0.6397
  -3.400  -0.0612   0.04539   0.04050  -0.0642  0.6161  0.1224  -1.0414   0.0000   0.0000   0.0000  -0.8315
  -3.300  -0.0478   0.04440   0.03944  -0.0644  0.6148  0.1246  -1.0173   0.0000   0.0000   0.0000  -1.1397
  -3.200  -0.0338   0.04339   0.03837  -0.0646  0.6134  0.1269  -0.9924   0.0000   0.0000   0.0000  -1.7224
  -3.100  -0.0192   0.04239   0.03731  -0.0649  0.6119  0.1293  -0.9666   0.0000   0.0000   0.0000  -3.2223
  -3.000  -0.0043   0.04142   0.03627  -0.0652  0.6102  0.1319  -0.9399   0.0000   0.0000   0.0000  -15.4383
  -2.900   0.0112   0.04048   0.03528  -0.0655  0.6083  0.1345  -0.9119   0.0000   0.0000   0.0000   6.2616
  -2.800   0.0272   0.03962   0.03437  -0.0659  0.6063  0.1372  -0.8823   0.0000   0.0000   0.0000   2.7314
  -2.700   0.0437   0.03892   0.03362  -0.0663  0.6041  0.1399  -0.8504   0.0000   0.0000   0.0000   1.8049
  -2.600   0.0607   0.03857   0.03324  -0.0666  0.6018  0.1428  -0.8134   0.0000   0.0000   0.0000   1.3728
  -2.500   0.0833   0.04016   0.03491  -0.0670  0.5992  0.1466  -0.8066   0.0000   0.0000   0.0000   1.0717
  -2.400   0.0767   0.03410   0.02852  -0.0671  0.5984  0.1754  -0.8014   0.0000   0.0000   0.0000   1.1428
  -2.300   0.0893   0.03336   0.02782  -0.0672  0.5964  0.1840  -0.8129   0.0000   0.0000   0.0000   1.0175
  -2.200   0.1011   0.03276   0.02727  -0.0672  0.5946  0.1919  -0.8235   0.0000   0.0000   0.0000   0.9277
  -2.100   0.1121   0.03228   0.02682  -0.0672  0.5929  0.2000  -0.8332   0.0000   0.0000   0.0000   0.8601
  -2.000   0.1229   0.03185   0.02642  -0.0671  0.5913  0.2087  -0.8425   0.0000   0.0000   0.0000   0.8055
  -1.900   0.1339   0.03144   0.02602  -0.0671  0.5896  0.2177  -0.8520   0.0000   0.0000   0.0000   0.7589
  -1.800   0.1453   0.03106   0.02565  -0.0670  0.5878  0.2268  -0.8617   0.0000   0.0000   0.0000   0.7183
  -1.700   0.1572   0.03076   0.02533  -0.0670  0.5859  0.2350  -0.8717   0.0000   0.0000   0.0000   0.6825
  -1.600   0.1656   0.03040   0.02497  -0.0670  0.5840  0.2654  -0.8805   0.0000   0.0000   0.0000   0.6601
  -1.500   0.1761   0.02890   0.02336  -0.0673  0.5821  0.2799  -0.8887   0.0000   0.0000   0.0000   0.6368
  -1.400   0.1863   0.02818   0.02274  -0.0670  0.5801  0.2981  -0.8979   0.0000   0.0000   0.0000   0.6139
  -1.300   0.1945   0.02776   0.02251  -0.0663  0.5780  0.3206  -0.9066   0.0000   0.0000   0.0000   0.5943
  -1.200   0.2052   0.02723   0.02204  -0.0660  0.5757  0.3340  -0.9160   0.0000   0.0000   0.0000   0.5745
  -1.100   0.2194   0.02645   0.02114  -0.0664  0.5734  0.3325  -0.9265   0.0000   0.0000   0.0000   0.5553
  -1.000   0.2416   0.02543   0.01957  -0.0681  0.5707  0.2947  -0.9397   0.0000   0.0000   0.0000   0.5340
  -0.900   0.2563   0.02485   0.01887  -0.0683  0.5681  0.2808  -0.9508   0.0000   0.0000   0.0000   0.5184
  -0.800   0.2702   0.02445   0.01840  -0.0684  0.5654  0.2714  -0.9616   0.0000   0.0000   0.0000   0.5047
  -0.600   0.3068   0.02292   0.01610  -0.0684  0.5595  0.1920  -0.9850   0.0000   0.0000   0.0000   0.4738
  -0.500   0.3200   0.02248   0.01552  -0.0683  0.5567  0.1759  -0.9955   0.0000   0.0000   0.0000   0.4643
  -0.400   0.3329   0.02216   0.01514  -0.0683  0.5538  0.1660  -1.0060   0.0000   0.0000   0.0000   0.4558
  -0.100   0.3730   0.02111   0.01376  -0.0682  0.5451  0.1416  -1.0374   0.0000   0.0000   0.0000   0.4328
   0.000   0.3865   0.02078   0.01323  -0.0681  0.5422  0.1342  -1.0475   0.0000   0.0000   0.0000   0.4259
   0.100   0.3998   0.02052   0.01285  -0.0680  0.5392  0.1258  -1.0576   0.0000   0.0000   0.0000   0.4196
   0.200   0.4127   0.02029   0.01254  -0.0679  0.5364  0.1174  -1.0673   0.0000   0.0000   0.0000   0.4139
   0.300   0.4253   0.02008   0.01227  -0.0679  0.5336  0.1099  -1.0768   0.0000   0.0000   0.0000   0.4088
   0.400   0.4372   0.01989   0.01198  -0.0679  0.5309  0.1044  -1.0857   0.0000   0.0000   0.0000   0.4044
   0.500   0.4486   0.01973   0.01175  -0.0680  0.5284  0.1003  -1.0942   0.0000   0.0000   0.0000   0.4004
   0.600   0.4597   0.01960   0.01157  -0.0681  0.5260  0.0970  -1.1023   0.0000   0.0000   0.0000   0.3968
   0.700   0.4707   0.01951   0.01144  -0.0682  0.5235  0.0943  -1.1101   0.0000   0.0000   0.0000   0.3934
   0.800   0.4814   0.01946   0.01135  -0.0682  0.5209  0.0921  -1.1176   0.0000   0.0000   0.0000   0.3902
   0.900   0.4918   0.01944   0.01130  -0.0683  0.5181  0.0901  -1.1248   0.0000   0.0000   0.0000   0.3872
   1.000   0.5016   0.01949   0.01132  -0.0683  0.5149  0.0884  -1.1310   0.0000   0.0000   0.0000   0.3844
   1.100   0.5089   0.01975   0.01158  -0.0682  0.5104  0.0871  -1.1340   0.0000   0.0000   0.0000   0.3821
   1.200   0.4156   0.02662   0.01879  -0.0597  0.4923  0.0941  -1.0233   0.0000   0.0000   0.0000   0.3913
   1.300   0.4130   0.02701   0.01916  -0.0581  0.4913  0.0932  -1.0189   0.0000   0.0000   0.0000   0.3882
   1.400   0.4117   0.02740   0.01953  -0.0568  0.4903  0.0921  -1.0153   0.0000   0.0000   0.0000   0.3852
   1.500   0.4118   0.02779   0.01989  -0.0556  0.4894  0.0910  -1.0128   0.0000   0.0000   0.0000   0.3822
   1.600   0.4127   0.02816   0.02024  -0.0546  0.4884  0.0899  -1.0110   0.0000   0.0000   0.0000   0.3792
   1.700   0.4142   0.02853   0.02057  -0.0537  0.4874  0.0889  -1.0095   0.0000   0.0000   0.0000   0.3763
   1.800   0.4160   0.02888   0.02090  -0.0528  0.4865  0.0879  -1.0083   0.0000   0.0000   0.0000   0.3735
   1.900   0.4182   0.02922   0.02122  -0.0520  0.4855  0.0869  -1.0073   0.0000   0.0000   0.0000   0.3706
   2.000   0.4206   0.02956   0.02153  -0.0512  0.4845  0.0860  -1.0066   0.0000   0.0000   0.0000   0.3679
   2.100   0.4233   0.02989   0.02183  -0.0505  0.4835  0.0851  -1.0059   0.0000   0.0000   0.0000   0.3652
   2.200   0.4262   0.03022   0.02213  -0.0498  0.4825  0.0843  -1.0055   0.0000   0.0000   0.0000   0.3625
   2.300   0.4293   0.03053   0.02242  -0.0491  0.4815  0.0835  -1.0052   0.0000   0.0000   0.0000   0.3599
   2.400   0.4326   0.03084   0.02271  -0.0484  0.4805  0.0828  -1.0049   0.0000   0.0000   0.0000   0.3574
   2.500   0.4360   0.03115   0.02298  -0.0478  0.4794  0.0821  -1.0049   0.0000   0.0000   0.0000   0.3549
   2.600   0.4396   0.03145   0.02326  -0.0472  0.4784  0.0814  -1.0049   0.0000   0.0000   0.0000   0.3524
   2.700   0.4433   0.03175   0.02353  -0.0466  0.4773  0.0808  -1.0050   0.0000   0.0000   0.0000   0.3501
   2.800   0.4471   0.03204   0.02380  -0.0461  0.4762  0.0802  -1.0052   0.0000   0.0000   0.0000   0.3477
   2.900   0.4511   0.03234   0.02407  -0.0455  0.4751  0.0796  -1.0054   0.0000   0.0000   0.0000   0.3454
   3.000   0.4552   0.03263   0.02433  -0.0450  0.4739  0.0791  -1.0058   0.0000   0.0000   0.0000   0.3432
   3.100   0.4594   0.03291   0.02459  -0.0445  0.4728  0.0786  -1.0062   0.0000   0.0000   0.0000   0.3410
   3.200   0.4637   0.03320   0.02486  -0.0440  0.4716  0.0781  -1.0068   0.0000   0.0000   0.0000   0.3389
   3.300   0.4680   0.03348   0.02511  -0.0435  0.4704  0.0776  -1.0073   0.0000   0.0000   0.0000   0.3368
   3.400   0.4725   0.03376   0.02537  -0.0430  0.4691  0.0769  -1.0079   0.0000   0.0000   0.0000   0.3347
   3.500   0.7154   0.02369   0.01540  -0.0656  0.5164  0.0982  -1.2478   0.0000   0.0000   0.0000   0.3368
   3.600   0.7255   0.02374   0.01545  -0.0656  0.5161  0.1045  -1.2540   0.0000   0.0000   0.0000   0.3355
   3.700   0.7358   0.02380   0.01549  -0.0656  0.5159  0.1121  -1.2605   0.0000   0.0000   0.0000   0.3341
   3.800   0.7465   0.02384   0.01554  -0.0657  0.5156  0.1189  -1.2673   0.0000   0.0000   0.0000   0.3328
   3.900   0.7575   0.02384   0.01560  -0.0659  0.5154  0.1235  -1.2743   0.0000   0.0000   0.0000   0.3316
   4.000   0.7687   0.02383   0.01565  -0.0660  0.5152  0.1276  -1.2815   0.0000   0.0000   0.0000   0.3304
   4.100   0.7800   0.02382   0.01569  -0.0662  0.5150  0.1317  -1.2888   0.0000   0.0000   0.0000   0.3293
   4.200   0.7915   0.02381   0.01573  -0.0663  0.5148  0.1356  -1.2961   0.0000   0.0000   0.0000   0.3281
   4.300   0.8030   0.02379   0.01577  -0.0665  0.5146  0.1395  -1.3035   0.0000   0.0000   0.0000   0.3271
   4.400   0.8145   0.02377   0.01580  -0.0667  0.5144  0.1433  -1.3107   0.0000   0.0000   0.0000   0.3260
   4.500   0.8259   0.02375   0.01584  -0.0669  0.5142  0.1471  -1.3179   0.0000   0.0000   0.0000   0.3251
   4.700   0.8353   0.02226   0.01619  -0.0648  0.5137  0.7833  -1.3250   0.0000   0.0000   0.0000   0.3214
   4.800   0.8441   0.02234   0.01630  -0.0644  0.5136  0.7977  -1.3297   0.0000   0.0000   0.0000   0.3200
   4.900   0.8526   0.02249   0.01647  -0.0641  0.5135  0.8069  -1.3332   0.0000   0.0000   0.0000   0.3187
   5.000   0.8602   0.02274   0.01674  -0.0637  0.5134  0.8136  -1.3350   0.0000   0.0000   0.0000   0.3175
   5.100   0.8664   0.02310   0.01712  -0.0632  0.5132  0.8189  -1.3346   0.0000   0.0000   0.0000   0.3163
   5.200   0.8710   0.02359   0.01763  -0.0626  0.5129  0.8230  -1.3319   0.0000   0.0000   0.0000   0.3150
   5.300   0.8737   0.02424   0.01830  -0.0617  0.5125  0.8263  -1.3266   0.0000   0.0000   0.0000   0.3137
   5.400   0.8744   0.02503   0.01911  -0.0607  0.5119  0.8290  -1.3186   0.0000   0.0000   0.0000   0.3124
   5.500   0.8729   0.02600   0.02010  -0.0596  0.5110  0.8314  -1.3080   0.0000   0.0000   0.0000   0.3111
   5.600   0.8692   0.02716   0.02129  -0.0582  0.5100  0.8335  -1.2944   0.0000   0.0000   0.0000   0.3096
   5.700   0.8622   0.02863   0.02278  -0.0565  0.5084  0.8352  -1.2889   0.0000   0.0000   0.0000   0.3081
   5.800   0.7886   0.03525   0.02941  -0.0482  0.4989  0.8279  -1.2210   0.0000   0.0000   0.0000   0.3033
   5.900   0.7746   0.03734   0.03152  -0.0465  0.4987  0.8276  -1.2093   0.0000   0.0000   0.0000   0.3020
   6.000   0.7598   0.03971   0.03391  -0.0449  0.4984  0.8270  -1.1960   0.0000   0.0000   0.0000   0.3010
   6.100   0.7451   0.04222   0.03643  -0.0435  0.4982  0.8264  -1.1824   0.0000   0.0000   0.0000   0.3001
   6.200   0.7307   0.04482   0.03906  -0.0423  0.4981  0.8257  -1.1686   0.0000   0.0000   0.0000   0.2993
   6.300   0.7242   0.04660   0.04086  -0.0414  0.4980  0.8269  -1.1634   0.0000   0.0000   0.0000   0.2984
   6.400   0.7152   0.04875   0.04303  -0.0405  0.4980  0.8275  -1.1551   0.0000   0.0000   0.0000   0.2977
   6.500   0.7067   0.05092   0.04523  -0.0397  0.4980  0.8281  -1.1472   0.0000   0.0000   0.0000   0.2970
   6.600   0.7001   0.05292   0.04726  -0.0389  0.4980  0.8291  -1.1411   0.0000   0.0000   0.0000   0.2964
   6.700   0.6952   0.05475   0.04911  -0.0383  0.4980  0.8304  -1.1370   0.0000   0.0000   0.0000   0.2957
   6.800   0.6920   0.05640   0.05079  -0.0378  0.4980  0.8319  -1.1346   0.0000   0.0000   0.0000   0.2951
   6.900   0.6900   0.05791   0.05232  -0.0373  0.4981  0.8336  -1.1336   0.0000   0.0000   0.0000   0.2944
   7.000   0.6892   0.05929   0.05373  -0.0369  0.4981  0.8353  -1.1339   0.0000   0.0000   0.0000   0.2937
   7.100   0.6892   0.06057   0.05503  -0.0366  0.4981  0.8370  -1.1352   0.0000   0.0000   0.0000   0.2930
   7.200   0.6900   0.06175   0.05624  -0.0362  0.4981  0.8386  -1.1373   0.0000   0.0000   0.0000   0.2923
   7.300   0.6915   0.06284   0.05736  -0.0359  0.4982  0.8401  -1.1401   0.0000   0.0000   0.0000   0.2916
   7.400   0.6936   0.06385   0.05839  -0.0356  0.4982  0.8417  -1.1437   0.0000   0.0000   0.0000   0.2909
   7.500   0.6963   0.06477   0.05933  -0.0354  0.4981  0.8432  -1.1479   0.0000   0.0000   0.0000   0.2901
   7.600   0.6995   0.06560   0.06019  -0.0351  0.4981  0.8446  -1.1527   0.0000   0.0000   0.0000   0.2894
   7.700   0.7032   0.06633   0.06094  -0.0349  0.4981  0.8458  -1.1583   0.0000   0.0000   0.0000   0.2886
   7.800   0.7076   0.06696   0.06159  -0.0346  0.4980  0.8470  -1.1645   0.0000   0.0000   0.0000   0.2878
   7.900   0.7125   0.06746   0.06212  -0.0344  0.4979  0.8481  -1.1783   0.0000   0.0000   0.0000   0.2870
   8.000   0.7180   0.06784   0.06252  -0.0342  0.4978  0.8491  -1.1997   0.0000   0.0000   0.0000   0.2862
   8.100   0.7243   0.06807   0.06278  -0.0340  0.4976  0.8499  -1.2226   0.0000   0.0000   0.0000   0.2853
   8.200   0.7314   0.06814   0.06286  -0.0337  0.4974  0.8508  -1.2473   0.0000   0.0000   0.0000   0.2843
   8.300   0.7396   0.06801   0.06276  -0.0335  0.4971  0.8515  -1.2740   0.0000   0.0000   0.0000   0.2834
   8.400   0.7491   0.06764   0.06241  -0.0333  0.4968  0.8522  -1.3037   0.0000   0.0000   0.0000   0.2823
   8.500   0.7602   0.06701   0.06180  -0.0330  0.4965  0.8528  -1.3366   0.0000   0.0000   0.0000   0.2812
   8.600   0.7713   0.06638   0.06118  -0.0328  0.4961  0.8533  -1.3698   0.0000   0.0000   0.0000   0.2801
   8.700   0.7827   0.06576   0.06057  -0.0326  0.4957  0.8546  -1.4037   0.0000   0.0000   0.0000   0.2791
   8.800   0.7952   0.06514   0.05996  -0.0328  0.4952  0.8583  -1.4392   0.0000   0.0000   0.0000   0.2785
   8.900   0.8076   0.06452   0.05936  -0.0329  0.4948  0.8620  -1.4748   0.0000   0.0000   0.0000   0.2779
   9.000   0.8199   0.06391   0.05876  -0.0330  0.4943  0.8658  -1.5105   0.0000   0.0000   0.0000   0.2772
   9.100   0.8320   0.06330   0.05817  -0.0331  0.4938  0.8697  -1.5462   0.0000   0.0000   0.0000   0.2766
   9.200   0.8440   0.06268   0.05757  -0.0331  0.4933  0.8737  -1.5819   0.0000   0.0000   0.0000   0.2759
   9.300   0.8556   0.06207   0.05698  -0.0330  0.4928  0.8777  -1.6174   0.0000   0.0000   0.0000   0.2751
   9.400   0.8670   0.06144   0.05637  -0.0330  0.4922  0.8817  -1.6527   0.0000   0.0000   0.0000   0.2744
   9.500   0.8778   0.06081   0.05577  -0.0328  0.4915  0.8861  -1.6873   0.0000   0.0000   0.0000   0.2735
   9.600   0.8867   0.06014   0.05513  -0.0322  0.4908  0.8931  -1.7191   0.0000   0.0000   0.0000   0.2723
   9.700   0.8937   0.05944   0.05447  -0.0312  0.4899  0.9012  -1.7482   0.0000   0.0000   0.0000   0.2708
   9.800   0.8999   0.05867   0.05374  -0.0301  0.4890  0.9098  -1.7762   0.0000   0.0000   0.0000   0.2691
   9.900   0.9090   0.05721   0.05230  -0.0287  0.4877  0.9198  -1.8114   0.0000   0.0000   0.0000   0.2670
  10.000   0.9251   0.05366   0.04871  -0.0265  0.4850  0.9310  -1.8645   0.0000   0.0000   0.0000   0.2639
  10.300   0.8371   0.05821   0.05330  -0.0238  0.4417  0.9089  -1.7319   0.0000   0.0000   0.0000   0.2623
  10.400   0.8416   0.05792   0.05304  -0.0227  0.4367  0.9168  -1.7564   0.0000   0.0000   0.0000   0.2607
  10.500   0.8480   0.05737   0.05251  -0.0215  0.4324  0.9254  -1.7856   0.0000   0.0000   0.0000   0.2589
  10.900   0.9348   0.04918   0.04418  -0.0215  0.3691  1.0000  -2.0328   0.0000   0.0000   0.0000   0.2555
  11.000   0.9417   0.04921   0.04413  -0.0214  0.3597  1.0000  -2.0618   0.0000   0.0000   0.0000   0.2550
  11.100   0.9475   0.04934   0.04417  -0.0213  0.3491  1.0000  -2.0886   0.0000   0.0000   0.0000   0.2546
  11.200   0.9528   0.04951   0.04423  -0.0211  0.3373  1.0000  -2.1147   0.0000   0.0000   0.0000   0.2541
  11.300   0.9580   0.04972   0.04430  -0.0210  0.3247  1.0000  -2.1405   0.0000   0.0000   0.0000   0.2536
  11.400   0.9631   0.04999   0.04443  -0.0209  0.3113  1.0000  -2.1662   0.0000   0.0000   0.0000   0.2532
  11.500   0.9683   0.05041   0.04473  -0.0209  0.2969  1.0000  -2.1916   0.0000   0.0000   0.0000   0.2529
  11.600   0.9737   0.05089   0.04516  -0.0210  0.2812  1.0000  -2.2172   0.0000   0.0000   0.0000   0.2527
  11.700   0.9804   0.05123   0.04545  -0.0211  0.2654  1.0000  -2.2455   0.0000   0.0000   0.0000   0.2524
  11.800   0.9881   0.05145   0.04565  -0.0212  0.2524  1.0000  -2.2763   0.0000   0.0000   0.0000   0.2522
  11.900   0.9959   0.05174   0.04595  -0.0214  0.2484  1.0000  -2.3075   0.0000   0.0000   0.0000   0.2520
  12.000   1.0033   0.05207   0.04628  -0.0215  0.2455  1.0000  -2.3381   0.0000   0.0000   0.0000   0.2518
  12.100   1.0104   0.05243   0.04662  -0.0217  0.2412  1.0000  -2.3682   0.0000   0.0000   0.0000   0.2516
  12.200   1.0170   0.05280   0.04695  -0.0218  0.2353  1.0000  -2.3977   0.0000   0.0000   0.0000   0.2514
  12.300   1.0234   0.05318   0.04727  -0.0219  0.2280  1.0000  -2.4267   0.0000   0.0000   0.0000   0.2512
  12.400   1.0284   0.05361   0.04760  -0.0219  0.2162  1.0000  -2.4535   0.0000   0.0000   0.0000   0.2509
  12.500   1.0308   0.05415   0.04789  -0.0217  0.1951  1.0000  -2.4750   0.0000   0.0000   0.0000   0.2504
  12.600   1.0309   0.05474   0.04811  -0.0213  0.1676  1.0000  -2.4922   0.0000   0.0000   0.0000   0.2499
  12.700   1.0337   0.05527   0.04847  -0.0212  0.1418  1.0000  -2.5142   0.0000   0.0000   0.0000   0.2495
  12.800   1.0377   0.05570   0.04875  -0.0211  0.1279  1.0000  -2.5391   0.0000   0.0000   0.0000   0.2492
  12.900   1.0387   0.05632   0.04910  -0.0210  0.1089  1.0000  -2.5577   0.0000   0.0000   0.0000   0.2488
  13.000   1.0389   0.05707   0.04959  -0.0209  0.0902  1.0000  -2.5742   0.0000   0.0000   0.0000   0.2485
  13.100   1.0429   0.05763   0.05001  -0.0210  0.0680  1.0000  -2.5989   0.0000   0.0000   0.0000   0.2483
  13.200   1.0497   0.05797   0.05034  -0.0211  0.0644  1.0000  -2.6302   0.0000   0.0000   0.0000   0.2482
  13.300   1.0563   0.05831   0.05066  -0.0213  0.0615  1.0000  -2.6615   0.0000   0.0000   0.0000   0.2480
  13.400   1.0625   0.05865   0.05098  -0.0214  0.0588  1.0000  -2.6926   0.0000   0.0000   0.0000   0.2479
  13.500   1.0682   0.05902   0.05133  -0.0216  0.0562  1.0000  -2.7230   0.0000   0.0000   0.0000   0.2477
  13.600   1.0733   0.05943   0.05172  -0.0217  0.0537  1.0000  -2.7526   0.0000   0.0000   0.0000   0.2475
  13.700   1.0779   0.05991   0.05216  -0.0219  0.0513  1.0000  -2.8024   0.0000   0.0000   0.0000   0.2474
  13.800   1.0816   0.06048   0.05270  -0.0220  0.0490  1.0000  -2.8626   0.0000   0.0000   0.0000   0.2473
  13.900   1.0839   0.06123   0.05343  -0.0222  0.0469  1.0000  -2.9153   0.0000   0.0000   0.0000   0.2472
  14.200   0.9447   0.08038   0.07368  -0.0263  0.0667  1.0000  -2.4831   0.0000   0.0000   0.0000   0.2537
  14.300   0.9503   0.08085   0.07413  -0.0265  0.0638  1.0000  -2.5108   0.0000   0.0000   0.0000   0.2536
  14.400   0.9559   0.08133   0.07459  -0.0267  0.0611  1.0000  -2.5390   0.0000   0.0000   0.0000   0.2534
  14.500   0.9613   0.08181   0.07505  -0.0270  0.0585  1.0000  -2.5672   0.0000   0.0000   0.0000   0.2533
  14.600   0.9665   0.08231   0.07551  -0.0272  0.0559  1.0000  -2.5957   0.0000   0.0000   0.0000   0.2532
  14.700   0.9716   0.08281   0.07598  -0.0274  0.0534  1.0000  -2.6244   0.0000   0.0000   0.0000   0.2530
  14.800   0.9766   0.08333   0.07645  -0.0276  0.0509  1.0000  -2.6845   0.0000   0.0000   0.0000   0.2529
  14.900   0.9814   0.08387   0.07693  -0.0278  0.0484  1.0000  -2.7487   0.0000   0.0000   0.0000   0.2528
  15.000   0.9861   0.08442   0.07740  -0.0281  0.0457  1.0000  -2.8124   0.0000   0.0000   0.0000   0.2526
  15.100   0.9907   0.08498   0.07787  -0.0283  0.0429  1.0000  -2.8761   0.0000   0.0000   0.0000   0.2525
  15.200   0.9957   0.08551   0.07830  -0.0285  0.0396  1.0000  -2.9410   0.0000   0.0000   0.0000   0.2524
  15.300   1.0013   0.08599   0.07871  -0.0287  0.0354  1.0000  -3.0077   0.0000   0.0000   0.0000   0.2522
  15.400   1.0072   0.08647   0.07915  -0.0288  0.0299  1.0000  -3.0705   0.0000   0.0000   0.0000   0.2519
  15.500   1.0106   0.08721   0.08015  -0.0284  0.0212  1.0000  -3.0631   0.0000   0.0000   0.0000   0.2512
  15.600   1.0128   0.08792   0.08120  -0.0280  0.0194  1.0000  -3.0562   0.0000   0.0000   0.0000   0.2504
  15.700   1.0158   0.08858   0.08209  -0.0277  0.0189  1.0000  -3.0713   0.0000   0.0000   0.0000   0.2498
  15.800   1.0188   0.08926   0.08295  -0.0274  0.0188  1.0000  -3.1013   0.0000   0.0000   0.0000   0.2492
  15.900   1.0221   0.08997   0.08381  -0.0272  0.0188  1.0000  -3.1371   0.0000   0.0000   0.0000   0.2487
  16.000   1.0260   0.09071   0.08467  -0.0271  0.0190  1.0000  -3.1747   0.0000   0.0000   0.0000   0.2483
  16.100   1.0305   0.09146   0.08553  -0.0270  0.0194  1.0000  -3.2151   0.0000   0.0000   0.0000   0.2479
  16.200   1.0352   0.09222   0.08637  -0.0270  0.0198  1.0000  -3.2576   0.0000   0.0000   0.0000   0.2475
  16.300   1.0401   0.09297   0.08718  -0.0270  0.0203  1.0000  -3.3025   0.0000   0.0000   0.0000   0.2471
  16.400   1.0454   0.09369   0.08797  -0.0270  0.0210  1.0000  -3.3501   0.0000   0.0000   0.0000   0.2468
  16.500   1.0509   0.09440   0.08872  -0.0270  0.0217  1.0000  -3.3999   0.0000   0.0000   0.0000   0.2465
  16.600   1.0565   0.09510   0.08947  -0.0271  0.0226  1.0000  -3.4512   0.0000   0.0000   0.0000   0.2462
  16.700   1.0621   0.09581   0.09022  -0.0272  0.0237  1.0000  -3.5025   0.0000   0.0000   0.0000   0.2459
  16.800   1.0676   0.09657   0.09103  -0.0273  0.0249  1.0000  -3.5521   0.0000   0.0000   0.0000   0.2456
  16.900   1.0726   0.09743   0.09194  -0.0273  0.0262  1.0000  -3.5972   0.0000   0.0000   0.0000   0.2453
  17.000   1.0768   0.09846   0.09306  -0.0275  0.0278  1.0000  -3.6333   0.0000   0.0000   0.0000   0.2451
  18.500   0.9697   0.15813   0.15432  -0.0501  0.0360  1.0000  -2.9702   0.0000   0.0000   0.0000   0.2696
  18.600   0.9603   0.16408   0.16030  -0.0525  0.0360  1.0000  -2.8923   0.0000   0.0000   0.0000   0.2727
  18.700   0.9510   0.17039   0.16665  -0.0549  0.0364  1.0000  -2.7993   0.0000   0.0000   0.0000   0.2758
  18.800   0.9416   0.17746   0.17375  -0.0573  0.0373  1.0000  -2.6829   0.0000   0.0000   0.0000   0.2791
  18.900   0.9322   0.18486   0.18118  -0.0598  0.0384  1.0000  -2.5602   0.0000   0.0000   0.0000   0.2825
  19.000   0.9227   0.19218   0.18852  -0.0624  0.0394  1.0000  -2.4432   0.0000   0.0000   0.0000   0.2862
  19.100   0.9132   0.19948   0.19584  -0.0650  0.0404  1.0000  -2.3281   0.0000   0.0000   0.0000   0.2900
  19.200   0.9039   0.20674   0.20312  -0.0677  0.0415  1.0000  -2.2145   0.0000   0.0000   0.0000   0.2938
  19.300   0.8949   0.21392   0.21033  -0.0704  0.0429  1.0000  -2.1025   0.0000   0.0000   0.0000   0.2978
  19.400   0.8861   0.22102   0.21746  -0.0731  0.0447  1.0000  -1.9922   0.0000   0.0000   0.0000   0.3017
  19.500   0.8775   0.22800   0.22446  -0.0757  0.0470  1.0000  -1.8839   0.0000   0.0000   0.0000   0.3058
  19.600   0.8688   0.23483   0.23134  -0.0783  0.0499  1.0000  -1.7767   0.0000   0.0000   0.0000   0.3099
  19.700   0.8590   0.24163   0.23819  -0.0811  0.0535  1.0000  -1.6661   0.0000   0.0000   0.0000   0.3144
  19.800   0.8392   0.24765   0.24433  -0.0849  0.0577  1.0000  -1.5113   0.0000   0.0000   0.0000   0.3218
  19.900   0.8132   0.25098   0.24780  -0.0873  0.0614  1.0000  -1.3489   0.0000   0.0000   0.0000   0.3289
  20.000   0.7893   0.25464   0.25153  -0.0882  0.0643  1.0000  -1.2022   0.0000   0.0000   0.0000   0.3341
  20.100   0.7776   0.25724   0.25418  -0.0887  0.0653  1.0000  -1.1291   0.0000   0.0000   0.0000   0.3367
  20.200   0.7718   0.25908   0.25604  -0.0892  0.0657  1.0000  -1.0917   0.0000   0.0000   0.0000   0.3384
  20.300   0.7677   0.26064   0.25762  -0.0896  0.0658  1.0000  -1.0652   0.0000   0.0000   0.0000   0.3397
  20.400   0.7645   0.26207   0.25907  -0.0901  0.0660  1.0000  -1.0439   0.0000   0.0000   0.0000   0.3408
  20.500   0.7618   0.26342   0.26043  -0.0906  0.0660  1.0000  -1.0256   0.0000   0.0000   0.0000   0.3419
  20.600   0.7595   0.26471   0.26173  -0.0910  0.0661  1.0000  -1.0094   0.0000   0.0000   0.0000   0.3428
  20.700   0.7574   0.26596   0.26300  -0.0915  0.0661  1.0000  -0.9948   0.0000   0.0000   0.0000   0.3438
  20.800   0.7556   0.26717   0.26422  -0.0919  0.0662  1.0000  -0.9814   0.0000   0.0000   0.0000   0.3447
  20.900   0.7540   0.26836   0.26542  -0.0924  0.0662  1.0000  -0.9689   0.0000   0.0000   0.0000   0.3455
  21.000   0.7525   0.26952   0.26659  -0.0928  0.0662  1.0000  -0.9573   0.0000   0.0000   0.0000   0.3464
  21.100   0.7512   0.27066   0.26775  -0.0933  0.0662  1.0000  -0.9463   0.0000   0.0000   0.0000   0.3472
  21.200   0.7502   0.27153   0.26861  -0.0937  0.0662  0.9994  -0.9390   0.0000   0.0000   0.0000   0.3478
  21.300   0.7494   0.27227   0.26934  -0.0940  0.0661  0.9986  -0.9337   0.0000   0.0000   0.0000   0.3484
  21.400   0.7488   0.27299   0.27005  -0.0944  0.0659  0.9976  -0.9292   0.0000   0.0000   0.0000   0.3490
  21.500   0.7485   0.27370   0.27074  -0.0949  0.0658  0.9964  -0.9259   0.0000   0.0000   0.0000   0.3495
  22.100   0.7720   0.27251   0.26962  -0.1003  0.0492  0.9992  -1.0654   0.0000   0.0000   0.0000   0.3513
  22.200   0.7729   0.27312   0.27022  -0.1010  0.0446  0.9989  -1.0826   0.0000   0.0000   0.0000   0.3519
  22.300   0.7739   0.27353   0.27062  -0.1016  0.0406  0.9986  -1.1065   0.0000   0.0000   0.0000   0.3522
  22.400   0.7754   0.27375   0.27083  -0.1020  0.0370  0.9983  -1.1389   0.0000   0.0000   0.0000   0.3523
  22.500   0.7778   0.27373   0.27081  -0.1024  0.0338  0.9981  -1.1826   0.0000   0.0000   0.0000   0.3521
  22.600   0.7813   0.27341   0.27047  -0.1026  0.0309  0.9980  -1.2426   0.0000   0.0000   0.0000   0.3515
  22.700   0.7868   0.27259   0.26965  -0.1026  0.0282  0.9981  -1.3293   0.0000   0.0000   0.0000   0.3502
  22.800   0.7958   0.27097   0.26803  -0.1023  0.0255  0.9985  -1.4630   0.0000   0.0000   0.0000   0.3477
  22.900   0.8011   0.26993   0.26697  -0.1022  0.0236  0.9985  -1.5615   0.0000   0.0000   0.0000   0.3463
  24.000   0.7775   0.28675   0.28409  -0.1112  0.0266  0.9695  -1.1749   0.0000   0.0000   0.0000   0.3622
  24.100   0.7758   0.28821   0.28555  -0.1120  0.0270  0.9686  -1.1435   0.0000   0.0000   0.0000   0.3636
  24.200   0.7742   0.28966   0.28700  -0.1128  0.0275  0.9679  -1.1130   0.0000   0.0000   0.0000   0.3649
  24.300   0.7728   0.29109   0.28842  -0.1136  0.0279  0.9672  -1.0839   0.0000   0.0000   0.0000   0.3662
  24.400   0.7715   0.29249   0.28981  -0.1144  0.0284  0.9665  -1.0567   0.0000   0.0000   0.0000   0.3675
  24.500   0.7704   0.29385   0.29116  -0.1151  0.0289  0.9659  -1.0318   0.0000   0.0000   0.0000   0.3686
  24.600   0.7695   0.29515   0.29246  -0.1159  0.0293  0.9654  -1.0097   0.0000   0.0000   0.0000   0.3697
  24.700   0.7688   0.29639   0.29370  -0.1166  0.0297  0.9649  -0.9907   0.0000   0.0000   0.0000   0.3707
  24.800   0.7683   0.29756   0.29486  -0.1172  0.0300  0.9645  -0.9752   0.0000   0.0000   0.0000   0.3716
  24.900   0.7680   0.29865   0.29595  -0.1179  0.0301  0.9641  -0.9637   0.0000   0.0000   0.0000   0.3725
  25.000   0.7679   0.29963   0.29692  -0.1184  0.0300  0.9638  -0.9565   0.0000   0.0000   0.0000   0.3731


