xflr5 v6.61

 Calculated polar for: WORTMANN FX 63-137 AIRFOIL

 1 1 Reynolds number fixed          Mach number fixed         

 xtrf =   1.000 (top)        1.000 (bottom)
 Mach =   0.000     Re =     0.688 e 6     Ncrit =   9.000

  alpha     CL        CD       CDp       Cm    Top Xtr Bot Xtr   Cpmin    Chinge    XCp    
 ------- -------- --------- --------- -------- ------- ------- -------- --------- ---------
 -10.000  -0.2979   0.01628   0.01196  -0.1789  0.9113  0.0101  -6.8945   0.0000   0.0000   0.0000  -0.3802
  -9.900  -0.2847   0.01622   0.01189  -0.1794  0.9061  0.0102  -6.7360   0.0000   0.0000   0.0000  -0.4109
  -9.800  -0.2710   0.01616   0.01181  -0.1801  0.9012  0.0103  -6.5832   0.0000   0.0000   0.0000  -0.4460
  -9.700  -0.2573   0.01607   0.01169  -0.1808  0.8967  0.0104  -6.4461   0.0000   0.0000   0.0000  -0.4851
  -9.600  -0.2453   0.01594   0.01153  -0.1811  0.8916  0.0106  -6.3241   0.0000   0.0000   0.0000  -0.5222
  -9.200  -0.1949   0.01503   0.01036  -0.1835  0.8726  0.0114  -5.8763   0.0000   0.0000   0.0000  -0.7316
  -9.100  -0.1828   0.01476   0.01003  -0.1841  0.8680  0.0116  -5.7730   0.0000   0.0000   0.0000  -0.7992
  -9.000  -0.1703   0.01448   0.00968  -0.1846  0.8634  0.0119  -5.6703   0.0000   0.0000   0.0000  -0.8783
  -8.900  -0.1577   0.01421   0.00932  -0.1852  0.8590  0.0121  -5.5680   0.0000   0.0000   0.0000  -0.9717
  -8.700  -0.1325   0.01368   0.00864  -0.1864  0.8516  0.0125  -5.3646   0.0000   0.0000   0.0000  -1.2115
  -8.600  -0.1201   0.01342   0.00831  -0.1870  0.8481  0.0126  -5.2639   0.0000   0.0000   0.0000  -1.3669
  -8.500  -0.1075   0.01317   0.00800  -0.1875  0.8446  0.0128  -5.1631   0.0000   0.0000   0.0000  -1.5598
  -8.400  -0.0949   0.01295   0.00771  -0.1880  0.8412  0.0129  -5.0618   0.0000   0.0000   0.0000  -1.8042
  -8.300  -0.0825   0.01277   0.00746  -0.1885  0.8378  0.0132  -4.9586   0.0000   0.0000   0.0000  -2.1187
  -8.200  -0.0698   0.01256   0.00718  -0.1890  0.8345  0.0132  -4.8583   0.0000   0.0000   0.0000  -2.5558
  -8.000  -0.0442   0.01214   0.00662  -0.1901  0.8282  0.0133  -4.6601   0.0000   0.0000   0.0000  -4.1968
  -7.900  -0.0316   0.01195   0.00637  -0.1905  0.8252  0.0133  -4.5613   0.0000   0.0000   0.0000  -5.9812
  -7.800  -0.0191   0.01177   0.00614  -0.1910  0.8217  0.0133  -4.4626   0.0000   0.0000   0.0000  -10.1014
  -7.700  -0.0066   0.01161   0.00593  -0.1914  0.8180  0.0134  -4.3641   0.0000   0.0000   0.0000  -29.8519
  -7.600   0.0059   0.01147   0.00573  -0.1918  0.8140  0.0134  -4.2661   0.0000   0.0000   0.0000  34.0255
  -7.500   0.0182   0.01135   0.00554  -0.1921  0.8098  0.0135  -4.1687   0.0000   0.0000   0.0000  11.1452
  -7.300   0.0428   0.01112   0.00520  -0.1928  0.8020  0.0136  -3.9752   0.0000   0.0000   0.0000   4.8882
  -7.200   0.0551   0.01100   0.00505  -0.1931  0.7984  0.0136  -3.8791   0.0000   0.0000   0.0000   3.8571
  -7.100   0.0674   0.01090   0.00490  -0.1934  0.7944  0.0137  -3.7836   0.0000   0.0000   0.0000   3.2047
  -7.000   0.0796   0.01081   0.00476  -0.1937  0.7903  0.0138  -3.6888   0.0000   0.0000   0.0000   2.7551
  -6.900   0.0916   0.01073   0.00461  -0.1939  0.7863  0.0138  -3.5926   0.0000   0.0000   0.0000   2.4265
  -6.800   0.1036   0.01067   0.00449  -0.1941  0.7820  0.0139  -3.5000   0.0000   0.0000   0.0000   2.1754
  -6.700   0.1158   0.01061   0.00438  -0.1944  0.7778  0.0140  -3.4130   0.0000   0.0000   0.0000   1.9750
  -6.600   0.1281   0.01052   0.00428  -0.1947  0.7752  0.0141  -3.3451   0.0000   0.0000   0.0000   1.8109
  -6.500   0.1403   0.01043   0.00418  -0.1949  0.7721  0.0142  -3.2772   0.0000   0.0000   0.0000   1.6761
  -6.400   0.1525   0.01036   0.00408  -0.1952  0.7686  0.0143  -3.2093   0.0000   0.0000   0.0000   1.5633
  -6.300   0.1646   0.01030   0.00399  -0.1954  0.7647  0.0144  -3.1413   0.0000   0.0000   0.0000   1.4677
  -6.200   0.1765   0.01025   0.00391  -0.1956  0.7606  0.0146  -3.0734   0.0000   0.0000   0.0000   1.3857
  -6.100   0.1884   0.01021   0.00384  -0.1957  0.7565  0.0147  -3.0054   0.0000   0.0000   0.0000   1.3147
  -5.900   0.2121   0.01015   0.00371  -0.1961  0.7489  0.0150  -2.8681   0.0000   0.0000   0.0000   1.1964
  -5.800   0.2241   0.01010   0.00366  -0.1963  0.7458  0.0151  -2.7978   0.0000   0.0000   0.0000   1.1461
  -5.700   0.2360   0.01007   0.00362  -0.1964  0.7424  0.0153  -2.7269   0.0000   0.0000   0.0000   1.1012
  -5.600   0.2478   0.01004   0.00358  -0.1966  0.7388  0.0155  -2.6553   0.0000   0.0000   0.0000   1.0609
  -5.500   0.2595   0.01003   0.00356  -0.1967  0.7352  0.0157  -2.5825   0.0000   0.0000   0.0000   1.0245
  -5.400   0.2710   0.01003   0.00355  -0.1967  0.7316  0.0159  -2.5086   0.0000   0.0000   0.0000   0.9915
  -5.300   0.2824   0.01004   0.00355  -0.1968  0.7281  0.0161  -2.4332   0.0000   0.0000   0.0000   0.9614
  -5.200   0.2937   0.01006   0.00358  -0.1968  0.7246  0.0163  -2.3561   0.0000   0.0000   0.0000   0.9339
  -5.100   0.3049   0.01010   0.00362  -0.1968  0.7213  0.0165  -2.2765   0.0000   0.0000   0.0000   0.9084
  -5.000   0.3162   0.01013   0.00370  -0.1968  0.7196  0.0167  -2.1933   0.0000   0.0000   0.0000   0.8847
  -4.700   0.3470   0.01050   0.00426  -0.1960  0.7130  0.0176  -1.9238   0.0000   0.0000   0.0000   0.8251
  -4.600   0.3614   0.01024   0.00393  -0.1969  0.7103  0.0182  -1.8911   0.0000   0.0000   0.0000   0.8044
  -4.500   0.3750   0.01006   0.00371  -0.1975  0.7073  0.0188  -1.8522   0.0000   0.0000   0.0000   0.7858
  -4.400   0.3881   0.00994   0.00355  -0.1980  0.7043  0.0194  -1.8091   0.0000   0.0000   0.0000   0.7688
  -4.300   0.4007   0.00986   0.00341  -0.1984  0.7012  0.0201  -1.7633   0.0000   0.0000   0.0000   0.7531
  -4.200   0.4131   0.00979   0.00332  -0.1987  0.6981  0.0205  -1.7149   0.0000   0.0000   0.0000   0.7386
  -4.100   0.4254   0.00974   0.00324  -0.1989  0.6949  0.0209  -1.6659   0.0000   0.0000   0.0000   0.7249
  -4.000   0.4376   0.00970   0.00317  -0.1992  0.6918  0.0213  -1.6166   0.0000   0.0000   0.0000   0.7120
  -3.900   0.4501   0.00963   0.00309  -0.1995  0.6897  0.0216  -1.5666   0.0000   0.0000   0.0000   0.6997
  -3.800   0.4626   0.00957   0.00302  -0.1998  0.6874  0.0220  -1.5168   0.0000   0.0000   0.0000   0.6880
  -3.700   0.4751   0.00952   0.00296  -0.2001  0.6849  0.0222  -1.4675   0.0000   0.0000   0.0000   0.6769
  -3.600   0.4875   0.00947   0.00289  -0.2004  0.6823  0.0225  -1.4187   0.0000   0.0000   0.0000   0.6664
  -3.500   0.4999   0.00942   0.00283  -0.2007  0.6796  0.0227  -1.3706   0.0000   0.0000   0.0000   0.6565
  -3.400   0.5122   0.00938   0.00277  -0.2009  0.6768  0.0231  -1.3217   0.0000   0.0000   0.0000   0.6471
  -3.300   0.5243   0.00934   0.00272  -0.2012  0.6739  0.0238  -1.2695   0.0000   0.0000   0.0000   0.6381
  -3.200   0.5364   0.00932   0.00269  -0.2014  0.6709  0.0245  -1.2162   0.0000   0.0000   0.0000   0.6296
  -3.100   0.5483   0.00930   0.00265  -0.2016  0.6678  0.0253  -1.1646   0.0000   0.0000   0.0000   0.6215
  -3.000   0.5602   0.00928   0.00261  -0.2017  0.6647  0.0258  -1.1155   0.0000   0.0000   0.0000   0.6138
  -2.900   0.5722   0.00927   0.00257  -0.2019  0.6615  0.0262  -1.0691   0.0000   0.0000   0.0000   0.6063
  -2.800   0.5847   0.00922   0.00251  -0.2022  0.6597  0.0265  -1.0245   0.0000   0.0000   0.0000   0.5990
  -2.700   0.5973   0.00917   0.00245  -0.2025  0.6579  0.0265  -0.9821   0.0000   0.0000   0.0000   0.5920
  -2.600   0.6099   0.00912   0.00238  -0.2028  0.6556  0.0265  -0.9412   0.0000   0.0000   0.0000   0.5852
  -2.500   0.6223   0.00908   0.00233  -0.2031  0.6529  0.0265  -0.9004   0.0000   0.0000   0.0000   0.5788
  -2.400   0.6346   0.00905   0.00227  -0.2033  0.6498  0.0265  -0.8901   0.0000   0.0000   0.0000   0.5726
  -2.300   0.6468   0.00903   0.00221  -0.2035  0.6463  0.0264  -0.8990   0.0000   0.0000   0.0000   0.5666
  -2.200   0.6588   0.00902   0.00217  -0.2037  0.6423  0.0265  -0.9077   0.0000   0.0000   0.0000   0.5609
  -2.100   0.6706   0.00902   0.00214  -0.2038  0.6381  0.0266  -0.9164   0.0000   0.0000   0.0000   0.5555
  -2.000   0.6822   0.00903   0.00212  -0.2039  0.6338  0.0267  -0.9250   0.0000   0.0000   0.0000   0.5502
  -1.900   0.6937   0.00905   0.00210  -0.2039  0.6295  0.0268  -0.9335   0.0000   0.0000   0.0000   0.5452
  -1.800   0.7057   0.00904   0.00207  -0.2041  0.6264  0.0269  -0.9423   0.0000   0.0000   0.0000   0.5402
  -1.700   0.7176   0.00904   0.00205  -0.2042  0.6230  0.0271  -0.9511   0.0000   0.0000   0.0000   0.5354
  -1.600   0.7294   0.00904   0.00204  -0.2044  0.6194  0.0274  -0.9608   0.0000   0.0000   0.0000   0.5308
  -1.500   0.7413   0.00904   0.00202  -0.2045  0.6158  0.0284  -0.9710   0.0000   0.0000   0.0000   0.5264
  -1.400   0.7531   0.00904   0.00200  -0.2046  0.6120  0.0308  -0.9813   0.0000   0.0000   0.0000   0.5220
  -1.300   0.7647   0.00906   0.00199  -0.2047  0.6081  0.0316  -0.9914   0.0000   0.0000   0.0000   0.5179
  -1.200   0.7761   0.00909   0.00199  -0.2048  0.6040  0.0322  -1.0015   0.0000   0.0000   0.0000   0.5138
  -1.100   0.7874   0.00912   0.00198  -0.2048  0.5999  0.0326  -1.0115   0.0000   0.0000   0.0000   0.5099
  -1.000   0.7991   0.00913   0.00198  -0.2049  0.5969  0.0331  -1.0217   0.0000   0.0000   0.0000   0.5060
  -0.900   0.8110   0.00913   0.00197  -0.2050  0.5946  0.0335  -1.0321   0.0000   0.0000   0.0000   0.5023
  -0.800   0.8229   0.00913   0.00197  -0.2052  0.5917  0.0338  -1.0425   0.0000   0.0000   0.0000   0.4987
  -0.700   0.8346   0.00914   0.00197  -0.2053  0.5879  0.0341  -1.0528   0.0000   0.0000   0.0000   0.4951
  -0.600   0.8462   0.00916   0.00198  -0.2054  0.5831  0.0344  -1.0631   0.0000   0.0000   0.0000   0.4917
  -0.500   0.8576   0.00919   0.00199  -0.2054  0.5774  0.0348  -1.0732   0.0000   0.0000   0.0000   0.4884
  -0.400   0.8686   0.00924   0.00200  -0.2054  0.5711  0.0351  -1.0832   0.0000   0.0000   0.0000   0.4851
  -0.300   0.8795   0.00930   0.00202  -0.2053  0.5651  0.0357  -1.0931   0.0000   0.0000   0.0000   0.4820
  -0.200   0.8910   0.00933   0.00203  -0.2054  0.5609  0.0362  -1.1033   0.0000   0.0000   0.0000   0.4789
  -0.100   0.9024   0.00936   0.00205  -0.2054  0.5565  0.0368  -1.1135   0.0000   0.0000   0.0000   0.4759
   0.000   0.9136   0.00940   0.00207  -0.2055  0.5515  0.0374  -1.1236   0.0000   0.0000   0.0000   0.4730
   0.100   0.9246   0.00946   0.00210  -0.2054  0.5457  0.0380  -1.1336   0.0000   0.0000   0.0000   0.4701
   0.200   0.9353   0.00954   0.00213  -0.2053  0.5391  0.0388  -1.1434   0.0000   0.0000   0.0000   0.4674
   0.300   0.9461   0.00961   0.00217  -0.2053  0.5326  0.0408  -1.1532   0.0000   0.0000   0.0000   0.4646
   0.400   0.9577   0.00963   0.00219  -0.2054  0.5278  0.0442  -1.1636   0.0000   0.0000   0.0000   0.4620
   0.500   0.9687   0.00968   0.00222  -0.2054  0.5174  0.0481  -1.1737   0.0000   0.0000   0.0000   0.4594
   0.600   0.9783   0.00984   0.00232  -0.2051  0.4999  0.0512  -1.1829   0.0000   0.0000   0.0000   0.4569
   0.700   0.9888   0.00995   0.00238  -0.2050  0.4879  0.0644  -1.1945   0.0000   0.0000   0.0000   0.4544
   0.800   0.9987   0.01009   0.00245  -0.2048  0.4760  0.0703  -1.2056   0.0000   0.0000   0.0000   0.4520
   0.900   1.0102   0.01014   0.00253  -0.2050  0.4672  0.1030  -1.2177   0.0000   0.0000   0.0000   0.4497
   1.000   1.0222   0.01014   0.00257  -0.2052  0.4627  0.1184  -1.2303   0.0000   0.0000   0.0000   0.4474
   1.100   1.0340   0.01015   0.00261  -0.2055  0.4545  0.1453  -1.2428   0.0000   0.0000   0.0000   0.4452
   1.200   1.0450   0.01024   0.00270  -0.2056  0.4394  0.1705  -1.2547   0.0000   0.0000   0.0000   0.4431
   1.300   1.0562   0.01031   0.00278  -0.2057  0.4295  0.2074  -1.2683   0.0000   0.0000   0.0000   0.4410
   1.400   1.0684   0.01033   0.00284  -0.2061  0.4225  0.2515  -1.2835   0.0000   0.0000   0.0000   0.4390
   1.500   1.0815   0.01029   0.00292  -0.2068  0.4158  0.3159  -1.2993   0.0000   0.0000   0.0000   0.4371
   1.600   1.0949   0.01024   0.00305  -0.2075  0.4087  0.4032  -1.3155   0.0000   0.0000   0.0000   0.4353
   1.700   1.1071   0.01026   0.00318  -0.2079  0.4024  0.4564  -1.3308   0.0000   0.0000   0.0000   0.4335
   1.800   1.1191   0.01026   0.00327  -0.2081  0.3996  0.4887  -1.3460   0.0000   0.0000   0.0000   0.4315
   1.900   1.1302   0.01031   0.00334  -0.2081  0.3954  0.5036  -1.3606   0.0000   0.0000   0.0000   0.4295
   2.000   1.1410   0.01039   0.00342  -0.2081  0.3876  0.5119  -1.3750   0.0000   0.0000   0.0000   0.4276
   2.100   1.1505   0.01057   0.00354  -0.2078  0.3737  0.5170  -1.3884   0.0000   0.0000   0.0000   0.4257
   2.200   1.1604   0.01071   0.00367  -0.2076  0.3657  0.5243  -1.4021   0.0000   0.0000   0.0000   0.4239
   2.300   1.1706   0.01083   0.00376  -0.2075  0.3590  0.5284  -1.4160   0.0000   0.0000   0.0000   0.4221
   2.400   1.1806   0.01096   0.00384  -0.2073  0.3524  0.5318  -1.4306   0.0000   0.0000   0.0000   0.4202
   2.500   1.1905   0.01110   0.00394  -0.2071  0.3454  0.5362  -1.4473   0.0000   0.0000   0.0000   0.4185
   2.600   1.2009   0.01120   0.00404  -0.2070  0.3392  0.5420  -1.4644   0.0000   0.0000   0.0000   0.4167
   2.700   1.2119   0.01125   0.00411  -0.2069  0.3365  0.5480  -1.4822   0.0000   0.0000   0.0000   0.4150
   2.800   1.2226   0.01132   0.00418  -0.2069  0.3323  0.5540  -1.4998   0.0000   0.0000   0.0000   0.4133
   3.000   1.2409   0.01171   0.00444  -0.2062  0.3061  0.5647  -1.5382   0.0000   0.0000   0.0000   0.4100
   3.100   1.2505   0.01186   0.00457  -0.2060  0.2980  0.5731  -1.5587   0.0000   0.0000   0.0000   0.4084
   3.200   1.2600   0.01202   0.00470  -0.2057  0.2904  0.5821  -1.5791   0.0000   0.0000   0.0000   0.4068
   3.300   1.2693   0.01219   0.00484  -0.2054  0.2825  0.5905  -1.5994   0.0000   0.0000   0.0000   0.4052
   3.400   1.2794   0.01230   0.00493  -0.2052  0.2777  0.5971  -1.6206   0.0000   0.0000   0.0000   0.4036
   3.500   1.2900   0.01237   0.00503  -0.2051  0.2741  0.6058  -1.6424   0.0000   0.0000   0.0000   0.4021
   3.600   1.3000   0.01248   0.00514  -0.2049  0.2666  0.6134  -1.6636   0.0000   0.0000   0.0000   0.4006
   3.700   1.3076   0.01277   0.00534  -0.2043  0.2486  0.6194  -1.6824   0.0000   0.0000   0.0000   0.3991
   3.800   1.3166   0.01295   0.00548  -0.2040  0.2423  0.6243  -1.7127   0.0000   0.0000   0.0000   0.3976
   3.900   1.3256   0.01314   0.00565  -0.2036  0.2359  0.6276  -1.7430   0.0000   0.0000   0.0000   0.3961
   4.000   1.3345   0.01332   0.00578  -0.2032  0.2292  0.6312  -1.7736   0.0000   0.0000   0.0000   0.3947
   4.100   1.3441   0.01345   0.00590  -0.2030  0.2228  0.6365  -1.8052   0.0000   0.0000   0.0000   0.3932
   4.200   1.3544   0.01353   0.00600  -0.2028  0.2204  0.6410  -1.8381   0.0000   0.0000   0.0000   0.3918
   4.300   1.3645   0.01361   0.00610  -0.2027  0.2173  0.6450  -1.8710   0.0000   0.0000   0.0000   0.3904
   4.400   1.3740   0.01374   0.00622  -0.2024  0.2108  0.6488  -1.9031   0.0000   0.0000   0.0000   0.3891
   4.500   1.3811   0.01405   0.00644  -0.2017  0.1947  0.6523  -1.9313   0.0000   0.0000   0.0000   0.3877
   4.600   1.3898   0.01423   0.00659  -0.2013  0.1898  0.6555  -1.9623   0.0000   0.0000   0.0000   0.3863
   4.700   1.3983   0.01442   0.00674  -0.2009  0.1847  0.6583  -1.9931   0.0000   0.0000   0.0000   0.3850
   4.800   1.4068   0.01461   0.00689  -0.2004  0.1796  0.6607  -2.0240   0.0000   0.0000   0.0000   0.3836
   4.900   1.4157   0.01477   0.00703  -0.2001  0.1741  0.6645  -2.0557   0.0000   0.0000   0.0000   0.3823
   5.000   1.4252   0.01489   0.00715  -0.1998  0.1699  0.6683  -2.0884   0.0000   0.0000   0.0000   0.3811
   5.100   1.4348   0.01499   0.00726  -0.1995  0.1668  0.6719  -2.1215   0.0000   0.0000   0.0000   0.3798
   5.200   1.4427   0.01521   0.00746  -0.1990  0.1544  0.6754  -2.1520   0.0000   0.0000   0.0000   0.3785
   5.300   1.4475   0.01563   0.00777  -0.1979  0.1404  0.6788  -2.1772   0.0000   0.0000   0.0000   0.3772
   5.400   1.4536   0.01595   0.00801  -0.1971  0.1314  0.6823  -2.2048   0.0000   0.0000   0.0000   0.3759
   5.500   1.4614   0.01616   0.00820  -0.1965  0.1236  0.6858  -2.2353   0.0000   0.0000   0.0000   0.3746
   5.600   1.4699   0.01632   0.00834  -0.1961  0.1188  0.6890  -2.2673   0.0000   0.0000   0.0000   0.3734
   5.700   1.4746   0.01672   0.00866  -0.1950  0.1019  0.6916  -2.2928   0.0000   0.0000   0.0000   0.3721
   5.800   1.4802   0.01704   0.00892  -0.1941  0.0966  0.6961  -2.3198   0.0000   0.0000   0.0000   0.3708
   5.900   1.4865   0.01731   0.00915  -0.1933  0.0905  0.7005  -2.3482   0.0000   0.0000   0.0000   0.3695
   6.000   1.4940   0.01750   0.00935  -0.1927  0.0854  0.7050  -2.3785   0.0000   0.0000   0.0000   0.3683
   6.100   1.5019   0.01763   0.00950  -0.1921  0.0838  0.7097  -2.4100   0.0000   0.0000   0.0000   0.3671
   6.200   1.5088   0.01778   0.00970  -0.1914  0.0817  0.7143  -2.4403   0.0000   0.0000   0.0000   0.3658
   6.300   1.5153   0.01793   0.00986  -0.1905  0.0795  0.7188  -2.4697   0.0000   0.0000   0.0000   0.3646
   6.500   1.5263   0.01841   0.01033  -0.1886  0.0667  0.7290  -2.5257   0.0000   0.0000   0.0000   0.3621
   6.600   1.5324   0.01863   0.01055  -0.1877  0.0653  0.7349  -2.5548   0.0000   0.0000   0.0000   0.3609
   6.700   1.5384   0.01887   0.01077  -0.1869  0.0638  0.7410  -2.5837   0.0000   0.0000   0.0000   0.3597
   6.800   1.5440   0.01913   0.01102  -0.1860  0.0621  0.7469  -2.6120   0.0000   0.0000   0.0000   0.3585
   6.900   1.5497   0.01939   0.01126  -0.1851  0.0601  0.7528  -2.6403   0.0000   0.0000   0.0000   0.3573
   7.000   1.5557   0.01963   0.01152  -0.1843  0.0579  0.7597  -2.6691   0.0000   0.0000   0.0000   0.3562
   7.100   1.5621   0.01985   0.01176  -0.1835  0.0560  0.7670  -2.6984   0.0000   0.0000   0.0000   0.3550
   7.200   1.5687   0.02006   0.01199  -0.1828  0.0544  0.7743  -2.7281   0.0000   0.0000   0.0000   0.3539
   7.300   1.5754   0.02027   0.01222  -0.1821  0.0530  0.7816  -2.7581   0.0000   0.0000   0.0000   0.3528
   7.400   1.5820   0.02047   0.01244  -0.1814  0.0518  0.7901  -2.7881   0.0000   0.0000   0.0000   0.3517
   7.500   1.5889   0.02066   0.01267  -0.1807  0.0515  0.7989  -2.8218   0.0000   0.0000   0.0000   0.3506
   7.600   1.5957   0.02086   0.01290  -0.1800  0.0512  0.8077  -2.8553   0.0000   0.0000   0.0000   0.3495
   7.700   1.6023   0.02105   0.01314  -0.1794  0.0508  0.8182  -2.8884   0.0000   0.0000   0.0000   0.3485
   7.800   1.6089   0.02126   0.01338  -0.1787  0.0503  0.8294  -2.9213   0.0000   0.0000   0.0000   0.3474
   7.900   1.6150   0.02146   0.01363  -0.1779  0.0497  0.8428  -2.9534   0.0000   0.0000   0.0000   0.3463
   8.000   1.6209   0.02167   0.01389  -0.1771  0.0490  0.8595  -2.9850   0.0000   0.0000   0.0000   0.3453
   8.100   1.6260   0.02186   0.01415  -0.1761  0.0483  0.8865  -3.0151   0.0000   0.0000   0.0000   0.3442
   8.200   1.6260   0.02197   0.01434  -0.1742  0.0477  1.0005  -3.0356   0.0000   0.0000   0.0000   0.3428
   8.300   1.6319   0.02227   0.01464  -0.1734  0.0467  1.0005  -3.0677   0.0000   0.0000   0.0000   0.3418
   8.400   1.6375   0.02259   0.01496  -0.1727  0.0456  1.0005  -3.0994   0.0000   0.0000   0.0000   0.3408
   8.500   1.6428   0.02293   0.01531  -0.1719  0.0444  1.0005  -3.1309   0.0000   0.0000   0.0000   0.3398
   8.600   1.6476   0.02331   0.01568  -0.1711  0.0430  1.0005  -3.1617   0.0000   0.0000   0.0000   0.3388
   8.700   1.6520   0.02371   0.01608  -0.1702  0.0415  1.0005  -3.1918   0.0000   0.0000   0.0000   0.3378
   8.800   1.6599   0.02389   0.01633  -0.1698  0.0429  1.0005  -3.2240   0.0000   0.0000   0.0000   0.3369
   8.900   1.6650   0.02424   0.01669  -0.1691  0.0422  1.0005  -3.2545   0.0000   0.0000   0.0000   0.3360
   9.000   1.6694   0.02465   0.01709  -0.1682  0.0410  1.0005  -3.2842   0.0000   0.0000   0.0000   0.3350
   9.100   1.6738   0.02507   0.01751  -0.1674  0.0396  1.0005  -3.3137   0.0000   0.0000   0.0000   0.3341
   9.200   1.6785   0.02547   0.01791  -0.1667  0.0383  1.0005  -3.3438   0.0000   0.0000   0.0000   0.3332
   9.300   1.6842   0.02581   0.01826  -0.1660  0.0378  1.0005  -3.3790   0.0000   0.0000   0.0000   0.3323
   9.400   1.6895   0.02618   0.01863  -0.1654  0.0370  1.0005  -3.4138   0.0000   0.0000   0.0000   0.3314
   9.500   1.6944   0.02658   0.01904  -0.1647  0.0357  1.0005  -3.4486   0.0000   0.0000   0.0000   0.3305
   9.600   1.6984   0.02706   0.01950  -0.1639  0.0328  1.0005  -3.4841   0.0000   0.0000   0.0000   0.3296
   9.700   1.6961   0.02802   0.02039  -0.1624  0.0255  1.0005  -3.5171   0.0000   0.0000   0.0000   0.3287
   9.800   1.6952   0.02890   0.02120  -0.1612  0.0207  1.0005  -3.5237   0.0000   0.0000   0.0000   0.3278
   9.900   1.6970   0.02959   0.02187  -0.1602  0.0164  1.0005  -3.5275   0.0000   0.0000   0.0000   0.3269
  10.100   1.6911   0.03178   0.02406  -0.1574  0.0044  1.0005  -3.5603   0.0000   0.0000   0.0000   0.3252
  10.200   1.6935   0.03246   0.02476  -0.1566  0.0041  1.0005  -3.5947   0.0000   0.0000   0.0000   0.3244
  10.300   1.6960   0.03313   0.02544  -0.1558  0.0038  1.0005  -3.6351   0.0000   0.0000   0.0000   0.3236
  10.400   1.6993   0.03374   0.02607  -0.1551  0.0035  1.0005  -3.6728   0.0000   0.0000   0.0000   0.3228
  10.500   1.7028   0.03432   0.02667  -0.1544  0.0033  1.0005  -3.7045   0.0000   0.0000   0.0000   0.3220
  10.600   1.7060   0.03493   0.02731  -0.1537  0.0031  1.0005  -3.7342   0.0000   0.0000   0.0000   0.3213
  10.700   1.7090   0.03558   0.02798  -0.1531  0.0030  1.0005  -3.7643   0.0000   0.0000   0.0000   0.3205
  10.800   1.7121   0.03621   0.02864  -0.1524  0.0029  1.0005  -3.7957   0.0000   0.0000   0.0000   0.3198
  10.900   1.7155   0.03684   0.02930  -0.1518  0.0028  1.0005  -3.8283   0.0000   0.0000   0.0000   0.3190
  11.000   1.7188   0.03748   0.02996  -0.1512  0.0027  1.0005  -3.8612   0.0000   0.0000   0.0000   0.3183
  11.100   1.7217   0.03816   0.03067  -0.1506  0.0027  1.0005  -3.8935   0.0000   0.0000   0.0000   0.3176
  11.200   1.7245   0.03886   0.03140  -0.1500  0.0027  1.0005  -3.9258   0.0000   0.0000   0.0000   0.3169
  11.300   1.7275   0.03954   0.03211  -0.1494  0.0026  1.0005  -3.9588   0.0000   0.0000   0.0000   0.3162
  11.400   1.7306   0.04022   0.03282  -0.1488  0.0026  1.0005  -3.9923   0.0000   0.0000   0.0000   0.3155
  11.500   1.7337   0.04090   0.03353  -0.1482  0.0026  1.0005  -4.0258   0.0000   0.0000   0.0000   0.3148
  11.600   1.7364   0.04163   0.03430  -0.1476  0.0026  1.0005  -4.0584   0.0000   0.0000   0.0000   0.3141
  11.700   1.7387   0.04242   0.03514  -0.1471  0.0025  1.0005  -4.0890   0.0000   0.0000   0.0000   0.3134
  11.800   1.7411   0.04319   0.03595  -0.1465  0.0025  1.0005  -4.1209   0.0000   0.0000   0.0000   0.3128
  11.900   1.7437   0.04395   0.03674  -0.1460  0.0025  1.0005  -4.1533   0.0000   0.0000   0.0000   0.3121
  12.000   1.7463   0.04472   0.03754  -0.1454  0.0025  1.0005  -4.1857   0.0000   0.0000   0.0000   0.3115
  12.100   1.7486   0.04551   0.03837  -0.1449  0.0025  1.0005  -4.2175   0.0000   0.0000   0.0000   0.3109
  12.200   1.7503   0.04639   0.03929  -0.1444  0.0025  1.0005  -4.2530   0.0000   0.0000   0.0000   0.3103
  12.300   1.7521   0.04727   0.04020  -0.1439  0.0025  1.0005  -4.3105   0.0000   0.0000   0.0000   0.3097
  12.400   1.7540   0.04813   0.04109  -0.1433  0.0025  1.0005  -4.3692   0.0000   0.0000   0.0000   0.3091
  12.500   1.7560   0.04897   0.04197  -0.1428  0.0025  1.0005  -4.4286   0.0000   0.0000   0.0000   0.3085
  12.600   1.7581   0.04982   0.04286  -0.1423  0.0025  1.0005  -4.4882   0.0000   0.0000   0.0000   0.3079
  12.700   1.7599   0.05070   0.04378  -0.1419  0.0025  1.0005  -4.5470   0.0000   0.0000   0.0000   0.3073
  12.800   1.7608   0.05170   0.04481  -0.1414  0.0025  1.0005  -4.6017   0.0000   0.0000   0.0000   0.3067
  12.900   1.7618   0.05270   0.04585  -0.1409  0.0025  1.0005  -4.6564   0.0000   0.0000   0.0000   0.3062
  13.000   1.7629   0.05367   0.04686  -0.1405  0.0025  1.0005  -4.7123   0.0000   0.0000   0.0000   0.3057
  13.100   1.7640   0.05463   0.04786  -0.1400  0.0026  1.0005  -4.7684   0.0000   0.0000   0.0000   0.3051
  13.200   1.7651   0.05559   0.04885  -0.1395  0.0026  1.0005  -4.8244   0.0000   0.0000   0.0000   0.3046
  13.300   1.7655   0.05665   0.04996  -0.1391  0.0026  1.0005  -4.8768   0.0000   0.0000   0.0000   0.3041
  13.400   1.7654   0.05780   0.05115  -0.1386  0.0026  1.0005  -4.9268   0.0000   0.0000   0.0000   0.3036
  13.500   1.7658   0.05890   0.05229  -0.1382  0.0026  1.0005  -4.9791   0.0000   0.0000   0.0000   0.3031
  13.600   1.7664   0.05997   0.05340  -0.1378  0.0026  1.0005  -5.0329   0.0000   0.0000   0.0000   0.3026
  13.700   1.7672   0.06104   0.05451  -0.1374  0.0026  1.0005  -5.0873   0.0000   0.0000   0.0000   0.3022
  13.800   1.7678   0.06212   0.05563  -0.1371  0.0026  1.0005  -5.1414   0.0000   0.0000   0.0000   0.3017
  13.900   1.7680   0.06328   0.05683  -0.1367  0.0027  1.0005  -5.1928   0.0000   0.0000   0.0000   0.3012
  14.000   1.7674   0.06459   0.05819  -0.1364  0.0027  1.0005  -5.2394   0.0000   0.0000   0.0000   0.3009
  14.100   1.7670   0.06585   0.05949  -0.1361  0.0027  1.0005  -5.2874   0.0000   0.0000   0.0000   0.3005
  14.200   1.7669   0.06707   0.06075  -0.1358  0.0027  1.0005  -5.3372   0.0000   0.0000   0.0000   0.3001
  14.300   1.7671   0.06827   0.06199  -0.1355  0.0027  1.0005  -5.3880   0.0000   0.0000   0.0000   0.2996
  14.400   1.7672   0.06948   0.06324  -0.1352  0.0027  1.0005  -5.4383   0.0000   0.0000   0.0000   0.2992
  14.500   1.7662   0.07086   0.06467  -0.1350  0.0028  1.0005  -5.4823   0.0000   0.0000   0.0000   0.2989
  14.600   1.7649   0.07230   0.06616  -0.1348  0.0028  1.0005  -5.5245   0.0000   0.0000   0.0000   0.2986
  14.700   1.7642   0.07365   0.06754  -0.1346  0.0028  1.0005  -5.5700   0.0000   0.0000   0.0000   0.2983
  14.800   1.7639   0.07495   0.06888  -0.1344  0.0028  1.0005  -5.6167   0.0000   0.0000   0.0000   0.2979
  14.900   1.7636   0.07624   0.07021  -0.1342  0.0028  1.0005  -5.6634   0.0000   0.0000   0.0000   0.2976
  15.000   1.7632   0.07754   0.07155  -0.1340  0.0029  1.0005  -5.7096   0.0000   0.0000   0.0000   0.2973
  15.100   1.7621   0.07897   0.07302  -0.1338  0.0029  1.0005  -5.7513   0.0000   0.0000   0.0000   0.2970
  15.200   1.7601   0.08057   0.07467  -0.1338  0.0029  1.0005  -5.7870   0.0000   0.0000   0.0000   0.2968
  15.300   1.7587   0.08206   0.07622  -0.1337  0.0029  1.0005  -5.8289   0.0000   0.0000   0.0000   0.2966
  15.400   1.7577   0.08349   0.07768  -0.1336  0.0030  1.0005  -5.8709   0.0000   0.0000   0.0000   0.2963
  15.500   1.7567   0.08491   0.07915  -0.1335  0.0030  1.0005  -5.9124   0.0000   0.0000   0.0000   0.2960
  15.600   1.7554   0.08639   0.08067  -0.1334  0.0030  1.0005  -5.9516   0.0000   0.0000   0.0000   0.2958
  15.700   1.7525   0.08815   0.08248  -0.1335  0.0030  1.0005  -5.9814   0.0000   0.0000   0.0000   0.2957
  15.800   1.7501   0.08981   0.08418  -0.1335  0.0031  1.0005  -6.0144   0.0000   0.0000   0.0000   0.2956
  15.900   1.7485   0.09136   0.08576  -0.1335  0.0031  1.0005  -6.0512   0.0000   0.0000   0.0000   0.2954
  16.000   1.7471   0.09287   0.08732  -0.1335  0.0031  1.0005  -6.0886   0.0000   0.0000   0.0000   0.2952
  16.100   1.7454   0.09438   0.08887  -0.1336  0.0032  1.0005  -6.1248   0.0000   0.0000   0.0000   0.2951
  16.200   1.7432   0.09596   0.09049  -0.1336  0.0032  1.0005  -6.1580   0.0000   0.0000   0.0000   0.2949
  16.300   1.7395   0.09784   0.09242  -0.1338  0.0032  1.0005  -6.1819   0.0000   0.0000   0.0000   0.2950
  16.400   1.7365   0.09962   0.09424  -0.1339  0.0032  1.0005  -6.2094   0.0000   0.0000   0.0000   0.2949
  16.500   1.7341   0.10128   0.09595  -0.1341  0.0033  1.0005  -6.2403   0.0000   0.0000   0.0000   0.2949
  16.600   1.7319   0.10293   0.09764  -0.1342  0.0033  1.0005  -6.2719   0.0000   0.0000   0.0000   0.2948
  16.700   1.7295   0.10462   0.09938  -0.1344  0.0033  1.0005  -6.3023   0.0000   0.0000   0.0000   0.2947
  16.800   1.7254   0.10666   0.10147  -0.1347  0.0034  1.0005  -6.3218   0.0000   0.0000   0.0000   0.2949
  16.900   1.7222   0.10854   0.10340  -0.1350  0.0034  1.0005  -6.3463   0.0000   0.0000   0.0000   0.2950
  17.000   1.7197   0.11028   0.10518  -0.1353  0.0034  1.0005  -6.3750   0.0000   0.0000   0.0000   0.2950
  17.100   1.7174   0.11198   0.10694  -0.1356  0.0035  1.0005  -6.4047   0.0000   0.0000   0.0000   0.2950
  17.200   1.7152   0.11369   0.10869  -0.1359  0.0035  1.0005  -6.4347   0.0000   0.0000   0.0000   0.2950
  17.300   1.7126   0.11550   0.11055  -0.1362  0.0035  1.0005  -6.4610   0.0000   0.0000   0.0000   0.2951
  17.400   1.7080   0.11768   0.11278  -0.1368  0.0036  1.0005  -6.4753   0.0000   0.0000   0.0000   0.2953
  17.500   1.7045   0.11965   0.11480  -0.1373  0.0036  1.0005  -6.4958   0.0000   0.0000   0.0000   0.2955
  17.600   1.7019   0.12148   0.11668  -0.1377  0.0036  1.0005  -6.5207   0.0000   0.0000   0.0000   0.2956
  17.700   1.6994   0.12328   0.11853  -0.1381  0.0037  1.0005  -6.5467   0.0000   0.0000   0.0000   0.2958
  17.800   1.6962   0.12523   0.12054  -0.1387  0.0037  1.0005  -6.5672   0.0000   0.0000   0.0000   0.2960
  17.900   1.6915   0.12748   0.12284  -0.1394  0.0037  1.0005  -6.5776   0.0000   0.0000   0.0000   0.2964
  18.000   1.6883   0.12944   0.12486  -0.1400  0.0038  1.0005  -6.5966   0.0000   0.0000   0.0000   0.2966
  18.100   1.6858   0.13128   0.12675  -0.1405  0.0038  1.0005  -6.6199   0.0000   0.0000   0.0000   0.2968
  18.200   1.6833   0.13310   0.12862  -0.1411  0.0039  1.0005  -6.6432   0.0000   0.0000   0.0000   0.2970
  18.300   1.6808   0.13495   0.13053  -0.1417  0.0039  1.0005  -6.6648   0.0000   0.0000   0.0000   0.2972
  18.400   1.6772   0.13700   0.13264  -0.1424  0.0039  1.0005  -6.6792   0.0000   0.0000   0.0000   0.2976
  18.500   1.6721   0.13936   0.13505  -0.1433  0.0040  1.0005  -6.6832   0.0000   0.0000   0.0000   0.2981
  18.600   1.6687   0.14142   0.13717  -0.1441  0.0040  1.0005  -6.6966   0.0000   0.0000   0.0000   0.2985
  18.700   1.6656   0.14340   0.13920  -0.1448  0.0040  1.0005  -6.7119   0.0000   0.0000   0.0000   0.2988
  18.800   1.6625   0.14538   0.14124  -0.1456  0.0041  1.0005  -6.7262   0.0000   0.0000   0.0000   0.2992
  18.900   1.6579   0.14768   0.14360  -0.1466  0.0041  1.0005  -6.7296   0.0000   0.0000   0.0000   0.2998
  19.000   1.6533   0.15002   0.14599  -0.1476  0.0041  1.0005  -6.7315   0.0000   0.0000   0.0000   0.3004
  19.100   1.6500   0.15208   0.14811  -0.1485  0.0042  1.0005  -6.7412   0.0000   0.0000   0.0000   0.3009
  19.200   1.6469   0.15408   0.15016  -0.1493  0.0042  1.0005  -6.7516   0.0000   0.0000   0.0000   0.3013
  19.300   1.6438   0.15609   0.15224  -0.1502  0.0043  1.0005  -6.7600   0.0000   0.0000   0.0000   0.3017
  19.400   1.6404   0.15817   0.15438  -0.1512  0.0043  1.0005  -6.7646   0.0000   0.0000   0.0000   0.3022
  19.500   1.6357   0.16055   0.15682  -0.1523  0.0043  1.0005  -6.7594   0.0000   0.0000   0.0000   0.3029
  19.600   1.6304   0.16309   0.15942  -0.1536  0.0044  1.0005  -6.7484   0.0000   0.0000   0.0000   0.3038
  19.700   1.6259   0.16543   0.16182  -0.1548  0.0044  1.0005  -6.7399   0.0000   0.0000   0.0000   0.3045
  19.800   1.6214   0.16769   0.16415  -0.1560  0.0044  1.0005  -6.7260   0.0000   0.0000   0.0000   0.3053
  19.900   1.6154   0.17018   0.16672  -0.1575  0.0045  1.0005  -6.6899   0.0000   0.0000   0.0000   0.3063
  20.000   1.6063   0.17333   0.16997  -0.1594  0.0047  1.0005  -6.6099   0.0000   0.0000   0.0000   0.3078
  20.100   1.6053   0.17497   0.17164  -0.1604  0.0047  1.0005  -6.6389   0.0000   0.0000   0.0000   0.3082
  20.200   1.6047   0.17651   0.17321  -0.1613  0.0048  1.0005  -6.6717   0.0000   0.0000   0.0000   0.3086
  20.300   1.6042   0.17804   0.17477  -0.1622  0.0048  1.0005  -6.7053   0.0000   0.0000   0.0000   0.3089
  20.400   1.6037   0.17959   0.17634  -0.1632  0.0049  1.0005  -6.7381   0.0000   0.0000   0.0000   0.3092
  20.500   1.6031   0.18117   0.17796  -0.1641  0.0050  1.0005  -6.7698   0.0000   0.0000   0.0000   0.3096
  20.600   1.6023   0.18281   0.17963  -0.1651  0.0050  1.0005  -6.7996   0.0000   0.0000   0.0000   0.3100
  20.700   1.6003   0.18475   0.18161  -0.1663  0.0051  1.0005  -6.8171   0.0000   0.0000   0.0000   0.3106
  20.800   1.5973   0.18696   0.18385  -0.1676  0.0051  1.0005  -6.8241   0.0000   0.0000   0.0000   0.3114
  20.900   1.5955   0.18890   0.18583  -0.1688  0.0052  1.0005  -6.8420   0.0000   0.0000   0.0000   0.3119
  21.000   1.5940   0.19076   0.18773  -0.1699  0.0053  1.0005  -6.8630   0.0000   0.0000   0.0000   0.3125
  21.100   1.5928   0.19259   0.18960  -0.1710  0.0053  1.0005  -6.8855   0.0000   0.0000   0.0000   0.3130
  21.200   1.5914   0.19448   0.19152  -0.1722  0.0054  1.0005  -6.9060   0.0000   0.0000   0.0000   0.3135
  21.300   1.5881   0.19688   0.19397  -0.1736  0.0055  1.0005  -6.9059   0.0000   0.0000   0.0000   0.3144
  21.400   1.5856   0.19909   0.19622  -0.1750  0.0056  1.0005  -6.9132   0.0000   0.0000   0.0000   0.3152
  21.500   1.5840   0.20108   0.19824  -0.1762  0.0056  1.0005  -6.9290   0.0000   0.0000   0.0000   0.3158
  21.600   1.5826   0.20301   0.20021  -0.1773  0.0058  1.0005  -6.9465   0.0000   0.0000   0.0000   0.3163
  21.700   1.5814   0.20494   0.20218  -0.1785  0.0059  1.0005  -6.9636   0.0000   0.0000   0.0000   0.3169
  21.800   1.5801   0.20689   0.20417  -0.1796  0.0060  1.0005  -6.9790   0.0000   0.0000   0.0000   0.3174
  21.900   1.5787   0.20890   0.20623  -0.1808  0.0061  1.0005  -6.9904   0.0000   0.0000   0.0000   0.3180
  22.000   1.5770   0.21098   0.20836  -0.1820  0.0063  1.0005  -6.9970   0.0000   0.0000   0.0000   0.3186
  22.100   1.5748   0.21327   0.21071  -0.1834  0.0065  1.0005  -6.9921   0.0000   0.0000   0.0000   0.3193
  22.200   1.5832   0.21269   0.21027  -0.1825  0.0079  1.0005  -7.0118   0.0000   0.0000   0.0000   0.3177
  22.300   1.5830   0.21433   0.21200  -0.1833  0.0085  1.0005  -6.9853   0.0000   0.0000   0.0000   0.3179
  22.400   1.5794   0.21695   0.21470  -0.1848  0.0089  1.0005  -6.9469   0.0000   0.0000   0.0000   0.3188
  22.500   1.5737   0.22025   0.21807  -0.1867  0.0090  1.0005  -6.8985   0.0000   0.0000   0.0000   0.3203
  22.600   1.5679   0.22362   0.22151  -0.1887  0.0091  1.0005  -6.8479   0.0000   0.0000   0.0000   0.3218
  22.700   1.5623   0.22699   0.22495  -0.1907  0.0092  1.0005  -6.7954   0.0000   0.0000   0.0000   0.3233
  22.800   1.5563   0.23053   0.22856  -0.1928  0.0093  1.0005  -6.7385   0.0000   0.0000   0.0000   0.3249
  22.900   1.5492   0.23457   0.23266  -0.1952  0.0094  1.0005  -6.6742   0.0000   0.0000   0.0000   0.3268
  23.000   1.5424   0.23857   0.23673  -0.1975  0.0094  1.0005  -6.6079   0.0000   0.0000   0.0000   0.3287
  23.100   1.5357   0.24258   0.24080  -0.1998  0.0095  1.0005  -6.5387   0.0000   0.0000   0.0000   0.3306
  23.200   1.5288   0.24679   0.24507  -0.2022  0.0095  1.0005  -6.4642   0.0000   0.0000   0.0000   0.3326
  23.300   1.5213   0.25136   0.24971  -0.2048  0.0095  1.0005  -6.3845   0.0000   0.0000   0.0000   0.3348
  23.400   1.5135   0.25617   0.25458  -0.2075  0.0095  1.0005  -6.3004   0.0000   0.0000   0.0000   0.3371
  23.500   1.5058   0.26104   0.25950  -0.2102  0.0095  1.0005  -6.2109   0.0000   0.0000   0.0000   0.3395
  23.600   1.4975   0.26636   0.26487  -0.2130  0.0094  1.0005  -6.1136   0.0000   0.0000   0.0000   0.3421
  23.700   1.4895   0.27161   0.27018  -0.2158  0.0094  1.0005  -6.0105   0.0000   0.0000   0.0000   0.3446
  23.800   1.4811   0.27721   0.27583  -0.2186  0.0094  1.0005  -5.8962   0.0000   0.0000   0.0000   0.3473
  23.900   1.4714   0.28359   0.28225  -0.2218  0.0092  1.0005  -5.7655   0.0000   0.0000   0.0000   0.3505
  24.000   1.4606   0.29073   0.28944  -0.2251  0.0090  1.0005  -5.6063   0.0000   0.0000   0.0000   0.3540
  24.100   1.4490   0.29846   0.29722  -0.2286  0.0089  1.0005  -5.4183   0.0000   0.0000   0.0000   0.3577
  24.200   1.4338   0.30844   0.30724  -0.2328  0.0086  1.0005  -5.1455   0.0000   0.0000   0.0000   0.3626


