xflr5 v6.61

 Calculated polar for: WORTMANN FX 60-126 AIRFOIL

 1 1 Reynolds number fixed          Mach number fixed         

 xtrf =   1.000 (top)        1.000 (bottom)
 Mach =   0.000     Re =     0.500 e 6     Ncrit =   9.000

  alpha     CL        CD       CDp       Cm    Top Xtr Bot Xtr   Cpmin    Chinge    XCp    
 ------- -------- --------- --------- -------- ------- ------- -------- --------- ---------
 -10.000  -0.4155   0.08110   0.07887  -0.0490  1.0000  0.0287  -2.6036   0.0000   0.0000   0.0000   0.1183
  -9.900  -0.4158   0.07949   0.07727  -0.0498  1.0000  0.0289  -2.6104   0.0000   0.0000   0.0000   0.1167
  -9.800  -0.4169   0.07769   0.07548  -0.0506  1.0000  0.0290  -2.6258   0.0000   0.0000   0.0000   0.1150
  -9.700  -0.4190   0.07562   0.07343  -0.0517  1.0000  0.0292  -2.6538   0.0000   0.0000   0.0000   0.1132
  -9.600  -0.4235   0.07290   0.07072  -0.0532  1.0000  0.0294  -2.7103   0.0000   0.0000   0.0000   0.1111
  -9.500  -0.4377   0.06770   0.06553  -0.0567  1.0000  0.0295  -2.8737   0.0000   0.0000   0.0000   0.1074
  -9.400  -0.4621   0.06200   0.05979  -0.0610  1.0000  0.0294  -3.0883   0.0000   0.0000   0.0000   0.1053
  -9.300  -0.4911   0.05870   0.05648  -0.0622  1.0000  0.0292  -3.2608   0.0000   0.0000   0.0000   0.1115
  -9.200  -0.5095   0.05505   0.05276  -0.0667  0.9970  0.0291  -3.3973   0.0000   0.0000   0.0000   0.1076
  -9.100  -0.5040   0.05125   0.04888  -0.0747  0.9924  0.0292  -3.4286   0.0000   0.0000   0.0000   0.0904
  -9.000  -0.4940   0.04787   0.04541  -0.0827  0.9892  0.0295  -3.4311   0.0000   0.0000   0.0000   0.0713
  -8.900  -0.4839   0.04536   0.04280  -0.0884  0.9861  0.0298  -3.4135   0.0000   0.0000   0.0000   0.0560
  -8.700  -0.4763   0.02984   0.02590  -0.1048  0.9770  0.0180  -4.2418   0.0000   0.0000   0.0000   0.0183
  -8.600  -0.4644   0.02850   0.02457  -0.1053  0.9760  0.0160  -4.2426   0.0000   0.0000   0.0000   0.0114
  -8.500  -0.4533   0.02611   0.02195  -0.1076  0.9745  0.0154  -4.2788   0.0000   0.0000   0.0000   0.0006
  -8.400  -0.4411   0.02433   0.01998  -0.1093  0.9733  0.0149  -4.2862   0.0000   0.0000   0.0000  -0.0099
  -8.300  -0.4318   0.02302   0.01853  -0.1099  0.9699  0.0145  -4.2831   0.0000   0.0000   0.0000  -0.0166
  -8.200  -0.4205   0.02178   0.01716  -0.1107  0.9676  0.0142  -4.2712   0.0000   0.0000   0.0000  -0.0255
  -8.100  -0.4084   0.02065   0.01590  -0.1115  0.9656  0.0138  -4.2521   0.0000   0.0000   0.0000  -0.0355
  -8.000  -0.3958   0.01963   0.01476  -0.1123  0.9639  0.0135  -4.2265   0.0000   0.0000   0.0000  -0.0463
  -7.900  -0.3830   0.01874   0.01376  -0.1130  0.9624  0.0133  -4.1925   0.0000   0.0000   0.0000  -0.0578
  -7.800  -0.3732   0.01806   0.01300  -0.1131  0.9590  0.0131  -4.1557   0.0000   0.0000   0.0000  -0.0658
  -7.700  -0.3626   0.01742   0.01228  -0.1132  0.9559  0.0129  -4.1130   0.0000   0.0000   0.0000  -0.0752
  -7.600  -0.3512   0.01682   0.01161  -0.1135  0.9533  0.0128  -4.0644   0.0000   0.0000   0.0000  -0.0863
  -7.500  -0.3395   0.01627   0.01099  -0.1138  0.9512  0.0127  -4.0110   0.0000   0.0000   0.0000  -0.0986
  -7.400  -0.3277   0.01576   0.01042  -0.1142  0.9493  0.0126  -3.9535   0.0000   0.0000   0.0000  -0.1119
  -7.300  -0.3170   0.01533   0.00993  -0.1143  0.9466  0.0125  -3.8964   0.0000   0.0000   0.0000  -0.1242
  -7.200  -0.3067   0.01493   0.00948  -0.1143  0.9434  0.0124  -3.8381   0.0000   0.0000   0.0000  -0.1365
  -7.100  -0.2959   0.01455   0.00905  -0.1144  0.9406  0.0124  -3.7763   0.0000   0.0000   0.0000  -0.1508
  -7.000  -0.2847   0.01419   0.00864  -0.1146  0.9381  0.0124  -3.7119   0.0000   0.0000   0.0000  -0.1667
  -6.900  -0.2733   0.01384   0.00824  -0.1148  0.9358  0.0124  -3.6457   0.0000   0.0000   0.0000  -0.1843
  -6.800  -0.2617   0.01352   0.00786  -0.1150  0.9338  0.0124  -3.5777   0.0000   0.0000   0.0000  -0.2040
  -6.700  -0.2508   0.01323   0.00752  -0.1150  0.9311  0.0124  -3.5110   0.0000   0.0000   0.0000  -0.2237
  -6.600  -0.2401   0.01295   0.00721  -0.1151  0.9279  0.0125  -3.4441   0.0000   0.0000   0.0000  -0.2447
  -6.500  -0.2290   0.01268   0.00690  -0.1151  0.9251  0.0126  -3.3747   0.0000   0.0000   0.0000  -0.2685
  -6.400  -0.2178   0.01244   0.00657  -0.1152  0.9225  0.0126  -3.3024   0.0000   0.0000   0.0000  -0.2952
  -6.300  -0.2065   0.01220   0.00629  -0.1153  0.9202  0.0128  -3.2335   0.0000   0.0000   0.0000  -0.3251
  -6.200  -0.1949   0.01198   0.00601  -0.1154  0.9180  0.0130  -3.1641   0.0000   0.0000   0.0000  -0.3592
  -6.100  -0.1833   0.01177   0.00575  -0.1155  0.9159  0.0132  -3.0949   0.0000   0.0000   0.0000  -0.3980
  -6.000  -0.1723   0.01158   0.00553  -0.1155  0.9130  0.0134  -3.0281   0.0000   0.0000   0.0000  -0.4392
  -5.900  -0.1612   0.01139   0.00530  -0.1156  0.9099  0.0138  -2.9620   0.0000   0.0000   0.0000  -0.4864
  -5.800  -0.1499   0.01121   0.00508  -0.1156  0.9068  0.0143  -2.8970   0.0000   0.0000   0.0000  -0.5409
  -5.700  -0.1387   0.01104   0.00486  -0.1156  0.9038  0.0149  -2.8342   0.0000   0.0000   0.0000  -0.6046
  -5.600  -0.1273   0.01087   0.00464  -0.1155  0.9011  0.0158  -2.7747   0.0000   0.0000   0.0000  -0.6802
  -5.500  -0.1158   0.01072   0.00443  -0.1155  0.8985  0.0171  -2.7195   0.0000   0.0000   0.0000  -0.7720
  -5.400  -0.1039   0.01017   0.00404  -0.1159  0.8959  0.0467  -2.7255   0.0000   0.0000   0.0000  -0.8919
  -5.300  -0.0927   0.00993   0.00390  -0.1161  0.8929  0.0621  -2.6503   0.0000   0.0000   0.0000  -1.0311
  -5.200  -0.0815   0.00987   0.00381  -0.1161  0.8898  0.0670  -2.5670   0.0000   0.0000   0.0000  -1.2066
  -5.100  -0.0702   0.00974   0.00370  -0.1161  0.8869  0.0741  -2.4822   0.0000   0.0000   0.0000  -1.4413
  -5.000  -0.0588   0.00959   0.00359  -0.1162  0.8842  0.0816  -2.3960   0.0000   0.0000   0.0000  -1.7677
  -4.900  -0.0474   0.00941   0.00347  -0.1164  0.8815  0.0956  -2.3093   0.0000   0.0000   0.0000  -2.2536
  -4.800  -0.0360   0.00931   0.00337  -0.1164  0.8789  0.1067  -2.2227   0.0000   0.0000   0.0000  -3.0476
  -4.700  -0.0245   0.00914   0.00325  -0.1165  0.8764  0.1210  -2.1366   0.0000   0.0000   0.0000  -4.6049
  -4.600  -0.0131   0.00896   0.00315  -0.1167  0.8736  0.1412  -2.0515   0.0000   0.0000   0.0000  -8.8621
  -4.500  -0.0017   0.00886   0.00308  -0.1168  0.8706  0.1520  -1.9671   0.0000   0.0000   0.0000  -70.7496
  -4.400   0.0097   0.00873   0.00299  -0.1169  0.8674  0.1649  -1.8836   0.0000   0.0000   0.0000  12.4816
  -4.300   0.0211   0.00858   0.00290  -0.1170  0.8642  0.1824  -1.8010   0.0000   0.0000   0.0000   5.8859
  -4.200   0.0325   0.00849   0.00282  -0.1170  0.8610  0.1970  -1.7193   0.0000   0.0000   0.0000   3.9115
  -4.100   0.0440   0.00822   0.00269  -0.1173  0.8580  0.2353  -1.6424   0.0000   0.0000   0.0000   2.9597
  -4.000   0.0554   0.00812   0.00263  -0.1173  0.8550  0.2581  -1.5614   0.0000   0.0000   0.0000   2.4000
  -3.800   0.0783   0.00789   0.00256  -0.1175  0.8486  0.3012  -1.4027   0.0000   0.0000   0.0000   1.7729
  -3.700   0.0897   0.00785   0.00252  -0.1176  0.8452  0.3128  -1.3250   0.0000   0.0000   0.0000   1.5786
  -3.600   0.1011   0.00778   0.00250  -0.1176  0.8419  0.3240  -1.2484   0.0000   0.0000   0.0000   1.4282
  -3.500   0.1126   0.00775   0.00246  -0.1176  0.8388  0.3319  -1.1729   0.0000   0.0000   0.0000   1.3079
  -3.400   0.1240   0.00773   0.00242  -0.1176  0.8358  0.3382  -1.0985   0.0000   0.0000   0.0000   1.2095
  -3.300   0.1355   0.00770   0.00239  -0.1176  0.8328  0.3459  -1.0252   0.0000   0.0000   0.0000   1.1277
  -3.100   0.1585   0.00766   0.00235  -0.1176  0.8266  0.3607  -0.8821   0.0000   0.0000   0.0000   0.9999
  -3.000   0.1699   0.00764   0.00233  -0.1176  0.8230  0.3662  -0.8125   0.0000   0.0000   0.0000   0.9490
  -2.900   0.1813   0.00763   0.00230  -0.1175  0.8191  0.3701  -0.7653   0.0000   0.0000   0.0000   0.9045
  -2.800   0.1927   0.00760   0.00226  -0.1175  0.8151  0.3758  -0.7379   0.0000   0.0000   0.0000   0.8653
  -2.700   0.2041   0.00757   0.00224  -0.1175  0.8111  0.3816  -0.7106   0.0000   0.0000   0.0000   0.8306
  -2.600   0.2154   0.00757   0.00221  -0.1174  0.8072  0.3871  -0.6835   0.0000   0.0000   0.0000   0.7995
  -2.500   0.2268   0.00757   0.00219  -0.1174  0.8034  0.3921  -0.6566   0.0000   0.0000   0.0000   0.7714
  -2.400   0.2383   0.00755   0.00218  -0.1174  0.7995  0.3967  -0.6298   0.0000   0.0000   0.0000   0.7461
  -2.300   0.2497   0.00754   0.00216  -0.1173  0.7952  0.4005  -0.6032   0.0000   0.0000   0.0000   0.7230
  -2.200   0.2611   0.00753   0.00213  -0.1173  0.7908  0.4044  -0.5768   0.0000   0.0000   0.0000   0.7020
  -2.100   0.2725   0.00751   0.00211  -0.1173  0.7864  0.4098  -0.5720   0.0000   0.0000   0.0000   0.6828
  -2.000   0.2838   0.00751   0.00206  -0.1172  0.7821  0.4146  -0.5806   0.0000   0.0000   0.0000   0.6651
  -1.900   0.2951   0.00752   0.00205  -0.1171  0.7777  0.4190  -0.5893   0.0000   0.0000   0.0000   0.6488
  -1.800   0.3066   0.00750   0.00204  -0.1172  0.7733  0.4233  -0.5981   0.0000   0.0000   0.0000   0.6337
  -1.700   0.3180   0.00750   0.00202  -0.1171  0.7681  0.4271  -0.6069   0.0000   0.0000   0.0000   0.6196
  -1.600   0.3293   0.00750   0.00200  -0.1171  0.7624  0.4305  -0.6156   0.0000   0.0000   0.0000   0.6066
  -1.500   0.3405   0.00752   0.00197  -0.1170  0.7567  0.4334  -0.6244   0.0000   0.0000   0.0000   0.5943
  -1.400   0.3517   0.00754   0.00194  -0.1169  0.7510  0.4370  -0.6331   0.0000   0.0000   0.0000   0.5829
  -1.300   0.3631   0.00752   0.00194  -0.1169  0.7456  0.4425  -0.6419   0.0000   0.0000   0.0000   0.5723
  -1.200   0.3744   0.00751   0.00194  -0.1168  0.7394  0.4476  -0.6507   0.0000   0.0000   0.0000   0.5623
  -1.100   0.3856   0.00751   0.00194  -0.1168  0.7327  0.4526  -0.6594   0.0000   0.0000   0.0000   0.5529
  -1.000   0.3967   0.00754   0.00193  -0.1167  0.7262  0.4574  -0.6682   0.0000   0.0000   0.0000   0.5439
  -0.900   0.4078   0.00757   0.00193  -0.1166  0.7201  0.4617  -0.6769   0.0000   0.0000   0.0000   0.5355
  -0.800   0.4193   0.00759   0.00193  -0.1166  0.7143  0.4652  -0.6872   0.0000   0.0000   0.0000   0.5275
  -0.700   0.4306   0.00761   0.00192  -0.1165  0.7075  0.4681  -0.6977   0.0000   0.0000   0.0000   0.5200
  -0.600   0.4417   0.00761   0.00191  -0.1165  0.7002  0.4726  -0.7081   0.0000   0.0000   0.0000   0.5129
  -0.500   0.4527   0.00764   0.00190  -0.1163  0.6926  0.4763  -0.7184   0.0000   0.0000   0.0000   0.5061
  -0.400   0.4640   0.00765   0.00191  -0.1163  0.6861  0.4800  -0.7290   0.0000   0.0000   0.0000   0.4996
  -0.300   0.4752   0.00767   0.00192  -0.1163  0.6787  0.4838  -0.7395   0.0000   0.0000   0.0000   0.4935
  -0.200   0.4863   0.00770   0.00193  -0.1162  0.6713  0.4876  -0.7500   0.0000   0.0000   0.0000   0.4876
  -0.100   0.4973   0.00775   0.00193  -0.1161  0.6642  0.4913  -0.7604   0.0000   0.0000   0.0000   0.4820
   0.000   0.5085   0.00779   0.00194  -0.1161  0.6582  0.4947  -0.7709   0.0000   0.0000   0.0000   0.4766
   0.100   0.5199   0.00782   0.00196  -0.1160  0.6522  0.4978  -0.7816   0.0000   0.0000   0.0000   0.4715
   0.200   0.5312   0.00786   0.00197  -0.1160  0.6456  0.5008  -0.7922   0.0000   0.0000   0.0000   0.4666
   0.300   0.5424   0.00787   0.00198  -0.1160  0.6391  0.5065  -0.8028   0.0000   0.0000   0.0000   0.4619
   0.400   0.5533   0.00791   0.00201  -0.1159  0.6327  0.5115  -0.8133   0.0000   0.0000   0.0000   0.4574
   0.500   0.5645   0.00794   0.00204  -0.1158  0.6272  0.5163  -0.8242   0.0000   0.0000   0.0000   0.4531
   0.600   0.5758   0.00797   0.00207  -0.1158  0.6219  0.5209  -0.8370   0.0000   0.0000   0.0000   0.4489
   0.700   0.5871   0.00800   0.00210  -0.1158  0.6161  0.5252  -0.8499   0.0000   0.0000   0.0000   0.4449
   0.800   0.5982   0.00806   0.00213  -0.1158  0.6101  0.5291  -0.8627   0.0000   0.0000   0.0000   0.4410
   0.900   0.6093   0.00813   0.00215  -0.1157  0.6039  0.5322  -0.8754   0.0000   0.0000   0.0000   0.4373
   1.000   0.6201   0.00817   0.00218  -0.1156  0.5973  0.5375  -0.8881   0.0000   0.0000   0.0000   0.4337
   1.100   0.6315   0.00818   0.00221  -0.1156  0.5920  0.5425  -0.9048   0.0000   0.0000   0.0000   0.4302
   1.200   0.6427   0.00821   0.00224  -0.1156  0.5852  0.5470  -0.9246   0.0000   0.0000   0.0000   0.4269
   1.300   0.6536   0.00826   0.00228  -0.1155  0.5774  0.5512  -0.9442   0.0000   0.0000   0.0000   0.4237
   1.400   0.6644   0.00834   0.00231  -0.1154  0.5693  0.5550  -0.9637   0.0000   0.0000   0.0000   0.4205
   1.500   0.6754   0.00840   0.00234  -0.1153  0.5623  0.5583  -0.9835   0.0000   0.0000   0.0000   0.4175
   1.600   0.6866   0.00844   0.00237  -0.1153  0.5558  0.5613  -1.0036   0.0000   0.0000   0.0000   0.4146
   1.700   0.6977   0.00850   0.00239  -0.1152  0.5490  0.5638  -1.0236   0.0000   0.0000   0.0000   0.4117
   1.800   0.7087   0.00857   0.00242  -0.1152  0.5423  0.5666  -1.0436   0.0000   0.0000   0.0000   0.4090
   1.900   0.7195   0.00862   0.00246  -0.1151  0.5358  0.5710  -1.0635   0.0000   0.0000   0.0000   0.4063
   2.000   0.7306   0.00865   0.00250  -0.1151  0.5309  0.5748  -1.0838   0.0000   0.0000   0.0000   0.4038
   2.100   0.7419   0.00867   0.00254  -0.1151  0.5265  0.5786  -1.1044   0.0000   0.0000   0.0000   0.4013
   2.200   0.7532   0.00870   0.00258  -0.1151  0.5212  0.5826  -1.1250   0.0000   0.0000   0.0000   0.3988
   2.300   0.7642   0.00875   0.00264  -0.1150  0.5154  0.5866  -1.1455   0.0000   0.0000   0.0000   0.3965
   2.400   0.7752   0.00882   0.00268  -0.1150  0.5093  0.5906  -1.1660   0.0000   0.0000   0.0000   0.3941
   2.500   0.7860   0.00890   0.00273  -0.1149  0.5030  0.5942  -1.1864   0.0000   0.0000   0.0000   0.3919
   2.600   0.7971   0.00897   0.00278  -0.1148  0.4978  0.5973  -1.2071   0.0000   0.0000   0.0000   0.3897
   2.700   0.8083   0.00898   0.00281  -0.1148  0.4931  0.6022  -1.2281   0.0000   0.0000   0.0000   0.3876
   2.800   0.8194   0.00901   0.00286  -0.1148  0.4877  0.6068  -1.2490   0.0000   0.0000   0.0000   0.3856
   2.900   0.8303   0.00907   0.00291  -0.1148  0.4818  0.6111  -1.2698   0.0000   0.0000   0.0000   0.3835
   3.000   0.8411   0.00914   0.00296  -0.1147  0.4754  0.6152  -1.2905   0.0000   0.0000   0.0000   0.3816
   3.100   0.8517   0.00923   0.00302  -0.1146  0.4687  0.6193  -1.3112   0.0000   0.0000   0.0000   0.3796
   3.200   0.8629   0.00927   0.00306  -0.1146  0.4642  0.6233  -1.3325   0.0000   0.0000   0.0000   0.3778
   3.300   0.8741   0.00932   0.00311  -0.1145  0.4592  0.6269  -1.3539   0.0000   0.0000   0.0000   0.3760
   3.500   0.8960   0.00942   0.00321  -0.1145  0.4465  0.6354  -1.3963   0.0000   0.0000   0.0000   0.3724
   3.600   0.9066   0.00950   0.00327  -0.1144  0.4395  0.6401  -1.4212   0.0000   0.0000   0.0000   0.3707
   3.700   0.9173   0.00957   0.00334  -0.1143  0.4332  0.6448  -1.4486   0.0000   0.0000   0.0000   0.3690
   3.800   0.9283   0.00962   0.00340  -0.1142  0.4280  0.6496  -1.4766   0.0000   0.0000   0.0000   0.3674
   3.900   0.9392   0.00968   0.00346  -0.1142  0.4219  0.6544  -1.5046   0.0000   0.0000   0.0000   0.3658
   4.000   0.9500   0.00977   0.00351  -0.1141  0.4153  0.6590  -1.5325   0.0000   0.0000   0.0000   0.3643
   4.100   0.9604   0.00987   0.00363  -0.1140  0.4081  0.6642  -1.5601   0.0000   0.0000   0.0000   0.3627
   4.200   0.9709   0.00994   0.00371  -0.1139  0.4014  0.6701  -1.5879   0.0000   0.0000   0.0000   0.3612
   4.300   0.9819   0.00998   0.00378  -0.1138  0.3961  0.6763  -1.6166   0.0000   0.0000   0.0000   0.3597
   4.400   0.9927   0.01004   0.00385  -0.1138  0.3894  0.6826  -1.6451   0.0000   0.0000   0.0000   0.3583
   4.500   1.0033   0.01014   0.00392  -0.1137  0.3816  0.6888  -1.6734   0.0000   0.0000   0.0000   0.3569
   4.600   1.0135   0.01026   0.00401  -0.1135  0.3733  0.6953  -1.7013   0.0000   0.0000   0.0000   0.3555
   4.700   1.0241   0.01032   0.00410  -0.1134  0.3670  0.7030  -1.7297   0.0000   0.0000   0.0000   0.3541
   4.800   1.0347   0.01039   0.00418  -0.1133  0.3605  0.7109  -1.7584   0.0000   0.0000   0.0000   0.3528
   4.900   1.0451   0.01049   0.00427  -0.1132  0.3533  0.7188  -1.7870   0.0000   0.0000   0.0000   0.3515
   5.000   1.0552   0.01060   0.00437  -0.1131  0.3453  0.7274  -1.8240   0.0000   0.0000   0.0000   0.3501
   5.100   1.0653   0.01070   0.00447  -0.1129  0.3381  0.7372  -1.8629   0.0000   0.0000   0.0000   0.3489
   5.200   1.0761   0.01076   0.00456  -0.1128  0.3325  0.7473  -1.9033   0.0000   0.0000   0.0000   0.3476
   5.300   1.0864   0.01083   0.00465  -0.1127  0.3247  0.7582  -1.9431   0.0000   0.0000   0.0000   0.3464
   5.400   1.0962   0.01095   0.00476  -0.1125  0.3155  0.7712  -1.9821   0.0000   0.0000   0.0000   0.3451
   5.500   1.1058   0.01106   0.00488  -0.1122  0.3069  0.7858  -2.0210   0.0000   0.0000   0.0000   0.3439
   5.700   1.1246   0.01119   0.00508  -0.1115  0.2927  0.8293  -2.0989   0.0000   0.0000   0.0000   0.3413
   5.800   1.1303   0.01118   0.00517  -0.1103  0.2857  0.8798  -2.1309   0.0000   0.0000   0.0000   0.3397
   5.900   1.1379   0.01120   0.00526  -0.1096  0.2784  1.0000  -2.1673   0.0000   0.0000   0.0000   0.3382
   6.000   1.1487   0.01130   0.00535  -0.1095  0.2727  1.0000  -2.2176   0.0000   0.0000   0.0000   0.3371
   6.100   1.1590   0.01145   0.00547  -0.1095  0.2630  1.0000  -2.2666   0.0000   0.0000   0.0000   0.3361
   6.200   1.1682   0.01171   0.00562  -0.1092  0.2495  1.0000  -2.3134   0.0000   0.0000   0.0000   0.3350
   6.300   1.1780   0.01190   0.00577  -0.1091  0.2386  1.0000  -2.3617   0.0000   0.0000   0.0000   0.3340
   6.400   1.1869   0.01218   0.00594  -0.1088  0.2261  1.0000  -2.4084   0.0000   0.0000   0.0000   0.3330
   6.500   1.1969   0.01235   0.00608  -0.1087  0.2163  1.0000  -2.4577   0.0000   0.0000   0.0000   0.3320
   6.600   1.2061   0.01260   0.00625  -0.1084  0.2020  1.0000  -2.5055   0.0000   0.0000   0.0000   0.3309
   6.700   1.2150   0.01287   0.00644  -0.1082  0.1904  1.0000  -2.5530   0.0000   0.0000   0.0000   0.3299
   6.800   1.2243   0.01310   0.00661  -0.1080  0.1816  1.0000  -2.6016   0.0000   0.0000   0.0000   0.3289
   6.900   1.2333   0.01337   0.00680  -0.1077  0.1722  1.0000  -2.6494   0.0000   0.0000   0.0000   0.3280
   7.000   1.2432   0.01352   0.00695  -0.1076  0.1660  1.0000  -2.7002   0.0000   0.0000   0.0000   0.3270
   7.100   1.2528   0.01371   0.00711  -0.1074  0.1577  1.0000  -2.7503   0.0000   0.0000   0.0000   0.3261
   7.200   1.2614   0.01400   0.00732  -0.1071  0.1482  1.0000  -2.7983   0.0000   0.0000   0.0000   0.3251
   7.300   1.2708   0.01421   0.00750  -0.1068  0.1428  1.0000  -2.8483   0.0000   0.0000   0.0000   0.3242
   7.400   1.2802   0.01440   0.00767  -0.1066  0.1384  1.0000  -2.8988   0.0000   0.0000   0.0000   0.3232
   7.500   1.2894   0.01462   0.00786  -0.1064  0.1340  1.0000  -2.9488   0.0000   0.0000   0.0000   0.3223
   7.600   1.2984   0.01486   0.00806  -0.1061  0.1292  1.0000  -2.9985   0.0000   0.0000   0.0000   0.3214
   7.700   1.3075   0.01507   0.00826  -0.1058  0.1244  1.0000  -3.0484   0.0000   0.0000   0.0000   0.3205
   7.800   1.3174   0.01520   0.00840  -0.1056  0.1226  1.0000  -3.1016   0.0000   0.0000   0.0000   0.3196
   7.900   1.3273   0.01533   0.00856  -0.1055  0.1201  1.0000  -3.1545   0.0000   0.0000   0.0000   0.3187
   8.000   1.3367   0.01550   0.00877  -0.1052  0.1167  1.0000  -3.2065   0.0000   0.0000   0.0000   0.3178
   8.100   1.3458   0.01571   0.00896  -0.1050  0.1125  1.0000  -3.2579   0.0000   0.0000   0.0000   0.3169
   8.200   1.3543   0.01596   0.00919  -0.1046  0.1078  1.0000  -3.3079   0.0000   0.0000   0.0000   0.3161
   8.300   1.3627   0.01623   0.00942  -0.1043  0.1029  1.0000  -3.3577   0.0000   0.0000   0.0000   0.3152
   8.400   1.3716   0.01643   0.00962  -0.1040  0.1002  1.0000  -3.4097   0.0000   0.0000   0.0000   0.3143
   8.500   1.3802   0.01666   0.00982  -0.1036  0.0970  1.0000  -3.4611   0.0000   0.0000   0.0000   0.3135
   8.600   1.3883   0.01692   0.01005  -0.1033  0.0935  1.0000  -3.5114   0.0000   0.0000   0.0000   0.3126
   8.700   1.3961   0.01721   0.01030  -0.1028  0.0895  1.0000  -3.5606   0.0000   0.0000   0.0000   0.3117
   8.800   1.4037   0.01752   0.01058  -0.1023  0.0853  1.0000  -3.6086   0.0000   0.0000   0.0000   0.3109
   8.900   1.4129   0.01766   0.01075  -0.1021  0.0835  1.0000  -3.6632   0.0000   0.0000   0.0000   0.3100
   9.000   1.4224   0.01778   0.01090  -0.1019  0.0817  1.0000  -3.7192   0.0000   0.0000   0.0000   0.3093
   9.100   1.4314   0.01795   0.01108  -0.1016  0.0790  1.0000  -3.7736   0.0000   0.0000   0.0000   0.3085
   9.200   1.4397   0.01816   0.01128  -0.1012  0.0752  1.0000  -3.8265   0.0000   0.0000   0.0000   0.3076
   9.300   1.4473   0.01843   0.01152  -0.1008  0.0711  1.0000  -3.8775   0.0000   0.0000   0.0000   0.3068
   9.400   1.4543   0.01875   0.01180  -0.1003  0.0671  1.0000  -3.9621   0.0000   0.0000   0.0000   0.3060
   9.500   1.4621   0.01899   0.01204  -0.0998  0.0654  1.0000  -4.0626   0.0000   0.0000   0.0000   0.3051
   9.600   1.4697   0.01923   0.01228  -0.0994  0.0638  1.0000  -4.1633   0.0000   0.0000   0.0000   0.3043
   9.700   1.4771   0.01949   0.01253  -0.0989  0.0623  1.0000  -4.2636   0.0000   0.0000   0.0000   0.3035
   9.800   1.4842   0.01976   0.01279  -0.0984  0.0607  1.0000  -4.3631   0.0000   0.0000   0.0000   0.3027
   9.900   1.4910   0.02005   0.01306  -0.0978  0.0591  1.0000  -4.4617   0.0000   0.0000   0.0000   0.3018
  10.000   1.4972   0.02034   0.01334  -0.0971  0.0573  1.0000  -4.5572   0.0000   0.0000   0.0000   0.3009
  10.100   1.5029   0.02064   0.01364  -0.0963  0.0555  1.0000  -4.6503   0.0000   0.0000   0.0000   0.3000
  10.200   1.5082   0.02096   0.01397  -0.0955  0.0538  1.0000  -4.7420   0.0000   0.0000   0.0000   0.2991
  10.300   1.5129   0.02132   0.01437  -0.0947  0.0517  1.0000  -4.8268   0.0000   0.0000   0.0000   0.2982
  10.400   1.5203   0.02150   0.01458  -0.0942  0.0512  1.0000  -4.9325   0.0000   0.0000   0.0000   0.2974
  10.500   1.5274   0.02170   0.01480  -0.0936  0.0508  1.0000  -5.0382   0.0000   0.0000   0.0000   0.2966
  10.600   1.5342   0.02191   0.01505  -0.0931  0.0501  1.0000  -5.1430   0.0000   0.0000   0.0000   0.2958
  10.700   1.5407   0.02214   0.01532  -0.0925  0.0493  1.0000  -5.2465   0.0000   0.0000   0.0000   0.2949
  10.800   1.5470   0.02239   0.01560  -0.0918  0.0484  1.0000  -5.3492   0.0000   0.0000   0.0000   0.2941
  10.900   1.5529   0.02267   0.01590  -0.0912  0.0473  1.0000  -5.4505   0.0000   0.0000   0.0000   0.2933
  11.000   1.5585   0.02297   0.01622  -0.0905  0.0461  1.0000  -5.5505   0.0000   0.0000   0.0000   0.2925
  11.100   1.5638   0.02329   0.01656  -0.0898  0.0448  1.0000  -5.6491   0.0000   0.0000   0.0000   0.2917
  11.200   1.5686   0.02364   0.01691  -0.0891  0.0435  1.0000  -5.7458   0.0000   0.0000   0.0000   0.2909
  11.300   1.5732   0.02401   0.01730  -0.0883  0.0423  1.0000  -5.8410   0.0000   0.0000   0.0000   0.2901
  11.400   1.5774   0.02442   0.01771  -0.0876  0.0410  1.0000  -5.9348   0.0000   0.0000   0.0000   0.2893
  11.500   1.5813   0.02486   0.01816  -0.0868  0.0397  1.0000  -6.0258   0.0000   0.0000   0.0000   0.2885
  11.600   1.5848   0.02534   0.01865  -0.0860  0.0383  1.0000  -6.1145   0.0000   0.0000   0.0000   0.2877
  11.700   1.5897   0.02571   0.01905  -0.0854  0.0378  1.0000  -6.2140   0.0000   0.0000   0.0000   0.2869
  11.800   1.5949   0.02607   0.01943  -0.0848  0.0372  1.0000  -6.3160   0.0000   0.0000   0.0000   0.2862
  11.900   1.5998   0.02644   0.01982  -0.0842  0.0364  1.0000  -6.4172   0.0000   0.0000   0.0000   0.2855
  12.000   1.6045   0.02684   0.02024  -0.0836  0.0355  1.0000  -6.5169   0.0000   0.0000   0.0000   0.2848
  12.100   1.6086   0.02728   0.02068  -0.0830  0.0344  1.0000  -6.6143   0.0000   0.0000   0.0000   0.2841
  12.200   1.6125   0.02775   0.02115  -0.0823  0.0333  1.0000  -6.7098   0.0000   0.0000   0.0000   0.2834
  12.300   1.6162   0.02825   0.02165  -0.0817  0.0322  1.0000  -6.8041   0.0000   0.0000   0.0000   0.2827
  12.400   1.6196   0.02878   0.02218  -0.0811  0.0313  1.0000  -6.8962   0.0000   0.0000   0.0000   0.2820
  12.500   1.6228   0.02934   0.02273  -0.0805  0.0303  1.0000  -6.9872   0.0000   0.0000   0.0000   0.2813
  12.600   1.6260   0.02990   0.02331  -0.0799  0.0292  1.0000  -7.0779   0.0000   0.0000   0.0000   0.2807
  12.700   1.6289   0.03050   0.02392  -0.0793  0.0280  1.0000  -7.1661   0.0000   0.0000   0.0000   0.2800
  12.800   1.6315   0.03114   0.02458  -0.0786  0.0270  1.0000  -7.2514   0.0000   0.0000   0.0000   0.2794
  12.900   1.6354   0.03166   0.02512  -0.0782  0.0264  1.0000  -7.3478   0.0000   0.0000   0.0000   0.2788
  13.000   1.6397   0.03216   0.02569  -0.0777  0.0261  1.0000  -7.4502   0.0000   0.0000   0.0000   0.2782
  13.100   1.6438   0.03267   0.02624  -0.0772  0.0256  1.0000  -7.5492   0.0000   0.0000   0.0000   0.2776
  13.200   1.6472   0.03324   0.02683  -0.0768  0.0248  1.0000  -7.6423   0.0000   0.0000   0.0000   0.2770
  13.300   1.6501   0.03387   0.02747  -0.0763  0.0236  1.0000  -7.7300   0.0000   0.0000   0.0000   0.2764
  13.400   1.6520   0.03459   0.02819  -0.0758  0.0219  1.0000  -7.8096   0.0000   0.0000   0.0000   0.2759
  13.500   1.6520   0.03550   0.02908  -0.0752  0.0198  1.0000  -7.8737   0.0000   0.0000   0.0000   0.2753
  13.600   1.6510   0.03653   0.03009  -0.0746  0.0173  1.0000  -7.9275   0.0000   0.0000   0.0000   0.2748
  13.700   1.6526   0.03734   0.03091  -0.0741  0.0152  1.0000  -7.9922   0.0000   0.0000   0.0000   0.2743
  13.800   1.6482   0.03875   0.03230  -0.0735  0.0104  1.0000  -8.0171   0.0000   0.0000   0.0000   0.2738
  13.900   1.6433   0.04025   0.03377  -0.0729  0.0085  1.0000  -8.0345   0.0000   0.0000   0.0000   0.2734
  14.000   1.6384   0.04180   0.03531  -0.0724  0.0073  1.0000  -8.0464   0.0000   0.0000   0.0000   0.2730
  14.100   1.6340   0.04334   0.03687  -0.0720  0.0056  1.0000  -8.0392   0.0000   0.0000   0.0000   0.2726
  14.200   1.6304   0.04484   0.03844  -0.0715  0.0045  1.0000  -7.9952   0.0000   0.0000   0.0000   0.2722
  14.300   1.6294   0.04606   0.03971  -0.0713  0.0043  1.0000  -8.0329   0.0000   0.0000   0.0000   0.2719
  14.400   1.6293   0.04719   0.04089  -0.0711  0.0043  1.0000  -8.0888   0.0000   0.0000   0.0000   0.2715
  14.500   1.6291   0.04833   0.04209  -0.0709  0.0042  1.0000  -8.1436   0.0000   0.0000   0.0000   0.2712
  14.600   1.6281   0.04959   0.04341  -0.0707  0.0042  1.0000  -8.1920   0.0000   0.0000   0.0000   0.2709
  14.700   1.6268   0.05086   0.04474  -0.0706  0.0041  1.0000  -8.2388   0.0000   0.0000   0.0000   0.2707
  14.800   1.6257   0.05213   0.04607  -0.0705  0.0041  1.0000  -8.2864   0.0000   0.0000   0.0000   0.2704
  14.900   1.6241   0.05350   0.04750  -0.0704  0.0040  1.0000  -8.3299   0.0000   0.0000   0.0000   0.2702
  15.000   1.6223   0.05494   0.04899  -0.0704  0.0040  1.0000  -8.3714   0.0000   0.0000   0.0000   0.2700
  15.100   1.6207   0.05636   0.05047  -0.0704  0.0040  1.0000  -8.4149   0.0000   0.0000   0.0000   0.2699
  15.200   1.6188   0.05787   0.05204  -0.0705  0.0039  1.0000  -8.4553   0.0000   0.0000   0.0000   0.2697
  15.300   1.6165   0.05948   0.05371  -0.0707  0.0039  1.0000  -8.4917   0.0000   0.0000   0.0000   0.2697
  15.400   1.6144   0.06105   0.05535  -0.0708  0.0039  1.0000  -8.5304   0.0000   0.0000   0.0000   0.2696
  15.500   1.6122   0.06267   0.05703  -0.0710  0.0039  1.0000  -8.5675   0.0000   0.0000   0.0000   0.2696
  15.600   1.6092   0.06445   0.05887  -0.0714  0.0038  1.0000  -8.5980   0.0000   0.0000   0.0000   0.2696
  15.700   1.6064   0.06620   0.06067  -0.0717  0.0038  1.0000  -8.6306   0.0000   0.0000   0.0000   0.2696
  15.800   1.6037   0.06795   0.06249  -0.0720  0.0038  1.0000  -8.6628   0.0000   0.0000   0.0000   0.2697
  15.900   1.5999   0.06992   0.06452  -0.0725  0.0038  1.0000  -8.6858   0.0000   0.0000   0.0000   0.2699
  16.000   1.5964   0.07183   0.06650  -0.0729  0.0038  1.0000  -8.7111   0.0000   0.0000   0.0000   0.2700
  16.100   1.5931   0.07372   0.06845  -0.0733  0.0038  1.0000  -8.7377   0.0000   0.0000   0.0000   0.2701
  16.200   1.5888   0.07583   0.07062  -0.0739  0.0037  1.0000  -8.7550   0.0000   0.0000   0.0000   0.2704
  16.300   1.5845   0.07794   0.07279  -0.0745  0.0037  1.0000  -8.7720   0.0000   0.0000   0.0000   0.2707
  16.400   1.5805   0.07999   0.07491  -0.0751  0.0037  1.0000  -8.7913   0.0000   0.0000   0.0000   0.2709
  16.500   1.5756   0.08223   0.07721  -0.0758  0.0037  1.0000  -8.8024   0.0000   0.0000   0.0000   0.2713
  16.600   1.5705   0.08452   0.07957  -0.0766  0.0037  1.0000  -8.8110   0.0000   0.0000   0.0000   0.2717
  16.700   1.5659   0.08671   0.08182  -0.0773  0.0037  1.0000  -8.8237   0.0000   0.0000   0.0000   0.2721
  16.800   1.5608   0.08898   0.08415  -0.0781  0.0037  1.0000  -8.8311   0.0000   0.0000   0.0000   0.2725
  16.900   1.5545   0.09147   0.08671  -0.0790  0.0037  1.0000  -8.8278   0.0000   0.0000   0.0000   0.2731
  17.000   1.5490   0.09382   0.08912  -0.0798  0.0037  1.0000  -8.8309   0.0000   0.0000   0.0000   0.2736
  17.100   1.5435   0.09621   0.09157  -0.0807  0.0037  1.0000  -8.8328   0.0000   0.0000   0.0000   0.2741
  17.200   1.5368   0.09889   0.09432  -0.0818  0.0037  1.0000  -8.8228   0.0000   0.0000   0.0000   0.2748
  17.300   1.5311   0.10139   0.09688  -0.0828  0.0037  1.0000  -8.8205   0.0000   0.0000   0.0000   0.2754
  17.400   1.5258   0.10385   0.09940  -0.0838  0.0037  1.0000  -8.8206   0.0000   0.0000   0.0000   0.2760
  17.500   1.5190   0.10663   0.10224  -0.0850  0.0037  1.0000  -8.8063   0.0000   0.0000   0.0000   0.2769
  17.600   1.5128   0.10935   0.10502  -0.0862  0.0037  1.0000  -8.7952   0.0000   0.0000   0.0000   0.2777
  17.700   1.5071   0.11194   0.10767  -0.0873  0.0037  1.0000  -8.7885   0.0000   0.0000   0.0000   0.2784
  17.800   1.5004   0.11479   0.11059  -0.0886  0.0037  1.0000  -8.7703   0.0000   0.0000   0.0000   0.2793
  17.900   1.4937   0.11765   0.11351  -0.0900  0.0037  1.0000  -8.7514   0.0000   0.0000   0.0000   0.2803
  18.000   1.4879   0.12033   0.11625  -0.0912  0.0037  1.0000  -8.7396   0.0000   0.0000   0.0000   0.2811
  18.100   1.4821   0.12305   0.11902  -0.0925  0.0037  1.0000  -8.7258   0.0000   0.0000   0.0000   0.2820
  18.200   1.4746   0.12614   0.12218  -0.0941  0.0037  1.0000  -8.6944   0.0000   0.0000   0.0000   0.2832
  18.300   1.4685   0.12895   0.12505  -0.0955  0.0037  1.0000  -8.6746   0.0000   0.0000   0.0000   0.2842
  18.400   1.4626   0.13172   0.12787  -0.0969  0.0037  1.0000  -8.6564   0.0000   0.0000   0.0000   0.2852
  18.500   1.4551   0.13490   0.13112  -0.0986  0.0037  1.0000  -8.6181   0.0000   0.0000   0.0000   0.2866
  18.600   1.4490   0.13777   0.13405  -0.1001  0.0037  1.0000  -8.5935   0.0000   0.0000   0.0000   0.2877
  18.700   1.4434   0.14053   0.13686  -0.1016  0.0037  1.0000  -8.5728   0.0000   0.0000   0.0000   0.2888
  18.800   1.4371   0.14347   0.13985  -0.1032  0.0037  1.0000  -8.5427   0.0000   0.0000   0.0000   0.2900
  18.900   1.4300   0.14663   0.14307  -0.1049  0.0037  1.0000  -8.5020   0.0000   0.0000   0.0000   0.2914
  19.000   1.4242   0.14950   0.14600  -0.1066  0.0037  1.0000  -8.4733   0.0000   0.0000   0.0000   0.2926
  19.100   1.4185   0.15236   0.14892  -0.1082  0.0037  1.0000  -8.4438   0.0000   0.0000   0.0000   0.2939
  19.200   1.4113   0.15563   0.15224  -0.1101  0.0037  1.0000  -8.3948   0.0000   0.0000   0.0000   0.2955
  19.300   1.4057   0.15852   0.15518  -0.1118  0.0037  1.0000  -8.3622   0.0000   0.0000   0.0000   0.2968
  19.400   1.4007   0.16129   0.15800  -0.1134  0.0037  1.0000  -8.3348   0.0000   0.0000   0.0000   0.2980
  19.500   1.3956   0.16406   0.16082  -0.1151  0.0037  1.0000  -8.3029   0.0000   0.0000   0.0000   0.2993
  19.600   1.3891   0.16709   0.16391  -0.1171  0.0037  1.0000  -8.2509   0.0000   0.0000   0.0000   0.3010
  19.700   1.3842   0.16975   0.16662  -0.1188  0.0037  1.0000  -8.2163   0.0000   0.0000   0.0000   0.3024
  19.800   1.3797   0.17235   0.16926  -0.1205  0.0037  1.0000  -8.1856   0.0000   0.0000   0.0000   0.3037
  19.900   1.3740   0.17530   0.17226  -0.1225  0.0037  1.0000  -8.1365   0.0000   0.0000   0.0000   0.3053
  20.000   1.3689   0.17818   0.17519  -0.1244  0.0037  1.0000  -8.0925   0.0000   0.0000   0.0000   0.3069
  20.100   1.3648   0.18084   0.17789  -0.1261  0.0037  1.0000  -8.0615   0.0000   0.0000   0.0000   0.3082
  20.200   1.3610   0.18349   0.18058  -0.1277  0.0037  1.0000  -8.0317   0.0000   0.0000   0.0000   0.3095
  20.300   1.3570   0.18621   0.18335  -0.1295  0.0037  1.0000  -7.9981   0.0000   0.0000   0.0000   0.3109
  20.400   1.3516   0.18942   0.18661  -0.1315  0.0037  1.0000  -7.9408   0.0000   0.0000   0.0000   0.3126
  20.500   1.3470   0.19242   0.18965  -0.1333  0.0037  1.0000  -7.8950   0.0000   0.0000   0.0000   0.3141
  20.600   1.3432   0.19527   0.19255  -0.1351  0.0038  1.0000  -7.8570   0.0000   0.0000   0.0000   0.3155
  20.700   1.3396   0.19810   0.19542  -0.1368  0.0038  1.0000  -7.8208   0.0000   0.0000   0.0000   0.3169
  20.800   1.3348   0.20136   0.19872  -0.1387  0.0038  1.0000  -7.7633   0.0000   0.0000   0.0000   0.3186
  20.900   1.3305   0.20450   0.20191  -0.1406  0.0038  1.0000  -7.7119   0.0000   0.0000   0.0000   0.3201
  21.000   1.3272   0.20739   0.20483  -0.1423  0.0038  1.0000  -7.6737   0.0000   0.0000   0.0000   0.3215
  21.100   1.3242   0.21020   0.20769  -0.1439  0.0038  1.0000  -7.6397   0.0000   0.0000   0.0000   0.3228
  21.200   1.3213   0.21305   0.21057  -0.1455  0.0038  1.0000  -7.6039   0.0000   0.0000   0.0000   0.3241
  21.300   1.3181   0.21603   0.21359  -0.1472  0.0038  1.0000  -7.5619   0.0000   0.0000   0.0000   0.3255
  21.400   1.3138   0.21942   0.21703  -0.1491  0.0038  1.0000  -7.4985   0.0000   0.0000   0.0000   0.3272
  21.500   1.3088   0.22316   0.22081  -0.1512  0.0038  1.0000  -7.4182   0.0000   0.0000   0.0000   0.3291
  21.600   1.3049   0.22653   0.22423  -0.1530  0.0038  1.0000  -7.3568   0.0000   0.0000   0.0000   0.3307
  21.700   1.3012   0.22989   0.22763  -0.1548  0.0038  1.0000  -7.2956   0.0000   0.0000   0.0000   0.3322
  21.800   1.2973   0.23339   0.23118  -0.1567  0.0038  1.0000  -7.2273   0.0000   0.0000   0.0000   0.3339
  21.900   1.2913   0.23775   0.23558  -0.1589  0.0039  1.0000  -7.1156   0.0000   0.0000   0.0000   0.3361
  22.000   1.2868   0.24163   0.23951  -0.1609  0.0039  1.0000  -7.0275   0.0000   0.0000   0.0000   0.3380
  22.100   1.2826   0.24543   0.24335  -0.1628  0.0039  1.0000  -6.9437   0.0000   0.0000   0.0000   0.3398
  22.200   1.2780   0.24947   0.24744  -0.1647  0.0039  1.0000  -6.8468   0.0000   0.0000   0.0000   0.3417
  22.300   1.2723   0.25410   0.25211  -0.1669  0.0039  1.0000  -6.7189   0.0000   0.0000   0.0000   0.3439
  22.400   1.2601   0.26159   0.25968  -0.1702  0.0040  1.0000  -6.4415   0.0000   0.0000   0.0000   0.3480
  22.500   1.2405   0.27296   0.27114  -0.1748  0.0040  1.0000  -5.9543   0.0000   0.0000   0.0000   0.3544
  22.700   1.1491   0.33589   0.33410  -0.1890  0.0095  1.0000  -2.5131   0.0000   0.0000   0.0000   0.3821
  22.800   1.1506   0.33816   0.33637  -0.1898  0.0094  1.0000  -2.5127   0.0000   0.0000   0.0000   0.3824
  23.000   1.1483   0.34955   0.34776  -0.1921  0.0119  1.0000  -2.1403   0.0000   0.0000   0.0000   0.3849
  23.100   1.1489   0.35188   0.35009  -0.1927  0.0118  1.0000  -2.1380   0.0000   0.0000   0.0000   0.3852
  23.200   1.1494   0.35416   0.35238  -0.1933  0.0117  1.0000  -2.1383   0.0000   0.0000   0.0000   0.3854
  23.300   1.1499   0.35639   0.35461  -0.1938  0.0115  1.0000  -2.1407   0.0000   0.0000   0.0000   0.3856
  23.400   1.1504   0.35858   0.35680  -0.1944  0.0114  1.0000  -2.1449   0.0000   0.0000   0.0000   0.3858
  23.500   1.1508   0.36072   0.35895  -0.1949  0.0113  1.0000  -2.1509   0.0000   0.0000   0.0000   0.3859
  23.600   1.1512   0.36283   0.36107  -0.1953  0.0112  1.0000  -2.1584   0.0000   0.0000   0.0000   0.3861
  23.700   1.1514   0.36491   0.36315  -0.1958  0.0111  1.0000  -2.1672   0.0000   0.0000   0.0000   0.3862
  23.800   1.1516   0.36695   0.36519  -0.1962  0.0110  1.0000  -2.1774   0.0000   0.0000   0.0000   0.3863
  23.900   1.1517   0.36896   0.36720  -0.1966  0.0109  1.0000  -2.1888   0.0000   0.0000   0.0000   0.3864
  24.000   1.1516   0.37093   0.36918  -0.1970  0.0108  1.0000  -2.2012   0.0000   0.0000   0.0000   0.3865
  24.100   1.1515   0.37287   0.37113  -0.1973  0.0107  1.0000  -2.2146   0.0000   0.0000   0.0000   0.3866
  24.200   1.1511   0.37478   0.37304  -0.1975  0.0106  1.0000  -2.2288   0.0000   0.0000   0.0000   0.3866
  24.300   1.1505   0.37665   0.37492  -0.1977  0.0105  1.0000  -2.2437   0.0000   0.0000   0.0000   0.3867
  24.400   1.1496   0.37850   0.37677  -0.1978  0.0105  1.0000  -2.2589   0.0000   0.0000   0.0000   0.3867
  24.600   0.9522   0.34533   0.34379  -0.1669  0.0106  1.0000  -1.6587   0.0000   0.0000   0.0000   0.3934
  24.700   0.9478   0.34473   0.34320  -0.1664  0.0105  1.0000  -1.6596   0.0000   0.0000   0.0000   0.3936
  24.800   0.9439   0.34422   0.34270  -0.1660  0.0105  1.0000  -1.6630   0.0000   0.0000   0.0000   0.3937
  24.900   0.9403   0.34370   0.34219  -0.1656  0.0104  1.0000  -1.6680   0.0000   0.0000   0.0000   0.3938
  25.000   0.9369   0.34319   0.34169  -0.1652  0.0103  1.0000  -1.6745   0.0000   0.0000   0.0000   0.3939
  25.100   0.9331   0.34269   0.34119  -0.1647  0.0102  1.0000  -1.6761   0.0000   0.0000   0.0000   0.3940
  25.200   0.9261   0.34192   0.34043  -0.1640  0.0100  1.0000  -1.6468   0.0000   0.0000   0.0000   0.3945
  25.300   0.9093   0.34118   0.33969  -0.1624  0.0097  1.0000  -1.4701   0.0000   0.0000   0.0000   0.3964
  25.400   0.9064   0.34125   0.33976  -0.1623  0.0097  1.0000  -1.4522   0.0000   0.0000   0.0000   0.3968
  25.500   0.9036   0.34134   0.33986  -0.1622  0.0097  1.0000  -1.4350   0.0000   0.0000   0.0000   0.3972
  25.600   0.9010   0.34146   0.33998  -0.1622  0.0097  1.0000  -1.4184   0.0000   0.0000   0.0000   0.3976
  25.700   0.8985   0.34159   0.34012  -0.1621  0.0096  1.0000  -1.4021   0.0000   0.0000   0.0000   0.3979
  25.800   0.8962   0.34175   0.34028  -0.1621  0.0096  1.0000  -1.3863   0.0000   0.0000   0.0000   0.3983
  25.900   0.8939   0.34193   0.34047  -0.1621  0.0096  1.0000  -1.3710   0.0000   0.0000   0.0000   0.3986
  26.000   0.8918   0.34212   0.34066  -0.1622  0.0096  1.0000  -1.3562   0.0000   0.0000   0.0000   0.3990
  26.100   0.8897   0.34233   0.34088  -0.1622  0.0096  1.0000  -1.3418   0.0000   0.0000   0.0000   0.3993
  26.200   0.8878   0.34255   0.34112  -0.1622  0.0096  1.0000  -1.3280   0.0000   0.0000   0.0000   0.3997
  26.300   0.8859   0.34279   0.34136  -0.1623  0.0096  1.0000  -1.3144   0.0000   0.0000   0.0000   0.4000
  26.400   0.8841   0.34304   0.34162  -0.1624  0.0096  1.0000  -1.3011   0.0000   0.0000   0.0000   0.4004
  26.500   0.8824   0.34330   0.34189  -0.1625  0.0096  1.0000  -1.2883   0.0000   0.0000   0.0000   0.4007
  26.600   0.8808   0.34357   0.34217  -0.1626  0.0096  1.0000  -1.2757   0.0000   0.0000   0.0000   0.4010
  26.700   0.8793   0.34386   0.34246  -0.1627  0.0096  1.0000  -1.2635   0.0000   0.0000   0.0000   0.4013
  26.800   0.8778   0.34416   0.34276  -0.1628  0.0096  1.0000  -1.2513   0.0000   0.0000   0.0000   0.4017
  26.900   0.8763   0.34447   0.34308  -0.1630  0.0096  1.0000  -1.2393   0.0000   0.0000   0.0000   0.4020
  27.000   0.8749   0.34479   0.34341  -0.1631  0.0095  1.0000  -1.2277   0.0000   0.0000   0.0000   0.4023
  27.100   0.8736   0.34514   0.34375  -0.1633  0.0095  1.0000  -1.2164   0.0000   0.0000   0.0000   0.4026
  27.200   0.8724   0.34547   0.34410  -0.1635  0.0095  1.0000  -1.2053   0.0000   0.0000   0.0000   0.4030
  27.300   0.8712   0.34583   0.34446  -0.1636  0.0095  1.0000  -1.1945   0.0000   0.0000   0.0000   0.4033
  27.400   0.8700   0.34620   0.34483  -0.1638  0.0095  1.0000  -1.1838   0.0000   0.0000   0.0000   0.4036
  27.500   0.8689   0.34659   0.34522  -0.1640  0.0095  1.0000  -1.1728   0.0000   0.0000   0.0000   0.4039
  27.600   0.8678   0.34699   0.34563  -0.1643  0.0095  1.0000  -1.1619   0.0000   0.0000   0.0000   0.4043
  27.700   0.8668   0.34742   0.34607  -0.1645  0.0094  1.0000  -1.1506   0.0000   0.0000   0.0000   0.4046
  27.800   0.8658   0.34791   0.34656  -0.1648  0.0094  1.0000  -1.1369   0.0000   0.0000   0.0000   0.4050
  27.900   0.8648   0.34843   0.34708  -0.1651  0.0094  1.0000  -1.1233   0.0000   0.0000   0.0000   0.4054
  28.000   0.8640   0.34897   0.34763  -0.1654  0.0093  1.0000  -1.1095   0.0000   0.0000   0.0000   0.4058
  28.100   0.8632   0.34957   0.34823  -0.1657  0.0093  1.0000  -1.0954   0.0000   0.0000   0.0000   0.4062
  28.200   0.8626   0.35021   0.34888  -0.1661  0.0092  1.0000  -1.0805   0.0000   0.0000   0.0000   0.4066
  28.300   0.8620   0.35093   0.34960  -0.1664  0.0091  1.0000  -1.0642   0.0000   0.0000   0.0000   0.4070
  28.400   0.8616   0.35170   0.35037  -0.1668  0.0090  1.0000  -1.0536   0.0000   0.0000   0.0000   0.4073
  28.500   0.8612   0.35244   0.35112  -0.1671  0.0088  1.0000  -1.0457   0.0000   0.0000   0.0000   0.4077
  28.600   0.8607   0.35307   0.35176  -0.1674  0.0086  1.0000  -1.0400   0.0000   0.0000   0.0000   0.4080
  28.700   0.8600   0.35361   0.35230  -0.1677  0.0084  1.0000  -1.0368   0.0000   0.0000   0.0000   0.4082
  28.800   0.8593   0.35409   0.35278  -0.1679  0.0082  1.0000  -1.0354   0.0000   0.0000   0.0000   0.4085
  28.900   0.8586   0.35450   0.35320  -0.1681  0.0080  1.0000  -1.0351   0.0000   0.0000   0.0000   0.4087
  29.000   0.8579   0.35494   0.35364  -0.1683  0.0079  1.0000  -1.0359   0.0000   0.0000   0.0000   0.4090
  29.100   0.8572   0.35536   0.35407  -0.1686  0.0077  1.0000  -1.0373   0.0000   0.0000   0.0000   0.4092
  29.200   0.8565   0.35577   0.35449  -0.1688  0.0075  1.0000  -1.0394   0.0000   0.0000   0.0000   0.4094
  29.300   0.8558   0.35618   0.35490  -0.1690  0.0073  1.0000  -1.0423   0.0000   0.0000   0.0000   0.4097
  29.400   0.8552   0.35658   0.35530  -0.1692  0.0072  1.0000  -1.0459   0.0000   0.0000   0.0000   0.4099
  29.500   0.8546   0.35697   0.35570  -0.1695  0.0070  1.0000  -1.0506   0.0000   0.0000   0.0000   0.4101
  29.600   0.8540   0.35735   0.35608  -0.1697  0.0068  1.0000  -1.0564   0.0000   0.0000   0.0000   0.4103
  29.700   0.8535   0.35772   0.35646  -0.1700  0.0066  1.0000  -1.0636   0.0000   0.0000   0.0000   0.4105
  29.800   0.8530   0.35808   0.35683  -0.1702  0.0063  1.0000  -1.0722   0.0000   0.0000   0.0000   0.4107
  29.900   0.8525   0.35843   0.35718  -0.1705  0.0062  1.0000  -1.0822   0.0000   0.0000   0.0000   0.4109
  30.000   0.8521   0.35877   0.35752  -0.1708  0.0060  1.0000  -1.0936   0.0000   0.0000   0.0000   0.4110


