xflr5 v6.61

 Calculated polar for: WORTMANN FX 63-137 AIRFOIL

 1 1 Reynolds number fixed          Mach number fixed         

 xtrf =   1.000 (top)        1.000 (bottom)
 Mach =   0.000     Re =     0.100 e 6     Ncrit =   9.000

  alpha     CL        CD       CDp       Cm    Top Xtr Bot Xtr   Cpmin    Chinge    XCp    
 ------- -------- --------- --------- -------- ------- ------- -------- --------- ---------
 -10.000  -0.2949   0.13264   0.12819  -0.0310  0.9995  0.0735  -1.5179   0.0000   0.0000   0.0000   0.1254
  -9.900  -0.2976   0.13217   0.12774  -0.0302  0.9995  0.0740  -1.5161   0.0000   0.0000   0.0000   0.1295
  -9.800  -0.3004   0.13168   0.12728  -0.0294  0.9995  0.0746  -1.5154   0.0000   0.0000   0.0000   0.1333
  -9.700  -0.3033   0.13118   0.12681  -0.0287  0.9995  0.0752  -1.5157   0.0000   0.0000   0.0000   0.1370
  -9.600  -0.3063   0.13068   0.12633  -0.0280  0.9995  0.0758  -1.5172   0.0000   0.0000   0.0000   0.1404
  -9.500  -0.3093   0.13016   0.12584  -0.0274  0.9995  0.0765  -1.5198   0.0000   0.0000   0.0000   0.1437
  -9.400  -0.3122   0.12961   0.12531  -0.0269  0.9994  0.0771  -1.5235   0.0000   0.0000   0.0000   0.1465
  -9.300  -0.3060   0.12797   0.12367  -0.0291  0.9979  0.0786  -1.5238   0.0000   0.0000   0.0000   0.1373
  -9.200  -0.3010   0.12646   0.12216  -0.0316  0.9963  0.0803  -1.5349   0.0000   0.0000   0.0000   0.1273
  -9.100  -0.2988   0.12519   0.12089  -0.0348  0.9940  0.0821  -1.5704   0.0000   0.0000   0.0000   0.1158
  -9.000  -0.3012   0.12455   0.12027  -0.0397  0.9913  0.0835  -1.6502   0.0000   0.0000   0.0000   0.1007
  -8.900  -0.3034   0.12388   0.11962  -0.0437  0.9879  0.0841  -1.7154   0.0000   0.0000   0.0000   0.0888
  -8.800  -0.3038   0.12290   0.11866  -0.0471  0.9851  0.0844  -1.7643   0.0000   0.0000   0.0000   0.0777
  -8.700  -0.3043   0.12178   0.11755  -0.0501  0.9824  0.0846  -1.8058   0.0000   0.0000   0.0000   0.0685
  -8.600  -0.2886   0.11659   0.11237  -0.0481  0.9835  0.0860  -1.7187   0.0000   0.0000   0.0000   0.0653
  -8.500  -0.2717   0.11445   0.11020  -0.0463  0.9832  0.0875  -1.6215   0.0000   0.0000   0.0000   0.0605
  -8.400  -0.2616   0.11308   0.10882  -0.0460  0.9816  0.0890  -1.5799   0.0000   0.0000   0.0000   0.0547
  -8.300  -0.2536   0.11181   0.10749  -0.0464  0.9797  0.0907  -1.5565   0.0000   0.0000   0.0000   0.0471
  -8.200  -0.2467   0.11050   0.10618  -0.0474  0.9778  0.0926  -1.5482   0.0000   0.0000   0.0000   0.0375
  -8.100  -0.2406   0.10911   0.10479  -0.0489  0.9760  0.0947  -1.5509   0.0000   0.0000   0.0000   0.0259
  -8.000  -0.2353   0.10768   0.10336  -0.0510  0.9744  0.0971  -1.5655   0.0000   0.0000   0.0000   0.0120
  -7.900  -0.2361   0.10670   0.10239  -0.0524  0.9709  0.0991  -1.5919   0.0000   0.0000   0.0000   0.0075
  -7.800  -0.2410   0.10604   0.10176  -0.0553  0.9668  0.1014  -1.6494   0.0000   0.0000   0.0000   0.0005
  -7.700  -0.2484   0.10570   0.10144  -0.0600  0.9630  0.1027  -1.7335   0.0000   0.0000   0.0000  -0.0107
  -7.600  -0.2571   0.10543   0.10121  -0.0604  0.9578  0.1030  -1.7723   0.0000   0.0000   0.0000  -0.0032
  -7.500  -0.2611   0.10439   0.10025  -0.0635  0.9533  0.1033  -1.8287   0.0000   0.0000   0.0000  -0.0112
  -7.400  -0.2571   0.10214   0.09801  -0.0697  0.9501  0.1036  -1.8952   0.0000   0.0000   0.0000  -0.0388
  -7.200  -0.2278   0.09662   0.09241  -0.0615  0.9521  0.1077  -1.7534   0.0000   0.0000   0.0000  -0.0402
  -7.100  -0.2128   0.09531   0.09108  -0.0613  0.9514  0.1110  -1.7167   0.0000   0.0000   0.0000  -0.0592
  -7.000  -0.2050   0.09400   0.08976  -0.0626  0.9498  0.1146  -1.7205   0.0000   0.0000   0.0000  -0.0772
  -6.900  -0.2085   0.09334   0.08912  -0.0623  0.9457  0.1165  -1.7384   0.0000   0.0000   0.0000  -0.0701
  -6.800  -0.2132   0.09263   0.08843  -0.0626  0.9410  0.1185  -1.7644   0.0000   0.0000   0.0000  -0.0640
  -6.700  -0.2161   0.08966   0.08547  -0.0808  0.9334  0.1240  -1.9507   0.0000   0.0000   0.0000  -0.1438
  -6.600  -0.2263   0.08847   0.08431  -0.0830  0.9260  0.1242  -2.0016   0.0000   0.0000   0.0000  -0.1351
  -6.400  -0.2061   0.08655   0.08240  -0.0685  0.9279  0.1300  -1.8513   0.0000   0.0000   0.0000  -0.1027
  -6.300  -0.1950   0.08646   0.08229  -0.0668  0.9259  0.1371  -1.7941   0.0000   0.0000   0.0000  -0.1135
  -6.100  -0.1864   0.07970   0.07554  -0.0861  0.9172  0.1490  -1.9588   0.0000   0.0000   0.0000  -0.2331
  -6.000  -0.1758   0.07899   0.07481  -0.0829  0.9166  0.1503  -1.8991   0.0000   0.0000   0.0000  -0.2439
  -5.900  -0.1696   0.07947   0.07528  -0.0777  0.9148  0.1529  -1.8186   0.0000   0.0000   0.0000  -0.2310
  -5.700  -0.1097   0.04647   0.04051  -0.1354  0.9051  0.0662  -2.8357   0.0000   0.0000   0.0000  -1.0227
  -5.600  -0.0880   0.04479   0.03860  -0.1391  0.9036  0.0664  -2.7856   0.0000   0.0000   0.0000  -1.3777
  -5.500  -0.0619   0.04277   0.03622  -0.1444  0.9026  0.0682  -2.7300   0.0000   0.0000   0.0000  -2.1488
  -5.400  -0.0562   0.04263   0.03653  -0.1436  0.9010  0.0737  -2.5936   0.0000   0.0000   0.0000  -2.3774
  -5.300  -0.0392   0.04260   0.03646  -0.1451  0.8996  0.0788  -2.4884   0.0000   0.0000   0.0000  -3.5538
  -5.200  -0.0145   0.04161   0.03518  -0.1489  0.8987  0.0817  -2.4141   0.0000   0.0000   0.0000  -10.3222
  -5.100   0.0101   0.04074   0.03403  -0.1523  0.8980  0.0832  -2.3388   0.0000   0.0000   0.0000  15.6667
  -5.000   0.0336   0.03941   0.03250  -0.1556  0.8974  0.0831  -2.2683   0.0000   0.0000   0.0000   4.9962
  -4.900   0.0311   0.03918   0.03224  -0.1541  0.8921  0.0827  -2.2568   0.0000   0.0000   0.0000   5.3182
  -4.800   0.0466   0.03800   0.03093  -0.1559  0.8900  0.0815  -2.2071   0.0000   0.0000   0.0000   3.6725
  -4.700   0.0649   0.03688   0.02965  -0.1580  0.8882  0.0802  -2.1496   0.0000   0.0000   0.0000   2.7393
  -4.600   0.0849   0.03582   0.02841  -0.1602  0.8866  0.0789  -2.0874   0.0000   0.0000   0.0000   2.1800
  -4.500   0.1057   0.03483   0.02723  -0.1625  0.8851  0.0776  -2.0220   0.0000   0.0000   0.0000   1.8209
  -4.400   0.1267   0.03393   0.02614  -0.1646  0.8837  0.0766  -1.9541   0.0000   0.0000   0.0000   1.5771
  -4.300   0.1478   0.03310   0.02514  -0.1666  0.8823  0.0757  -1.8835   0.0000   0.0000   0.0000   1.4007
  -4.200   0.1688   0.03234   0.02423  -0.1684  0.8811  0.0751  -1.8103   0.0000   0.0000   0.0000   1.2680
  -4.100   0.1896   0.03164   0.02342  -0.1702  0.8800  0.0747  -1.7345   0.0000   0.0000   0.0000   1.1651
  -4.000   0.2104   0.03099   0.02269  -0.1718  0.8790  0.0746  -1.6567   0.0000   0.0000   0.0000   1.0823
  -3.900   0.2314   0.03037   0.02200  -0.1735  0.8781  0.0747  -1.5772   0.0000   0.0000   0.0000   1.0138
  -3.800   0.2523   0.02979   0.02137  -0.1751  0.8773  0.0750  -1.5028   0.0000   0.0000   0.0000   0.9567
  -3.700   0.2555   0.02989   0.02146  -0.1740  0.8727  0.0752  -1.4905   0.0000   0.0000   0.0000   0.9433
  -3.600   0.2608   0.02990   0.02146  -0.1733  0.8681  0.0755  -1.4757   0.0000   0.0000   0.0000   0.9261
  -3.500   0.2744   0.02963   0.02118  -0.1738  0.8655  0.0761  -1.4506   0.0000   0.0000   0.0000   0.8941
  -3.400   0.2901   0.02932   0.02079  -0.1746  0.8635  0.0769  -1.4229   0.0000   0.0000   0.0000   0.8617
  -3.300   0.3071   0.02898   0.02045  -0.1756  0.8618  0.0781  -1.3940   0.0000   0.0000   0.0000   0.8310
  -3.200   0.3249   0.02864   0.02010  -0.1767  0.8604  0.0796  -1.3648   0.0000   0.0000   0.0000   0.8023
  -3.100   0.3437   0.02831   0.01975  -0.1780  0.8593  0.0816  -1.3360   0.0000   0.0000   0.0000   0.7758
  -3.000   0.3634   0.02798   0.01938  -0.1795  0.8583  0.0841  -1.3083   0.0000   0.0000   0.0000   0.7511
  -2.900   0.3872   0.02739   0.01884  -0.1820  0.8576  0.0897  -1.2797   0.0000   0.0000   0.0000   0.7267
  -2.800   0.4105   0.02694   0.01836  -0.1844  0.8569  0.0996  -1.2552   0.0000   0.0000   0.0000   0.7050
  -2.700   0.4557   0.02510   0.01738  -0.1926  0.8575  0.2716  -1.2390   0.0000   0.0000   0.0000   0.6779
  -2.600   0.4786   0.02476   0.01746  -0.1948  0.8566  0.4124  -1.1973   0.0000   0.0000   0.0000   0.6617
  -2.500   0.4966   0.02471   0.01743  -0.1955  0.8555  0.4521  -1.1500   0.0000   0.0000   0.0000   0.6482
  -2.400   0.5149   0.02463   0.01729  -0.1964  0.8544  0.4734  -1.0998   0.0000   0.0000   0.0000   0.6356
  -2.300   0.5025   0.02555   0.01825  -0.1930  0.8449  0.4746  -1.1048   0.0000   0.0000   0.0000   0.6381
  -2.200   0.5147   0.02562   0.01829  -0.1930  0.8418  0.4862  -1.0643   0.0000   0.0000   0.0000   0.6287
  -2.100   0.5319   0.02555   0.01811  -0.1939  0.8397  0.4994  -1.0150   0.0000   0.0000   0.0000   0.6180
  -2.000   0.5469   0.02547   0.01804  -0.1942  0.8378  0.5080  -0.9676   0.0000   0.0000   0.0000   0.6082
  -1.900   0.5626   0.02539   0.01792  -0.1946  0.8361  0.5176  -0.9188   0.0000   0.0000   0.0000   0.5987
  -1.800   0.5802   0.02528   0.01773  -0.1955  0.8346  0.5293  -0.8666   0.0000   0.0000   0.0000   0.5894
  -1.700   0.5956   0.02519   0.01759  -0.1957  0.8332  0.5396  -0.8297   0.0000   0.0000   0.0000   0.5809
  -1.600   0.6103   0.02514   0.01756  -0.1957  0.8319  0.5513  -0.8409   0.0000   0.0000   0.0000   0.5727
  -1.500   0.6276   0.02512   0.01747  -0.1964  0.8307  0.5670  -0.8546   0.0000   0.0000   0.0000   0.5647
  -1.400   0.6170   0.02611   0.01852  -0.1934  0.8219  0.5687  -0.8482   0.0000   0.0000   0.0000   0.5651
  -1.300   0.6217   0.02640   0.01888  -0.1919  0.8180  0.5771  -0.8534   0.0000   0.0000   0.0000   0.5602
  -1.200   0.6314   0.02659   0.01909  -0.1911  0.8154  0.5919  -0.8622   0.0000   0.0000   0.0000   0.5541
  -1.100   0.6403   0.02671   0.01926  -0.1900  0.8132  0.6054  -0.8708   0.0000   0.0000   0.0000   0.5479
  -1.000   0.6482   0.02687   0.01947  -0.1885  0.8112  0.6199  -0.8789   0.0000   0.0000   0.0000   0.5418
  -0.900   0.6582   0.02694   0.01958  -0.1874  0.8095  0.6352  -0.8884   0.0000   0.0000   0.0000   0.5356
  -0.800   0.6649   0.02703   0.01972  -0.1855  0.8080  0.6475  -0.8962   0.0000   0.0000   0.0000   0.5296
  -0.700   0.6779   0.02706   0.01975  -0.1851  0.8067  0.6633  -0.9075   0.0000   0.0000   0.0000   0.5235
  -0.600   0.6847   0.02704   0.01978  -0.1832  0.8054  0.6721  -0.9154   0.0000   0.0000   0.0000   0.5177
  -0.500   0.6719   0.02824   0.02103  -0.1803  0.7958  0.6736  -0.9062   0.0000   0.0000   0.0000   0.5184
  -0.400   0.6773   0.02850   0.02131  -0.1791  0.7921  0.6826  -0.9117   0.0000   0.0000   0.0000   0.5143
  -0.300   0.6921   0.02851   0.02127  -0.1796  0.7897  0.6927  -0.9234   0.0000   0.0000   0.0000   0.5093
  -0.200   0.7018   0.02835   0.02113  -0.1787  0.7875  0.6976  -0.9325   0.0000   0.0000   0.0000   0.5043
  -0.100   0.7147   0.02816   0.02093  -0.1786  0.7856  0.7022  -0.9435   0.0000   0.0000   0.0000   0.4993
   0.000   0.7298   0.02791   0.02067  -0.1789  0.7839  0.7076  -0.9561   0.0000   0.0000   0.0000   0.4943
   0.100   0.7473   0.02764   0.02035  -0.1796  0.7824  0.7135  -0.9703   0.0000   0.0000   0.0000   0.4894
   0.200   0.7678   0.02735   0.02000  -0.1811  0.7811  0.7197  -0.9863   0.0000   0.0000   0.0000   0.4847
   0.300   0.7848   0.02702   0.01966  -0.1817  0.7797  0.7242  -1.0003   0.0000   0.0000   0.0000   0.4802
   0.400   0.7993   0.02675   0.01937  -0.1817  0.7784  0.7284  -1.0129   0.0000   0.0000   0.0000   0.4758
   0.500   0.7833   0.02808   0.02079  -0.1783  0.7676  0.7305  -1.0009   0.0000   0.0000   0.0000   0.4760
   0.600   0.7933   0.02808   0.02079  -0.1780  0.7642  0.7349  -1.0095   0.0000   0.0000   0.0000   0.4726
   0.700   0.8073   0.02793   0.02063  -0.1783  0.7616  0.7400  -1.0210   0.0000   0.0000   0.0000   0.4689
   0.800   0.8238   0.02772   0.02039  -0.1791  0.7593  0.7452  -1.0359   0.0000   0.0000   0.0000   0.4653
   0.900   0.8434   0.02746   0.02009  -0.1805  0.7574  0.7501  -1.0534   0.0000   0.0000   0.0000   0.4617
   1.000   0.8580   0.02713   0.01975  -0.1807  0.7556  0.7535  -1.0679   0.0000   0.0000   0.0000   0.4581
   1.100   0.8730   0.02681   0.01942  -0.1809  0.7540  0.7571  -1.0828   0.0000   0.0000   0.0000   0.4546
   1.200   0.8889   0.02651   0.01910  -0.1813  0.7525  0.7612  -1.0982   0.0000   0.0000   0.0000   0.4511
   1.300   0.9055   0.02625   0.01882  -0.1819  0.7510  0.7657  -1.1142   0.0000   0.0000   0.0000   0.4479
   1.400   0.9000   0.02720   0.01983  -0.1800  0.7430  0.7691  -1.1114   0.0000   0.0000   0.0000   0.4469
   1.500   0.9088   0.02740   0.02005  -0.1798  0.7384  0.7738  -1.1205   0.0000   0.0000   0.0000   0.4446
   1.600   0.9228   0.02735   0.01999  -0.1804  0.7350  0.7786  -1.1340   0.0000   0.0000   0.0000   0.4421
   1.700   0.9333   0.02714   0.01980  -0.1799  0.7321  0.7827  -1.1456   0.0000   0.0000   0.0000   0.4391
   1.800   0.9462   0.02685   0.01951  -0.1797  0.7298  0.7876  -1.1605   0.0000   0.0000   0.0000   0.4362
   1.900   0.9612   0.02653   0.01918  -0.1799  0.7277  0.7933  -1.1781   0.0000   0.0000   0.0000   0.4333
   2.000   0.9785   0.02619   0.01881  -0.1806  0.7258  0.7994  -1.1976   0.0000   0.0000   0.0000   0.4305
   2.100   0.9977   0.02588   0.01845  -0.1817  0.7239  0.8051  -1.2185   0.0000   0.0000   0.0000   0.4279
   2.200   1.0119   0.02555   0.01811  -0.1817  0.7221  0.8094  -1.2358   0.0000   0.0000   0.0000   0.4252
   2.300   1.0085   0.02624   0.01888  -0.1798  0.7154  0.8129  -1.2366   0.0000   0.0000   0.0000   0.4238
   2.400   1.0124   0.02656   0.01925  -0.1788  0.7098  0.8170  -1.2440   0.0000   0.0000   0.0000   0.4220
   2.500   1.0235   0.02653   0.01922  -0.1788  0.7059  0.8217  -1.2580   0.0000   0.0000   0.0000   0.4199
   2.600   1.0385   0.02634   0.01901  -0.1793  0.7028  0.8268  -1.2754   0.0000   0.0000   0.0000   0.4177
   2.700   1.0545   0.02604   0.01870  -0.1799  0.7001  0.8314  -1.2939   0.0000   0.0000   0.0000   0.4155
   2.800   1.0679   0.02567   0.01832  -0.1798  0.6977  0.8359  -1.3107   0.0000   0.0000   0.0000   0.4131
   2.900   1.0834   0.02526   0.01789  -0.1800  0.6954  0.8409  -1.3295   0.0000   0.0000   0.0000   0.4108
   3.000   1.1010   0.02486   0.01750  -0.1807  0.6932  0.8464  -1.3509   0.0000   0.0000   0.0000   0.4086
   3.100   1.1108   0.02497   0.01762  -0.1806  0.6889  0.8517  -1.3668   0.0000   0.0000   0.0000   0.4069
   3.200   1.1116   0.02541   0.01813  -0.1792  0.6825  0.8562  -1.3735   0.0000   0.0000   0.0000   0.4053
   3.300   1.1184   0.02540   0.01815  -0.1783  0.6778  0.8613  -1.3869   0.0000   0.0000   0.0000   0.4034
   3.400   1.1295   0.02521   0.01796  -0.1781  0.6740  0.8674  -1.4046   0.0000   0.0000   0.0000   0.4015
   3.500   1.1439   0.02492   0.01765  -0.1783  0.6707  0.8742  -1.4256   0.0000   0.0000   0.0000   0.3996
   3.600   1.1572   0.02455   0.01726  -0.1782  0.6679  0.8807  -1.4459   0.0000   0.0000   0.0000   0.3976
   3.700   1.1709   0.02416   0.01685  -0.1782  0.6652  0.8884  -1.4667   0.0000   0.0000   0.0000   0.3956
   3.800   1.1873   0.02381   0.01645  -0.1787  0.6626  0.8967  -1.4902   0.0000   0.0000   0.0000   0.3938
   3.900   1.1928   0.02384   0.01651  -0.1776  0.6587  0.9046  -1.5057   0.0000   0.0000   0.0000   0.3920
   4.000   1.1926   0.02421   0.01697  -0.1760  0.6526  0.9136  -1.5141   0.0000   0.0000   0.0000   0.3905
   4.100   1.1967   0.02425   0.01706  -0.1747  0.6477  0.9238  -1.5279   0.0000   0.0000   0.0000   0.3888
   4.200   1.2048   0.02407   0.01690  -0.1739  0.6435  0.9369  -1.5466   0.0000   0.0000   0.0000   0.3870
   4.300   1.2152   0.02372   0.01655  -0.1735  0.6397  0.9585  -1.5765   0.0000   0.0000   0.0000   0.3853
   4.400   1.2337   0.02329   0.01608  -0.1745  0.6358  1.0005  -1.6210   0.0000   0.0000   0.0000   0.3838
   4.500   1.2559   0.02291   0.01561  -0.1763  0.6321  1.0005  -1.6715   0.0000   0.0000   0.0000   0.3825
   4.600   1.2718   0.02290   0.01566  -0.1773  0.6274  1.0005  -1.7120   0.0000   0.0000   0.0000   0.3814
   4.700   1.2801   0.02320   0.01603  -0.1773  0.6210  1.0005  -1.7397   0.0000   0.0000   0.0000   0.3803
   4.800   1.2934   0.02322   0.01605  -0.1779  0.6151  1.0005  -1.7765   0.0000   0.0000   0.0000   0.3792
   4.900   1.3098   0.02306   0.01586  -0.1788  0.6099  1.0005  -1.8188   0.0000   0.0000   0.0000   0.3780
   5.000   1.3277   0.02283   0.01557  -0.1799  0.6052  1.0005  -1.8639   0.0000   0.0000   0.0000   0.3768
   5.100   1.3465   0.02260   0.01525  -0.1811  0.6009  1.0005  -1.9110   0.0000   0.0000   0.0000   0.3757
   5.200   1.3626   0.02258   0.01517  -0.1820  0.5962  1.0005  -1.9534   0.0000   0.0000   0.0000   0.3746
   5.300   1.3692   0.02289   0.01557  -0.1816  0.5901  1.0005  -1.9799   0.0000   0.0000   0.0000   0.3735
   5.400   1.3793   0.02305   0.01576  -0.1817  0.5843  1.0005  -2.0125   0.0000   0.0000   0.0000   0.3724
   5.500   1.3916   0.02311   0.01582  -0.1820  0.5792  1.0005  -2.0492   0.0000   0.0000   0.0000   0.3713
   5.600   1.4052   0.02311   0.01579  -0.1824  0.5747  1.0005  -2.0883   0.0000   0.0000   0.0000   0.3702
   5.700   1.4198   0.02307   0.01571  -0.1830  0.5706  1.0005  -2.1294   0.0000   0.0000   0.0000   0.3691
   5.800   1.4360   0.02301   0.01557  -0.1838  0.5668  1.0005  -2.1737   0.0000   0.0000   0.0000   0.3680
   5.900   1.4455   0.02322   0.01581  -0.1837  0.5621  1.0005  -2.2061   0.0000   0.0000   0.0000   0.3669
   6.000   1.4529   0.02348   0.01612  -0.1832  0.5569  1.0005  -2.2351   0.0000   0.0000   0.0000   0.3658
   6.100   1.4622   0.02363   0.01631  -0.1830  0.5517  1.0005  -2.2676   0.0000   0.0000   0.0000   0.3647
   6.200   1.4727   0.02371   0.01638  -0.1829  0.5467  1.0005  -2.3028   0.0000   0.0000   0.0000   0.3636
   6.300   1.4847   0.02372   0.01636  -0.1830  0.5419  1.0005  -2.3407   0.0000   0.0000   0.0000   0.3624
   6.400   1.4988   0.02367   0.01632  -0.1834  0.5372  1.0005  -2.3828   0.0000   0.0000   0.0000   0.3614
   6.500   1.5134   0.02367   0.01622  -0.1839  0.5323  1.0005  -2.4258   0.0000   0.0000   0.0000   0.3603
   6.600   1.5174   0.02399   0.01664  -0.1828  0.5267  1.0005  -2.4496   0.0000   0.0000   0.0000   0.3591
   6.700   1.5236   0.02421   0.01693  -0.1821  0.5206  1.0005  -2.4776   0.0000   0.0000   0.0000   0.3580
   6.800   1.5315   0.02436   0.01709  -0.1815  0.5146  1.0005  -2.5091   0.0000   0.0000   0.0000   0.3568
   6.900   1.5412   0.02443   0.01714  -0.1812  0.5089  1.0005  -2.5440   0.0000   0.0000   0.0000   0.3557
   7.000   1.5534   0.02443   0.01706  -0.1812  0.5034  1.0005  -2.5838   0.0000   0.0000   0.0000   0.3546
   7.100   1.5631   0.02456   0.01716  -0.1810  0.4980  1.0005  -2.6190   0.0000   0.0000   0.0000   0.3536
   7.200   1.5680   0.02483   0.01751  -0.1800  0.4922  1.0005  -2.6450   0.0000   0.0000   0.0000   0.3524
   7.300   1.5742   0.02504   0.01776  -0.1792  0.4861  1.0005  -2.6739   0.0000   0.0000   0.0000   0.3513
   7.400   1.5820   0.02518   0.01789  -0.1786  0.4802  1.0005  -2.7060   0.0000   0.0000   0.0000   0.3502
   7.500   1.5918   0.02526   0.01791  -0.1783  0.4745  1.0005  -2.7420   0.0000   0.0000   0.0000   0.3491
   7.600   1.6039   0.02533   0.01787  -0.1783  0.4689  1.0005  -2.7825   0.0000   0.0000   0.0000   0.3481
   7.700   1.6092   0.02561   0.01821  -0.1774  0.4634  1.0005  -2.8095   0.0000   0.0000   0.0000   0.3470
   7.800   1.6130   0.02592   0.01860  -0.1763  0.4574  1.0005  -2.8339   0.0000   0.0000   0.0000   0.3459
   7.900   1.6179   0.02618   0.01891  -0.1753  0.4512  1.0005  -2.8606   0.0000   0.0000   0.0000   0.3447
   8.000   1.6243   0.02638   0.01912  -0.1745  0.4451  1.0005  -2.8903   0.0000   0.0000   0.0000   0.3436
   8.100   1.6322   0.02655   0.01923  -0.1739  0.4393  1.0005  -2.9233   0.0000   0.0000   0.0000   0.3426
   8.200   1.6406   0.02674   0.01936  -0.1734  0.4338  1.0005  -2.9570   0.0000   0.0000   0.0000   0.3415
   8.300   1.6441   0.02707   0.01978  -0.1722  0.4283  1.0005  -2.9808   0.0000   0.0000   0.0000   0.3404
   8.400   1.6483   0.02736   0.02012  -0.1712  0.4225  1.0005  -3.0063   0.0000   0.0000   0.0000   0.3393
   8.500   1.6532   0.02762   0.02038  -0.1701  0.4168  1.0005  -3.0334   0.0000   0.0000   0.0000   0.3382
   8.600   1.6583   0.02786   0.02058  -0.1691  0.4112  1.0005  -3.0613   0.0000   0.0000   0.0000   0.3371
   8.700   1.6652   0.02808   0.02072  -0.1684  0.4056  1.0005  -3.0926   0.0000   0.0000   0.0000   0.3361
   8.800   1.6695   0.02840   0.02114  -0.1673  0.4000  1.0005  -3.1182   0.0000   0.0000   0.0000   0.3350
   8.900   1.6698   0.02881   0.02166  -0.1657  0.3941  1.0005  -3.1359   0.0000   0.0000   0.0000   0.3338
   9.000   1.6711   0.02920   0.02212  -0.1642  0.3876  1.0005  -3.1580   0.0000   0.0000   0.0000   0.3327
   9.100   1.6734   0.02957   0.02250  -0.1629  0.3810  1.0005  -3.1848   0.0000   0.0000   0.0000   0.3316
   9.200   1.6769   0.02991   0.02280  -0.1617  0.3747  1.0005  -3.2144   0.0000   0.0000   0.0000   0.3305
   9.300   1.6801   0.03029   0.02316  -0.1605  0.3688  1.0005  -3.2431   0.0000   0.0000   0.0000   0.3294
   9.400   1.6812   0.03076   0.02370  -0.1592  0.3628  1.0005  -3.2665   0.0000   0.0000   0.0000   0.3284
   9.500   1.6823   0.03122   0.02419  -0.1578  0.3564  1.0005  -3.2905   0.0000   0.0000   0.0000   0.3273
   9.600   1.6837   0.03169   0.02463  -0.1565  0.3499  1.0005  -3.3152   0.0000   0.0000   0.0000   0.3262
   9.700   1.6855   0.03215   0.02502  -0.1552  0.3435  1.0005  -3.3413   0.0000   0.0000   0.0000   0.3252
   9.800   1.6873   0.03266   0.02551  -0.1539  0.3371  1.0005  -3.3663   0.0000   0.0000   0.0000   0.3242
   9.900   1.6868   0.03328   0.02625  -0.1526  0.3300  1.0005  -3.3854   0.0000   0.0000   0.0000   0.3232
  10.000   1.6863   0.03392   0.02694  -0.1512  0.3224  1.0005  -3.4049   0.0000   0.0000   0.0000   0.3222
  10.100   1.6853   0.03459   0.02759  -0.1498  0.3146  1.0005  -3.4238   0.0000   0.0000   0.0000   0.3212
  10.200   1.6843   0.03528   0.02823  -0.1484  0.3071  1.0005  -3.4429   0.0000   0.0000   0.0000   0.3202
  10.300   1.6830   0.03604   0.02903  -0.1471  0.2991  1.0005  -3.4604   0.0000   0.0000   0.0000   0.3193
  10.400   1.6807   0.03687   0.02981  -0.1457  0.2910  1.0005  -3.4762   0.0000   0.0000   0.0000   0.3184
  10.500   1.6775   0.03776   0.03060  -0.1442  0.2833  1.0005  -3.4904   0.0000   0.0000   0.0000   0.3175
  10.600   1.6752   0.03867   0.03149  -0.1430  0.2750  1.0005  -3.5052   0.0000   0.0000   0.0000   0.3167
  10.700   1.6725   0.03965   0.03255  -0.1418  0.2649  1.0005  -3.5185   0.0000   0.0000   0.0000   0.3159
  10.800   1.6684   0.04074   0.03360  -0.1405  0.2553  1.0005  -3.5290   0.0000   0.0000   0.0000   0.3151
  10.900   1.6642   0.04187   0.03467  -0.1393  0.2468  1.0005  -3.5396   0.0000   0.0000   0.0000   0.3144
  11.000   1.6604   0.04301   0.03578  -0.1381  0.2384  1.0005  -3.5507   0.0000   0.0000   0.0000   0.3137
  11.100   1.6554   0.04428   0.03697  -0.1369  0.2308  1.0005  -3.5588   0.0000   0.0000   0.0000   0.3130
  11.200   1.6498   0.04561   0.03816  -0.1357  0.2237  1.0005  -3.5658   0.0000   0.0000   0.0000   0.3123
  11.300   1.6479   0.04676   0.03939  -0.1349  0.2142  1.0005  -3.5789   0.0000   0.0000   0.0000   0.3117
  11.400   1.6441   0.04806   0.04070  -0.1341  0.2046  1.0005  -3.5885   0.0000   0.0000   0.0000   0.3112
  11.500   1.6387   0.04950   0.04207  -0.1331  0.1969  1.0005  -3.5947   0.0000   0.0000   0.0000   0.3106
  11.600   1.6350   0.05083   0.04338  -0.1323  0.1897  1.0005  -3.6044   0.0000   0.0000   0.0000   0.3101
  11.700   1.6304   0.05226   0.04476  -0.1315  0.1832  1.0005  -3.6122   0.0000   0.0000   0.0000   0.3096
  11.800   1.6249   0.05377   0.04619  -0.1306  0.1776  1.0005  -3.6193   0.0000   0.0000   0.0000   0.3092
  11.900   1.6187   0.05534   0.04768  -0.1298  0.1724  1.0005  -3.6252   0.0000   0.0000   0.0000   0.3087
  12.000   1.6171   0.05658   0.04896  -0.1292  0.1656  1.0005  -3.6417   0.0000   0.0000   0.0000   0.3082
  12.100   1.6154   0.05785   0.05029  -0.1287  0.1582  1.0005  -3.6581   0.0000   0.0000   0.0000   0.3078
  12.200   1.6117   0.05933   0.05175  -0.1282  0.1522  1.0005  -3.6697   0.0000   0.0000   0.0000   0.3074
  12.300   1.6068   0.06094   0.05332  -0.1276  0.1475  1.0005  -3.6781   0.0000   0.0000   0.0000   0.3071
  12.400   1.6044   0.06232   0.05469  -0.1272  0.1430  1.0005  -3.6931   0.0000   0.0000   0.0000   0.3067
  12.500   1.6021   0.06371   0.05608  -0.1267  0.1389  1.0005  -3.7083   0.0000   0.0000   0.0000   0.3064
  12.600   1.5990   0.06521   0.05755  -0.1264  0.1353  1.0005  -3.7212   0.0000   0.0000   0.0000   0.3061
  12.700   1.5954   0.06678   0.05909  -0.1260  0.1321  1.0005  -3.7324   0.0000   0.0000   0.0000   0.3058
  12.800   1.5916   0.06836   0.06063  -0.1256  0.1292  1.0005  -3.7429   0.0000   0.0000   0.0000   0.3055
  12.900   1.5882   0.06988   0.06211  -0.1252  0.1262  1.0005  -3.7536   0.0000   0.0000   0.0000   0.3052
  13.000   1.5873   0.07111   0.06331  -0.1247  0.1235  1.0005  -3.7823   0.0000   0.0000   0.0000   0.3047
  13.100   1.5885   0.07219   0.06455  -0.1245  0.1211  1.0005  -3.8342   0.0000   0.0000   0.0000   0.3043
  13.200   1.5893   0.07332   0.06575  -0.1242  0.1186  1.0005  -3.8841   0.0000   0.0000   0.0000   0.3039
  13.300   1.5896   0.07451   0.06699  -0.1240  0.1162  1.0005  -3.9324   0.0000   0.0000   0.0000   0.3035
  13.400   1.5895   0.07572   0.06826  -0.1237  0.1140  1.0005  -3.9793   0.0000   0.0000   0.0000   0.3031
  13.500   1.5893   0.07697   0.06954  -0.1235  0.1118  1.0005  -4.0254   0.0000   0.0000   0.0000   0.3028
  13.600   1.5887   0.07825   0.07086  -0.1233  0.1099  1.0005  -4.0701   0.0000   0.0000   0.0000   0.3025
  13.700   1.5877   0.07960   0.07222  -0.1231  0.1082  1.0005  -4.1122   0.0000   0.0000   0.0000   0.3022
  13.800   1.5864   0.08097   0.07359  -0.1230  0.1066  1.0005  -4.1532   0.0000   0.0000   0.0000   0.3019
  13.900   1.5850   0.08234   0.07495  -0.1228  0.1050  1.0005  -4.1939   0.0000   0.0000   0.0000   0.3017
  14.000   1.5838   0.08366   0.07627  -0.1226  0.1036  1.0005  -4.2347   0.0000   0.0000   0.0000   0.3014
  14.100   1.5849   0.08475   0.07738  -0.1224  0.1024  1.0005  -4.2876   0.0000   0.0000   0.0000   0.3010
  14.200   1.5859   0.08584   0.07853  -0.1223  0.1011  1.0005  -4.3402   0.0000   0.0000   0.0000   0.3006
  14.300   1.5868   0.08695   0.07970  -0.1221  0.0999  1.0005  -4.3921   0.0000   0.0000   0.0000   0.3003
  14.400   1.5873   0.08812   0.08091  -0.1220  0.0987  1.0005  -4.4422   0.0000   0.0000   0.0000   0.3000
  14.500   1.5876   0.08934   0.08218  -0.1220  0.0976  1.0005  -4.4905   0.0000   0.0000   0.0000   0.2997
  14.600   1.5877   0.09058   0.08347  -0.1220  0.0964  1.0005  -4.5379   0.0000   0.0000   0.0000   0.2994
  14.700   1.5875   0.09186   0.08480  -0.1220  0.0953  1.0005  -4.5842   0.0000   0.0000   0.0000   0.2992
  14.800   1.5873   0.09317   0.08614  -0.1220  0.0942  1.0005  -4.6299   0.0000   0.0000   0.0000   0.2990
  14.900   1.5871   0.09449   0.08749  -0.1221  0.0931  1.0005  -4.6752   0.0000   0.0000   0.0000   0.2988
  15.000   1.5868   0.09580   0.08882  -0.1221  0.0920  1.0005  -4.7204   0.0000   0.0000   0.0000   0.2987
  15.100   1.5863   0.09714   0.09017  -0.1222  0.0909  1.0005  -4.7640   0.0000   0.0000   0.0000   0.2985
  15.200   1.5855   0.09852   0.09156  -0.1223  0.0897  1.0005  -4.8061   0.0000   0.0000   0.0000   0.2984
  15.300   1.5846   0.09991   0.09294  -0.1224  0.0883  1.0005  -4.8475   0.0000   0.0000   0.0000   0.2982
  15.400   1.5845   0.10108   0.09404  -0.1223  0.0862  1.0005  -4.8946   0.0000   0.0000   0.0000   0.2980
  15.500   1.5846   0.10225   0.09519  -0.1223  0.0841  1.0005  -4.9421   0.0000   0.0000   0.0000   0.2977
  15.600   1.5822   0.10416   0.09721  -0.1230  0.0829  1.0005  -4.9723   0.0000   0.0000   0.0000   0.2980
  15.700   1.5799   0.10605   0.09922  -0.1237  0.0815  1.0005  -5.0027   0.0000   0.0000   0.0000   0.2983
  15.800   1.5773   0.10800   0.10126  -0.1243  0.0798  1.0005  -5.0308   0.0000   0.0000   0.0000   0.2986
  15.900   1.5749   0.10990   0.10324  -0.1250  0.0780  1.0005  -5.0603   0.0000   0.0000   0.0000   0.2989
  16.000   1.5728   0.11171   0.10512  -0.1256  0.0762  1.0005  -5.0916   0.0000   0.0000   0.0000   0.2992
  16.100   1.5713   0.11343   0.10690  -0.1261  0.0746  1.0005  -5.1257   0.0000   0.0000   0.0000   0.2994
  16.200   1.5700   0.11509   0.10861  -0.1267  0.0734  1.0005  -5.1603   0.0000   0.0000   0.0000   0.2995
  16.300   1.5685   0.11678   0.11036  -0.1272  0.0723  1.0005  -5.1934   0.0000   0.0000   0.0000   0.2997
  16.400   1.5669   0.11849   0.11211  -0.1278  0.0712  1.0005  -5.2256   0.0000   0.0000   0.0000   0.2999
  16.500   1.5652   0.12020   0.11386  -0.1283  0.0702  1.0005  -5.2574   0.0000   0.0000   0.0000   0.3001
  16.600   1.5635   0.12191   0.11560  -0.1289  0.0692  1.0005  -5.2882   0.0000   0.0000   0.0000   0.3003
  16.700   1.5616   0.12365   0.11735  -0.1295  0.0682  1.0005  -5.3173   0.0000   0.0000   0.0000   0.3006
  16.800   1.5594   0.12541   0.11913  -0.1301  0.0673  1.0005  -5.3442   0.0000   0.0000   0.0000   0.3009
  16.900   1.5586   0.12701   0.12076  -0.1307  0.0666  1.0005  -5.3781   0.0000   0.0000   0.0000   0.3010
  17.000   1.5581   0.12858   0.12240  -0.1313  0.0658  1.0005  -5.4135   0.0000   0.0000   0.0000   0.3012
  17.100   1.5575   0.13016   0.12405  -0.1318  0.0650  1.0005  -5.4482   0.0000   0.0000   0.0000   0.3013
  17.200   1.5568   0.13176   0.12571  -0.1325  0.0642  1.0005  -5.4818   0.0000   0.0000   0.0000   0.3015
  17.300   1.5559   0.13341   0.12742  -0.1331  0.0634  1.0005  -5.5131   0.0000   0.0000   0.0000   0.3017
  17.400   1.5545   0.13514   0.12922  -0.1338  0.0626  1.0005  -5.5412   0.0000   0.0000   0.0000   0.3020
  17.500   1.5533   0.13685   0.13105  -0.1346  0.0619  1.0005  -5.5714   0.0000   0.0000   0.0000   0.3023
  17.600   1.5520   0.13857   0.13283  -0.1353  0.0612  1.0005  -5.6004   0.0000   0.0000   0.0000   0.3026
  17.700   1.5507   0.14031   0.13461  -0.1361  0.0605  1.0005  -5.6279   0.0000   0.0000   0.0000   0.3030
  17.800   1.5492   0.14206   0.13641  -0.1368  0.0598  1.0005  -5.6544   0.0000   0.0000   0.0000   0.3033
  17.900   1.5477   0.14382   0.13822  -0.1377  0.0591  1.0005  -5.6799   0.0000   0.0000   0.0000   0.3037
  18.000   1.5459   0.14565   0.14009  -0.1385  0.0584  1.0005  -5.7029   0.0000   0.0000   0.0000   0.3041
  18.100   1.5441   0.14749   0.14196  -0.1394  0.0578  1.0005  -5.7255   0.0000   0.0000   0.0000   0.3045
  18.200   1.5425   0.14929   0.14380  -0.1403  0.0571  1.0005  -5.7488   0.0000   0.0000   0.0000   0.3049
  18.300   1.5410   0.15105   0.14559  -0.1411  0.0565  1.0005  -5.7727   0.0000   0.0000   0.0000   0.3053
  18.400   1.5397   0.15277   0.14734  -0.1420  0.0558  1.0005  -5.7973   0.0000   0.0000   0.0000   0.3057
  18.500   1.5386   0.15442   0.14902  -0.1428  0.0551  1.0005  -5.8229   0.0000   0.0000   0.0000   0.3060
  18.600   1.5377   0.15602   0.15064  -0.1436  0.0544  1.0005  -5.8496   0.0000   0.0000   0.0000   0.3064
  18.700   1.5374   0.15745   0.15210  -0.1443  0.0536  1.0005  -5.8800   0.0000   0.0000   0.0000   0.3066
  18.800   1.5380   0.15869   0.15336  -0.1449  0.0528  1.0005  -5.9161   0.0000   0.0000   0.0000   0.3067
  18.900   1.5395   0.15967   0.15437  -0.1453  0.0520  1.0005  -5.9592   0.0000   0.0000   0.0000   0.3066
  19.000   1.5392   0.16117   0.15592  -0.1461  0.0516  1.0005  -5.9870   0.0000   0.0000   0.0000   0.3068
  19.100   1.5381   0.16293   0.15778  -0.1471  0.0513  1.0005  -6.0070   0.0000   0.0000   0.0000   0.3073
  19.200   1.5368   0.16473   0.15968  -0.1482  0.0510  1.0005  -6.0254   0.0000   0.0000   0.0000   0.3078
  19.300   1.5353   0.16661   0.16166  -0.1493  0.0506  1.0005  -6.0414   0.0000   0.0000   0.0000   0.3084
  19.400   1.5333   0.16863   0.16378  -0.1505  0.0501  1.0005  -6.0525   0.0000   0.0000   0.0000   0.3090
  19.500   1.5307   0.17080   0.16605  -0.1518  0.0497  1.0005  -6.0582   0.0000   0.0000   0.0000   0.3098
  19.600   1.5278   0.17305   0.16840  -0.1531  0.0491  1.0005  -6.0611   0.0000   0.0000   0.0000   0.3107
  19.700   1.5246   0.17542   0.17087  -0.1546  0.0485  1.0005  -6.0601   0.0000   0.0000   0.0000   0.3116
  19.800   1.5209   0.17795   0.17349  -0.1562  0.0477  1.0005  -6.0546   0.0000   0.0000   0.0000   0.3127
  19.900   1.5166   0.18066   0.17629  -0.1579  0.0468  1.0005  -6.0429   0.0000   0.0000   0.0000   0.3138
  20.000   1.5123   0.18340   0.17911  -0.1596  0.0458  1.0005  -6.0305   0.0000   0.0000   0.0000   0.3151
  20.100   1.5081   0.18615   0.18194  -0.1613  0.0447  1.0005  -6.0186   0.0000   0.0000   0.0000   0.3163
  20.200   1.5039   0.18893   0.18478  -0.1630  0.0436  1.0005  -6.0062   0.0000   0.0000   0.0000   0.3175
  20.300   1.4994   0.19184   0.18776  -0.1649  0.0425  1.0005  -5.9894   0.0000   0.0000   0.0000   0.3189
  20.400   1.4950   0.19472   0.19069  -0.1667  0.0415  1.0005  -5.9739   0.0000   0.0000   0.0000   0.3202
  20.500   1.4911   0.19753   0.19353  -0.1684  0.0404  1.0005  -5.9621   0.0000   0.0000   0.0000   0.3215
  20.600   1.4875   0.20027   0.19630  -0.1702  0.0394  1.0005  -5.9528   0.0000   0.0000   0.0000   0.3227
  20.700   1.4843   0.20289   0.19893  -0.1718  0.0386  1.0005  -5.9466   0.0000   0.0000   0.0000   0.3238
  20.800   1.4808   0.20569   0.20177  -0.1735  0.0380  1.0005  -5.9306   0.0000   0.0000   0.0000   0.3250
  20.900   1.4764   0.20886   0.20506  -0.1753  0.0374  1.0005  -5.8996   0.0000   0.0000   0.0000   0.3264
  21.000   1.4713   0.21229   0.20861  -0.1773  0.0368  1.0005  -5.8590   0.0000   0.0000   0.0000   0.3280
  21.100   1.4649   0.21613   0.21256  -0.1795  0.0363  1.0005  -5.8032   0.0000   0.0000   0.0000   0.3299
  21.200   1.4578   0.22028   0.21681  -0.1819  0.0358  1.0005  -5.7359   0.0000   0.0000   0.0000   0.3320
  21.300   1.4493   0.22498   0.22161  -0.1846  0.0355  1.0005  -5.6489   0.0000   0.0000   0.0000   0.3345
  21.400   1.4397   0.23019   0.22691  -0.1875  0.0352  1.0005  -5.5429   0.0000   0.0000   0.0000   0.3373
  21.500   1.4286   0.23610   0.23289  -0.1907  0.0350  1.0005  -5.4108   0.0000   0.0000   0.0000   0.3406
  21.600   1.4144   0.24341   0.24026  -0.1945  0.0350  1.0005  -5.2275   0.0000   0.0000   0.0000   0.3448
  21.700   1.3962   0.25277   0.24966  -0.1991  0.0348  1.0005  -4.9679   0.0000   0.0000   0.0000   0.3501
  21.800   1.3743   0.26459   0.26147  -0.2046  0.0338  1.0005  -4.6154   0.0000   0.0000   0.0000   0.3568
  21.900   1.3615   0.27320   0.27006  -0.2084  0.0318  1.0005  -4.3789   0.0000   0.0000   0.0000   0.3613
  22.000   1.3602   0.27631   0.27319  -0.2099  0.0297  1.0005  -4.3445   0.0000   0.0000   0.0000   0.3623
  22.100   1.3688   0.27443   0.27136  -0.2094  0.0279  1.0005  -4.5003   0.0000   0.0000   0.0000   0.3604
  22.200   1.3766   0.27307   0.27001  -0.2091  0.0264  1.0005  -4.6396   0.0000   0.0000   0.0000   0.3588
  22.300   1.3620   0.28284   0.27974  -0.2131  0.0250  1.0005  -4.3422   0.0000   0.0000   0.0000   0.3637
  22.400   1.3515   0.29121   0.28800  -0.2164  0.0234  1.0005  -4.0919   0.0000   0.0000   0.0000   0.3676
  22.500   1.3471   0.29654   0.29331  -0.2185  0.0221  1.0005  -3.9618   0.0000   0.0000   0.0000   0.3696
  22.600   1.3453   0.30033   0.29709  -0.2200  0.0212  1.0005  -3.8930   0.0000   0.0000   0.0000   0.3708
  22.700   1.3452   0.30316   0.29992  -0.2212  0.0204  1.0005  -3.8640   0.0000   0.0000   0.0000   0.3715
  22.800   1.3463   0.30522   0.30197  -0.2221  0.0198  1.0005  -3.8673   0.0000   0.0000   0.0000   0.3717
  22.900   1.3483   0.30670   0.30352  -0.2228  0.0193  1.0005  -3.8971   0.0000   0.0000   0.0000   0.3717
  23.000   1.3516   0.30731   0.30414  -0.2232  0.0188  1.0005  -3.9621   0.0000   0.0000   0.0000   0.3712
  23.100   1.3559   0.30728   0.30413  -0.2235  0.0183  1.0005  -4.0553   0.0000   0.0000   0.0000   0.3705
  23.200   1.3601   0.30727   0.30414  -0.2238  0.0179  1.0005  -4.1491   0.0000   0.0000   0.0000   0.3697
  23.300   1.3634   0.30779   0.30466  -0.2243  0.0175  1.0005  -4.2190   0.0000   0.0000   0.0000   0.3693
  23.400   1.3612   0.31165   0.30848  -0.2257  0.0173  1.0005  -4.1482   0.0000   0.0000   0.0000   0.3704
  23.500   1.3548   0.31852   0.31532  -0.2279  0.0172  1.0005  -3.9532   0.0000   0.0000   0.0000   0.3729
  23.600   1.3504   0.32437   0.32115  -0.2297  0.0172  1.0005  -3.8016   0.0000   0.0000   0.0000   0.3748
  23.700   1.3471   0.32963   0.32639  -0.2312  0.0171  1.0005  -3.6757   0.0000   0.0000   0.0000   0.3763
  23.800   1.3445   0.33446   0.33120  -0.2326  0.0171  1.0005  -3.5693   0.0000   0.0000   0.0000   0.3776
  23.900   1.3426   0.33893   0.33567  -0.2339  0.0171  1.0005  -3.4784   0.0000   0.0000   0.0000   0.3787
  24.000   1.3411   0.34315   0.33987  -0.2351  0.0172  1.0005  -3.3992   0.0000   0.0000   0.0000   0.3797
  24.100   1.3399   0.34713   0.34385  -0.2362  0.0172  1.0005  -3.3302   0.0000   0.0000   0.0000   0.3805
  24.200   1.3389   0.35092   0.34763  -0.2371  0.0173  1.0005  -3.2696   0.0000   0.0000   0.0000   0.3812
  24.400   1.3374   0.35907   0.35580  -0.2392  0.0176  1.0005  -3.1269   0.0000   0.0000   0.0000   0.3826
  24.500   1.3229   0.37766   0.37425  -0.2434  0.0206  1.0005  -2.5180   0.0000   0.0000   0.0000   0.3887
  24.600   1.3217   0.38203   0.37862  -0.2444  0.0213  1.0005  -2.4441   0.0000   0.0000   0.0000   0.3895
  24.700   1.3211   0.38583   0.38242  -0.2453  0.0220  1.0005  -2.3915   0.0000   0.0000   0.0000   0.3901
  24.800   1.3208   0.38928   0.38586  -0.2460  0.0227  1.0005  -2.3521   0.0000   0.0000   0.0000   0.3905
  24.900   1.3207   0.39244   0.38902  -0.2467  0.0233  1.0005  -2.3230   0.0000   0.0000   0.0000   0.3908
  25.000   1.3207   0.39533   0.39193  -0.2472  0.0239  1.0005  -2.3035   0.0000   0.0000   0.0000   0.3910
  25.100   1.3210   0.39797   0.39457  -0.2476  0.0245  1.0005  -2.2942   0.0000   0.0000   0.0000   0.3910
  25.200   1.3215   0.40030   0.39691  -0.2478  0.0250  1.0005  -2.2965   0.0000   0.0000   0.0000   0.3908
  25.300   1.3224   0.40229   0.39891  -0.2478  0.0255  1.0005  -2.3135   0.0000   0.0000   0.0000   0.3903
  25.400   1.3238   0.40388   0.40051  -0.2473  0.0260  1.0005  -2.3509   0.0000   0.0000   0.0000   0.3894
  25.500   1.1751   0.40473   0.40155  -0.2151  0.0382  1.0005  -1.9250   0.0000   0.0000   0.0000   0.3882
  25.600   1.1881   0.40954   0.40636  -0.2179  0.0382  1.0005  -1.9433   0.0000   0.0000   0.0000   0.3881
  25.700   1.1990   0.41388   0.41069  -0.2203  0.0382  1.0005  -1.9567   0.0000   0.0000   0.0000   0.3880
  25.800   1.2085   0.41792   0.41473  -0.2224  0.0383  1.0005  -1.9669   0.0000   0.0000   0.0000   0.3879
  25.900   1.2169   0.42176   0.41857  -0.2244  0.0383  1.0005  -1.9750   0.0000   0.0000   0.0000   0.3879
  26.000   1.2246   0.42545   0.42226  -0.2262  0.0383  1.0005  -1.9815   0.0000   0.0000   0.0000   0.3879
  26.100   1.2317   0.42899   0.42585  -0.2280  0.0383  1.0005  -1.9874   0.0000   0.0000   0.0000   0.3879
  26.200   1.2384   0.43248   0.42933  -0.2297  0.0383  1.0005  -1.9916   0.0000   0.0000   0.0000   0.3879
  26.300   1.2447   0.43589   0.43275  -0.2314  0.0383  1.0005  -1.9950   0.0000   0.0000   0.0000   0.3880
  26.400   1.2508   0.43925   0.43610  -0.2330  0.0383  1.0005  -1.9978   0.0000   0.0000   0.0000   0.3880
  26.500   1.2567   0.44255   0.43941  -0.2346  0.0383  1.0005  -2.0001   0.0000   0.0000   0.0000   0.3881
  26.600   1.2626   0.44583   0.44269  -0.2363  0.0383  1.0005  -2.0017   0.0000   0.0000   0.0000   0.3882
  26.700   1.2688   0.44909   0.44595  -0.2381  0.0383  1.0005  -2.0028   0.0000   0.0000   0.0000   0.3884
  26.800   1.2760   0.45238   0.44923  -0.2401  0.0383  1.0005  -2.0055   0.0000   0.0000   0.0000   0.3885
  27.000   0.9470   0.35533   0.35248  -0.1828  0.0394  1.0005  -1.1950   0.0000   0.0000   0.0000   0.4004
  27.100   0.9440   0.35450   0.35166  -0.1821  0.0392  1.0005  -1.1947   0.0000   0.0000   0.0000   0.4001
  27.200   0.9414   0.35371   0.35088  -0.1814  0.0391  1.0005  -1.1969   0.0000   0.0000   0.0000   0.3997
  27.300   0.9390   0.35301   0.35020  -0.1806  0.0389  1.0005  -1.2022   0.0000   0.0000   0.0000   0.3992
  27.400   0.9374   0.35261   0.34981  -0.1797  0.0387  1.0005  -1.2118   0.0000   0.0000   0.0000   0.3984
  27.500   0.9375   0.35325   0.35047  -0.1786  0.0385  1.0005  -1.2307   0.0000   0.0000   0.0000   0.3970
  27.600   0.9376   0.35474   0.35194  -0.1779  0.0383  1.0005  -1.2358   0.0000   0.0000   0.0000   0.3961
  27.700   0.9341   0.35427   0.35147  -0.1778  0.0383  1.0005  -1.2181   0.0000   0.0000   0.0000   0.3966
  27.900   0.9270   0.35317   0.35043  -0.1776  0.0382  1.0005  -1.1814   0.0000   0.0000   0.0000   0.3977
  28.000   0.9235   0.35264   0.34991  -0.1776  0.0382  1.0005  -1.1628   0.0000   0.0000   0.0000   0.3982
  28.100   0.9201   0.35213   0.34941  -0.1776  0.0382  1.0005  -1.1445   0.0000   0.0000   0.0000   0.3988
  28.200   0.9169   0.35165   0.34894  -0.1776  0.0382  1.0005  -1.1264   0.0000   0.0000   0.0000   0.3994
  28.300   0.9137   0.35120   0.34850  -0.1776  0.0381  1.0005  -1.1085   0.0000   0.0000   0.0000   0.3999
  28.400   0.9107   0.35079   0.34809  -0.1777  0.0381  1.0005  -1.0909   0.0000   0.0000   0.0000   0.4005
  28.500   0.9077   0.35041   0.34772  -0.1778  0.0381  1.0005  -1.0734   0.0000   0.0000   0.0000   0.4011
  28.600   0.9049   0.35008   0.34740  -0.1779  0.0380  1.0005  -1.0561   0.0000   0.0000   0.0000   0.4017
  28.700   0.9022   0.34980   0.34712  -0.1781  0.0380  1.0005  -1.0389   0.0000   0.0000   0.0000   0.4023
  28.800   0.8997   0.34958   0.34691  -0.1783  0.0379  1.0005  -1.0217   0.0000   0.0000   0.0000   0.4029
  28.900   0.8972   0.34943   0.34677  -0.1785  0.0379  1.0005  -1.0047   0.0000   0.0000   0.0000   0.4035
  29.000   0.8949   0.34936   0.34671  -0.1787  0.0378  1.0005  -0.9877   0.0000   0.0000   0.0000   0.4042
  29.100   0.8928   0.34939   0.34674  -0.1790  0.0378  1.0005  -0.9707   0.0000   0.0000   0.0000   0.4048
  29.200   0.8908   0.34952   0.34688  -0.1794  0.0377  1.0005  -0.9538   0.0000   0.0000   0.0000   0.4055
  29.300   0.8891   0.34978   0.34714  -0.1797  0.0376  1.0005  -0.9370   0.0000   0.0000   0.0000   0.4061
  29.400   0.8876   0.35016   0.34753  -0.1802  0.0374  1.0005  -0.9203   0.0000   0.0000   0.0000   0.4067
  29.500   0.8862   0.35066   0.34804  -0.1806  0.0372  1.0005  -0.9039   0.0000   0.0000   0.0000   0.4074
  29.600   0.8851   0.35126   0.34864  -0.1811  0.0370  1.0005  -0.8882   0.0000   0.0000   0.0000   0.4079
  29.700   0.8840   0.35187   0.34926  -0.1815  0.0366  1.0005  -0.8738   0.0000   0.0000   0.0000   0.4085
  29.800   0.8830   0.35242   0.34982  -0.1818  0.0362  1.0005  -0.8612   0.0000   0.0000   0.0000   0.4089
  29.900   0.8820   0.35285   0.35026  -0.1821  0.0358  1.0005  -0.8507   0.0000   0.0000   0.0000   0.4092
  30.000   0.8810   0.35319   0.35061  -0.1823  0.0353  1.0005  -0.8419   0.0000   0.0000   0.0000   0.4095


