xflr5 v6.61

 Calculated polar for: WORTMANN FX 63-137 AIRFOIL

 1 1 Reynolds number fixed          Mach number fixed         

 xtrf =   1.000 (top)        1.000 (bottom)
 Mach =   0.000     Re =     0.500 e 6     Ncrit =   9.000

  alpha     CL        CD       CDp       Cm    Top Xtr Bot Xtr   Cpmin    Chinge    XCp    
 ------- -------- --------- --------- -------- ------- ------- -------- --------- ---------
  -9.600  -0.2784   0.03116   0.02817  -0.1504  0.9271  0.0129  -5.7103   0.0000   0.0000   0.0000  -0.3193
  -9.500  -0.2583   0.02581   0.02235  -0.1639  0.9201  0.0131  -5.7701   0.0000   0.0000   0.0000  -0.4153
  -9.400  -0.2410   0.02351   0.01979  -0.1691  0.9165  0.0133  -5.7404   0.0000   0.0000   0.0000  -0.4842
  -9.300  -0.2284   0.02211   0.01816  -0.1716  0.9111  0.0136  -5.7045   0.0000   0.0000   0.0000  -0.5352
  -9.200  -0.2146   0.02102   0.01692  -0.1737  0.9065  0.0139  -5.6427   0.0000   0.0000   0.0000  -0.5952
  -9.100  -0.2000   0.02015   0.01591  -0.1756  0.9024  0.0142  -5.5649   0.0000   0.0000   0.0000  -0.6655
  -9.000  -0.1852   0.01946   0.01509  -0.1772  0.8989  0.0146  -5.4755   0.0000   0.0000   0.0000  -0.7472
  -8.900  -0.1720   0.01894   0.01446  -0.1783  0.8949  0.0149  -5.3846   0.0000   0.0000   0.0000  -0.8298
  -8.800  -0.1598   0.01852   0.01397  -0.1791  0.8906  0.0152  -5.2928   0.0000   0.0000   0.0000  -0.9161
  -8.700  -0.1471   0.01817   0.01353  -0.1799  0.8866  0.0155  -5.1951   0.0000   0.0000   0.0000  -1.0214
  -8.600  -0.1341   0.01786   0.01314  -0.1806  0.8828  0.0157  -5.0936   0.0000   0.0000   0.0000  -1.1501
  -8.500  -0.1208   0.01759   0.01279  -0.1814  0.8792  0.0160  -4.9896   0.0000   0.0000   0.0000  -1.3093
  -8.400  -0.1078   0.01735   0.01248  -0.1821  0.8757  0.0162  -4.8863   0.0000   0.0000   0.0000  -1.5027
  -8.300  -0.0965   0.01712   0.01222  -0.1824  0.8717  0.0163  -4.7902   0.0000   0.0000   0.0000  -1.7109
  -8.200  -0.0847   0.01691   0.01195  -0.1828  0.8677  0.0165  -4.6925   0.0000   0.0000   0.0000  -1.9878
  -8.100  -0.0725   0.01670   0.01169  -0.1832  0.8637  0.0166  -4.5941   0.0000   0.0000   0.0000  -2.3663
  -8.000  -0.0602   0.01650   0.01142  -0.1837  0.8600  0.0167  -4.4957   0.0000   0.0000   0.0000  -2.9111
  -7.900  -0.0476   0.01629   0.01114  -0.1843  0.8566  0.0168  -4.3978   0.0000   0.0000   0.0000  -3.7560
  -7.800  -0.0351   0.01608   0.01086  -0.1848  0.8534  0.0169  -4.3017   0.0000   0.0000   0.0000  -5.1977
  -7.700  -0.0235   0.01592   0.01067  -0.1850  0.8502  0.0169  -4.2061   0.0000   0.0000   0.0000  -7.8875
  -7.600  -0.0118   0.01582   0.01054  -0.1853  0.8469  0.0170  -4.1072   0.0000   0.0000   0.0000  -15.9268
  -7.500   0.0001   0.01567   0.01035  -0.1856  0.8436  0.0171  -4.0118   0.0000   0.0000   0.0000  2616.7422
  -7.400   0.0124   0.01538   0.00998  -0.1861  0.8403  0.0171  -3.9257   0.0000   0.0000   0.0000  15.7182
  -7.300   0.0250   0.01506   0.00958  -0.1866  0.8372  0.0171  -3.8417   0.0000   0.0000   0.0000   7.9561
  -7.200   0.0376   0.01477   0.00921  -0.1872  0.8343  0.0171  -3.7558   0.0000   0.0000   0.0000   5.3791
  -7.100   0.0503   0.01453   0.00889  -0.1877  0.8315  0.0171  -3.6684   0.0000   0.0000   0.0000   4.0904
  -7.000   0.0628   0.01430   0.00861  -0.1882  0.8290  0.0171  -3.5810   0.0000   0.0000   0.0000   3.3342
  -6.900   0.0749   0.01408   0.00833  -0.1885  0.8266  0.0171  -3.4920   0.0000   0.0000   0.0000   2.8404
  -6.800   0.0870   0.01389   0.00809  -0.1889  0.8241  0.0172  -3.4056   0.0000   0.0000   0.0000   2.4822
  -6.700   0.0992   0.01371   0.00788  -0.1893  0.8215  0.0172  -3.3187   0.0000   0.0000   0.0000   2.2109
  -6.600   0.1114   0.01356   0.00769  -0.1896  0.8187  0.0172  -3.2317   0.0000   0.0000   0.0000   1.9986
  -6.500   0.1236   0.01342   0.00751  -0.1899  0.8157  0.0172  -3.1446   0.0000   0.0000   0.0000   1.8283
  -6.400   0.1357   0.01331   0.00736  -0.1902  0.8127  0.0172  -3.0574   0.0000   0.0000   0.0000   1.6885
  -6.100   0.1716   0.01317   0.00711  -0.1908  0.8033  0.0174  -2.7942   0.0000   0.0000   0.0000   1.3901
  -6.000   0.1838   0.01296   0.00690  -0.1912  0.8005  0.0175  -2.7151   0.0000   0.0000   0.0000   1.3159
  -5.900   0.1963   0.01273   0.00661  -0.1916  0.7972  0.0175  -2.6384   0.0000   0.0000   0.0000   1.2498
  -5.800   0.2089   0.01251   0.00634  -0.1921  0.7937  0.0177  -2.5619   0.0000   0.0000   0.0000   1.1912
  -5.700   0.2216   0.01230   0.00607  -0.1925  0.7901  0.0178  -2.4857   0.0000   0.0000   0.0000   1.1389
  -5.600   0.2344   0.01210   0.00582  -0.1930  0.7864  0.0179  -2.4098   0.0000   0.0000   0.0000   1.0921
  -5.500   0.2473   0.01193   0.00557  -0.1935  0.7826  0.0181  -2.3374   0.0000   0.0000   0.0000   1.0499
  -5.400   0.2603   0.01178   0.00535  -0.1940  0.7784  0.0183  -2.2910   0.0000   0.0000   0.0000   1.0115
  -5.300   0.2730   0.01159   0.00514  -0.1944  0.7754  0.0186  -2.2453   0.0000   0.0000   0.0000   0.9775
  -5.200   0.2856   0.01142   0.00494  -0.1949  0.7718  0.0189  -2.1991   0.0000   0.0000   0.0000   0.9465
  -5.100   0.2982   0.01128   0.00477  -0.1952  0.7677  0.0193  -2.1522   0.0000   0.0000   0.0000   0.9181
  -5.000   0.3107   0.01116   0.00461  -0.1956  0.7634  0.0198  -2.1042   0.0000   0.0000   0.0000   0.8921
  -4.900   0.3230   0.01107   0.00448  -0.1959  0.7592  0.0203  -2.0548   0.0000   0.0000   0.0000   0.8682
  -4.800   0.3351   0.01100   0.00438  -0.1961  0.7550  0.0208  -2.0036   0.0000   0.0000   0.0000   0.8463
  -4.600   0.3593   0.01089   0.00423  -0.1966  0.7476  0.0218  -1.8962   0.0000   0.0000   0.0000   0.8070
  -4.500   0.3714   0.01082   0.00416  -0.1968  0.7442  0.0223  -1.8409   0.0000   0.0000   0.0000   0.7893
  -4.400   0.3834   0.01076   0.00410  -0.1970  0.7407  0.0228  -1.7852   0.0000   0.0000   0.0000   0.7727
  -4.300   0.3953   0.01072   0.00402  -0.1972  0.7372  0.0233  -1.7286   0.0000   0.0000   0.0000   0.7572
  -4.200   0.4074   0.01067   0.00394  -0.1975  0.7337  0.0236  -1.6764   0.0000   0.0000   0.0000   0.7425
  -4.100   0.4196   0.01062   0.00386  -0.1977  0.7304  0.0239  -1.6253   0.0000   0.0000   0.0000   0.7285
  -4.000   0.4318   0.01057   0.00378  -0.1979  0.7272  0.0242  -1.5753   0.0000   0.0000   0.0000   0.7154
  -3.900   0.4440   0.01053   0.00370  -0.1982  0.7241  0.0245  -1.5262   0.0000   0.0000   0.0000   0.7029
  -3.800   0.4563   0.01049   0.00364  -0.1985  0.7213  0.0249  -1.4756   0.0000   0.0000   0.0000   0.6911
  -3.700   0.4684   0.01045   0.00360  -0.1987  0.7195  0.0256  -1.4202   0.0000   0.0000   0.0000   0.6800
  -3.600   0.4803   0.01042   0.00359  -0.1989  0.7176  0.0263  -1.3642   0.0000   0.0000   0.0000   0.6695
  -3.500   0.4920   0.01042   0.00360  -0.1990  0.7154  0.0269  -1.3088   0.0000   0.0000   0.0000   0.6596
  -3.400   0.5060   0.01023   0.00338  -0.1997  0.7131  0.0279  -1.2681   0.0000   0.0000   0.0000   0.6495
  -3.300   0.5191   0.01013   0.00326  -0.2002  0.7105  0.0288  -1.2253   0.0000   0.0000   0.0000   0.6402
  -3.200   0.5318   0.01005   0.00317  -0.2005  0.7078  0.0294  -1.1822   0.0000   0.0000   0.0000   0.6313
  -3.100   0.5443   0.01000   0.00309  -0.2008  0.7050  0.0296  -1.1410   0.0000   0.0000   0.0000   0.6229
  -3.000   0.5567   0.00995   0.00301  -0.2011  0.7021  0.0297  -1.1004   0.0000   0.0000   0.0000   0.6149
  -2.900   0.5690   0.00991   0.00294  -0.2013  0.6993  0.0299  -1.0601   0.0000   0.0000   0.0000   0.6073
  -2.800   0.5813   0.00988   0.00287  -0.2015  0.6964  0.0301  -1.0200   0.0000   0.0000   0.0000   0.5999
  -2.600   0.6056   0.00983   0.00276  -0.2020  0.6910  0.0307  -0.9403   0.0000   0.0000   0.0000   0.5862
  -2.500   0.6180   0.00979   0.00272  -0.2022  0.6888  0.0311  -0.9002   0.0000   0.0000   0.0000   0.5797
  -2.400   0.6303   0.00976   0.00267  -0.2024  0.6865  0.0316  -0.8851   0.0000   0.0000   0.0000   0.5735
  -2.300   0.6426   0.00973   0.00260  -0.2027  0.6839  0.0322  -0.8939   0.0000   0.0000   0.0000   0.5675
  -2.200   0.6547   0.00971   0.00256  -0.2028  0.6813  0.0330  -0.9027   0.0000   0.0000   0.0000   0.5617
  -2.100   0.6667   0.00969   0.00252  -0.2030  0.6785  0.0339  -0.9115   0.0000   0.0000   0.0000   0.5562
  -2.000   0.6786   0.00968   0.00249  -0.2032  0.6756  0.0349  -0.9202   0.0000   0.0000   0.0000   0.5508
  -1.900   0.6905   0.00968   0.00245  -0.2033  0.6726  0.0358  -0.9289   0.0000   0.0000   0.0000   0.5457
  -1.800   0.7022   0.00968   0.00242  -0.2034  0.6695  0.0367  -0.9375   0.0000   0.0000   0.0000   0.5407
  -1.700   0.7138   0.00969   0.00239  -0.2035  0.6663  0.0376  -0.9461   0.0000   0.0000   0.0000   0.5359
  -1.600   0.7254   0.00971   0.00237  -0.2035  0.6632  0.0384  -0.9552   0.0000   0.0000   0.0000   0.5313
  -1.500   0.7372   0.00972   0.00236  -0.2037  0.6604  0.0397  -0.9654   0.0000   0.0000   0.0000   0.5268
  -1.400   0.7492   0.00970   0.00234  -0.2038  0.6585  0.0404  -0.9757   0.0000   0.0000   0.0000   0.5224
  -1.300   0.7612   0.00969   0.00232  -0.2040  0.6561  0.0412  -0.9860   0.0000   0.0000   0.0000   0.5182
  -1.200   0.7731   0.00969   0.00231  -0.2041  0.6534  0.0419  -0.9963   0.0000   0.0000   0.0000   0.5141
  -1.100   0.7849   0.00969   0.00230  -0.2042  0.6503  0.0426  -1.0066   0.0000   0.0000   0.0000   0.5101
  -1.000   0.7966   0.00969   0.00229  -0.2043  0.6469  0.0434  -1.0168   0.0000   0.0000   0.0000   0.5062
  -0.900   0.8082   0.00970   0.00229  -0.2044  0.6432  0.0441  -1.0271   0.0000   0.0000   0.0000   0.5025
  -0.800   0.8197   0.00972   0.00228  -0.2045  0.6394  0.0452  -1.0372   0.0000   0.0000   0.0000   0.4988
  -0.700   0.8311   0.00974   0.00228  -0.2045  0.6356  0.0459  -1.0473   0.0000   0.0000   0.0000   0.4953
  -0.500   0.8539   0.00980   0.00229  -0.2046  0.6285  0.0475  -1.0675   0.0000   0.0000   0.0000   0.4885
  -0.400   0.8657   0.00980   0.00230  -0.2047  0.6256  0.0485  -1.0779   0.0000   0.0000   0.0000   0.4852
  -0.300   0.8774   0.00981   0.00231  -0.2048  0.6224  0.0497  -1.0882   0.0000   0.0000   0.0000   0.4820
  -0.200   0.8890   0.00982   0.00232  -0.2049  0.6189  0.0511  -1.0985   0.0000   0.0000   0.0000   0.4790
  -0.100   0.9006   0.00983   0.00233  -0.2050  0.6151  0.0622  -1.1088   0.0000   0.0000   0.0000   0.4759
   0.000   0.9119   0.00986   0.00235  -0.2050  0.6112  0.0639  -1.1189   0.0000   0.0000   0.0000   0.4730
   0.100   0.9231   0.00990   0.00237  -0.2050  0.6072  0.0668  -1.1290   0.0000   0.0000   0.0000   0.4701
   0.200   0.9343   0.00993   0.00240  -0.2051  0.6031  0.0729  -1.1391   0.0000   0.0000   0.0000   0.4673
   0.300   0.9457   0.00996   0.00243  -0.2052  0.5991  0.0813  -1.1493   0.0000   0.0000   0.0000   0.4646
   0.400   0.9578   0.00995   0.00245  -0.2054  0.5963  0.1009  -1.1599   0.0000   0.0000   0.0000   0.4620
   0.500   0.9702   0.00992   0.00248  -0.2057  0.5935  0.1172  -1.1706   0.0000   0.0000   0.0000   0.4594
   0.600   0.9827   0.00988   0.00251  -0.2061  0.5898  0.1490  -1.1819   0.0000   0.0000   0.0000   0.4570
   0.700   0.9959   0.00980   0.00254  -0.2066  0.5838  0.1969  -1.1951   0.0000   0.0000   0.0000   0.4546
   0.800   1.0109   0.00961   0.00258  -0.2078  0.5746  0.3018  -1.2096   0.0000   0.0000   0.0000   0.4526
   0.900   1.0235   0.00957   0.00268  -0.2084  0.5648  0.3777  -1.2227   0.0000   0.0000   0.0000   0.4504
   1.000   1.0350   0.00959   0.00274  -0.2085  0.5572  0.4014  -1.2350   0.0000   0.0000   0.0000   0.4481
   1.100   1.0462   0.00964   0.00282  -0.2086  0.5490  0.4276  -1.2471   0.0000   0.0000   0.0000   0.4459
   1.200   1.0571   0.00971   0.00291  -0.2086  0.5409  0.4590  -1.2590   0.0000   0.0000   0.0000   0.4437
   1.300   1.0677   0.00979   0.00303  -0.2085  0.5337  0.4887  -1.2727   0.0000   0.0000   0.0000   0.4416
   1.400   1.0792   0.00981   0.00311  -0.2086  0.5292  0.5101  -1.2874   0.0000   0.0000   0.0000   0.4394
   1.500   1.0904   0.00986   0.00319  -0.2086  0.5229  0.5270  -1.3020   0.0000   0.0000   0.0000   0.4373
   1.600   1.1009   0.00995   0.00326  -0.2085  0.5139  0.5359  -1.3161   0.0000   0.0000   0.0000   0.4352
   1.700   1.1108   0.01007   0.00335  -0.2083  0.5032  0.5421  -1.3297   0.0000   0.0000   0.0000   0.4332
   1.800   1.1209   0.01018   0.00343  -0.2081  0.4951  0.5474  -1.3434   0.0000   0.0000   0.0000   0.4312
   1.900   1.1312   0.01029   0.00351  -0.2079  0.4876  0.5529  -1.3574   0.0000   0.0000   0.0000   0.4292
   2.000   1.1412   0.01041   0.00359  -0.2077  0.4801  0.5585  -1.3712   0.0000   0.0000   0.0000   0.4273
   2.100   1.1509   0.01054   0.00367  -0.2074  0.4728  0.5636  -1.3847   0.0000   0.0000   0.0000   0.4253
   2.200   1.1611   0.01065   0.00379  -0.2073  0.4669  0.5711  -1.3987   0.0000   0.0000   0.0000   0.4235
   2.300   1.1722   0.01069   0.00387  -0.2073  0.4629  0.5790  -1.4134   0.0000   0.0000   0.0000   0.4216
   2.400   1.1830   0.01076   0.00396  -0.2072  0.4569  0.5870  -1.4282   0.0000   0.0000   0.0000   0.4198
   2.500   1.1931   0.01087   0.00404  -0.2070  0.4479  0.5943  -1.4451   0.0000   0.0000   0.0000   0.4180
   2.600   1.2024   0.01104   0.00415  -0.2066  0.4370  0.6009  -1.4614   0.0000   0.0000   0.0000   0.4162
   2.700   1.2121   0.01116   0.00427  -0.2064  0.4298  0.6088  -1.4780   0.0000   0.0000   0.0000   0.4145
   2.800   1.2219   0.01128   0.00438  -0.2061  0.4233  0.6160  -1.4948   0.0000   0.0000   0.0000   0.4128
   2.900   1.2316   0.01142   0.00448  -0.2058  0.4167  0.6224  -1.5117   0.0000   0.0000   0.0000   0.4111
   3.000   1.2410   0.01158   0.00459  -0.2055  0.4099  0.6274  -1.5320   0.0000   0.0000   0.0000   0.4094
   3.100   1.2506   0.01173   0.00470  -0.2052  0.4033  0.6321  -1.5524   0.0000   0.0000   0.0000   0.4078
   3.200   1.2614   0.01177   0.00477  -0.2052  0.3997  0.6375  -1.5741   0.0000   0.0000   0.0000   0.4062
   3.300   1.2720   0.01184   0.00485  -0.2051  0.3949  0.6417  -1.5958   0.0000   0.0000   0.0000   0.4046
   3.400   1.2821   0.01194   0.00495  -0.2049  0.3870  0.6452  -1.6169   0.0000   0.0000   0.0000   0.4031
   3.500   1.2910   0.01212   0.00507  -0.2045  0.3749  0.6485  -1.6369   0.0000   0.0000   0.0000   0.4015
   3.600   1.3000   0.01230   0.00519  -0.2042  0.3663  0.6516  -1.6570   0.0000   0.0000   0.0000   0.4000
   3.700   1.3095   0.01245   0.00531  -0.2039  0.3596  0.6547  -1.6812   0.0000   0.0000   0.0000   0.3985
   3.800   1.3188   0.01261   0.00542  -0.2036  0.3529  0.6576  -1.7119   0.0000   0.0000   0.0000   0.3970
   3.900   1.3279   0.01278   0.00558  -0.2032  0.3461  0.6602  -1.7425   0.0000   0.0000   0.0000   0.3955
   4.000   1.3373   0.01293   0.00569  -0.2029  0.3394  0.6634  -1.7737   0.0000   0.0000   0.0000   0.3941
   4.100   1.3478   0.01298   0.00577  -0.2029  0.3362  0.6672  -1.8068   0.0000   0.0000   0.0000   0.3927
   4.200   1.3580   0.01306   0.00587  -0.2027  0.3310  0.6706  -1.8395   0.0000   0.0000   0.0000   0.3913
   4.300   1.3673   0.01321   0.00599  -0.2024  0.3199  0.6738  -1.8710   0.0000   0.0000   0.0000   0.3899
   4.400   1.3749   0.01348   0.00617  -0.2018  0.3063  0.6770  -1.9000   0.0000   0.0000   0.0000   0.3885
   4.500   1.3834   0.01367   0.00632  -0.2014  0.2986  0.6803  -1.9306   0.0000   0.0000   0.0000   0.3872
   4.600   1.3919   0.01387   0.00647  -0.2009  0.2909  0.6835  -1.9612   0.0000   0.0000   0.0000   0.3858
   4.700   1.4002   0.01409   0.00663  -0.2005  0.2831  0.6867  -1.9916   0.0000   0.0000   0.0000   0.3845
   4.800   1.4096   0.01423   0.00675  -0.2002  0.2777  0.6897  -2.0239   0.0000   0.0000   0.0000   0.3832
   4.900   1.4195   0.01432   0.00685  -0.2000  0.2733  0.6928  -2.0571   0.0000   0.0000   0.0000   0.3819
   5.000   1.4285   0.01446   0.00699  -0.1996  0.2640  0.6968  -2.0892   0.0000   0.0000   0.0000   0.3806
   5.100   1.4349   0.01478   0.00723  -0.1989  0.2481  0.7004  -2.1170   0.0000   0.0000   0.0000   0.3793
   5.200   1.4426   0.01500   0.00741  -0.1983  0.2414  0.7041  -2.1471   0.0000   0.0000   0.0000   0.3780
   5.300   1.4504   0.01522   0.00759  -0.1977  0.2349  0.7080  -2.1774   0.0000   0.0000   0.0000   0.3767
   5.400   1.4581   0.01545   0.00778  -0.1972  0.2282  0.7120  -2.2075   0.0000   0.0000   0.0000   0.3754
   5.500   1.4664   0.01563   0.00794  -0.1967  0.2222  0.7161  -2.2389   0.0000   0.0000   0.0000   0.3742
   5.600   1.4757   0.01575   0.00806  -0.1964  0.2187  0.7201  -2.2721   0.0000   0.0000   0.0000   0.3730
   5.700   1.4836   0.01594   0.00823  -0.1959  0.2072  0.7246  -2.3031   0.0000   0.0000   0.0000   0.3718
   5.800   1.4870   0.01641   0.00860  -0.1946  0.1895  0.7293  -2.3263   0.0000   0.0000   0.0000   0.3705
   5.900   1.4916   0.01679   0.00889  -0.1935  0.1788  0.7344  -2.3518   0.0000   0.0000   0.0000   0.3692
   6.000   1.4979   0.01707   0.00913  -0.1927  0.1691  0.7398  -2.3801   0.0000   0.0000   0.0000   0.3679
   6.100   1.5049   0.01729   0.00934  -0.1920  0.1582  0.7453  -2.4100   0.0000   0.0000   0.0000   0.3667
   6.300   1.5035   0.01842   0.01024  -0.1880  0.1210  0.7552  -2.4432   0.0000   0.0000   0.0000   0.3639
   6.400   1.5062   0.01882   0.01060  -0.1866  0.1030  0.7611  -2.4659   0.0000   0.0000   0.0000   0.3626
   6.500   1.5095   0.01920   0.01094  -0.1853  0.0981  0.7673  -2.4896   0.0000   0.0000   0.0000   0.3613
   6.600   1.5140   0.01954   0.01123  -0.1842  0.0938  0.7737  -2.5152   0.0000   0.0000   0.0000   0.3600
   6.700   1.5199   0.01980   0.01148  -0.1834  0.0905  0.7800  -2.5431   0.0000   0.0000   0.0000   0.3588
   6.800   1.5262   0.02001   0.01172  -0.1826  0.0876  0.7870  -2.5720   0.0000   0.0000   0.0000   0.3577
   6.900   1.5329   0.02021   0.01194  -0.1819  0.0852  0.7947  -2.6015   0.0000   0.0000   0.0000   0.3565
   7.000   1.5402   0.02039   0.01215  -0.1813  0.0841  0.8027  -2.6323   0.0000   0.0000   0.0000   0.3554
   7.100   1.5474   0.02056   0.01235  -0.1806  0.0833  0.8110  -2.6632   0.0000   0.0000   0.0000   0.3543
   7.200   1.5544   0.02073   0.01256  -0.1800  0.0824  0.8208  -2.6938   0.0000   0.0000   0.0000   0.3532
   7.300   1.5613   0.02091   0.01278  -0.1793  0.0812  0.8312  -2.7242   0.0000   0.0000   0.0000   0.3521
   7.400   1.5677   0.02110   0.01301  -0.1786  0.0794  0.8437  -2.7538   0.0000   0.0000   0.0000   0.3510
   7.500   1.5736   0.02130   0.01326  -0.1777  0.0764  0.8587  -2.7826   0.0000   0.0000   0.0000   0.3498
   7.700   1.5740   0.02172   0.01378  -0.1739  0.0665  1.0005  -2.8212   0.0000   0.0000   0.0000   0.3470
   7.800   1.5791   0.02208   0.01411  -0.1731  0.0651  1.0005  -2.8492   0.0000   0.0000   0.0000   0.3460
   7.900   1.5837   0.02248   0.01447  -0.1722  0.0636  1.0005  -2.8762   0.0000   0.0000   0.0000   0.3450
   8.000   1.5880   0.02289   0.01485  -0.1713  0.0619  1.0005  -2.9027   0.0000   0.0000   0.0000   0.3439
   8.100   1.5925   0.02330   0.01524  -0.1705  0.0600  1.0005  -2.9294   0.0000   0.0000   0.0000   0.3429
   8.200   1.5975   0.02369   0.01561  -0.1697  0.0580  1.0005  -2.9566   0.0000   0.0000   0.0000   0.3419
   8.300   1.6027   0.02405   0.01597  -0.1689  0.0563  1.0005  -2.9842   0.0000   0.0000   0.0000   0.3409
   8.400   1.6080   0.02441   0.01633  -0.1682  0.0548  1.0005  -3.0119   0.0000   0.0000   0.0000   0.3399
   8.500   1.6134   0.02477   0.01669  -0.1675  0.0534  1.0005  -3.0396   0.0000   0.0000   0.0000   0.3389
   8.600   1.6186   0.02513   0.01707  -0.1667  0.0521  1.0005  -3.0671   0.0000   0.0000   0.0000   0.3380
   8.700   1.6244   0.02546   0.01741  -0.1661  0.0516  1.0005  -3.0989   0.0000   0.0000   0.0000   0.3370
   8.800   1.6304   0.02578   0.01775  -0.1655  0.0512  1.0005  -3.1322   0.0000   0.0000   0.0000   0.3361
   8.900   1.6362   0.02611   0.01811  -0.1649  0.0508  1.0005  -3.1654   0.0000   0.0000   0.0000   0.3352
   9.000   1.6418   0.02647   0.01853  -0.1643  0.0511  1.0005  -3.1914   0.0000   0.0000   0.0000   0.3343
   9.100   1.6474   0.02683   0.01891  -0.1637  0.0507  1.0005  -3.2228   0.0000   0.0000   0.0000   0.3334
   9.200   1.6530   0.02720   0.01931  -0.1630  0.0503  1.0005  -3.2547   0.0000   0.0000   0.0000   0.3325
   9.300   1.6584   0.02758   0.01971  -0.1624  0.0498  1.0005  -3.2867   0.0000   0.0000   0.0000   0.3316
   9.400   1.6637   0.02798   0.02013  -0.1618  0.0491  1.0005  -3.3185   0.0000   0.0000   0.0000   0.3308
   9.500   1.6686   0.02841   0.02058  -0.1612  0.0483  1.0005  -3.3499   0.0000   0.0000   0.0000   0.3299
   9.600   1.6733   0.02886   0.02105  -0.1605  0.0473  1.0005  -3.3810   0.0000   0.0000   0.0000   0.3290
   9.700   1.6777   0.02934   0.02153  -0.1598  0.0461  1.0005  -3.4120   0.0000   0.0000   0.0000   0.3282
   9.800   1.6816   0.02986   0.02206  -0.1591  0.0448  1.0005  -3.4426   0.0000   0.0000   0.0000   0.3274
   9.900   1.6848   0.03045   0.02265  -0.1584  0.0432  1.0005  -3.4728   0.0000   0.0000   0.0000   0.3265
  10.000   1.6872   0.03110   0.02329  -0.1575  0.0414  1.0005  -3.5053   0.0000   0.0000   0.0000   0.3257
  10.100   1.6896   0.03176   0.02395  -0.1567  0.0394  1.0005  -3.5371   0.0000   0.0000   0.0000   0.3249
  10.200   1.6932   0.03233   0.02453  -0.1560  0.0380  1.0005  -3.5720   0.0000   0.0000   0.0000   0.3241
  10.300   1.6977   0.03284   0.02504  -0.1555  0.0369  1.0005  -3.6091   0.0000   0.0000   0.0000   0.3233
  10.400   1.7015   0.03339   0.02559  -0.1548  0.0350  1.0005  -3.6442   0.0000   0.0000   0.0000   0.3225
  10.500   1.7041   0.03405   0.02624  -0.1541  0.0314  1.0005  -3.6757   0.0000   0.0000   0.0000   0.3218
  10.600   1.7004   0.03524   0.02736  -0.1528  0.0247  1.0005  -3.6932   0.0000   0.0000   0.0000   0.3210
  10.700   1.6984   0.03632   0.02839  -0.1518  0.0209  1.0005  -3.7116   0.0000   0.0000   0.0000   0.3203
  10.800   1.6978   0.03729   0.02934  -0.1508  0.0166  1.0005  -3.7347   0.0000   0.0000   0.0000   0.3196
  10.900   1.6943   0.03856   0.03062  -0.1497  0.0094  1.0005  -3.7482   0.0000   0.0000   0.0000   0.3189
  11.000   1.6903   0.03991   0.03196  -0.1486  0.0059  1.0005  -3.7567   0.0000   0.0000   0.0000   0.3182
  11.100   1.6918   0.04074   0.03283  -0.1479  0.0045  1.0005  -3.7868   0.0000   0.0000   0.0000   0.3175
  11.200   1.6943   0.04149   0.03361  -0.1473  0.0043  1.0005  -3.8192   0.0000   0.0000   0.0000   0.3168
  11.300   1.6964   0.04229   0.03443  -0.1467  0.0042  1.0005  -3.8501   0.0000   0.0000   0.0000   0.3161
  11.400   1.6984   0.04310   0.03528  -0.1461  0.0041  1.0005  -3.8804   0.0000   0.0000   0.0000   0.3155
  11.500   1.7005   0.04391   0.03612  -0.1455  0.0040  1.0005  -3.9111   0.0000   0.0000   0.0000   0.3148
  11.600   1.7029   0.04470   0.03694  -0.1449  0.0039  1.0005  -3.9421   0.0000   0.0000   0.0000   0.3142
  11.700   1.7053   0.04549   0.03776  -0.1444  0.0038  1.0005  -3.9732   0.0000   0.0000   0.0000   0.3135
  11.800   1.7073   0.04633   0.03864  -0.1439  0.0037  1.0005  -4.0030   0.0000   0.0000   0.0000   0.3129
  11.900   1.7088   0.04724   0.03960  -0.1433  0.0036  1.0005  -4.0311   0.0000   0.0000   0.0000   0.3123
  12.000   1.7107   0.04810   0.04051  -0.1428  0.0036  1.0005  -4.0603   0.0000   0.0000   0.0000   0.3117
  12.100   1.7128   0.04895   0.04138  -0.1423  0.0035  1.0005  -4.0902   0.0000   0.0000   0.0000   0.3111
  12.200   1.7149   0.04979   0.04226  -0.1419  0.0035  1.0005  -4.1202   0.0000   0.0000   0.0000   0.3105
  12.300   1.7171   0.05063   0.04314  -0.1414  0.0034  1.0005  -4.1513   0.0000   0.0000   0.0000   0.3099
  12.400   1.7187   0.05154   0.04409  -0.1409  0.0034  1.0005  -4.2062   0.0000   0.0000   0.0000   0.3093
  12.500   1.7200   0.05251   0.04509  -0.1405  0.0034  1.0005  -4.2595   0.0000   0.0000   0.0000   0.3088
  12.600   1.7214   0.05346   0.04608  -0.1400  0.0034  1.0005  -4.3135   0.0000   0.0000   0.0000   0.3082
  12.700   1.7229   0.05439   0.04705  -0.1396  0.0033  1.0005  -4.3681   0.0000   0.0000   0.0000   0.3077
  12.800   1.7244   0.05531   0.04802  -0.1391  0.0033  1.0005  -4.4229   0.0000   0.0000   0.0000   0.3071
  12.900   1.7258   0.05626   0.04900  -0.1387  0.0033  1.0005  -4.4775   0.0000   0.0000   0.0000   0.3066
  13.000   1.7264   0.05731   0.05009  -0.1383  0.0033  1.0005  -4.5286   0.0000   0.0000   0.0000   0.3061
  13.100   1.7270   0.05839   0.05121  -0.1379  0.0033  1.0005  -4.5791   0.0000   0.0000   0.0000   0.3056
  13.200   1.7279   0.05943   0.05230  -0.1375  0.0033  1.0005  -4.6316   0.0000   0.0000   0.0000   0.3051
  13.300   1.7290   0.06046   0.05336  -0.1371  0.0033  1.0005  -4.6850   0.0000   0.0000   0.0000   0.3046
  13.400   1.7302   0.06148   0.05443  -0.1367  0.0033  1.0005  -4.7389   0.0000   0.0000   0.0000   0.3041
  13.500   1.7313   0.06252   0.05550  -0.1364  0.0032  1.0005  -4.7928   0.0000   0.0000   0.0000   0.3036
  13.600   1.7320   0.06363   0.05666  -0.1361  0.0032  1.0005  -4.8441   0.0000   0.0000   0.0000   0.3032
  13.700   1.7320   0.06486   0.05792  -0.1358  0.0032  1.0005  -4.8919   0.0000   0.0000   0.0000   0.3028
  13.800   1.7322   0.06606   0.05917  -0.1355  0.0032  1.0005  -4.9409   0.0000   0.0000   0.0000   0.3024
  13.900   1.7326   0.06722   0.06037  -0.1352  0.0032  1.0005  -4.9910   0.0000   0.0000   0.0000   0.3020
  14.000   1.7332   0.06837   0.06156  -0.1349  0.0032  1.0005  -5.0416   0.0000   0.0000   0.0000   0.3015
  14.100   1.7337   0.06953   0.06276  -0.1347  0.0032  1.0005  -5.0925   0.0000   0.0000   0.0000   0.3011
  14.200   1.7336   0.07081   0.06408  -0.1344  0.0032  1.0005  -5.1394   0.0000   0.0000   0.0000   0.3008
  14.300   1.7328   0.07218   0.06549  -0.1342  0.0033  1.0005  -5.1831   0.0000   0.0000   0.0000   0.3005
  14.400   1.7326   0.07348   0.06684  -0.1340  0.0033  1.0005  -5.2293   0.0000   0.0000   0.0000   0.3001
  14.500   1.7326   0.07474   0.06814  -0.1338  0.0033  1.0005  -5.2772   0.0000   0.0000   0.0000   0.2998
  14.600   1.7327   0.07598   0.06943  -0.1337  0.0033  1.0005  -5.3253   0.0000   0.0000   0.0000   0.2994
  14.700   1.7327   0.07724   0.07072  -0.1335  0.0033  1.0005  -5.3731   0.0000   0.0000   0.0000   0.2991
  14.800   1.7325   0.07854   0.07206  -0.1333  0.0033  1.0005  -5.4196   0.0000   0.0000   0.0000   0.2987
  14.900   1.7312   0.08003   0.07360  -0.1332  0.0033  1.0005  -5.4601   0.0000   0.0000   0.0000   0.2985
  15.000   1.7300   0.08150   0.07512  -0.1331  0.0033  1.0005  -5.5009   0.0000   0.0000   0.0000   0.2983
  15.100   1.7292   0.08290   0.07657  -0.1330  0.0033  1.0005  -5.5438   0.0000   0.0000   0.0000   0.2980
  15.200   1.7285   0.08428   0.07799  -0.1330  0.0033  1.0005  -5.5878   0.0000   0.0000   0.0000   0.2977
  15.300   1.7279   0.08567   0.07942  -0.1329  0.0033  1.0005  -5.6318   0.0000   0.0000   0.0000   0.2975
  15.400   1.7266   0.08717   0.08097  -0.1329  0.0033  1.0005  -5.6714   0.0000   0.0000   0.0000   0.2973
  15.500   1.7244   0.08882   0.08266  -0.1329  0.0033  1.0005  -5.7063   0.0000   0.0000   0.0000   0.2972
  15.600   1.7229   0.09035   0.08427  -0.1329  0.0034  1.0005  -5.7464   0.0000   0.0000   0.0000   0.2970
  15.700   1.7218   0.09182   0.08578  -0.1329  0.0034  1.0005  -5.7885   0.0000   0.0000   0.0000   0.2968
  15.800   1.7207   0.09327   0.08728  -0.1329  0.0034  1.0005  -5.8294   0.0000   0.0000   0.0000   0.2966
  15.900   1.7193   0.09474   0.08879  -0.1329  0.0034  1.0005  -5.8689   0.0000   0.0000   0.0000   0.2964
  16.000   1.7175   0.09629   0.09039  -0.1330  0.0034  1.0005  -5.9054   0.0000   0.0000   0.0000   0.2963
  16.100   1.7144   0.09806   0.09222  -0.1331  0.0034  1.0005  -5.9344   0.0000   0.0000   0.0000   0.2963
  16.200   1.7120   0.09977   0.09397  -0.1333  0.0034  1.0005  -5.9665   0.0000   0.0000   0.0000   0.2962
  16.300   1.7100   0.10139   0.09564  -0.1334  0.0034  1.0005  -6.0011   0.0000   0.0000   0.0000   0.2961
  16.400   1.7081   0.10300   0.09730  -0.1336  0.0035  1.0005  -6.0363   0.0000   0.0000   0.0000   0.2961
  16.500   1.7061   0.10462   0.09896  -0.1337  0.0035  1.0005  -6.0710   0.0000   0.0000   0.0000   0.2960
  16.600   1.7029   0.10650   0.10090  -0.1341  0.0035  1.0005  -6.0973   0.0000   0.0000   0.0000   0.2961
  16.700   1.7000   0.10835   0.10280  -0.1344  0.0035  1.0005  -6.1250   0.0000   0.0000   0.0000   0.2961
  16.800   1.6977   0.11007   0.10457  -0.1346  0.0035  1.0005  -6.1567   0.0000   0.0000   0.0000   0.2962
  16.900   1.6957   0.11174   0.10629  -0.1349  0.0035  1.0005  -6.1896   0.0000   0.0000   0.0000   0.2962
  17.000   1.6937   0.11342   0.10802  -0.1352  0.0035  1.0005  -6.2223   0.0000   0.0000   0.0000   0.2962
  17.100   1.6917   0.11512   0.10977  -0.1355  0.0036  1.0005  -6.2546   0.0000   0.0000   0.0000   0.2962
  17.200   1.6882   0.11711   0.11181  -0.1360  0.0036  1.0005  -6.2770   0.0000   0.0000   0.0000   0.2964
  17.300   1.6846   0.11912   0.11387  -0.1365  0.0036  1.0005  -6.2983   0.0000   0.0000   0.0000   0.2966
  17.400   1.6817   0.12100   0.11580  -0.1370  0.0036  1.0005  -6.3238   0.0000   0.0000   0.0000   0.2968
  17.500   1.6790   0.12283   0.11768  -0.1375  0.0036  1.0005  -6.3505   0.0000   0.0000   0.0000   0.2969
  17.600   1.6764   0.12467   0.11957  -0.1379  0.0036  1.0005  -6.3771   0.0000   0.0000   0.0000   0.2971
  17.700   1.6723   0.12683   0.12179  -0.1386  0.0036  1.0005  -6.3926   0.0000   0.0000   0.0000   0.2975
  17.800   1.6686   0.12890   0.12391  -0.1393  0.0037  1.0005  -6.4106   0.0000   0.0000   0.0000   0.2978
  17.900   1.6656   0.13082   0.12588  -0.1399  0.0037  1.0005  -6.4333   0.0000   0.0000   0.0000   0.2981
  18.000   1.6630   0.13268   0.12779  -0.1405  0.0037  1.0005  -6.4582   0.0000   0.0000   0.0000   0.2983
  18.100   1.6605   0.13453   0.12970  -0.1411  0.0037  1.0005  -6.4829   0.0000   0.0000   0.0000   0.2985
  18.200   1.6577   0.13646   0.13168  -0.1418  0.0037  1.0005  -6.5048   0.0000   0.0000   0.0000   0.2988
  18.300   1.6532   0.13872   0.13400  -0.1426  0.0037  1.0005  -6.5145   0.0000   0.0000   0.0000   0.2993
  18.400   1.6495   0.14084   0.13617  -0.1435  0.0038  1.0005  -6.5289   0.0000   0.0000   0.0000   0.2998
  18.500   1.6465   0.14282   0.13820  -0.1442  0.0038  1.0005  -6.5482   0.0000   0.0000   0.0000   0.3001
  18.600   1.6437   0.14477   0.14020  -0.1450  0.0038  1.0005  -6.5678   0.0000   0.0000   0.0000   0.3005
  18.700   1.6404   0.14682   0.14231  -0.1459  0.0038  1.0005  -6.5836   0.0000   0.0000   0.0000   0.3009
  18.800   1.6357   0.14917   0.14472  -0.1469  0.0038  1.0005  -6.5881   0.0000   0.0000   0.0000   0.3016
  18.900   1.6324   0.15127   0.14687  -0.1479  0.0039  1.0005  -6.6017   0.0000   0.0000   0.0000   0.3021
  19.000   1.6296   0.15324   0.14890  -0.1487  0.0039  1.0005  -6.6193   0.0000   0.0000   0.0000   0.3025
  19.100   1.6270   0.15519   0.15090  -0.1496  0.0039  1.0005  -6.6372   0.0000   0.0000   0.0000   0.3029
  19.200   1.6243   0.15716   0.15291  -0.1505  0.0039  1.0005  -6.6538   0.0000   0.0000   0.0000   0.3034
  19.300   1.6212   0.15922   0.15504  -0.1515  0.0039  1.0005  -6.6664   0.0000   0.0000   0.0000   0.3039
  19.400   1.6166   0.16165   0.15752  -0.1527  0.0039  1.0005  -6.6663   0.0000   0.0000   0.0000   0.3047
  19.500   1.6130   0.16386   0.15978  -0.1538  0.0040  1.0005  -6.6734   0.0000   0.0000   0.0000   0.3054
  19.600   1.6100   0.16589   0.16187  -0.1549  0.0040  1.0005  -6.6845   0.0000   0.0000   0.0000   0.3060
  19.700   1.6073   0.16784   0.16386  -0.1560  0.0040  1.0005  -6.6962   0.0000   0.0000   0.0000   0.3065
  19.800   1.6040   0.16991   0.16599  -0.1572  0.0040  1.0005  -6.7017   0.0000   0.0000   0.0000   0.3073
  19.900   1.6001   0.17213   0.16827  -0.1586  0.0040  1.0005  -6.7014   0.0000   0.0000   0.0000   0.3081
  20.000   1.5973   0.17412   0.17031  -0.1598  0.0041  1.0005  -6.7094   0.0000   0.0000   0.0000   0.3088
  20.100   1.5949   0.17603   0.17227  -0.1610  0.0041  1.0005  -6.7202   0.0000   0.0000   0.0000   0.3094
  20.200   1.5926   0.17794   0.17423  -0.1621  0.0041  1.0005  -6.7309   0.0000   0.0000   0.0000   0.3100
  20.300   1.5902   0.17989   0.17622  -0.1633  0.0041  1.0005  -6.7400   0.0000   0.0000   0.0000   0.3106
  20.400   1.5877   0.18191   0.17830  -0.1645  0.0041  1.0005  -6.7470   0.0000   0.0000   0.0000   0.3113
  20.500   1.5837   0.18433   0.18077  -0.1660  0.0042  1.0005  -6.7400   0.0000   0.0000   0.0000   0.3122
  20.600   1.5803   0.18661   0.18311  -0.1674  0.0042  1.0005  -6.7376   0.0000   0.0000   0.0000   0.3131
  20.700   1.5774   0.18879   0.18534  -0.1687  0.0042  1.0005  -6.7392   0.0000   0.0000   0.0000   0.3139
  20.800   1.5747   0.19095   0.18755  -0.1700  0.0042  1.0005  -6.7411   0.0000   0.0000   0.0000   0.3146
  20.900   1.5718   0.19320   0.18985  -0.1714  0.0042  1.0005  -6.7402   0.0000   0.0000   0.0000   0.3155
  21.000   1.5678   0.19578   0.19248  -0.1730  0.0043  1.0005  -6.7278   0.0000   0.0000   0.0000   0.3165
  21.100   1.5648   0.19810   0.19485  -0.1744  0.0043  1.0005  -6.7240   0.0000   0.0000   0.0000   0.3174
  21.200   1.5623   0.20031   0.19711  -0.1757  0.0043  1.0005  -6.7233   0.0000   0.0000   0.0000   0.3181
  21.300   1.5599   0.20251   0.19936  -0.1770  0.0043  1.0005  -6.7225   0.0000   0.0000   0.0000   0.3189
  21.400   1.5575   0.20473   0.20163  -0.1783  0.0044  1.0005  -6.7202   0.0000   0.0000   0.0000   0.3196
  21.500   1.5550   0.20699   0.20395  -0.1797  0.0044  1.0005  -6.7155   0.0000   0.0000   0.0000   0.3204
  21.600   1.5523   0.20936   0.20636  -0.1811  0.0044  1.0005  -6.7063   0.0000   0.0000   0.0000   0.3213
  21.700   1.5482   0.21215   0.20921  -0.1828  0.0044  1.0005  -6.6829   0.0000   0.0000   0.0000   0.3224
  21.800   1.5442   0.21495   0.21207  -0.1844  0.0045  1.0005  -6.6572   0.0000   0.0000   0.0000   0.3236
  21.900   1.5403   0.21771   0.21489  -0.1861  0.0045  1.0005  -6.6288   0.0000   0.0000   0.0000   0.3247
  22.000   1.5351   0.22084   0.21809  -0.1879  0.0045  1.0005  -6.5715   0.0000   0.0000   0.0000   0.3261
  22.100   1.5312   0.22368   0.22101  -0.1895  0.0046  1.0005  -6.5321   0.0000   0.0000   0.0000   0.3272
  22.200   1.5291   0.22614   0.22351  -0.1910  0.0046  1.0005  -6.5339   0.0000   0.0000   0.0000   0.3281
  22.300   1.5264   0.22879   0.22620  -0.1925  0.0047  1.0005  -6.5285   0.0000   0.0000   0.0000   0.3291
  22.400   1.5249   0.23112   0.22858  -0.1939  0.0047  1.0005  -6.5353   0.0000   0.0000   0.0000   0.3298
  22.500   1.5237   0.23334   0.23083  -0.1952  0.0047  1.0005  -6.5467   0.0000   0.0000   0.0000   0.3305
  22.600   1.5227   0.23551   0.23304  -0.1964  0.0048  1.0005  -6.5597   0.0000   0.0000   0.0000   0.3312
  22.700   1.5218   0.23769   0.23524  -0.1977  0.0048  1.0005  -6.5732   0.0000   0.0000   0.0000   0.3318
  22.800   1.5208   0.23991   0.23750  -0.1989  0.0049  1.0005  -6.5846   0.0000   0.0000   0.0000   0.3324
  22.900   1.5196   0.24223   0.23984  -0.2002  0.0049  1.0005  -6.5926   0.0000   0.0000   0.0000   0.3331
  23.000   1.5179   0.24471   0.24236  -0.2016  0.0050  1.0005  -6.5946   0.0000   0.0000   0.0000   0.3339
  23.100   1.5144   0.24785   0.24555  -0.2034  0.0050  1.0005  -6.5708   0.0000   0.0000   0.0000   0.3352
  23.200   1.5119   0.25068   0.24841  -0.2050  0.0050  1.0005  -6.5595   0.0000   0.0000   0.0000   0.3362
  23.300   1.5100   0.25334   0.25111  -0.2064  0.0051  1.0005  -6.5546   0.0000   0.0000   0.0000   0.3371
  23.400   1.5082   0.25600   0.25380  -0.2079  0.0051  1.0005  -6.5499   0.0000   0.0000   0.0000   0.3380
  23.500   1.5062   0.25873   0.25657  -0.2094  0.0051  1.0005  -6.5422   0.0000   0.0000   0.0000   0.3389
  23.600   1.5022   0.26225   0.26013  -0.2113  0.0052  1.0005  -6.5046   0.0000   0.0000   0.0000   0.3404
  23.700   1.4994   0.26535   0.26327  -0.2129  0.0052  1.0005  -6.4824   0.0000   0.0000   0.0000   0.3415
  23.800   1.4975   0.26815   0.26610  -0.2144  0.0053  1.0005  -6.4723   0.0000   0.0000   0.0000   0.3424
  23.900   1.4958   0.27092   0.26891  -0.2158  0.0053  1.0005  -6.4629   0.0000   0.0000   0.0000   0.3433
  24.000   1.4938   0.27378   0.27180  -0.2173  0.0054  1.0005  -6.4499   0.0000   0.0000   0.0000   0.3442
  24.100   1.4915   0.27682   0.27488  -0.2189  0.0054  1.0005  -6.4296   0.0000   0.0000   0.0000   0.3453
  24.200   1.4886   0.28017   0.27827  -0.2206  0.0055  1.0005  -6.3976   0.0000   0.0000   0.0000   0.3465
  24.300   1.4832   0.28461   0.28276  -0.2227  0.0055  1.0005  -6.3240   0.0000   0.0000   0.0000   0.3484
  24.400   1.4785   0.28884   0.28704  -0.2248  0.0055  1.0005  -6.2583   0.0000   0.0000   0.0000   0.3501
  24.500   1.4743   0.29293   0.29117  -0.2267  0.0056  1.0005  -6.1979   0.0000   0.0000   0.0000   0.3517
  24.600   1.4680   0.29808   0.29637  -0.2291  0.0056  1.0005  -6.0971   0.0000   0.0000   0.0000   0.3539
  24.700   1.4630   0.30267   0.30101  -0.2312  0.0057  1.0005  -6.0158   0.0000   0.0000   0.0000   0.3557
  24.800   1.4590   0.30697   0.30534  -0.2331  0.0057  1.0005  -5.9457   0.0000   0.0000   0.0000   0.3573
  24.900   1.4542   0.31170   0.31013  -0.2351  0.0058  1.0005  -5.8567   0.0000   0.0000   0.0000   0.3591
  25.000   1.4471   0.31776   0.31623  -0.2376  0.0059  1.0005  -5.7162   0.0000   0.0000   0.0000   0.3616
  25.100   1.4340   0.32735   0.32589  -0.2412  0.0059  1.0005  -5.4387   0.0000   0.0000   0.0000   0.3659


