xflr5 v6.61

 Calculated polar for: WORTMANN FX 60-126 AIRFOIL

 1 1 Reynolds number fixed          Mach number fixed         

 xtrf =   1.000 (top)        1.000 (bottom)
 Mach =   0.000     Re =     0.100 e 6     Ncrit =   9.000

  alpha     CL        CD       CDp       Cm    Top Xtr Bot Xtr   Cpmin    Chinge    XCp    
 ------- -------- --------- --------- -------- ------- ------- -------- --------- ---------
 -10.000  -0.3557   0.10912   0.10413  -0.0360  1.0000  0.1080  -1.5330   0.0000   0.0000   0.0000   0.1358
  -9.900  -0.3526   0.10780   0.10282  -0.0361  1.0000  0.1086  -1.5293   0.0000   0.0000   0.0000   0.1347
  -9.800  -0.3500   0.10648   0.10151  -0.0362  1.0000  0.1093  -1.5289   0.0000   0.0000   0.0000   0.1336
  -9.700  -0.3480   0.10515   0.10019  -0.0365  1.0000  0.1099  -1.5314   0.0000   0.0000   0.0000   0.1324
  -9.600  -0.3465   0.10380   0.09881  -0.0368  1.0000  0.1105  -1.5358   0.0000   0.0000   0.0000   0.1311
  -9.500  -0.3453   0.10245   0.09747  -0.0371  1.0000  0.1110  -1.5430   0.0000   0.0000   0.0000   0.1299
  -9.400  -0.3810   0.09035   0.08548  -0.0470  1.0000  0.0653  -2.0973   0.0000   0.0000   0.0000   0.1140
  -9.300  -0.3764   0.08936   0.08449  -0.0459  1.0000  0.0636  -2.0691   0.0000   0.0000   0.0000   0.1153
  -9.200  -0.3764   0.08775   0.08290  -0.0460  1.0000  0.0619  -2.0845   0.0000   0.0000   0.0000   0.1154
  -9.100  -0.4492   0.07234   0.06757  -0.0599  1.0000  0.0521  -2.8443   0.0000   0.0000   0.0000   0.1050
  -9.000  -0.4381   0.07185   0.06708  -0.0580  1.0000  0.0509  -2.7913   0.0000   0.0000   0.0000   0.1058
  -8.900  -0.4430   0.07031   0.06558  -0.0578  1.0000  0.0505  -2.8137   0.0000   0.0000   0.0000   0.1081
  -8.800  -0.4512   0.06878   0.06409  -0.0576  1.0000  0.0502  -2.8486   0.0000   0.0000   0.0000   0.1110
  -8.700  -0.4618   0.06743   0.06278  -0.0573  1.0000  0.0499  -2.8873   0.0000   0.0000   0.0000   0.1150
  -8.600  -0.4739   0.06626   0.06164  -0.0567  1.0000  0.0498  -2.9265   0.0000   0.0000   0.0000   0.1197
  -8.500  -0.4855   0.06493   0.06035  -0.0566  1.0000  0.0496  -2.9668   0.0000   0.0000   0.0000   0.1232
  -8.400  -0.4963   0.06342   0.05884  -0.0570  1.0000  0.0494  -3.0085   0.0000   0.0000   0.0000   0.1253
  -8.300  -0.5065   0.06181   0.05724  -0.0577  1.0000  0.0492  -3.0504   0.0000   0.0000   0.0000   0.1264
  -8.200  -0.5158   0.06012   0.05553  -0.0587  1.0000  0.0489  -3.0917   0.0000   0.0000   0.0000   0.1268
  -8.100  -0.5236   0.05842   0.05379  -0.0596  1.0000  0.0486  -3.1299   0.0000   0.0000   0.0000   0.1271
  -8.000  -0.5303   0.05671   0.05203  -0.0603  1.0000  0.0483  -3.1657   0.0000   0.0000   0.0000   0.1274
  -7.900  -0.5357   0.05493   0.05018  -0.0610  1.0000  0.0479  -3.2011   0.0000   0.0000   0.0000   0.1273
  -7.800  -0.5399   0.05305   0.04822  -0.0619  1.0000  0.0474  -3.2366   0.0000   0.0000   0.0000   0.1267
  -7.700  -0.5427   0.05109   0.04614  -0.0629  1.0000  0.0469  -3.2728   0.0000   0.0000   0.0000   0.1257
  -7.600  -0.5440   0.04902   0.04394  -0.0639  1.0000  0.0463  -3.3101   0.0000   0.0000   0.0000   0.1240
  -7.500  -0.5438   0.04687   0.04162  -0.0651  1.0000  0.0456  -3.3490   0.0000   0.0000   0.0000   0.1219
  -7.400  -0.5418   0.04465   0.03920  -0.0664  1.0000  0.0449  -3.3895   0.0000   0.0000   0.0000   0.1192
  -7.300  -0.5380   0.04239   0.03670  -0.0677  1.0000  0.0442  -3.4310   0.0000   0.0000   0.0000   0.1159
  -7.200  -0.5325   0.04019   0.03421  -0.0690  1.0000  0.0435  -3.4707   0.0000   0.0000   0.0000   0.1122
  -7.100  -0.5254   0.03816   0.03189  -0.0702  1.0000  0.0429  -3.5037   0.0000   0.0000   0.0000   0.1082
  -7.000  -0.5172   0.03638   0.02984  -0.0711  1.0000  0.0425  -3.5253   0.0000   0.0000   0.0000   0.1042
  -6.900  -0.5084   0.03496   0.02821  -0.0717  1.0000  0.0422  -3.5288   0.0000   0.0000   0.0000   0.1007
  -6.800  -0.4993   0.03369   0.02675  -0.0722  1.0000  0.0422  -3.5251   0.0000   0.0000   0.0000   0.0971
  -6.700  -0.4899   0.03254   0.02545  -0.0726  1.0000  0.0422  -3.5155   0.0000   0.0000   0.0000   0.0935
  -6.600  -0.4802   0.03150   0.02426  -0.0729  1.0000  0.0424  -3.5008   0.0000   0.0000   0.0000   0.0898
  -6.500  -0.4703   0.03054   0.02318  -0.0732  1.0000  0.0426  -3.4821   0.0000   0.0000   0.0000   0.0859
  -6.400  -0.4602   0.02966   0.02220  -0.0735  1.0000  0.0431  -3.4604   0.0000   0.0000   0.0000   0.0819
  -6.300  -0.4500   0.02886   0.02129  -0.0737  1.0000  0.0436  -3.4366   0.0000   0.0000   0.0000   0.0778
  -6.200  -0.4397   0.02811   0.02046  -0.0739  1.0000  0.0443  -3.4119   0.0000   0.0000   0.0000   0.0735
  -6.100  -0.4294   0.02742   0.01968  -0.0740  1.0000  0.0452  -3.3872   0.0000   0.0000   0.0000   0.0691
  -6.000  -0.4190   0.02676   0.01895  -0.0741  1.0000  0.0462  -3.3636   0.0000   0.0000   0.0000   0.0645
  -5.900  -0.4085   0.02614   0.01826  -0.0742  1.0000  0.0476  -3.3417   0.0000   0.0000   0.0000   0.0597
  -5.800  -0.3980   0.02557   0.01761  -0.0743  1.0000  0.0491  -3.3223   0.0000   0.0000   0.0000   0.0547
  -5.700  -0.3875   0.02507   0.01703  -0.0743  1.0000  0.0509  -3.3052   0.0000   0.0000   0.0000   0.0495
  -5.600  -0.3762   0.02412   0.01611  -0.0747  1.0000  0.0535  -3.2959   0.0000   0.0000   0.0000   0.0426
  -5.500  -0.3653   0.02354   0.01560  -0.0751  1.0000  0.0574  -3.2610   0.0000   0.0000   0.0000   0.0354
  -5.400  -0.3543   0.02315   0.01511  -0.0754  1.0000  0.0630  -3.2324   0.0000   0.0000   0.0000   0.0282
  -5.300  -0.3422   0.02248   0.01451  -0.0762  1.0000  0.0735  -3.2074   0.0000   0.0000   0.0000   0.0182
  -5.200  -0.3292   0.02183   0.01398  -0.0774  1.0000  0.0922  -3.1866   0.0000   0.0000   0.0000   0.0059
  -5.100  -0.3145   0.02103   0.01327  -0.0787  1.0000  0.1217  -3.1797   0.0000   0.0000   0.0000  -0.0094
  -5.000  -0.3020   0.02060   0.01291  -0.0796  1.0000  0.1446  -3.1223   0.0000   0.0000   0.0000  -0.0229
  -4.900  -0.2901   0.02025   0.01269  -0.0804  1.0000  0.1677  -3.0502   0.0000   0.0000   0.0000  -0.0369
  -4.800  -0.2722   0.01990   0.01250  -0.0824  0.9984  0.1994  -2.9540   0.0000   0.0000   0.0000  -0.0625
  -4.700  -0.2529   0.01953   0.01237  -0.0845  0.9965  0.2337  -2.8524   0.0000   0.0000   0.0000  -0.0943
  -4.600  -0.2339   0.01929   0.01227  -0.0863  0.9944  0.2707  -2.7519   0.0000   0.0000   0.0000  -0.1295
  -4.500  -0.2157   0.01926   0.01231  -0.0878  0.9919  0.3046  -2.6474   0.0000   0.0000   0.0000  -0.1685
  -4.400  -0.1984   0.01938   0.01252  -0.0891  0.9895  0.3298  -2.5411   0.0000   0.0000   0.0000  -0.2109
  -4.300  -0.1824   0.01954   0.01272  -0.0901  0.9864  0.3500  -2.4387   0.0000   0.0000   0.0000  -0.2565
  -4.200  -0.1639   0.01977   0.01282  -0.0916  0.9839  0.3707  -2.3293   0.0000   0.0000   0.0000  -0.3224
  -4.100  -0.1495   0.01996   0.01311  -0.0922  0.9808  0.3825  -2.2314   0.0000   0.0000   0.0000  -0.3808
  -4.000  -0.1336   0.02015   0.01325  -0.0931  0.9775  0.3965  -2.1318   0.0000   0.0000   0.0000  -0.4626
  -3.900  -0.1163   0.02031   0.01338  -0.0943  0.9749  0.4082  -2.0276   0.0000   0.0000   0.0000  -0.5779
  -3.800  -0.1015   0.02056   0.01367  -0.0949  0.9716  0.4187  -1.9311   0.0000   0.0000   0.0000  -0.7043
  -3.700  -0.0863   0.02076   0.01377  -0.0958  0.9677  0.4318  -1.8373   0.0000   0.0000   0.0000  -0.8820
  -3.600  -0.0701   0.02094   0.01399  -0.0966  0.9645  0.4417  -1.7384   0.0000   0.0000   0.0000  -1.1547
  -3.500  -0.0522   0.02123   0.01432  -0.0976  0.9620  0.4519  -1.6347   0.0000   0.0000   0.0000  -1.6512
  -3.400  -0.0405   0.02136   0.01440  -0.0977  0.9567  0.4616  -1.5587   0.0000   0.0000   0.0000  -2.2050
  -3.300  -0.0239   0.02144   0.01436  -0.0988  0.9530  0.4710  -1.4681   0.0000   0.0000   0.0000  -3.9596
  -3.200  -0.0069   0.02163   0.01460  -0.0995  0.9499  0.4785  -1.3704   0.0000   0.0000   0.0000  -14.4549
  -3.100   0.0066   0.02178   0.01476  -0.0998  0.9457  0.4866  -1.2878   0.0000   0.0000   0.0000  15.4968
  -3.000   0.0207   0.02187   0.01477  -0.1005  0.9409  0.4957  -1.2073   0.0000   0.0000   0.0000   5.1783
  -2.900   0.0374   0.02189   0.01475  -0.1015  0.9375  0.5035  -1.1184   0.0000   0.0000   0.0000   2.9986
  -2.800   0.0538   0.02201   0.01494  -0.1021  0.9347  0.5101  -1.0289   0.0000   0.0000   0.0000   2.1707
  -2.700   0.0683   0.02216   0.01510  -0.1024  0.9314  0.5178  -0.9482   0.0000   0.0000   0.0000   1.7681
  -2.600   0.0784   0.02226   0.01516  -0.1023  0.9259  0.5256  -0.8846   0.0000   0.0000   0.0000   1.5703
  -2.500   0.0947   0.02229   0.01512  -0.1034  0.9223  0.5342  -0.8145   0.0000   0.0000   0.0000   1.3535
  -2.400   0.1095   0.02233   0.01523  -0.1036  0.9195  0.5401  -0.7617   0.0000   0.0000   0.0000   1.2067
  -2.300   0.1265   0.02242   0.01534  -0.1044  0.9174  0.5470  -0.7267   0.0000   0.0000   0.0000   1.0836
  -2.200   0.1432   0.02248   0.01538  -0.1053  0.9148  0.5547  -0.6934   0.0000   0.0000   0.0000   0.9927
  -2.100   0.1499   0.02255   0.01540  -0.1047  0.9084  0.5606  -0.6737   0.0000   0.0000   0.0000   0.9552
  -2.000   0.1655   0.02251   0.01531  -0.1057  0.9048  0.5670  -0.6430   0.0000   0.0000   0.0000   0.8939
  -1.900   0.1808   0.02245   0.01529  -0.1062  0.9020  0.5718  -0.6115   0.0000   0.0000   0.0000   0.8419
  -1.800   0.1981   0.02243   0.01528  -0.1070  0.8998  0.5774  -0.5780   0.0000   0.0000   0.0000   0.7941
  -1.700   0.2174   0.02239   0.01523  -0.1083  0.8979  0.5840  -0.5427   0.0000   0.0000   0.0000   0.7514
  -1.600   0.2275   0.02242   0.01523  -0.1082  0.8926  0.5896  -0.5377   0.0000   0.0000   0.0000   0.7284
  -1.500   0.2401   0.02241   0.01510  -0.1086  0.8872  0.5955  -0.5463   0.0000   0.0000   0.0000   0.7048
  -1.400   0.2568   0.02224   0.01492  -0.1095  0.8837  0.6004  -0.5576   0.0000   0.0000   0.0000   0.6784
  -1.300   0.2731   0.02208   0.01479  -0.1100  0.8809  0.6049  -0.5691   0.0000   0.0000   0.0000   0.6545
  -1.200   0.2905   0.02194   0.01466  -0.1107  0.8785  0.6104  -0.5813   0.0000   0.0000   0.0000   0.6324
  -1.100   0.3088   0.02181   0.01451  -0.1116  0.8765  0.6170  -0.5941   0.0000   0.0000   0.0000   0.6124
  -1.000   0.3136   0.02192   0.01461  -0.1106  0.8685  0.6221  -0.5981   0.0000   0.0000   0.0000   0.6036
  -0.900   0.3283   0.02187   0.01450  -0.1113  0.8641  0.6283  -0.6082   0.0000   0.0000   0.0000   0.5896
  -0.800   0.3425   0.02168   0.01433  -0.1116  0.8607  0.6329  -0.6185   0.0000   0.0000   0.0000   0.5762
  -0.700   0.3570   0.02152   0.01419  -0.1118  0.8581  0.6374  -0.6309   0.0000   0.0000   0.0000   0.5632
  -0.600   0.3726   0.02137   0.01405  -0.1122  0.8558  0.6422  -0.6439   0.0000   0.0000   0.0000   0.5511
  -0.500   0.3890   0.02122   0.01389  -0.1128  0.8539  0.6473  -0.6574   0.0000   0.0000   0.0000   0.5398
  -0.400   0.3934   0.02139   0.01406  -0.1120  0.8460  0.6513  -0.6624   0.0000   0.0000   0.0000   0.5343
  -0.300   0.4060   0.02135   0.01400  -0.1123  0.8413  0.6562  -0.6730   0.0000   0.0000   0.0000   0.5260
  -0.200   0.4213   0.02125   0.01385  -0.1130  0.8378  0.6611  -0.6855   0.0000   0.0000   0.0000   0.5175
  -0.100   0.4348   0.02102   0.01365  -0.1130  0.8349  0.6649  -0.6975   0.0000   0.0000   0.0000   0.5090
   0.000   0.4491   0.02082   0.01347  -0.1131  0.8324  0.6692  -0.7100   0.0000   0.0000   0.0000   0.5008
   0.100   0.4640   0.02063   0.01328  -0.1133  0.8302  0.6741  -0.7231   0.0000   0.0000   0.0000   0.4929
   0.200   0.4689   0.02080   0.01347  -0.1124  0.8221  0.6786  -0.7285   0.0000   0.0000   0.0000   0.4884
   0.300   0.4800   0.02075   0.01342  -0.1123  0.8167  0.6842  -0.7385   0.0000   0.0000   0.0000   0.4825
   0.400   0.4945   0.02062   0.01325  -0.1127  0.8127  0.6903  -0.7510   0.0000   0.0000   0.0000   0.4763
   0.500   0.5074   0.02037   0.01302  -0.1125  0.8095  0.6952  -0.7629   0.0000   0.0000   0.0000   0.4699
   0.600   0.5204   0.02014   0.01281  -0.1122  0.8067  0.7003  -0.7750   0.0000   0.0000   0.0000   0.4637
   0.700   0.5335   0.01996   0.01264  -0.1120  0.8038  0.7059  -0.7889   0.0000   0.0000   0.0000   0.4579
   0.800   0.5384   0.02015   0.01287  -0.1112  0.7950  0.7110  -0.7961   0.0000   0.0000   0.0000   0.4544
   0.900   0.5504   0.02008   0.01279  -0.1112  0.7899  0.7168  -0.8090   0.0000   0.0000   0.0000   0.4499
   1.000   0.5640   0.01994   0.01263  -0.1114  0.7860  0.7221  -0.8233   0.0000   0.0000   0.0000   0.4453
   1.100   0.5759   0.01973   0.01244  -0.1111  0.7828  0.7264  -0.8368   0.0000   0.0000   0.0000   0.4405
   1.200   0.5886   0.01955   0.01227  -0.1109  0.7800  0.7312  -0.8509   0.0000   0.0000   0.0000   0.4359
   1.300   0.6010   0.01944   0.01216  -0.1108  0.7769  0.7364  -0.8669   0.0000   0.0000   0.0000   0.4317
   1.400   0.6075   0.01964   0.01240  -0.1104  0.7689  0.7417  -0.8775   0.0000   0.0000   0.0000   0.4289
   1.500   0.6190   0.01961   0.01236  -0.1104  0.7635  0.7475  -0.8930   0.0000   0.0000   0.0000   0.4255
   1.600   0.6309   0.01946   0.01221  -0.1102  0.7592  0.7526  -0.9104   0.0000   0.0000   0.0000   0.4218
   1.700   0.6424   0.01925   0.01202  -0.1098  0.7555  0.7578  -0.9307   0.0000   0.0000   0.0000   0.4178
   1.800   0.6551   0.01904   0.01180  -0.1095  0.7523  0.7637  -0.9522   0.0000   0.0000   0.0000   0.4140
   1.900   0.6664   0.01899   0.01174  -0.1093  0.7478  0.7701  -0.9720   0.0000   0.0000   0.0000   0.4108
   2.000   0.6750   0.01911   0.01190  -0.1091  0.7402  0.7768  -0.9882   0.0000   0.0000   0.0000   0.4083
   2.100   0.6842   0.01902   0.01184  -0.1085  0.7347  0.7827  -1.0062   0.0000   0.0000   0.0000   0.4051
   2.200   0.6949   0.01886   0.01169  -0.1080  0.7301  0.7896  -1.0259   0.0000   0.0000   0.0000   0.4019
   2.300   0.7072   0.01868   0.01150  -0.1078  0.7262  0.7977  -1.0474   0.0000   0.0000   0.0000   0.3987
   2.400   0.7203   0.01851   0.01130  -0.1077  0.7227  0.8057  -1.0699   0.0000   0.0000   0.0000   0.3957
   2.500   0.7281   0.01852   0.01136  -0.1069  0.7172  0.8129  -1.0863   0.0000   0.0000   0.0000   0.3930
   2.600   0.7358   0.01858   0.01152  -0.1063  0.7103  0.8215  -1.1024   0.0000   0.0000   0.0000   0.3905
   2.700   0.7461   0.01850   0.01146  -0.1060  0.7046  0.8310  -1.1217   0.0000   0.0000   0.0000   0.3880
   2.800   0.7554   0.01832   0.01130  -0.1052  0.6999  0.8403  -1.1406   0.0000   0.0000   0.0000   0.3850
   2.900   0.7668   0.01813   0.01109  -0.1047  0.6957  0.8515  -1.1617   0.0000   0.0000   0.0000   0.3823
   3.000   0.7768   0.01793   0.01088  -0.1039  0.6919  0.8626  -1.1817   0.0000   0.0000   0.0000   0.3793
   3.200   0.7892   0.01789   0.01099  -0.1019  0.6782  0.8920  -1.2118   0.0000   0.0000   0.0000   0.3745
   3.300   0.7977   0.01768   0.01082  -0.1010  0.6724  0.9148  -1.2301   0.0000   0.0000   0.0000   0.3719
   3.400   0.8130   0.01736   0.01050  -0.1013  0.6667  1.0000  -1.2557   0.0000   0.0000   0.0000   0.3698
   3.500   0.8308   0.01727   0.01030  -0.1025  0.6614  1.0000  -1.2838   0.0000   0.0000   0.0000   0.3684
   3.600   0.8435   0.01743   0.01048  -0.1033  0.6532  1.0000  -1.3052   0.0000   0.0000   0.0000   0.3674
   3.700   0.8572   0.01747   0.01050  -0.1039  0.6454  1.0000  -1.3312   0.0000   0.0000   0.0000   0.3661
   3.800   0.8717   0.01744   0.01040  -0.1045  0.6387  1.0000  -1.3630   0.0000   0.0000   0.0000   0.3646
   3.900   0.8865   0.01738   0.01025  -0.1050  0.6328  1.0000  -1.3957   0.0000   0.0000   0.0000   0.3631
   4.000   0.8996   0.01746   0.01027  -0.1054  0.6263  1.0000  -1.4257   0.0000   0.0000   0.0000   0.3616
   4.100   0.9104   0.01758   0.01041  -0.1055  0.6182  1.0000  -1.4524   0.0000   0.0000   0.0000   0.3603
   4.200   0.9225   0.01762   0.01041  -0.1057  0.6110  1.0000  -1.4814   0.0000   0.0000   0.0000   0.3588
   4.300   0.9352   0.01763   0.01044  -0.1058  0.6047  1.0000  -1.5119   0.0000   0.0000   0.0000   0.3573
   4.400   0.9485   0.01767   0.01038  -0.1060  0.5991  1.0000  -1.5434   0.0000   0.0000   0.0000   0.3557
   4.500   0.9591   0.01783   0.01056  -0.1060  0.5922  1.0000  -1.5703   0.0000   0.0000   0.0000   0.3544
   4.600   0.9694   0.01795   0.01070  -0.1059  0.5848  1.0000  -1.5970   0.0000   0.0000   0.0000   0.3530
   4.700   0.9806   0.01802   0.01076  -0.1058  0.5779  1.0000  -1.6257   0.0000   0.0000   0.0000   0.3516
   4.800   0.9924   0.01808   0.01076  -0.1058  0.5717  1.0000  -1.6556   0.0000   0.0000   0.0000   0.3502
   4.900   1.0050   0.01818   0.01075  -0.1058  0.5660  1.0000  -1.6870   0.0000   0.0000   0.0000   0.3487
   5.000   1.0145   0.01834   0.01096  -0.1056  0.5588  1.0000  -1.7134   0.0000   0.0000   0.0000   0.3475
   5.100   1.0245   0.01845   0.01110  -0.1054  0.5511  1.0000  -1.7506   0.0000   0.0000   0.0000   0.3461
   5.200   1.0352   0.01852   0.01114  -0.1053  0.5438  1.0000  -1.7901   0.0000   0.0000   0.0000   0.3448
   5.300   1.0467   0.01859   0.01113  -0.1051  0.5373  1.0000  -1.8317   0.0000   0.0000   0.0000   0.3434
   5.400   1.0579   0.01874   0.01121  -0.1050  0.5305  1.0000  -1.8725   0.0000   0.0000   0.0000   0.3421
   5.500   1.0668   0.01887   0.01142  -0.1047  0.5223  1.0000  -1.9083   0.0000   0.0000   0.0000   0.3408
   5.600   1.0767   0.01897   0.01152  -0.1044  0.5142  1.0000  -1.9470   0.0000   0.0000   0.0000   0.3395
   5.700   1.0873   0.01903   0.01153  -0.1041  0.5066  1.0000  -1.9879   0.0000   0.0000   0.0000   0.3382
   5.800   1.0986   0.01917   0.01154  -0.1040  0.4994  1.0000  -2.0307   0.0000   0.0000   0.0000   0.3370
   5.900   1.1071   0.01930   0.01176  -0.1036  0.4907  1.0000  -2.0664   0.0000   0.0000   0.0000   0.3358
   6.000   1.1165   0.01939   0.01187  -0.1032  0.4820  1.0000  -2.1050   0.0000   0.0000   0.0000   0.3345
   6.100   1.1266   0.01948   0.01198  -0.1029  0.4741  1.0000  -2.1457   0.0000   0.0000   0.0000   0.3333
   6.200   1.1375   0.01965   0.01202  -0.1027  0.4666  1.0000  -2.1883   0.0000   0.0000   0.0000   0.3321
   6.300   1.1458   0.01979   0.01228  -0.1023  0.4580  1.0000  -2.2244   0.0000   0.0000   0.0000   0.3310
   6.400   1.1549   0.01992   0.01244  -0.1019  0.4493  1.0000  -2.2629   0.0000   0.0000   0.0000   0.3298
   6.500   1.1646   0.02005   0.01253  -0.1016  0.4414  1.0000  -2.3034   0.0000   0.0000   0.0000   0.3286
   6.600   1.1749   0.02025   0.01261  -0.1013  0.4338  1.0000  -2.3453   0.0000   0.0000   0.0000   0.3275
   6.700   1.1832   0.02041   0.01289  -0.1009  0.4248  1.0000  -2.3819   0.0000   0.0000   0.0000   0.3264
   6.800   1.1920   0.02057   0.01306  -0.1005  0.4157  1.0000  -2.4269   0.0000   0.0000   0.0000   0.3253
   6.900   1.2013   0.02074   0.01314  -0.1001  0.4072  1.0000  -2.4740   0.0000   0.0000   0.0000   0.3242
   7.000   1.2102   0.02097   0.01334  -0.0997  0.3984  1.0000  -2.5197   0.0000   0.0000   0.0000   0.3231
   7.100   1.2182   0.02116   0.01360  -0.0992  0.3881  1.0000  -2.5627   0.0000   0.0000   0.0000   0.3220
   7.200   1.2266   0.02135   0.01375  -0.0987  0.3783  1.0000  -2.6078   0.0000   0.0000   0.0000   0.3209
   7.300   1.2352   0.02163   0.01391  -0.0983  0.3689  1.0000  -2.6536   0.0000   0.0000   0.0000   0.3198
   7.400   1.2428   0.02184   0.01422  -0.0977  0.3581  1.0000  -2.6956   0.0000   0.0000   0.0000   0.3188
   7.500   1.2504   0.02209   0.01441  -0.0972  0.3475  1.0000  -2.7392   0.0000   0.0000   0.0000   0.3177
   7.600   1.2581   0.02244   0.01462  -0.0966  0.3372  1.0000  -2.7832   0.0000   0.0000   0.0000   0.3166
   7.700   1.2650   0.02269   0.01497  -0.0960  0.3253  1.0000  -2.8237   0.0000   0.0000   0.0000   0.3156
   7.800   1.2719   0.02301   0.01520  -0.0953  0.3143  1.0000  -2.8655   0.0000   0.0000   0.0000   0.3145
   7.900   1.2789   0.02341   0.01553  -0.0947  0.3037  1.0000  -2.9068   0.0000   0.0000   0.0000   0.3135
   8.000   1.2855   0.02375   0.01589  -0.0941  0.2925  1.0000  -2.9468   0.0000   0.0000   0.0000   0.3125
   8.100   1.2918   0.02419   0.01618  -0.0934  0.2825  1.0000  -2.9872   0.0000   0.0000   0.0000   0.3114
   8.200   1.2985   0.02463   0.01661  -0.0928  0.2719  1.0000  -3.0263   0.0000   0.0000   0.0000   0.3104
   8.400   1.3102   0.02553   0.01743  -0.0913  0.2519  1.0000  -3.1035   0.0000   0.0000   0.0000   0.3084
   8.500   1.3164   0.02597   0.01789  -0.0907  0.2425  1.0000  -3.1414   0.0000   0.0000   0.0000   0.3074
   8.600   1.3220   0.02636   0.01829  -0.0900  0.2336  1.0000  -3.1794   0.0000   0.0000   0.0000   0.3064
   8.700   1.3273   0.02691   0.01868  -0.0892  0.2255  1.0000  -3.2177   0.0000   0.0000   0.0000   0.3055
   8.800   1.3334   0.02743   0.01919  -0.0886  0.2174  1.0000  -3.2552   0.0000   0.0000   0.0000   0.3045
   8.900   1.3390   0.02784   0.01965  -0.0879  0.2096  1.0000  -3.2919   0.0000   0.0000   0.0000   0.3036
   9.000   1.3441   0.02829   0.02007  -0.0871  0.2027  1.0000  -3.3289   0.0000   0.0000   0.0000   0.3026
   9.100   1.3501   0.02905   0.02062  -0.0866  0.1955  1.0000  -3.3675   0.0000   0.0000   0.0000   0.3018
   9.200   1.3554   0.02944   0.02113  -0.0858  0.1897  1.0000  -3.4021   0.0000   0.0000   0.0000   0.3008
   9.300   1.3606   0.02989   0.02162  -0.0851  0.1836  1.0000  -3.4377   0.0000   0.0000   0.0000   0.2999
   9.400   1.3655   0.03038   0.02208  -0.0843  0.1782  1.0000  -3.4737   0.0000   0.0000   0.0000   0.2990
   9.500   1.3720   0.03114   0.02268  -0.0838  0.1725  1.0000  -3.5124   0.0000   0.0000   0.0000   0.2982
   9.600   1.3788   0.03183   0.02339  -0.0833  0.1675  1.0000  -3.5475   0.0000   0.0000   0.0000   0.2973
   9.700   1.3841   0.03232   0.02399  -0.0826  0.1631  1.0000  -3.5800   0.0000   0.0000   0.0000   0.2964
   9.800   1.3896   0.03285   0.02455  -0.0819  0.1586  1.0000  -3.6139   0.0000   0.0000   0.0000   0.2955
   9.900   1.3950   0.03339   0.02508  -0.0812  0.1546  1.0000  -3.6492   0.0000   0.0000   0.0000   0.2947
  10.000   1.4008   0.03402   0.02566  -0.0806  0.1508  1.0000  -3.7073   0.0000   0.0000   0.0000   0.2938
  10.100   1.4116   0.03514   0.02663  -0.0807  0.1459  1.0000  -3.8079   0.0000   0.0000   0.0000   0.2933
  10.200   1.4161   0.03564   0.02728  -0.0799  0.1432  1.0000  -3.8781   0.0000   0.0000   0.0000   0.2924
  10.300   1.4210   0.03620   0.02793  -0.0791  0.1401  1.0000  -3.9514   0.0000   0.0000   0.0000   0.2915
  10.400   1.4257   0.03676   0.02854  -0.0784  0.1370  1.0000  -4.0256   0.0000   0.0000   0.0000   0.2907
  10.500   1.4303   0.03731   0.02911  -0.0776  0.1340  1.0000  -4.1015   0.0000   0.0000   0.0000   0.2898
  10.600   1.4352   0.03787   0.02965  -0.0769  0.1311  1.0000  -4.1809   0.0000   0.0000   0.0000   0.2890
  10.700   1.4418   0.03858   0.03030  -0.0765  0.1280  1.0000  -4.2701   0.0000   0.0000   0.0000   0.2883
  10.800   1.4556   0.04007   0.03170  -0.0772  0.1234  1.0000  -4.3866   0.0000   0.0000   0.0000   0.2881
  10.900   1.4572   0.04054   0.03230  -0.0760  0.1217  1.0000  -4.4466   0.0000   0.0000   0.0000   0.2871
  11.000   1.4590   0.04109   0.03303  -0.0749  0.1197  1.0000  -4.5043   0.0000   0.0000   0.0000   0.2861
  11.100   1.4612   0.04169   0.03374  -0.0739  0.1176  1.0000  -4.5658   0.0000   0.0000   0.0000   0.2852
  11.200   1.4640   0.04233   0.03444  -0.0730  0.1154  1.0000  -4.6320   0.0000   0.0000   0.0000   0.2843
  11.300   1.4675   0.04298   0.03514  -0.0723  0.1133  1.0000  -4.7031   0.0000   0.0000   0.0000   0.2835
  11.400   1.4720   0.04365   0.03585  -0.0716  0.1114  1.0000  -4.7801   0.0000   0.0000   0.0000   0.2828
  11.500   1.4773   0.04433   0.03655  -0.0710  0.1096  1.0000  -4.8631   0.0000   0.0000   0.0000   0.2821
  11.600   1.4839   0.04507   0.03727  -0.0707  0.1078  1.0000  -4.9539   0.0000   0.0000   0.0000   0.2814
  11.700   1.4923   0.04606   0.03823  -0.0706  0.1058  1.0000  -5.0535   0.0000   0.0000   0.0000   0.2809
  11.800   1.5062   0.04829   0.04046  -0.0714  0.1032  1.0000  -5.1671   0.0000   0.0000   0.0000   0.2809
  11.900   1.5065   0.04902   0.04132  -0.0703  0.1025  1.0000  -5.2187   0.0000   0.0000   0.0000   0.2800
  12.000   1.5069   0.04983   0.04226  -0.0692  0.1018  1.0000  -5.2695   0.0000   0.0000   0.0000   0.2791
  12.100   1.5072   0.05071   0.04327  -0.0681  0.1010  1.0000  -5.3194   0.0000   0.0000   0.0000   0.2782
  12.200   1.5074   0.05165   0.04433  -0.0672  0.1002  1.0000  -5.3681   0.0000   0.0000   0.0000   0.2774
  12.300   1.5073   0.05263   0.04543  -0.0662  0.0994  1.0000  -5.4153   0.0000   0.0000   0.0000   0.2766
  12.400   1.5071   0.05366   0.04658  -0.0653  0.0986  1.0000  -5.4611   0.0000   0.0000   0.0000   0.2759
  12.500   1.5064   0.05473   0.04776  -0.0644  0.0978  1.0000  -5.5041   0.0000   0.0000   0.0000   0.2751
  12.600   1.5053   0.05584   0.04899  -0.0635  0.0971  1.0000  -5.5452   0.0000   0.0000   0.0000   0.2744
  12.700   1.5039   0.05698   0.05024  -0.0626  0.0963  1.0000  -5.5840   0.0000   0.0000   0.0000   0.2737
  12.800   1.5022   0.05816   0.05152  -0.0618  0.0957  1.0000  -5.6208   0.0000   0.0000   0.0000   0.2731
  12.900   1.4999   0.05938   0.05285  -0.0610  0.0950  1.0000  -5.6536   0.0000   0.0000   0.0000   0.2724
  13.000   1.4970   0.06066   0.05423  -0.0603  0.0944  1.0000  -5.6828   0.0000   0.0000   0.0000   0.2718
  13.100   1.4937   0.06198   0.05565  -0.0595  0.0939  1.0000  -5.7091   0.0000   0.0000   0.0000   0.2713
  13.200   1.4900   0.06335   0.05713  -0.0589  0.0933  1.0000  -5.7329   0.0000   0.0000   0.0000   0.2708
  13.300   1.4859   0.06478   0.05866  -0.0583  0.0929  1.0000  -5.7534   0.0000   0.0000   0.0000   0.2703
  13.400   1.4814   0.06626   0.06024  -0.0577  0.0924  1.0000  -5.7707   0.0000   0.0000   0.0000   0.2699
  13.500   1.4761   0.06781   0.06188  -0.0572  0.0920  1.0000  -5.7830   0.0000   0.0000   0.0000   0.2695
  13.600   1.4704   0.06942   0.06360  -0.0568  0.0916  1.0000  -5.7916   0.0000   0.0000   0.0000   0.2692
  13.700   1.4641   0.07113   0.06541  -0.0565  0.0913  1.0000  -5.7951   0.0000   0.0000   0.0000   0.2689
  13.800   1.4571   0.07294   0.06732  -0.0562  0.0910  1.0000  -5.7941   0.0000   0.0000   0.0000   0.2688
  13.900   1.4494   0.07487   0.06935  -0.0561  0.0908  1.0000  -5.7860   0.0000   0.0000   0.0000   0.2687
  14.000   1.4408   0.07694   0.07152  -0.0561  0.0906  1.0000  -5.7711   0.0000   0.0000   0.0000   0.2688
  14.100   1.4309   0.07918   0.07387  -0.0562  0.0905  1.0000  -5.7463   0.0000   0.0000   0.0000   0.2690
  14.200   1.4199   0.08161   0.07642  -0.0565  0.0904  1.0000  -5.7111   0.0000   0.0000   0.0000   0.2693
  14.300   1.4074   0.08430   0.07922  -0.0571  0.0904  1.0000  -5.6629   0.0000   0.0000   0.0000   0.2699
  14.400   1.3926   0.08734   0.08238  -0.0580  0.0905  1.0000  -5.5963   0.0000   0.0000   0.0000   0.2707
  14.500   1.3750   0.09083   0.08600  -0.0592  0.0908  1.0000  -5.5049   0.0000   0.0000   0.0000   0.2720
  14.600   1.3530   0.09509   0.09039  -0.0611  0.0913  1.0000  -5.3760   0.0000   0.0000   0.0000   0.2739
  14.700   1.3100   0.10283   0.09833  -0.0655  0.0928  1.0000  -5.0727   0.0000   0.0000   0.0000   0.2787
  14.800   1.1457   0.13957   0.13520  -0.0905  0.1000  1.0000  -3.6090   0.0000   0.0000   0.0000   0.3085
  14.900   1.1116   0.15187   0.14746  -0.0974  0.1012  1.0000  -3.2468   0.0000   0.0000   0.0000   0.3175
  15.000   1.0996   0.15783   0.15342  -0.1003  0.1017  1.0000  -3.1198   0.0000   0.0000   0.0000   0.3212
  15.100   1.0924   0.16238   0.15796  -0.1025  0.1020  1.0000  -3.0453   0.0000   0.0000   0.0000   0.3238
  15.200   1.0879   0.16620   0.16178  -0.1041  0.1023  1.0000  -2.9997   0.0000   0.0000   0.0000   0.3256
  15.300   1.0855   0.16948   0.16506  -0.1053  0.1027  1.0000  -2.9768   0.0000   0.0000   0.0000   0.3268
  15.400   1.0853   0.17227   0.16786  -0.1059  0.1030  1.0000  -2.9779   0.0000   0.0000   0.0000   0.3274
  16.000   1.0468   0.21262   0.20824  -0.1253  0.1479  1.0000  -2.2139   0.0000   0.0000   0.0000   0.3503
  16.100   1.0551   0.21590   0.21156  -0.1243  0.1473  1.0000  -2.2927   0.0000   0.0000   0.0000   0.3483
  16.200   1.0629   0.22214   0.21781  -0.1230  0.1464  1.0000  -2.3650   0.0000   0.0000   0.0000   0.3461
  16.300   1.0612   0.22409   0.21976  -0.1247  0.1463  1.0000  -2.3475   0.0000   0.0000   0.0000   0.3477
  16.400   1.0583   0.22576   0.22142  -0.1266  0.1462  1.0000  -2.3196   0.0000   0.0000   0.0000   0.3497
  16.500   1.0542   0.22702   0.22267  -0.1288  0.1459  1.0000  -2.2808   0.0000   0.0000   0.0000   0.3522
  16.600   1.0461   0.22734   0.22297  -0.1320  0.1453  1.0000  -2.2054   0.0000   0.0000   0.0000   0.3561
  16.700   1.0240   0.22513   0.22067  -0.1384  0.1416  1.0000  -2.0102   0.0000   0.0000   0.0000   0.3650
  16.800   1.0229   0.22647   0.22201  -0.1400  0.1392  1.0000  -1.9982   0.0000   0.0000   0.0000   0.3666
  16.900   1.0240   0.22803   0.22358  -0.1411  0.1374  1.0000  -2.0083   0.0000   0.0000   0.0000   0.3673
  17.000   1.0258   0.22962   0.22517  -0.1419  0.1358  1.0000  -2.0261   0.0000   0.0000   0.0000   0.3677
  17.100   1.0281   0.23120   0.22677  -0.1425  0.1344  1.0000  -2.0485   0.0000   0.0000   0.0000   0.3679
  17.200   1.0308   0.23279   0.22837  -0.1431  0.1331  1.0000  -2.0746   0.0000   0.0000   0.0000   0.3679
  17.300   1.0338   0.23436   0.22996  -0.1436  0.1320  1.0000  -2.1046   0.0000   0.0000   0.0000   0.3678
  17.400   1.0375   0.23588   0.23149  -0.1438  0.1307  1.0000  -2.1436   0.0000   0.0000   0.0000   0.3673
  17.500   1.0427   0.23733   0.23297  -0.1437  0.1292  1.0000  -2.1985   0.0000   0.0000   0.0000   0.3663
  17.600   1.0509   0.23888   0.23456  -0.1427  0.1276  1.0000  -2.2875   0.0000   0.0000   0.0000   0.3640
  17.700   1.0715   0.24241   0.23818  -0.1388  0.1255  1.0000  -2.4954   0.0000   0.0000   0.0000   0.3575
  18.200   1.0702   0.25505   0.25082  -0.1446  0.1229  1.0000  -2.4498   0.0000   0.0000   0.0000   0.3624
  18.300   1.0589   0.25391   0.24964  -0.1487  0.1215  1.0000  -2.3357   0.0000   0.0000   0.0000   0.3676
  18.400   1.0544   0.25458   0.25029  -0.1516  0.1184  1.0000  -2.2750   0.0000   0.0000   0.0000   0.3708
  18.500   1.0552   0.25619   0.25191  -0.1528  0.1158  1.0000  -2.2714   0.0000   0.0000   0.0000   0.3717
  18.600   1.0571   0.25787   0.25360  -0.1536  0.1135  1.0000  -2.2828   0.0000   0.0000   0.0000   0.3720
  18.700   1.0599   0.25951   0.25527  -0.1541  0.1114  1.0000  -2.3035   0.0000   0.0000   0.0000   0.3719
  18.800   1.0645   0.26094   0.25672  -0.1539  0.1090  1.0000  -2.3475   0.0000   0.0000   0.0000   0.3709
  18.900   1.0948   0.26917   0.26507  -0.1453  0.1031  1.0000  -2.6687   0.0000   0.0000   0.0000   0.3587
  19.000   1.0908   0.27035   0.26624  -0.1478  0.1028  1.0000  -2.6021   0.0000   0.0000   0.0000   0.3613
  19.100   1.0844   0.27078   0.26664  -0.1508  0.1023  1.0000  -2.5186   0.0000   0.0000   0.0000   0.3647
  19.200   1.0761   0.27065   0.26647  -0.1545  0.1013  1.0000  -2.4161   0.0000   0.0000   0.0000   0.3691
  19.300   1.0710   0.27157   0.26737  -0.1578  0.0983  1.0000  -2.3298   0.0000   0.0000   0.0000   0.3728
  19.400   1.0715   0.27341   0.26922  -0.1592  0.0950  1.0000  -2.3086   0.0000   0.0000   0.0000   0.3738
  19.500   1.0739   0.27516   0.27098  -0.1597  0.0920  1.0000  -2.3134   0.0000   0.0000   0.0000   0.3738
  19.600   1.0779   0.27672   0.27255  -0.1596  0.0895  1.0000  -2.3407   0.0000   0.0000   0.0000   0.3729
  19.700   1.0854   0.27832   0.27419  -0.1582  0.0871  1.0000  -2.4100   0.0000   0.0000   0.0000   0.3703
  19.800   1.1026   0.28716   0.28313  -0.1528  0.0840  1.0000  -2.5472   0.0000   0.0000   0.0000   0.3630
  19.900   1.0994   0.28847   0.28442  -0.1551  0.0837  1.0000  -2.4825   0.0000   0.0000   0.0000   0.3654
  20.000   1.0950   0.28941   0.28534  -0.1576  0.0834  1.0000  -2.4140   0.0000   0.0000   0.0000   0.3681
  20.100   1.0909   0.29036   0.28621  -0.1602  0.0829  1.0000  -2.3496   0.0000   0.0000   0.0000   0.3708
  20.200   1.0862   0.29126   0.28709  -0.1635  0.0814  1.0000  -2.2617   0.0000   0.0000   0.0000   0.3744
  20.300   1.0853   0.29285   0.28868  -0.1657  0.0772  1.0000  -2.2148   0.0000   0.0000   0.0000   0.3764
  20.900   1.0951   0.30496   0.30083  -0.1693  0.0623  1.0000  -2.1692   0.0000   0.0000   0.0000   0.3772
  21.000   1.0960   0.30718   0.30306  -0.1704  0.0600  1.0000  -2.1439   0.0000   0.0000   0.0000   0.3778
  21.100   1.0977   0.30921   0.30510  -0.1710  0.0582  1.0000  -2.1334   0.0000   0.0000   0.0000   0.3780
  21.200   1.0998   0.31107   0.30697  -0.1714  0.0566  1.0000  -2.1335   0.0000   0.0000   0.0000   0.3778
  21.300   1.1025   0.31278   0.30869  -0.1715  0.0553  1.0000  -2.1450   0.0000   0.0000   0.0000   0.3773
  21.400   1.1059   0.31439   0.31031  -0.1712  0.0542  1.0000  -2.1715   0.0000   0.0000   0.0000   0.3763
  21.500   1.1110   0.31611   0.31206  -0.1701  0.0531  1.0000  -2.2256   0.0000   0.0000   0.0000   0.3744
  21.600   1.1216   0.32340   0.31937  -0.1657  0.0516  1.0000  -2.3440   0.0000   0.0000   0.0000   0.3687
  21.700   1.1223   0.32611   0.32208  -0.1665  0.0516  1.0000  -2.3152   0.0000   0.0000   0.0000   0.3692
  21.800   1.1229   0.32876   0.32473  -0.1674  0.0515  1.0000  -2.2873   0.0000   0.0000   0.0000   0.3697
  21.900   1.1231   0.33134   0.32731  -0.1683  0.0515  1.0000  -2.2576   0.0000   0.0000   0.0000   0.3703
  22.000   1.1231   0.33384   0.32981  -0.1693  0.0514  1.0000  -2.2262   0.0000   0.0000   0.0000   0.3711
  22.100   1.1229   0.33627   0.33224  -0.1703  0.0514  1.0000  -2.1949   0.0000   0.0000   0.0000   0.3718
  22.200   1.1225   0.33863   0.33459  -0.1713  0.0513  1.0000  -2.1636   0.0000   0.0000   0.0000   0.3726
  22.300   1.1219   0.34089   0.33686  -0.1724  0.0513  1.0000  -2.1311   0.0000   0.0000   0.0000   0.3735
  22.400   1.1208   0.34302   0.33899  -0.1735  0.0512  1.0000  -2.0960   0.0000   0.0000   0.0000   0.3746
  22.500   1.1193   0.34508   0.34104  -0.1747  0.0511  1.0000  -2.0593   0.0000   0.0000   0.0000   0.3757
  22.600   1.1178   0.34709   0.34305  -0.1760  0.0510  1.0000  -2.0217   0.0000   0.0000   0.0000   0.3769
  22.700   1.1162   0.34906   0.34502  -0.1773  0.0508  1.0000  -1.9825   0.0000   0.0000   0.0000   0.3781
  22.800   1.1145   0.35102   0.34697  -0.1787  0.0506  1.0000  -1.9409   0.0000   0.0000   0.0000   0.3795
  22.900   1.1129   0.35299   0.34894  -0.1802  0.0503  1.0000  -1.8966   0.0000   0.0000   0.0000   0.3809
  23.000   1.1116   0.35509   0.35104  -0.1817  0.0496  1.0000  -1.8518   0.0000   0.0000   0.0000   0.3823
  23.100   1.1109   0.35738   0.35334  -0.1829  0.0488  1.0000  -1.8161   0.0000   0.0000   0.0000   0.3834
  23.200   1.1104   0.35975   0.35570  -0.1838  0.0479  1.0000  -1.7918   0.0000   0.0000   0.0000   0.3840
  23.300   1.1100   0.36209   0.35805  -0.1844  0.0471  1.0000  -1.7737   0.0000   0.0000   0.0000   0.3845
  23.400   1.1094   0.36439   0.36036  -0.1849  0.0464  1.0000  -1.7590   0.0000   0.0000   0.0000   0.3849
  23.500   1.1087   0.36666   0.36264  -0.1853  0.0457  1.0000  -1.7464   0.0000   0.0000   0.0000   0.3852
  23.600   1.1077   0.36888   0.36488  -0.1856  0.0451  1.0000  -1.7352   0.0000   0.0000   0.0000   0.3855
  23.700   1.1065   0.37106   0.36706  -0.1859  0.0445  1.0000  -1.7250   0.0000   0.0000   0.0000   0.3857
  23.800   1.1049   0.37318   0.36919  -0.1860  0.0439  1.0000  -1.7154   0.0000   0.0000   0.0000   0.3859
  23.900   1.1029   0.37523   0.37126  -0.1861  0.0434  1.0000  -1.7060   0.0000   0.0000   0.0000   0.3861
  24.000   1.1001   0.37718   0.37322  -0.1860  0.0429  1.0000  -1.6962   0.0000   0.0000   0.0000   0.3863
  24.100   1.0961   0.37899   0.37505  -0.1857  0.0425  1.0000  -1.6849   0.0000   0.0000   0.0000   0.3865
  24.200   1.0896   0.38051   0.37659  -0.1849  0.0421  1.0000  -1.6689   0.0000   0.0000   0.0000   0.3867
  24.300   0.9284   0.34573   0.34212  -0.1583  0.0440  1.0000  -1.3103   0.0000   0.0000   0.0000   0.3906
  24.400   0.9235   0.34527   0.34168  -0.1578  0.0435  1.0000  -1.2953   0.0000   0.0000   0.0000   0.3909
  24.500   0.9190   0.34486   0.34129  -0.1573  0.0430  1.0000  -1.2821   0.0000   0.0000   0.0000   0.3912
  24.600   0.9150   0.34452   0.34097  -0.1569  0.0426  1.0000  -1.2707   0.0000   0.0000   0.0000   0.3914
  24.700   0.9113   0.34423   0.34069  -0.1566  0.0421  1.0000  -1.2611   0.0000   0.0000   0.0000   0.3916
  24.800   0.9080   0.34396   0.34043  -0.1562  0.0417  1.0000  -1.2531   0.0000   0.0000   0.0000   0.3918
  24.900   0.9049   0.34374   0.34023  -0.1559  0.0413  1.0000  -1.2470   0.0000   0.0000   0.0000   0.3919
  25.000   0.9021   0.34350   0.34002  -0.1555  0.0409  1.0000  -1.2424   0.0000   0.0000   0.0000   0.3919
  25.100   0.8994   0.34328   0.33981  -0.1552  0.0405  1.0000  -1.2396   0.0000   0.0000   0.0000   0.3920
  25.200   0.8970   0.34307   0.33961  -0.1549  0.0402  1.0000  -1.2387   0.0000   0.0000   0.0000   0.3919
  25.300   0.8947   0.34287   0.33943  -0.1545  0.0399  1.0000  -1.2400   0.0000   0.0000   0.0000   0.3918
  25.400   0.8927   0.34269   0.33927  -0.1541  0.0395  1.0000  -1.2439   0.0000   0.0000   0.0000   0.3916
  25.500   0.8909   0.34258   0.33918  -0.1536  0.0392  1.0000  -1.2509   0.0000   0.0000   0.0000   0.3912
  25.600   0.8896   0.34264   0.33926  -0.1530  0.0390  1.0000  -1.2623   0.0000   0.0000   0.0000   0.3907
  25.700   0.8893   0.34319   0.33983  -0.1522  0.0387  1.0000  -1.2811   0.0000   0.0000   0.0000   0.3897
  25.800   0.8936   0.34639   0.34305  -0.1510  0.0383  1.0000  -1.3247   0.0000   0.0000   0.0000   0.3874
  25.900   0.8959   0.34966   0.34630  -0.1507  0.0381  1.0000  -1.3333   0.0000   0.0000   0.0000   0.3864
  26.000   0.8917   0.34905   0.34570  -0.1508  0.0381  1.0000  -1.3086   0.0000   0.0000   0.0000   0.3872
  26.100   0.8877   0.34847   0.34513  -0.1509  0.0380  1.0000  -1.2844   0.0000   0.0000   0.0000   0.3880
  26.200   0.8840   0.34792   0.34459  -0.1510  0.0380  1.0000  -1.2606   0.0000   0.0000   0.0000   0.3888
  26.300   0.8803   0.34742   0.34410  -0.1512  0.0380  1.0000  -1.2372   0.0000   0.0000   0.0000   0.3897
  26.400   0.8769   0.34697   0.34366  -0.1514  0.0379  1.0000  -1.2142   0.0000   0.0000   0.0000   0.3905
  26.500   0.8737   0.34656   0.34326  -0.1516  0.0379  1.0000  -1.1915   0.0000   0.0000   0.0000   0.3913
  26.600   0.8706   0.34622   0.34293  -0.1519  0.0378  1.0000  -1.1690   0.0000   0.0000   0.0000   0.3921
  26.700   0.8677   0.34595   0.34270  -0.1522  0.0378  1.0000  -1.1469   0.0000   0.0000   0.0000   0.3930
  26.800   0.8651   0.34576   0.34251  -0.1526  0.0377  1.0000  -1.1247   0.0000   0.0000   0.0000   0.3938
  26.900   0.8626   0.34566   0.34243  -0.1530  0.0376  1.0000  -1.1027   0.0000   0.0000   0.0000   0.3947
  27.000   0.8604   0.34568   0.34245  -0.1535  0.0375  1.0000  -1.0809   0.0000   0.0000   0.0000   0.3955
  27.100   0.8585   0.34583   0.34261  -0.1540  0.0374  1.0000  -1.0593   0.0000   0.0000   0.0000   0.3964
  27.200   0.8569   0.34613   0.34292  -0.1545  0.0372  1.0000  -1.0380   0.0000   0.0000   0.0000   0.3972
  27.300   0.8556   0.34657   0.34337  -0.1551  0.0370  1.0000  -1.0176   0.0000   0.0000   0.0000   0.3980
  27.400   0.8546   0.34712   0.34393  -0.1556  0.0367  1.0000  -0.9988   0.0000   0.0000   0.0000   0.3987
  27.500   0.8537   0.34770   0.34452  -0.1560  0.0363  1.0000  -0.9825   0.0000   0.0000   0.0000   0.3993
  27.600   0.8528   0.34825   0.34508  -0.1564  0.0359  1.0000  -0.9690   0.0000   0.0000   0.0000   0.3998
  27.700   0.8520   0.34875   0.34559  -0.1567  0.0354  1.0000  -0.9577   0.0000   0.0000   0.0000   0.4002
  27.800   0.8511   0.34920   0.34605  -0.1570  0.0350  1.0000  -0.9482   0.0000   0.0000   0.0000   0.4005
  27.900   0.8503   0.34962   0.34648  -0.1572  0.0345  1.0000  -0.9400   0.0000   0.0000   0.0000   0.4008
  28.000   0.8494   0.35000   0.34687  -0.1575  0.0341  1.0000  -0.9327   0.0000   0.0000   0.0000   0.4011
  28.100   0.8486   0.35039   0.34727  -0.1577  0.0337  1.0000  -0.9262   0.0000   0.0000   0.0000   0.4014
  28.200   0.8478   0.35077   0.34766  -0.1579  0.0333  1.0000  -0.9203   0.0000   0.0000   0.0000   0.4016
  28.300   0.8470   0.35113   0.34804  -0.1581  0.0329  1.0000  -0.9149   0.0000   0.0000   0.0000   0.4018
  28.400   0.8463   0.35149   0.34841  -0.1583  0.0325  1.0000  -0.9100   0.0000   0.0000   0.0000   0.4021
  28.500   0.8456   0.35185   0.34877  -0.1585  0.0322  1.0000  -0.9056   0.0000   0.0000   0.0000   0.4023
  28.600   0.8449   0.35220   0.34913  -0.1587  0.0318  1.0000  -0.9015   0.0000   0.0000   0.0000   0.4025
  28.700   0.8442   0.35254   0.34949  -0.1589  0.0315  1.0000  -0.8979   0.0000   0.0000   0.0000   0.4027
  28.800   0.8435   0.35288   0.34984  -0.1591  0.0312  1.0000  -0.8947   0.0000   0.0000   0.0000   0.4029
  28.900   0.8429   0.35321   0.35018  -0.1593  0.0309  1.0000  -0.8918   0.0000   0.0000   0.0000   0.4031
  29.000   0.8422   0.35354   0.35052  -0.1595  0.0306  1.0000  -0.8894   0.0000   0.0000   0.0000   0.4033
  29.100   0.8416   0.35386   0.35085  -0.1597  0.0303  1.0000  -0.8875   0.0000   0.0000   0.0000   0.4034
  29.200   0.8411   0.35417   0.35117  -0.1599  0.0300  1.0000  -0.8859   0.0000   0.0000   0.0000   0.4036
  29.300   0.8405   0.35447   0.35149  -0.1601  0.0297  1.0000  -0.8849   0.0000   0.0000   0.0000   0.4037
  29.400   0.8399   0.35477   0.35179  -0.1602  0.0294  1.0000  -0.8844   0.0000   0.0000   0.0000   0.4039
  29.500   0.8394   0.35505   0.35209  -0.1604  0.0292  1.0000  -0.8844   0.0000   0.0000   0.0000   0.4040
  29.600   0.8389   0.35532   0.35237  -0.1606  0.0289  1.0000  -0.8892   0.0000   0.0000   0.0000   0.4041
  29.700   0.8384   0.35560   0.35266  -0.1607  0.0287  1.0000  -0.8966   0.0000   0.0000   0.0000   0.4042
  29.800   0.8379   0.35584   0.35291  -0.1609  0.0284  1.0000  -0.9046   0.0000   0.0000   0.0000   0.4043
  29.900   0.8373   0.35606   0.35315  -0.1610  0.0282  1.0000  -0.9134   0.0000   0.0000   0.0000   0.4043
  30.000   0.8368   0.35627   0.35336  -0.1611  0.0280  1.0000  -0.9229   0.0000   0.0000   0.0000   0.4043


