xflr5 v6.61

 Calculated polar for: WORTMANN FX 057-816 AIRFOIL

 1 1 Reynolds number fixed          Mach number fixed         

 xtrf =   1.000 (top)        1.000 (bottom)
 Mach =   0.000     Re =     0.450 e 6     Ncrit =   9.000

  alpha     CL        CD       CDp       Cm    Top Xtr Bot Xtr   Cpmin    Chinge    XCp    
 ------- -------- --------- --------- -------- ------- ------- -------- --------- ---------
 -10.000  -0.0409   0.12064   0.11789  -0.0832  0.6293  0.0652  -0.9458   0.0000   0.0000   0.0000  -1.9561
  -9.900  -0.0406   0.11943   0.11669  -0.0835  0.6293  0.0651  -0.9528   0.0000   0.0000   0.0000  -1.9787
  -9.800  -0.0406   0.11820   0.11546  -0.0838  0.6293  0.0650  -0.9608   0.0000   0.0000   0.0000  -1.9889
  -9.700  -0.0408   0.11693   0.11420  -0.0842  0.6293  0.0649  -0.9700   0.0000   0.0000   0.0000  -1.9845
  -9.600  -0.0413   0.11562   0.11289  -0.0845  0.6293  0.0647  -0.9809   0.0000   0.0000   0.0000  -1.9625
  -9.500  -0.0422   0.11425   0.11153  -0.0849  0.6293  0.0646  -0.9938   0.0000   0.0000   0.0000  -1.9196
  -9.400  -0.0438   0.11280   0.11008  -0.0853  0.6293  0.0643  -1.0098   0.0000   0.0000   0.0000  -1.8514
  -9.300  -0.0461   0.11122   0.10850  -0.0857  0.6293  0.0639  -1.0303   0.0000   0.0000   0.0000  -1.7518
  -9.200  -0.0497   0.10943   0.10672  -0.0861  0.6293  0.0634  -1.0582   0.0000   0.0000   0.0000  -1.6128
  -9.100  -0.0554   0.10733   0.10462  -0.0866  0.6292  0.0625  -1.0976   0.0000   0.0000   0.0000  -1.4303
  -9.000  -0.0633   0.10494   0.10224  -0.0872  0.6292  0.0610  -1.1494   0.0000   0.0000   0.0000  -1.2280
  -8.900  -0.0721   0.10253   0.09983  -0.0877  0.6292  0.0592  -1.2056   0.0000   0.0000   0.0000  -1.0535
  -8.800  -0.0806   0.10026   0.09757  -0.0882  0.6292  0.0573  -1.2596   0.0000   0.0000   0.0000  -0.9208
  -8.700  -0.0886   0.09817   0.09549  -0.0887  0.6292  0.0553  -1.3102   0.0000   0.0000   0.0000  -0.8196
  -8.600  -0.0962   0.09624   0.09356  -0.0892  0.6292  0.0535  -1.3578   0.0000   0.0000   0.0000  -0.7391
  -8.500  -0.1036   0.09442   0.09175  -0.0897  0.6292  0.0519  -1.4029   0.0000   0.0000   0.0000  -0.6727
  -8.400  -0.1109   0.09270   0.09004  -0.0903  0.6292  0.0506  -1.4459   0.0000   0.0000   0.0000  -0.6161
  -8.300  -0.1181   0.09106   0.08840  -0.0909  0.6292  0.0496  -1.4863   0.0000   0.0000   0.0000  -0.5670
  -8.200  -0.1255   0.08950   0.08685  -0.0916  0.6291  0.0489  -1.5233   0.0000   0.0000   0.0000  -0.5239
  -8.100  -0.1330   0.08803   0.08538  -0.0923  0.6291  0.0486  -1.5567   0.0000   0.0000   0.0000  -0.4846
  -8.000  -0.1410   0.08668   0.08403  -0.0928  0.6291  0.0483  -1.5878   0.0000   0.0000   0.0000  -0.4454
  -7.900  -0.1493   0.08541   0.08275  -0.0928  0.6291  0.0479  -1.6192   0.0000   0.0000   0.0000  -0.4061
  -7.800  -0.1582   0.08441   0.08174  -0.0923  0.6291  0.0477  -1.6453   0.0000   0.0000   0.0000  -0.3655
  -7.700  -0.1677   0.08371   0.08104  -0.0915  0.6290  0.0478  -1.6660   0.0000   0.0000   0.0000  -0.3251
  -7.600  -0.1777   0.08331   0.08063  -0.0903  0.6290  0.0480  -1.6817   0.0000   0.0000   0.0000  -0.2853
  -7.500  -0.1880   0.08300   0.08031  -0.0888  0.6290  0.0481  -1.6970   0.0000   0.0000   0.0000  -0.2474
  -7.400  -0.1982   0.08257   0.07986  -0.0872  0.6290  0.0481  -1.7152   0.0000   0.0000   0.0000  -0.2134
  -7.300  -0.2075   0.08151   0.07878  -0.0861  0.6289  0.0475  -1.7466   0.0000   0.0000   0.0000  -0.1870
  -7.200  -0.2168   0.08030   0.07754  -0.0851  0.6289  0.0467  -1.7821   0.0000   0.0000   0.0000  -0.1631
  -7.100  -0.2261   0.07909   0.07629  -0.0839  0.6289  0.0459  -1.8178   0.0000   0.0000   0.0000  -0.1403
  -7.000  -0.2355   0.07776   0.07491  -0.0826  0.6288  0.0449  -1.8573   0.0000   0.0000   0.0000  -0.1192
  -6.900  -0.2448   0.07626   0.07337  -0.0813  0.6288  0.0437  -1.9019   0.0000   0.0000   0.0000  -0.0995
  -6.800  -0.2541   0.07456   0.07161  -0.0800  0.6287  0.0423  -1.9538   0.0000   0.0000   0.0000  -0.0811
  -6.700  -0.2635   0.07257   0.06954  -0.0785  0.6287  0.0407  -2.0166   0.0000   0.0000   0.0000  -0.0637
  -6.600  -0.2730   0.07009   0.06697  -0.0770  0.6286  0.0388  -2.0988   0.0000   0.0000   0.0000  -0.0470
  -6.500  -0.2831   0.06738   0.06412  -0.0752  0.6286  0.0367  -2.1937   0.0000   0.0000   0.0000  -0.0301
  -6.400  -0.2942   0.06437   0.06094  -0.0732  0.6285  0.0347  -2.3054   0.0000   0.0000   0.0000  -0.0126
  -6.300  -0.3074   0.06057   0.05688  -0.0707  0.6284  0.0323  -2.4602   0.0000   0.0000   0.0000   0.0069
  -6.200  -0.3288   0.05341   0.04914  -0.0663  0.6283  0.0282  -2.8009   0.0000   0.0000   0.0000   0.0356
  -6.100  -0.3410   0.04713   0.04206  -0.0622  0.6282  0.0243  -3.1012   0.0000   0.0000   0.0000   0.0549
  -6.000  -0.3358   0.04574   0.04047  -0.0610  0.6281  0.0229  -3.1048   0.0000   0.0000   0.0000   0.0554
  -5.900  -0.3292   0.04470   0.03928  -0.0602  0.6280  0.0220  -3.0872   0.0000   0.0000   0.0000   0.0544
  -5.200  -0.1410   0.06035   0.05675  -0.0712  0.6223  0.0665  -1.3715   0.0000   0.0000   0.0000  -0.2773
  -5.100  -0.1120   0.05795   0.05425  -0.0726  0.6193  0.0669  -1.2308   0.0000   0.0000   0.0000  -0.4251
  -5.000  -0.0930   0.05548   0.05166  -0.0731  0.6168  0.0670  -1.1916   0.0000   0.0000   0.0000  -0.5681
  -4.900  -0.0768   0.05320   0.04929  -0.0733  0.6142  0.0671  -1.1666   0.0000   0.0000   0.0000  -0.7425
  -4.800  -0.0624   0.05112   0.04711  -0.0734  0.6117  0.0672  -1.1446   0.0000   0.0000   0.0000  -0.9711
  -4.700  -0.0493   0.04922   0.04511  -0.0734  0.6093  0.0672  -1.1247   0.0000   0.0000   0.0000  -1.2921
  -4.600  -0.0373   0.04749   0.04329  -0.0732  0.6069  0.0673  -1.1062   0.0000   0.0000   0.0000  -1.7838
  -4.500  -0.0261   0.04591   0.04163  -0.0730  0.6046  0.0673  -1.0888   0.0000   0.0000   0.0000  -2.6424
  -4.400  -0.0157   0.04450   0.04014  -0.0728  0.6024  0.0673  -1.0721   0.0000   0.0000   0.0000  -4.5505
  -4.300  -0.0057   0.04330   0.03886  -0.0726  0.6004  0.0674  -1.0547   0.0000   0.0000   0.0000  -13.0223
  -4.200   0.0038   0.04225   0.03775  -0.0724  0.5987  0.0674  -1.0378   0.0000   0.0000   0.0000  19.7986
  -4.100   0.0129   0.04129   0.03671  -0.0721  0.5971  0.0674  -1.0217   0.0000   0.0000   0.0000   6.0166
  -4.000   0.0220   0.04030   0.03566  -0.0719  0.5954  0.0675  -1.0061   0.0000   0.0000   0.0000   3.6157
  -3.900   0.0312   0.03929   0.03458  -0.0717  0.5937  0.0675  -0.9911   0.0000   0.0000   0.0000   2.6178
  -3.000   0.1034   0.02477   0.01893  -0.0692  0.5753  0.0759  -0.9845   0.0000   0.0000   0.0000   0.9348
  -2.900   0.1140   0.02355   0.01760  -0.0691  0.5727  0.0791  -0.9736   0.0000   0.0000   0.0000   0.8701
  -2.800   0.1255   0.02271   0.01669  -0.0691  0.5699  0.0816  -0.9540   0.0000   0.0000   0.0000   0.8129
  -2.700   0.1373   0.02202   0.01594  -0.0692  0.5671  0.0839  -0.9312   0.0000   0.0000   0.0000   0.7645
  -2.600   0.1491   0.02141   0.01529  -0.0693  0.5642  0.0861  -0.9067   0.0000   0.0000   0.0000   0.7236
  -2.500   0.1610   0.02086   0.01469  -0.0694  0.5613  0.0882  -0.9100   0.0000   0.0000   0.0000   0.6889
  -2.400   0.1728   0.02035   0.01414  -0.0695  0.5584  0.0904  -0.9200   0.0000   0.0000   0.0000   0.6591
  -2.300   0.1846   0.01987   0.01363  -0.0696  0.5555  0.0925  -0.9299   0.0000   0.0000   0.0000   0.6334
  -2.200   0.1962   0.01941   0.01314  -0.0697  0.5526  0.0948  -0.9396   0.0000   0.0000   0.0000   0.6110
  -2.100   0.2078   0.01898   0.01268  -0.0699  0.5498  0.0971  -0.9492   0.0000   0.0000   0.0000   0.5913
  -2.000   0.2193   0.01858   0.01225  -0.0700  0.5470  0.0996  -0.9586   0.0000   0.0000   0.0000   0.5738
  -1.900   0.2307   0.01819   0.01184  -0.0702  0.5444  0.1023  -0.9678   0.0000   0.0000   0.0000   0.5582
  -1.800   0.2419   0.01783   0.01146  -0.0704  0.5418  0.1052  -0.9768   0.0000   0.0000   0.0000   0.5443
  -1.700   0.2531   0.01749   0.01110  -0.0705  0.5393  0.1083  -0.9857   0.0000   0.0000   0.0000   0.5316
  -1.600   0.2643   0.01717   0.01076  -0.0707  0.5370  0.1117  -0.9944   0.0000   0.0000   0.0000   0.5202
  -1.500   0.2753   0.01687   0.01045  -0.0708  0.5348  0.1154  -1.0029   0.0000   0.0000   0.0000   0.5097
  -1.400   0.2863   0.01658   0.01015  -0.0710  0.5326  0.1194  -1.0114   0.0000   0.0000   0.0000   0.5001
  -1.300   0.2973   0.01629   0.00986  -0.0712  0.5304  0.1236  -1.0198   0.0000   0.0000   0.0000   0.4912
  -1.200   0.3083   0.01600   0.00956  -0.0713  0.5283  0.1281  -1.0284   0.0000   0.0000   0.0000   0.4829
  -1.100   0.3194   0.01573   0.00928  -0.0715  0.5262  0.1326  -1.0369   0.0000   0.0000   0.0000   0.4752
  -1.000   0.3306   0.01547   0.00902  -0.0717  0.5241  0.1369  -1.0456   0.0000   0.0000   0.0000   0.4679
  -0.900   0.3418   0.01524   0.00879  -0.0719  0.5219  0.1406  -1.0543   0.0000   0.0000   0.0000   0.4611
  -0.800   0.3532   0.01509   0.00865  -0.0721  0.5197  0.1437  -1.0632   0.0000   0.0000   0.0000   0.4547
  -0.700   0.3640   0.01489   0.00846  -0.0724  0.5174  0.1534  -1.0720   0.0000   0.0000   0.0000   0.4492
  -0.600   0.3749   0.01412   0.00755  -0.0724  0.5150  0.1625  -1.0799   0.0000   0.0000   0.0000   0.4433
  -0.500   0.3864   0.01368   0.00703  -0.0725  0.5124  0.1692  -1.0886   0.0000   0.0000   0.0000   0.4375
  -0.400   0.3981   0.01333   0.00661  -0.0725  0.5096  0.1743  -1.0976   0.0000   0.0000   0.0000   0.4320
  -0.300   0.4100   0.01301   0.00623  -0.0726  0.5063  0.1778  -1.1068   0.0000   0.0000   0.0000   0.4267
  -0.200   0.4221   0.01269   0.00583  -0.0727  0.5029  0.1797  -1.1165   0.0000   0.0000   0.0000   0.4216
  -0.100   0.4345   0.01240   0.00544  -0.0728  0.4997  0.1762  -1.1264   0.0000   0.0000   0.0000   0.4168
   0.200   0.4705   0.01207   0.00490  -0.0731  0.4953  0.1510  -1.1539   0.0000   0.0000   0.0000   0.4042
   0.400   0.4951   0.01192   0.00437  -0.0729  0.4918  0.1370  -1.1713   0.0000   0.0000   0.0000   0.3959
   0.500   0.5077   0.01194   0.00431  -0.0728  0.4898  0.1222  -1.1801   0.0000   0.0000   0.0000   0.3918
   0.600   0.5197   0.01191   0.00413  -0.0727  0.4879  0.1063  -1.1886   0.0000   0.0000   0.0000   0.3883
   0.700   0.5308   0.01182   0.00395  -0.0728  0.4859  0.0986  -1.1969   0.0000   0.0000   0.0000   0.3854
   0.800   0.5420   0.01176   0.00382  -0.0730  0.4838  0.0938  -1.2051   0.0000   0.0000   0.0000   0.3827
   0.900   0.5531   0.01172   0.00371  -0.0731  0.4815  0.0902  -1.2134   0.0000   0.0000   0.0000   0.3802
   1.000   0.5642   0.01168   0.00362  -0.0733  0.4790  0.0873  -1.2217   0.0000   0.0000   0.0000   0.3777
   1.100   0.5754   0.01167   0.00357  -0.0734  0.4781  0.0848  -1.2296   0.0000   0.0000   0.0000   0.3753
   1.200   0.5865   0.01166   0.00353  -0.0736  0.4775  0.0827  -1.2376   0.0000   0.0000   0.0000   0.3731
   1.300   0.5977   0.01165   0.00350  -0.0738  0.4767  0.0808  -1.2455   0.0000   0.0000   0.0000   0.3710
   1.500   0.6138   0.01176   0.00296  -0.0729  0.3999  0.0777  -1.2630   0.0000   0.0000   0.0000   0.3659
   1.600   0.6212   0.01196   0.00311  -0.0726  0.3693  0.0764  -1.2676   0.0000   0.0000   0.0000   0.3640
   1.700   0.6316   0.01199   0.00305  -0.0727  0.3612  0.0747  -1.2751   0.0000   0.0000   0.0000   0.3620
   1.800   0.6375   0.01379   0.00619  -0.0738  0.4950  0.0723  -1.2552   0.0000   0.0000   0.0000   0.3629
   1.900   0.6332   0.01540   0.00795  -0.0728  0.4933  0.0720  -1.2417   0.0000   0.0000   0.0000   0.3620
   2.000   0.6292   0.01686   0.00950  -0.0718  0.4920  0.0717  -1.2298   0.0000   0.0000   0.0000   0.3610
   2.100   0.6264   0.01813   0.01082  -0.0709  0.4911  0.0713  -1.2201   0.0000   0.0000   0.0000   0.3599
   2.200   0.6262   0.01913   0.01185  -0.0701  0.4908  0.0709  -1.2138   0.0000   0.0000   0.0000   0.3587
   2.300   0.6299   0.01980   0.01253  -0.0698  0.4912  0.0703  -1.2121   0.0000   0.0000   0.0000   0.3573
   2.400   0.6371   0.02013   0.01286  -0.0696  0.4921  0.0697  -1.2149   0.0000   0.0000   0.0000   0.3557
   2.500   0.6476   0.02016   0.01288  -0.0697  0.4934  0.0691  -1.2219   0.0000   0.0000   0.0000   0.3539
   2.600   0.6607   0.01996   0.01266  -0.0699  0.4949  0.0685  -1.2322   0.0000   0.0000   0.0000   0.3520
   2.700   0.6759   0.01956   0.01226  -0.0703  0.4966  0.0681  -1.2451   0.0000   0.0000   0.0000   0.3501
   2.800   0.6940   0.01899   0.01165  -0.0710  0.4984  0.0680  -1.2612   0.0000   0.0000   0.0000   0.3483
   2.900   0.7266   0.01727   0.00982  -0.0729  0.5167  0.0686  -1.2964   0.0000   0.0000   0.0000   0.3462
   3.000   0.7349   0.01751   0.01009  -0.0727  0.5174  0.0696  -1.3008   0.0000   0.0000   0.0000   0.3448
   3.100   0.7434   0.01775   0.01034  -0.0726  0.5179  0.0718  -1.3053   0.0000   0.0000   0.0000   0.3434
   3.200   0.7520   0.01796   0.01057  -0.0725  0.5182  0.0771  -1.3099   0.0000   0.0000   0.0000   0.3420
   3.300   0.7605   0.01818   0.01082  -0.0724  0.5185  0.0817  -1.3146   0.0000   0.0000   0.0000   0.3407
   3.400   0.7691   0.01838   0.01106  -0.0724  0.5187  0.0856  -1.3192   0.0000   0.0000   0.0000   0.3394
   3.500   0.7777   0.01858   0.01128  -0.0723  0.5188  0.0893  -1.3241   0.0000   0.0000   0.0000   0.3382
   3.600   0.7865   0.01876   0.01149  -0.0723  0.5188  0.0929  -1.3291   0.0000   0.0000   0.0000   0.3370
   3.700   0.7955   0.01892   0.01167  -0.0722  0.5187  0.0968  -1.3343   0.0000   0.0000   0.0000   0.3358
   3.800   0.8047   0.01906   0.01184  -0.0722  0.5186  0.1010  -1.3397   0.0000   0.0000   0.0000   0.3346
   3.900   0.8141   0.01919   0.01199  -0.0723  0.5183  0.1056  -1.3454   0.0000   0.0000   0.0000   0.3335
   4.000   0.8237   0.01930   0.01212  -0.0723  0.5181  0.1103  -1.3514   0.0000   0.0000   0.0000   0.3324
   4.100   0.8336   0.01940   0.01224  -0.0723  0.5178  0.1144  -1.3576   0.0000   0.0000   0.0000   0.3313
   4.200   0.8437   0.01947   0.01234  -0.0724  0.5175  0.1183  -1.3641   0.0000   0.0000   0.0000   0.3302
   4.300   0.8541   0.01952   0.01242  -0.0725  0.5172  0.1214  -1.3708   0.0000   0.0000   0.0000   0.3291
   4.400   0.8648   0.01956   0.01249  -0.0726  0.5168  0.1245  -1.3779   0.0000   0.0000   0.0000   0.3281
   4.500   0.8757   0.01958   0.01254  -0.0728  0.5165  0.1276  -1.3851   0.0000   0.0000   0.0000   0.3271
   4.600   0.8868   0.01959   0.01257  -0.0730  0.5162  0.1308  -1.3927   0.0000   0.0000   0.0000   0.3261
   4.700   0.8981   0.01958   0.01259  -0.0732  0.5159  0.1340  -1.4004   0.0000   0.0000   0.0000   0.3252
   4.800   0.9096   0.01955   0.01260  -0.0734  0.5155  0.1372  -1.4083   0.0000   0.0000   0.0000   0.3243
   4.900   0.9214   0.01950   0.01260  -0.0736  0.5152  0.1405  -1.4164   0.0000   0.0000   0.0000   0.3234
   5.000   0.9333   0.01944   0.01258  -0.0739  0.5149  0.1439  -1.4247   0.0000   0.0000   0.0000   0.3226
   5.100   0.9449   0.01940   0.01259  -0.0742  0.5149  0.1516  -1.4323   0.0000   0.0000   0.0000   0.3218
   5.300   0.9617   0.01799   0.01289  -0.0739  0.5152  0.7840  -1.4428   0.0000   0.0000   0.0000   0.3199
   5.400   0.9718   0.01799   0.01293  -0.0737  0.5153  0.7989  -1.4483   0.0000   0.0000   0.0000   0.3187
   5.500   0.9824   0.01801   0.01297  -0.0736  0.5153  0.8074  -1.4537   0.0000   0.0000   0.0000   0.3177
   5.600   0.9927   0.01805   0.01302  -0.0735  0.5150  0.8136  -1.4591   0.0000   0.0000   0.0000   0.3167
   5.700   1.0030   0.01808   0.01306  -0.0734  0.5145  0.8186  -1.4652   0.0000   0.0000   0.0000   0.3157
   5.800   1.0139   0.01804   0.01303  -0.0734  0.5139  0.8228  -1.4731   0.0000   0.0000   0.0000   0.3148
   5.900   1.0246   0.01800   0.01300  -0.0734  0.5133  0.8264  -1.4810   0.0000   0.0000   0.0000   0.3139
   6.000   1.0350   0.01798   0.01299  -0.0733  0.5126  0.8297  -1.4885   0.0000   0.0000   0.0000   0.3129
   6.100   1.0450   0.01797   0.01299  -0.0731  0.5117  0.8327  -1.5034   0.0000   0.0000   0.0000   0.3120
   6.200   1.0544   0.01801   0.01304  -0.0729  0.5106  0.8354  -1.5335   0.0000   0.0000   0.0000   0.3110
   6.300   1.0622   0.01817   0.01320  -0.0724  0.5087  0.8376  -1.5613   0.0000   0.0000   0.0000   0.3099
   6.400   0.9196   0.02984   0.02501  -0.0564  0.4984  0.8267  -1.3725   0.0000   0.0000   0.0000   0.3028
   6.500   0.9064   0.03141   0.02660  -0.0540  0.4982  0.8267  -1.3630   0.0000   0.0000   0.0000   0.3009
   6.600   0.8932   0.03308   0.02828  -0.0518  0.4979  0.8268  -1.3532   0.0000   0.0000   0.0000   0.2992
   6.700   0.8802   0.03488   0.03009  -0.0500  0.4977  0.8269  -1.3429   0.0000   0.0000   0.0000   0.2977
   6.800   0.8674   0.03685   0.03208  -0.0484  0.4974  0.8269  -1.3322   0.0000   0.0000   0.0000   0.2966
   6.900   0.8553   0.03887   0.03411  -0.0470  0.4971  0.8270  -1.3217   0.0000   0.0000   0.0000   0.2955
   7.000   0.8466   0.04064   0.03590  -0.0459  0.4968  0.8276  -1.3147   0.0000   0.0000   0.0000   0.2945
   7.100   0.8375   0.04252   0.03780  -0.0447  0.4966  0.8282  -1.3070   0.0000   0.0000   0.0000   0.2936
   7.200   0.8286   0.04444   0.03973  -0.0437  0.4964  0.8287  -1.3004   0.0000   0.0000   0.0000   0.2928
   7.300   0.8207   0.04630   0.04161  -0.0428  0.4962  0.8294  -1.2993   0.0000   0.0000   0.0000   0.2919
   7.400   0.8138   0.04810   0.04343  -0.0419  0.4961  0.8302  -1.2998   0.0000   0.0000   0.0000   0.2912
   7.500   0.8080   0.04981   0.04516  -0.0412  0.4960  0.8311  -1.3020   0.0000   0.0000   0.0000   0.2904
   7.600   0.8033   0.05142   0.04679  -0.0405  0.4959  0.8321  -1.3061   0.0000   0.0000   0.0000   0.2897
   7.700   0.7998   0.05292   0.04831  -0.0399  0.4958  0.8332  -1.3121   0.0000   0.0000   0.0000   0.2890
   7.800   0.7975   0.05430   0.04972  -0.0394  0.4957  0.8344  -1.3201   0.0000   0.0000   0.0000   0.2884
   7.900   0.7964   0.05555   0.05099  -0.0389  0.4956  0.8357  -1.3303   0.0000   0.0000   0.0000   0.2877
   8.000   0.7965   0.05667   0.05213  -0.0386  0.4956  0.8370  -1.3426   0.0000   0.0000   0.0000   0.2870
   8.100   0.7979   0.05763   0.05311  -0.0382  0.4955  0.8384  -1.3572   0.0000   0.0000   0.0000   0.2864
   8.200   0.8009   0.05840   0.05390  -0.0380  0.4954  0.8397  -1.3746   0.0000   0.0000   0.0000   0.2857
   8.300   0.8056   0.05892   0.05445  -0.0378  0.4952  0.8411  -1.3955   0.0000   0.0000   0.0000   0.2850
   8.400   0.8131   0.05908   0.05462  -0.0376  0.4950  0.8426  -1.4216   0.0000   0.0000   0.0000   0.2843
   8.500   0.8256   0.05860   0.05415  -0.0377  0.4948  0.8443  -1.4571   0.0000   0.0000   0.0000   0.2834
   8.600   0.8391   0.05798   0.05355  -0.0377  0.4945  0.8459  -1.4949   0.0000   0.0000   0.0000   0.2826
   8.700   0.8526   0.05735   0.05293  -0.0378  0.4942  0.8473  -1.5331   0.0000   0.0000   0.0000   0.2818
   8.800   0.8663   0.05670   0.05230  -0.0378  0.4939  0.8484  -1.5719   0.0000   0.0000   0.0000   0.2810
   8.900   0.8802   0.05604   0.05165  -0.0378  0.4936  0.8494  -1.6112   0.0000   0.0000   0.0000   0.2802
   9.000   0.8941   0.05536   0.05098  -0.0378  0.4932  0.8503  -1.6512   0.0000   0.0000   0.0000   0.2793
   9.100   0.9107   0.05436   0.05000  -0.0379  0.4929  0.8510  -1.6965   0.0000   0.0000   0.0000   0.2785
   9.500   0.9423   0.04296   0.03850  -0.0335  0.4664  0.8528  -1.8332   0.0000   0.0000   0.0000   0.2712
   9.600   0.9314   0.04420   0.03974  -0.0323  0.4621  0.8528  -1.8271   0.0000   0.0000   0.0000   0.2701
   9.700   0.9230   0.04509   0.04065  -0.0312  0.4555  0.8529  -1.8261   0.0000   0.0000   0.0000   0.2689
   9.800   0.9188   0.04547   0.04103  -0.0301  0.4451  0.8530  -1.8340   0.0000   0.0000   0.0000   0.2676
   9.900   0.9177   0.04560   0.04115  -0.0292  0.4320  0.8532  -1.8479   0.0000   0.0000   0.0000   0.2664
  10.000   0.9165   0.04585   0.04139  -0.0283  0.4193  0.8533  -1.8613   0.0000   0.0000   0.0000   0.2652
  10.100   0.9171   0.04598   0.04150  -0.0275  0.4045  0.8535  -1.8783   0.0000   0.0000   0.0000   0.2640
  10.200   0.9203   0.04584   0.04129  -0.0268  0.3847  0.8538  -1.9006   0.0000   0.0000   0.0000   0.2629
  10.300   0.9200   0.04615   0.04149  -0.0261  0.3670  0.8552  -1.9154   0.0000   0.0000   0.0000   0.2619
  10.400   0.9221   0.04658   0.04185  -0.0257  0.3564  0.8570  -1.9342   0.0000   0.0000   0.0000   0.2612
  10.500   0.9246   0.04700   0.04216  -0.0253  0.3452  0.8599  -1.9538   0.0000   0.0000   0.0000   0.2605
  10.600   0.9275   0.04738   0.04242  -0.0250  0.3331  0.8639  -1.9742   0.0000   0.0000   0.0000   0.2598
  10.700   0.9308   0.04774   0.04265  -0.0246  0.3205  0.8693  -1.9956   0.0000   0.0000   0.0000   0.2591
  10.800   0.9346   0.04808   0.04288  -0.0242  0.3070  0.8760  -2.0180   0.0000   0.0000   0.0000   0.2584
  10.900   0.9393   0.04844   0.04317  -0.0239  0.2922  0.8842  -2.0420   0.0000   0.0000   0.0000   0.2577
  11.000   0.9437   0.04875   0.04345  -0.0234  0.2769  0.8932  -2.0657   0.0000   0.0000   0.0000   0.2569
  11.100   0.9473   0.04894   0.04365  -0.0226  0.2630  0.9016  -2.0885   0.0000   0.0000   0.0000   0.2558
  11.200   0.9508   0.04906   0.04377  -0.0217  0.2523  0.9091  -2.1113   0.0000   0.0000   0.0000   0.2546
  11.300   0.9547   0.04917   0.04390  -0.0208  0.2488  0.9159  -2.1352   0.0000   0.0000   0.0000   0.2533
  11.400   0.9589   0.04930   0.04405  -0.0199  0.2470  0.9218  -2.1597   0.0000   0.0000   0.0000   0.2522
  11.500   0.9635   0.04945   0.04420  -0.0192  0.2448  0.9267  -2.1848   0.0000   0.0000   0.0000   0.2512
  11.600   0.9682   0.04963   0.04437  -0.0186  0.2421  0.9302  -2.2103   0.0000   0.0000   0.0000   0.2503
  11.700   0.9733   0.04985   0.04457  -0.0181  0.2386  0.9326  -2.2364   0.0000   0.0000   0.0000   0.2495
  11.900   0.9854   0.05067   0.04523  -0.0182  0.2205  0.9398  -2.2914   0.0000   0.0000   0.0000   0.2490
  12.000   0.9863   0.05138   0.04567  -0.0180  0.1954  0.9410  -2.3089   0.0000   0.0000   0.0000   0.2486
  12.100   0.9864   0.05213   0.04611  -0.0177  0.1661  0.9421  -2.3244   0.0000   0.0000   0.0000   0.2481
  12.200   0.9910   0.05264   0.04646  -0.0177  0.1416  0.9434  -2.3489   0.0000   0.0000   0.0000   0.2478
  12.300   0.9964   0.05309   0.04678  -0.0178  0.1304  0.9449  -2.3753   0.0000   0.0000   0.0000   0.2477
  12.400   0.9969   0.05388   0.04728  -0.0177  0.1070  0.9461  -2.3917   0.0000   0.0000   0.0000   0.2473
  12.500   0.9980   0.05472   0.04787  -0.0177  0.0837  0.9474  -2.4087   0.0000   0.0000   0.0000   0.2471
  12.600   1.0046   0.05515   0.04823  -0.0179  0.0660  0.9494  -2.4378   0.0000   0.0000   0.0000   0.2470
  12.700   1.0122   0.05551   0.04858  -0.0182  0.0629  0.9518  -2.4692   0.0000   0.0000   0.0000   0.2470
  12.800   1.0198   0.05588   0.04894  -0.0186  0.0600  0.9546  -2.5007   0.0000   0.0000   0.0000   0.2470
  12.900   1.0272   0.05627   0.04930  -0.0189  0.0573  0.9577  -2.5323   0.0000   0.0000   0.0000   0.2470
  13.000   1.0344   0.05666   0.04967  -0.0193  0.0547  0.9609  -2.5639   0.0000   0.0000   0.0000   0.2471
  13.100   1.0416   0.05705   0.05003  -0.0196  0.0522  0.9639  -2.5957   0.0000   0.0000   0.0000   0.2471
  13.200   1.0488   0.05743   0.05037  -0.0200  0.0498  0.9666  -2.6277   0.0000   0.0000   0.0000   0.2471
  13.300   1.0556   0.05780   0.05069  -0.0202  0.0474  0.9692  -2.6595   0.0000   0.0000   0.0000   0.2471
  13.400   1.0623   0.05817   0.05102  -0.0205  0.0451  0.9719  -2.6912   0.0000   0.0000   0.0000   0.2470
  13.500   1.0687   0.05852   0.05133  -0.0207  0.0428  0.9748  -2.7230   0.0000   0.0000   0.0000   0.2469
  13.600   1.0752   0.05886   0.05164  -0.0209  0.0404  0.9777  -2.7701   0.0000   0.0000   0.0000   0.2468
  13.700   1.0819   0.05916   0.05193  -0.0211  0.0379  0.9805  -2.8454   0.0000   0.0000   0.0000   0.2466
  13.800   1.0885   0.05943   0.05217  -0.0212  0.0352  1.0000  -2.9208   0.0000   0.0000   0.0000   0.2464
  13.900   1.0957   0.05973   0.05245  -0.0215  0.0319  1.0000  -2.9988   0.0000   0.0000   0.0000   0.2463
  14.000   1.1028   0.06006   0.05277  -0.0217  0.0283  1.0000  -3.0757   0.0000   0.0000   0.0000   0.2462
  14.100   1.1093   0.06047   0.05319  -0.0220  0.0245  1.0000  -3.1466   0.0000   0.0000   0.0000   0.2461
  14.200   1.1126   0.06121   0.05403  -0.0221  0.0195  1.0000  -3.1857   0.0000   0.0000   0.0000   0.2459
  14.400   0.9518   0.08125   0.07507  -0.0262  0.0477  1.0000  -2.5280   0.0000   0.0000   0.0000   0.2530
  14.500   0.9576   0.08173   0.07550  -0.0265  0.0454  1.0000  -2.5567   0.0000   0.0000   0.0000   0.2529
  14.600   0.9635   0.08221   0.07592  -0.0268  0.0432  1.0000  -2.5863   0.0000   0.0000   0.0000   0.2529
  14.700   0.9696   0.08267   0.07633  -0.0271  0.0408  1.0000  -2.6303   0.0000   0.0000   0.0000   0.2528
  14.800   0.9759   0.08311   0.07673  -0.0275  0.0383  1.0000  -2.7021   0.0000   0.0000   0.0000   0.2528
  14.900   0.9825   0.08354   0.07712  -0.0278  0.0355  1.0000  -2.7757   0.0000   0.0000   0.0000   0.2527
  15.000   0.9894   0.08395   0.07750  -0.0281  0.0323  1.0000  -2.8508   0.0000   0.0000   0.0000   0.2526
  15.100   0.9964   0.08435   0.07788  -0.0284  0.0285  1.0000  -2.9258   0.0000   0.0000   0.0000   0.2525
  15.200   1.0033   0.08478   0.07830  -0.0286  0.0244  1.0000  -2.9969   0.0000   0.0000   0.0000   0.2523
  15.300   1.0076   0.08545   0.07914  -0.0285  0.0175  1.0000  -3.0134   0.0000   0.0000   0.0000   0.2518
  15.400   1.0128   0.08599   0.07979  -0.0286  0.0173  1.0000  -3.0648   0.0000   0.0000   0.0000   0.2515
  15.500   1.0174   0.08656   0.08049  -0.0287  0.0172  1.0000  -3.1091   0.0000   0.0000   0.0000   0.2512
  15.600   1.0215   0.08715   0.08123  -0.0287  0.0171  1.0000  -3.1466   0.0000   0.0000   0.0000   0.2509
  15.700   1.0251   0.08778   0.08201  -0.0286  0.0171  1.0000  -3.1766   0.0000   0.0000   0.0000   0.2504
  15.800   1.0280   0.08845   0.08286  -0.0284  0.0170  1.0000  -3.1979   0.0000   0.0000   0.0000   0.2499
  15.900   1.0300   0.08922   0.08383  -0.0281  0.0170  1.0000  -3.2083   0.0000   0.0000   0.0000   0.2494
  16.000   1.0308   0.09017   0.08497  -0.0278  0.0171  1.0000  -3.2053   0.0000   0.0000   0.0000   0.2489
  16.100   1.0302   0.09147   0.08651  -0.0275  0.0172  1.0000  -3.1803   0.0000   0.0000   0.0000   0.2483
  17.900   0.9828   0.14103   0.13790  -0.0435  0.0413  1.0000  -2.9359   0.0000   0.0000   0.0000   0.2632
  18.000   0.9742   0.14613   0.14304  -0.0456  0.0414  1.0000  -2.8749   0.0000   0.0000   0.0000   0.2657
  18.100   0.9657   0.15147   0.14841  -0.0478  0.0413  1.0000  -2.8135   0.0000   0.0000   0.0000   0.2685
  18.200   0.9572   0.15712   0.15408  -0.0502  0.0410  1.0000  -2.7488   0.0000   0.0000   0.0000   0.2714
  18.300   0.9483   0.16347   0.16045  -0.0526  0.0417  1.0000  -2.6572   0.0000   0.0000   0.0000   0.2745
  18.400   0.9392   0.17006   0.16706  -0.0550  0.0425  1.0000  -2.5594   0.0000   0.0000   0.0000   0.2777
  18.500   0.9302   0.17674   0.17375  -0.0574  0.0433  1.0000  -2.4611   0.0000   0.0000   0.0000   0.2810
  18.600   0.9211   0.18351   0.18053  -0.0599  0.0443  1.0000  -2.3614   0.0000   0.0000   0.0000   0.2844
  18.700   0.9121   0.19039   0.18743  -0.0624  0.0454  1.0000  -2.2600   0.0000   0.0000   0.0000   0.2879
  18.800   0.9031   0.19738   0.19443  -0.0650  0.0468  1.0000  -2.1566   0.0000   0.0000   0.0000   0.2916
  18.900   0.8940   0.20448   0.20155  -0.0676  0.0486  1.0000  -2.0514   0.0000   0.0000   0.0000   0.2953
  19.000   0.8849   0.21171   0.20880  -0.0702  0.0508  1.0000  -1.9445   0.0000   0.0000   0.0000   0.2992
  19.100   0.8754   0.21909   0.21621  -0.0729  0.0535  1.0000  -1.8357   0.0000   0.0000   0.0000   0.3033
  19.200   0.8648   0.22678   0.22393  -0.0756  0.0565  1.0000  -1.7228   0.0000   0.0000   0.0000   0.3077
  19.300   0.8519   0.23502   0.23221  -0.0786  0.0596  1.0000  -1.5990   0.0000   0.0000   0.0000   0.3128
  19.400   0.8345   0.24391   0.24116  -0.0817  0.0626  1.0000  -1.4533   0.0000   0.0000   0.0000   0.3189
  19.700   0.7865   0.25674   0.25417  -0.0912  0.0657  0.9277  -1.1235   0.0000   0.0000   0.0000   0.3388
  19.800   0.7821   0.25845   0.25591  -0.0925  0.0658  0.9268  -1.0910   0.0000   0.0000   0.0000   0.3414
  19.900   0.7787   0.26000   0.25749  -0.0937  0.0658  0.9261  -1.0649   0.0000   0.0000   0.0000   0.3435
  20.000   0.7759   0.26145   0.25897  -0.0948  0.0659  0.9256  -1.0429   0.0000   0.0000   0.0000   0.3454
  20.100   0.7736   0.26283   0.26037  -0.0958  0.0659  0.9253  -1.0237   0.0000   0.0000   0.0000   0.3471
  20.200   0.7720   0.26403   0.26158  -0.0966  0.0659  0.9250  -1.0098   0.0000   0.0000   0.0000   0.3486
  20.300   0.7716   0.26493   0.26250  -0.0974  0.0658  0.9248  -1.0036   0.0000   0.0000   0.0000   0.3496
  20.400   0.7715   0.26574   0.26332  -0.0982  0.0656  0.9246  -1.0004   0.0000   0.0000   0.0000   0.3506
  20.500   0.7723   0.26639   0.26398  -0.0989  0.0653  0.9244  -1.0021   0.0000   0.0000   0.0000   0.3513
  20.600   0.7751   0.26659   0.26419  -0.0994  0.0647  0.9244  -1.0183   0.0000   0.0000   0.0000   0.3514
  20.700   0.8115   0.26202   0.25953  -0.0992  0.0483  0.9261  -1.2794   0.0000   0.0000   0.0000   0.3437
  20.800   0.8143   0.26223   0.25974  -0.0999  0.0421  0.9261  -1.3275   0.0000   0.0000   0.0000   0.3440
  20.900   0.8188   0.26186   0.25937  -0.1003  0.0367  0.9261  -1.4032   0.0000   0.0000   0.0000   0.3435
  21.000   0.8284   0.26030   0.25780  -0.1001  0.0316  0.9263  -1.5438   0.0000   0.0000   0.0000   0.3412
  21.100   0.8464   0.25675   0.25422  -0.0988  0.0269  0.9272  -1.7994   0.0000   0.0000   0.0000   0.3360
  21.200   0.8587   0.25396   0.25141  -0.0980  0.0237  0.9277  -2.0056   0.0000   0.0000   0.0000   0.3326
  21.300   0.8539   0.25427   0.25175  -0.0988  0.0214  0.9267  -2.0046   0.0000   0.0000   0.0000   0.3342
  21.400   0.8358   0.25716   0.25468  -0.1007  0.0198  0.9252  -1.8369   0.0000   0.0000   0.0000   0.3396
  21.500   0.8098   0.26184   0.25942  -0.1029  0.0186  0.9240  -1.5647   0.0000   0.0000   0.0000   0.3473
  21.600   0.7779   0.26878   0.26636  -0.1052  0.0175  0.9234  -1.2016   0.0000   0.0000   0.0000   0.3569
  21.700   0.7765   0.26995   0.26754  -0.1060  0.0175  0.9233  -1.1835   0.0000   0.0000   0.0000   0.3582
  21.800   0.7752   0.27109   0.26870  -0.1067  0.0175  0.9232  -1.1663   0.0000   0.0000   0.0000   0.3594
  21.900   0.7741   0.27222   0.26983  -0.1075  0.0175  0.9232  -1.1498   0.0000   0.0000   0.0000   0.3605
  22.000   0.7730   0.27333   0.27095  -0.1082  0.0174  0.9231  -1.1340   0.0000   0.0000   0.0000   0.3616
  22.100   0.7721   0.27443   0.27206  -0.1089  0.0174  0.9230  -1.1189   0.0000   0.0000   0.0000   0.3627
  22.200   0.7712   0.27551   0.27316  -0.1096  0.0174  0.9230  -1.1044   0.0000   0.0000   0.0000   0.3637
  22.300   0.7704   0.27659   0.27425  -0.1104  0.0173  0.9230  -1.0905   0.0000   0.0000   0.0000   0.3648
  22.400   0.7698   0.27766   0.27532  -0.1110  0.0173  0.9229  -1.0772   0.0000   0.0000   0.0000   0.3657
  22.500   0.7692   0.27872   0.27639  -0.1117  0.0173  0.9229  -1.0645   0.0000   0.0000   0.0000   0.3667
  22.600   0.7686   0.27977   0.27745  -0.1124  0.0172  0.9229  -1.0522   0.0000   0.0000   0.0000   0.3676
  22.700   0.7682   0.28081   0.27850  -0.1131  0.0172  0.9228  -1.0403   0.0000   0.0000   0.0000   0.3685
  22.800   0.7678   0.28184   0.27955  -0.1137  0.0171  0.9228  -1.0290   0.0000   0.0000   0.0000   0.3694
  22.900   0.7674   0.28287   0.28059  -0.1144  0.0171  0.9228  -1.0180   0.0000   0.0000   0.0000   0.3703
  23.000   0.7672   0.28390   0.28162  -0.1150  0.0171  0.9227  -1.0074   0.0000   0.0000   0.0000   0.3711
  23.100   0.7669   0.28491   0.28264  -0.1157  0.0170  0.9227  -0.9972   0.0000   0.0000   0.0000   0.3719
  23.200   0.7667   0.28593   0.28367  -0.1163  0.0170  0.9227  -0.9873   0.0000   0.0000   0.0000   0.3727
  23.300   0.7666   0.28694   0.28468  -0.1170  0.0169  0.9227  -0.9777   0.0000   0.0000   0.0000   0.3735
  23.400   0.7665   0.28794   0.28569  -0.1176  0.0169  0.9227  -0.9685   0.0000   0.0000   0.0000   0.3742
  23.500   0.7665   0.28894   0.28670  -0.1182  0.0169  0.9226  -0.9595   0.0000   0.0000   0.0000   0.3750
  23.600   0.7665   0.28993   0.28770  -0.1188  0.0168  0.9226  -0.9508   0.0000   0.0000   0.0000   0.3757
  23.700   0.7665   0.29092   0.28870  -0.1195  0.0168  0.9226  -0.9424   0.0000   0.0000   0.0000   0.3764
  23.800   0.7665   0.29190   0.28969  -0.1201  0.0167  0.9226  -0.9342   0.0000   0.0000   0.0000   0.3771
  23.900   0.7666   0.29289   0.29068  -0.1207  0.0167  0.9226  -0.9263   0.0000   0.0000   0.0000   0.3778
  24.000   0.7668   0.29386   0.29166  -0.1213  0.0166  0.9225  -0.9186   0.0000   0.0000   0.0000   0.3785
  24.100   0.7669   0.29483   0.29264  -0.1219  0.0166  0.9225  -0.9108   0.0000   0.0000   0.0000   0.3792
  24.200   0.7670   0.29580   0.29361  -0.1225  0.0166  0.9225  -0.9033   0.0000   0.0000   0.0000   0.3798
  24.300   0.7672   0.29677   0.29459  -0.1231  0.0165  0.9225  -0.8960   0.0000   0.0000   0.0000   0.3805


