xflr5 v6.61

 Calculated polar for: WORTMANN FX 057-816 AIRFOIL

 1 1 Reynolds number fixed          Mach number fixed         

 xtrf =   1.000 (top)        1.000 (bottom)
 Mach =   0.000     Re =     0.625 e 6     Ncrit =   9.000

  alpha     CL        CD       CDp       Cm    Top Xtr Bot Xtr   Cpmin    Chinge    XCp    
 ------- -------- --------- --------- -------- ------- ------- -------- --------- ---------
 -10.000  -0.0786   0.10802   0.10565  -0.0846  0.6285  0.0466  -1.2347   0.0000   0.0000   0.0000  -0.9189
  -9.900  -0.0420   0.11581   0.11347  -0.0838  0.6285  0.0639  -0.9765   0.0000   0.0000   0.0000  -1.9139
  -9.800  -0.0387   0.11532   0.11297  -0.0839  0.6284  0.0644  -0.9637   0.0000   0.0000   0.0000  -2.0987
  -9.700  -0.0366   0.11455   0.11221  -0.0842  0.6284  0.0646  -0.9583   0.0000   0.0000   0.0000  -2.2361
  -9.600  -0.0351   0.11366   0.11132  -0.0844  0.6284  0.0648  -0.9562   0.0000   0.0000   0.0000  -2.3485
  -9.500  -0.0346   0.11258   0.11024  -0.0847  0.6284  0.0648  -0.9599   0.0000   0.0000   0.0000  -2.3967
  -9.400  -0.0348   0.11134   0.10900  -0.0850  0.6283  0.0647  -0.9685   0.0000   0.0000   0.0000  -2.3819
  -9.300  -0.0354   0.11006   0.10773  -0.0853  0.6283  0.0646  -0.9787   0.0000   0.0000   0.0000  -2.3437
  -9.200  -0.0364   0.10875   0.10642  -0.0857  0.6283  0.0645  -0.9905   0.0000   0.0000   0.0000  -2.2800
  -9.100  -0.0379   0.10738   0.10506  -0.0860  0.6283  0.0643  -1.0046   0.0000   0.0000   0.0000  -2.1891
  -9.000  -0.0400   0.10595   0.10363  -0.0864  0.6282  0.0641  -1.0217   0.0000   0.0000   0.0000  -2.0695
  -8.900  -0.0429   0.10442   0.10211  -0.0868  0.6282  0.0638  -1.0428   0.0000   0.0000   0.0000  -1.9202
  -8.800  -0.0469   0.10277   0.10046  -0.0872  0.6282  0.0633  -1.0695   0.0000   0.0000   0.0000  -1.7421
  -8.700  -0.0523   0.10093   0.09863  -0.0877  0.6281  0.0627  -1.1040   0.0000   0.0000   0.0000  -1.5417
  -8.600  -0.0594   0.09889   0.09660  -0.0882  0.6281  0.0618  -1.1468   0.0000   0.0000   0.0000  -1.3361
  -8.500  -0.0676   0.09678   0.09449  -0.0888  0.6281  0.0607  -1.1949   0.0000   0.0000   0.0000  -1.1502
  -8.400  -0.0762   0.09471   0.09243  -0.0894  0.6281  0.0595  -1.2434   0.0000   0.0000   0.0000  -0.9984
  -8.300  -0.0847   0.09276   0.09048  -0.0900  0.6281  0.0583  -1.2897   0.0000   0.0000   0.0000  -0.8788
  -8.200  -0.0930   0.09093   0.08866  -0.0906  0.6280  0.0573  -1.3324   0.0000   0.0000   0.0000  -0.7844
  -8.100  -0.1008   0.08923   0.08697  -0.0913  0.6280  0.0565  -1.3710   0.0000   0.0000   0.0000  -0.7093
  -8.000  -0.1084   0.08766   0.08540  -0.0921  0.6280  0.0561  -1.4048   0.0000   0.0000   0.0000  -0.6484
  -7.900  -0.1163   0.08624   0.08397  -0.0926  0.6279  0.0558  -1.4351   0.0000   0.0000   0.0000  -0.5913
  -7.800  -0.1245   0.08483   0.08256  -0.0929  0.6279  0.0554  -1.4665   0.0000   0.0000   0.0000  -0.5364
  -7.700  -0.1333   0.08368   0.08140  -0.0925  0.6278  0.0550  -1.4935   0.0000   0.0000   0.0000  -0.4809
  -7.600  -0.1425   0.08281   0.08052  -0.0918  0.6278  0.0549  -1.5151   0.0000   0.0000   0.0000  -0.4281
  -7.500  -0.1520   0.08230   0.08001  -0.0907  0.6277  0.0551  -1.5304   0.0000   0.0000   0.0000  -0.3777
  -7.400  -0.1619   0.08196   0.07966  -0.0892  0.6277  0.0553  -1.5440   0.0000   0.0000   0.0000  -0.3297
  -7.300  -0.1720   0.08158   0.07926  -0.0876  0.6276  0.0554  -1.5591   0.0000   0.0000   0.0000  -0.2856
  -7.200  -0.1818   0.08054   0.07820  -0.0864  0.6275  0.0548  -1.5876   0.0000   0.0000   0.0000  -0.2498
  -7.100  -0.1917   0.07914   0.07677  -0.0854  0.6274  0.0539  -1.6241   0.0000   0.0000   0.0000  -0.2184
  -7.000  -0.2017   0.07768   0.07528  -0.0843  0.6273  0.0528  -1.6624   0.0000   0.0000   0.0000  -0.1892
  -6.900  -0.2118   0.07612   0.07368  -0.0831  0.6272  0.0516  -1.7036   0.0000   0.0000   0.0000  -0.1620
  -6.800  -0.2221   0.07433   0.07184  -0.0818  0.6271  0.0500  -1.7516   0.0000   0.0000   0.0000  -0.1368
  -6.700  -0.2325   0.07226   0.06971  -0.0804  0.6270  0.0480  -1.8091   0.0000   0.0000   0.0000  -0.1134
  -6.600  -0.2432   0.06980   0.06717  -0.0790  0.6268  0.0455  -1.8817   0.0000   0.0000   0.0000  -0.0913
  -6.500  -0.2546   0.06665   0.06391  -0.0774  0.6266  0.0422  -1.9832   0.0000   0.0000   0.0000  -0.0694
  -6.400  -0.2679   0.06266   0.05975  -0.0753  0.6264  0.0383  -2.1275   0.0000   0.0000   0.0000  -0.0459
  -6.300  -0.2846   0.05794   0.05476  -0.0725  0.6262  0.0345  -2.3203   0.0000   0.0000   0.0000  -0.0187
  -6.200  -0.3323   0.04337   0.03878  -0.0634  0.6260  0.0234  -3.1213   0.0000   0.0000   0.0000   0.0460
  -6.100  -0.3184   0.04267   0.03799  -0.0631  0.6255  0.0210  -3.0451   0.0000   0.0000   0.0000   0.0384
  -6.000  -0.2925   0.04170   0.03702  -0.0638  0.6241  0.0192  -2.8875   0.0000   0.0000   0.0000   0.0177
  -5.500  -0.0651   0.04281   0.03913  -0.0746  0.5923  0.0662  -1.2175   0.0000   0.0000   0.0000  -0.9396
  -5.400  -0.0564   0.04209   0.03834  -0.0744  0.5903  0.0663  -1.1937   0.0000   0.0000   0.0000  -1.1163
  -5.300  -0.0485   0.04123   0.03742  -0.0740  0.5882  0.0664  -1.1749   0.0000   0.0000   0.0000  -1.3328
  -1.100   0.3402   0.01269   0.00575  -0.0714  0.4837  0.0766  -1.0684   0.0000   0.0000   0.0000   0.4606
  -1.000   0.3504   0.01223   0.00523  -0.0714  0.4831  0.0825  -1.0755   0.0000   0.0000   0.0000   0.4542
  -0.900   0.3611   0.01204   0.00502  -0.0715  0.4823  0.0876  -1.0830   0.0000   0.0000   0.0000   0.4483
  -0.800   0.3667   0.01225   0.00470  -0.0706  0.4172  0.0916  -1.0905   0.0000   0.0000   0.0000   0.4427
  -0.700   0.3750   0.01238   0.00474  -0.0705  0.3701  0.0959  -1.0960   0.0000   0.0000   0.0000   0.4381
  -0.600   0.3849   0.01234   0.00463  -0.0706  0.3609  0.1005  -1.1031   0.0000   0.0000   0.0000   0.4332
  -0.500   0.3945   0.01231   0.00454  -0.0706  0.3519  0.1050  -1.1095   0.0000   0.0000   0.0000   0.4287
  -0.400   0.4037   0.01229   0.00444  -0.0706  0.3431  0.1096  -1.1153   0.0000   0.0000   0.0000   0.4244
   0.700   0.5101   0.01188   0.00359  -0.0710  0.2513  0.1529  -1.1816   0.0000   0.0000   0.0000   0.3872
   1.000   0.5440   0.01212   0.00360  -0.0708  0.2444  0.1317  -1.2037   0.0000   0.0000   0.0000   0.3778
   1.200   0.5664   0.01225   0.00349  -0.0707  0.2412  0.0948  -1.2185   0.0000   0.0000   0.0000   0.3724
   1.300   0.5772   0.01226   0.00346  -0.0708  0.2406  0.0898  -1.2261   0.0000   0.0000   0.0000   0.3701
   1.400   0.5881   0.01228   0.00344  -0.0710  0.2402  0.0859  -1.2337   0.0000   0.0000   0.0000   0.3680
   1.500   0.5990   0.01229   0.00343  -0.0711  0.2398  0.0827  -1.2413   0.0000   0.0000   0.0000   0.3659
   1.600   0.6098   0.01231   0.00343  -0.0713  0.2394  0.0798  -1.2489   0.0000   0.0000   0.0000   0.3639
   1.700   0.6207   0.01233   0.00343  -0.0714  0.2390  0.0771  -1.2564   0.0000   0.0000   0.0000   0.3620
   1.800   0.6619   0.01030   0.00278  -0.0759  0.4795  0.0702  -1.2944   0.0000   0.0000   0.0000   0.3617
   1.900   0.6736   0.01034   0.00288  -0.0763  0.4858  0.0686  -1.3016   0.0000   0.0000   0.0000   0.3601
   3.100   0.7896   0.01306   0.00617  -0.0774  0.5132  0.0702  -1.3630   0.0000   0.0000   0.0000   0.3437
   3.200   0.7982   0.01334   0.00650  -0.0774  0.5142  0.0744  -1.3674   0.0000   0.0000   0.0000   0.3425
   3.300   0.8068   0.01362   0.00682  -0.0774  0.5151  0.0775  -1.3719   0.0000   0.0000   0.0000   0.3413
   3.400   0.8154   0.01388   0.00712  -0.0773  0.5160  0.0803  -1.3765   0.0000   0.0000   0.0000   0.3402
   3.500   0.8242   0.01413   0.00741  -0.0773  0.5168  0.0830  -1.3812   0.0000   0.0000   0.0000   0.3390
   3.600   0.8329   0.01437   0.00768  -0.0773  0.5175  0.0856  -1.3860   0.0000   0.0000   0.0000   0.3379
   3.700   0.8418   0.01459   0.00794  -0.0773  0.5180  0.0884  -1.3909   0.0000   0.0000   0.0000   0.3368
   3.800   0.8507   0.01481   0.00819  -0.0773  0.5185  0.0912  -1.3960   0.0000   0.0000   0.0000   0.3357
   3.900   0.8597   0.01501   0.00843  -0.0773  0.5188  0.0942  -1.4012   0.0000   0.0000   0.0000   0.3347
   4.000   0.8688   0.01521   0.00865  -0.0773  0.5190  0.0974  -1.4065   0.0000   0.0000   0.0000   0.3336
   4.100   0.8781   0.01538   0.00885  -0.0774  0.5191  0.1009  -1.4120   0.0000   0.0000   0.0000   0.3326
   4.200   0.8875   0.01554   0.00904  -0.0774  0.5192  0.1044  -1.4176   0.0000   0.0000   0.0000   0.3316
   4.300   0.8970   0.01569   0.00921  -0.0774  0.5191  0.1079  -1.4235   0.0000   0.0000   0.0000   0.3306
   4.400   0.9067   0.01582   0.00937  -0.0775  0.5190  0.1110  -1.4295   0.0000   0.0000   0.0000   0.3296
   4.500   0.9167   0.01593   0.00951  -0.0776  0.5188  0.1143  -1.4358   0.0000   0.0000   0.0000   0.3287
   4.600   0.9268   0.01603   0.00963  -0.0777  0.5186  0.1170  -1.4423   0.0000   0.0000   0.0000   0.3277
   4.700   0.9371   0.01611   0.00974  -0.0778  0.5183  0.1197  -1.4490   0.0000   0.0000   0.0000   0.3268
   4.800   0.9476   0.01617   0.00983  -0.0780  0.5179  0.1224  -1.4560   0.0000   0.0000   0.0000   0.3259
   4.900   0.9584   0.01621   0.00990  -0.0781  0.5176  0.1252  -1.4633   0.0000   0.0000   0.0000   0.3250
   5.000   0.9693   0.01624   0.00995  -0.0783  0.5172  0.1281  -1.4708   0.0000   0.0000   0.0000   0.3242
   5.100   0.9805   0.01626   0.00998  -0.0785  0.5168  0.1310  -1.4785   0.0000   0.0000   0.0000   0.3233
   5.200   0.9917   0.01626   0.01001  -0.0787  0.5164  0.1341  -1.4863   0.0000   0.0000   0.0000   0.3225
   5.300   1.0019   0.01635   0.01014  -0.0788  0.5166  0.1370  -1.4924   0.0000   0.0000   0.0000   0.3217
   5.400   1.0117   0.01647   0.01031  -0.0789  0.5170  0.1400  -1.4979   0.0000   0.0000   0.0000   0.3209
   5.500   1.0220   0.01656   0.01044  -0.0790  0.5174  0.1431  -1.5035   0.0000   0.0000   0.0000   0.3201
   5.600   1.0333   0.01657   0.01049  -0.0792  0.5175  0.1464  -1.5102   0.0000   0.0000   0.0000   0.3193
   5.700   1.0468   0.01523   0.01066  -0.0808  0.5174  0.7483  -1.5192   0.0000   0.0000   0.0000   0.3197
   5.800   1.0560   0.01507   0.01061  -0.0802  0.5168  0.7810  -1.5266   0.0000   0.0000   0.0000   0.3183
   5.900   1.0667   0.01494   0.01053  -0.0800  0.5162  0.8003  -1.5352   0.0000   0.0000   0.0000   0.3173
   6.000   1.0785   0.01482   0.01043  -0.0801  0.5156  0.8088  -1.5445   0.0000   0.0000   0.0000   0.3164
   6.100   1.0905   0.01471   0.01033  -0.0803  0.5150  0.8147  -1.5766   0.0000   0.0000   0.0000   0.3156
   6.200   1.1025   0.01460   0.01023  -0.0805  0.5144  0.8194  -1.6113   0.0000   0.0000   0.0000   0.3148
   6.300   1.1145   0.01449   0.01013  -0.0806  0.5137  0.8233  -1.6461   0.0000   0.0000   0.0000   0.3140
   6.400   1.1264   0.01438   0.01003  -0.0808  0.5131  0.8266  -1.6811   0.0000   0.0000   0.0000   0.3132
   6.500   1.1382   0.01428   0.00993  -0.0809  0.5125  0.8296  -1.7161   0.0000   0.0000   0.0000   0.3125
   6.700   1.1713   0.01318   0.00878  -0.0822  0.5062  0.8359  -1.8040   0.0000   0.0000   0.0000   0.3112
   6.900   1.2021   0.01224   0.00772  -0.0831  0.4972  0.8407  -1.8893   0.0000   0.0000   0.0000   0.3099
   7.000   1.2119   0.01231   0.00781  -0.0830  0.4958  0.8423  -1.9223   0.0000   0.0000   0.0000   0.3091
   7.100   1.2216   0.01236   0.00787  -0.0829  0.4943  0.8437  -1.9555   0.0000   0.0000   0.0000   0.3083
   7.200   1.2315   0.01239   0.00791  -0.0827  0.4925  0.8450  -1.9891   0.0000   0.0000   0.0000   0.3075
   7.300   1.2417   0.01237   0.00790  -0.0826  0.4902  0.8462  -2.0235   0.0000   0.0000   0.0000   0.3067
   7.400   1.2526   0.01227   0.00778  -0.0825  0.4868  0.8472  -2.0596   0.0000   0.0000   0.0000   0.3059
   7.500   1.2647   0.01204   0.00751  -0.0825  0.4812  0.8482  -2.0979   0.0000   0.0000   0.0000   0.3051
   7.600   1.2781   0.01160   0.00693  -0.0825  0.4672  0.8491  -2.1394   0.0000   0.0000   0.0000   0.3042
   7.700   1.2741   0.01168   0.00648  -0.0799  0.3889  0.8495  -2.1521   0.0000   0.0000   0.0000   0.3022
   7.800   1.2723   0.01210   0.00666  -0.0780  0.3515  0.8498  -2.1671   0.0000   0.0000   0.0000   0.3006
   7.900   1.2699   0.01260   0.00697  -0.0760  0.3333  0.8501  -2.1809   0.0000   0.0000   0.0000   0.2990
   8.000   1.2663   0.01310   0.00731  -0.0738  0.3187  0.8504  -2.1926   0.0000   0.0000   0.0000   0.2973
   8.100   1.2626   0.01357   0.00765  -0.0717  0.3056  0.8507  -2.2041   0.0000   0.0000   0.0000   0.2956
   8.200   1.2591   0.01401   0.00803  -0.0696  0.2926  0.8509  -2.2158   0.0000   0.0000   0.0000   0.2940
   8.300   1.2540   0.01437   0.00837  -0.0672  0.2816  0.8511  -2.2248   0.0000   0.0000   0.0000   0.2921
   8.400   1.2471   0.01476   0.00876  -0.0645  0.2718  0.8512  -2.2307   0.0000   0.0000   0.0000   0.2901
   8.500   1.2392   0.01523   0.00926  -0.0619  0.2643  0.8514  -2.2344   0.0000   0.0000   0.0000   0.2882
   8.600   1.2279   0.01590   0.00998  -0.0591  0.2613  0.8516  -2.2320   0.0000   0.0000   0.0000   0.2861
   9.500   0.9160   0.04207   0.03807  -0.0330  0.4287  0.8470  -1.7877   0.0000   0.0000   0.0000   0.2712
   9.600   0.9128   0.04267   0.03864  -0.0321  0.4145  0.8474  -1.7967   0.0000   0.0000   0.0000   0.2701
   9.700   0.9077   0.04321   0.03909  -0.0310  0.3893  0.8477  -1.8027   0.0000   0.0000   0.0000   0.2688
   9.800   0.9003   0.04413   0.03990  -0.0299  0.3679  0.8479  -1.8035   0.0000   0.0000   0.0000   0.2676
   9.900   0.9009   0.04469   0.04037  -0.0294  0.3568  0.8484  -1.8190   0.0000   0.0000   0.0000   0.2668
  10.000   0.9026   0.04519   0.04077  -0.0289  0.3459  0.8489  -1.8367   0.0000   0.0000   0.0000   0.2659
  10.100   0.9046   0.04566   0.04113  -0.0284  0.3341  0.8493  -1.8551   0.0000   0.0000   0.0000   0.2651
  10.200   0.9072   0.04610   0.04144  -0.0279  0.3215  0.8497  -1.8746   0.0000   0.0000   0.0000   0.2643
  10.300   0.9110   0.04651   0.04170  -0.0275  0.3081  0.8501  -1.8963   0.0000   0.0000   0.0000   0.2636
  10.400   0.9166   0.04687   0.04196  -0.0273  0.2928  0.8505  -1.9214   0.0000   0.0000   0.0000   0.2630
  10.500   0.9229   0.04722   0.04226  -0.0272  0.2764  0.8509  -1.9479   0.0000   0.0000   0.0000   0.2624
  10.600   0.9291   0.04753   0.04254  -0.0270  0.2608  0.8513  -1.9742   0.0000   0.0000   0.0000   0.2619
  10.700   0.9357   0.04779   0.04279  -0.0268  0.2499  0.8516  -2.0015   0.0000   0.0000   0.0000   0.2613
  10.800   0.9427   0.04804   0.04304  -0.0266  0.2480  0.8519  -2.0298   0.0000   0.0000   0.0000   0.2607
  10.900   0.9496   0.04829   0.04329  -0.0265  0.2459  0.8521  -2.0580   0.0000   0.0000   0.0000   0.2602
  11.000   0.9564   0.04855   0.04354  -0.0263  0.2433  0.8524  -2.0863   0.0000   0.0000   0.0000   0.2596
  11.100   0.9630   0.04882   0.04380  -0.0261  0.2403  0.8526  -2.1142   0.0000   0.0000   0.0000   0.2591
  11.200   0.9688   0.04909   0.04406  -0.0257  0.2364  0.8530  -2.1410   0.0000   0.0000   0.0000   0.2583
  11.300   0.9734   0.04940   0.04434  -0.0252  0.2303  0.8534  -2.1659   0.0000   0.0000   0.0000   0.2575
  11.400   0.9756   0.04987   0.04471  -0.0245  0.2175  0.8542  -2.1863   0.0000   0.0000   0.0000   0.2565
  11.500   0.9748   0.05062   0.04518  -0.0240  0.1920  0.8577  -2.2001   0.0000   0.0000   0.0000   0.2558
  11.600   0.9752   0.05129   0.04556  -0.0236  0.1610  0.8619  -2.2158   0.0000   0.0000   0.0000   0.2552
  11.700   0.9793   0.05172   0.04585  -0.0233  0.1391  0.8682  -2.2391   0.0000   0.0000   0.0000   0.2547
  11.800   0.9817   0.05226   0.04621  -0.0230  0.1229  0.8742  -2.2593   0.0000   0.0000   0.0000   0.2541
  11.900   0.9807   0.05311   0.04679  -0.0226  0.0985  0.8787  -2.2721   0.0000   0.0000   0.0000   0.2535
  12.000   0.9831   0.05368   0.04723  -0.0223  0.0709  0.8850  -2.2920   0.0000   0.0000   0.0000   0.2530
  12.100   0.9889   0.05394   0.04747  -0.0221  0.0648  0.8930  -2.3193   0.0000   0.0000   0.0000   0.2524
  12.200   0.9942   0.05417   0.04770  -0.0217  0.0621  0.8999  -2.3460   0.0000   0.0000   0.0000   0.2517
  12.300   0.9993   0.05440   0.04792  -0.0212  0.0596  0.9050  -2.3726   0.0000   0.0000   0.0000   0.2510
  12.400   1.0048   0.05465   0.04815  -0.0209  0.0571  0.9082  -2.4002   0.0000   0.0000   0.0000   0.2504
  12.500   1.0113   0.05494   0.04841  -0.0209  0.0546  0.9093  -2.4296   0.0000   0.0000   0.0000   0.2501
  12.600   1.0182   0.05526   0.04870  -0.0210  0.0521  0.9095  -2.4599   0.0000   0.0000   0.0000   0.2498
  12.700   1.0251   0.05559   0.04898  -0.0211  0.0497  0.9097  -2.4903   0.0000   0.0000   0.0000   0.2496
  12.800   1.0320   0.05591   0.04926  -0.0212  0.0475  0.9099  -2.5211   0.0000   0.0000   0.0000   0.2493
  12.900   1.0390   0.05622   0.04954  -0.0213  0.0452  0.9101  -2.5521   0.0000   0.0000   0.0000   0.2491
  13.000   1.0459   0.05653   0.04982  -0.0214  0.0431  0.9104  -2.5835   0.0000   0.0000   0.0000   0.2489
  13.100   1.0530   0.05684   0.05009  -0.0215  0.0409  0.9107  -2.6154   0.0000   0.0000   0.0000   0.2487
  13.200   1.0601   0.05714   0.05036  -0.0216  0.0388  0.9110  -2.6476   0.0000   0.0000   0.0000   0.2484
  13.300   1.0673   0.05742   0.05063  -0.0217  0.0366  0.9113  -2.6804   0.0000   0.0000   0.0000   0.2482
  13.400   1.0747   0.05770   0.05088  -0.0218  0.0343  0.9116  -2.7140   0.0000   0.0000   0.0000   0.2480
  13.500   1.0822   0.05796   0.05113  -0.0219  0.0319  0.9120  -2.7709   0.0000   0.0000   0.0000   0.2478
  13.600   1.0899   0.05822   0.05138  -0.0220  0.0293  0.9124  -2.8517   0.0000   0.0000   0.0000   0.2475
  13.700   1.0976   0.05847   0.05163  -0.0222  0.0265  0.9128  -2.9331   0.0000   0.0000   0.0000   0.2473
  13.800   1.1052   0.05874   0.05189  -0.0223  0.0238  0.9133  -3.0136   0.0000   0.0000   0.0000   0.2471
  13.900   1.1127   0.05902   0.05218  -0.0224  0.0209  0.9138  -3.0924   0.0000   0.0000   0.0000   0.2468
  18.800   0.8634   0.21536   0.21287  -0.0716  0.0591  0.9260  -1.7327   0.0000   0.0000   0.0000   0.3036
  18.900   0.8510   0.22488   0.22240  -0.0754  0.0615  0.9212  -1.6040   0.0000   0.0000   0.0000   0.3095
  19.000   0.8347   0.23678   0.23432  -0.0803  0.0639  0.9149  -1.4405   0.0000   0.0000   0.0000   0.3176
  19.100   0.8230   0.24642   0.24400  -0.0847  0.0651  0.9100  -1.3197   0.0000   0.0000   0.0000   0.3248
  19.200   0.8089   0.25194   0.24960  -0.0907  0.0655  0.9029  -1.2094   0.0000   0.0000   0.0000   0.3348
  19.300   0.8000   0.25413   0.25186  -0.0941  0.0657  0.9009  -1.1471   0.0000   0.0000   0.0000   0.3407
  19.400   0.7950   0.25599   0.25376  -0.0961  0.0657  0.9002  -1.1091   0.0000   0.0000   0.0000   0.3443
  19.500   0.7915   0.25762   0.25542  -0.0978  0.0658  0.8999  -1.0810   0.0000   0.0000   0.0000   0.3471
  19.600   0.7909   0.25866   0.25648  -0.0989  0.0656  0.8998  -1.0735   0.0000   0.0000   0.0000   0.3486
  19.700   0.7915   0.25946   0.25729  -0.0999  0.0653  0.8997  -1.0746   0.0000   0.0000   0.0000   0.3497
  19.800   0.7990   0.25902   0.25686  -0.1001  0.0642  0.8997  -1.1234   0.0000   0.0000   0.0000   0.3484
  19.900   0.8870   0.24089   0.23845  -0.0842  0.0364  0.9223  -1.9168   0.0000   0.0000   0.0000   0.3139
  20.300   0.8747   0.24498   0.24263  -0.0940  0.0192  0.9034  -2.0721   0.0000   0.0000   0.0000   0.3263
  20.400   0.8356   0.25227   0.25006  -0.1010  0.0183  0.8995  -1.6903   0.0000   0.0000   0.0000   0.3415
  20.500   0.8032   0.25891   0.25674  -0.1051  0.0175  0.8993  -1.3465   0.0000   0.0000   0.0000   0.3529
  20.600   0.8007   0.26033   0.25817  -0.1062  0.0175  0.8993  -1.3199   0.0000   0.0000   0.0000   0.3547
  20.700   0.7985   0.26170   0.25956  -0.1072  0.0175  0.8994  -1.2951   0.0000   0.0000   0.0000   0.3564
  20.800   0.7965   0.26303   0.26090  -0.1082  0.0175  0.8994  -1.2719   0.0000   0.0000   0.0000   0.3580
  20.900   0.7947   0.26432   0.26221  -0.1091  0.0174  0.8994  -1.2501   0.0000   0.0000   0.0000   0.3595
  21.000   0.7930   0.26559   0.26349  -0.1100  0.0174  0.8995  -1.2296   0.0000   0.0000   0.0000   0.3609
  21.100   0.7915   0.26683   0.26474  -0.1108  0.0174  0.8995  -1.2101   0.0000   0.0000   0.0000   0.3622
  21.200   0.7901   0.26804   0.26597  -0.1117  0.0173  0.8996  -1.1917   0.0000   0.0000   0.0000   0.3635
  21.300   0.7889   0.26923   0.26717  -0.1125  0.0173  0.8997  -1.1742   0.0000   0.0000   0.0000   0.3648
  21.400   0.7877   0.27041   0.26836  -0.1133  0.0172  0.8997  -1.1575   0.0000   0.0000   0.0000   0.3660
  21.500   0.7867   0.27157   0.26953  -0.1140  0.0172  0.8998  -1.1417   0.0000   0.0000   0.0000   0.3671
  21.600   0.7858   0.27271   0.27068  -0.1148  0.0172  0.8998  -1.1266   0.0000   0.0000   0.0000   0.3682
  21.700   0.7850   0.27384   0.27182  -0.1155  0.0171  0.8999  -1.1122   0.0000   0.0000   0.0000   0.3692
  21.800   0.7842   0.27496   0.27295  -0.1162  0.0171  0.8999  -1.0983   0.0000   0.0000   0.0000   0.3702
  21.900   0.7836   0.27606   0.27406  -0.1169  0.0170  0.8999  -1.0851   0.0000   0.0000   0.0000   0.3712
  22.000   0.7830   0.27716   0.27517  -0.1176  0.0170  0.9000  -1.0724   0.0000   0.0000   0.0000   0.3721
  22.100   0.7825   0.27825   0.27626  -0.1183  0.0170  0.9000  -1.0602   0.0000   0.0000   0.0000   0.3731
  22.200   0.7820   0.27932   0.27735  -0.1189  0.0169  0.9001  -1.0484   0.0000   0.0000   0.0000   0.3739
  22.300   0.7816   0.28039   0.27843  -0.1196  0.0169  0.9001  -1.0371   0.0000   0.0000   0.0000   0.3748
  22.400   0.7813   0.28145   0.27950  -0.1202  0.0168  0.9002  -1.0262   0.0000   0.0000   0.0000   0.3756
  22.500   0.7810   0.28251   0.28056  -0.1209  0.0168  0.9002  -1.0157   0.0000   0.0000   0.0000   0.3764
  22.600   0.7808   0.28355   0.28161  -0.1215  0.0167  0.9002  -1.0055   0.0000   0.0000   0.0000   0.3772
  22.700   0.7806   0.28460   0.28266  -0.1221  0.0167  0.9003  -0.9957   0.0000   0.0000   0.0000   0.3780
  22.800   0.7804   0.28563   0.28371  -0.1228  0.0167  0.9003  -0.9862   0.0000   0.0000   0.0000   0.3787
  22.900   0.7803   0.28667   0.28475  -0.1234  0.0166  0.9003  -0.9772   0.0000   0.0000   0.0000   0.3795
  23.000   0.7803   0.28769   0.28578  -0.1240  0.0166  0.9004  -0.9692   0.0000   0.0000   0.0000   0.3802
  23.100   0.7802   0.28871   0.28681  -0.1246  0.0165  0.9004  -0.9613   0.0000   0.0000   0.0000   0.3809
  23.200   0.7802   0.28973   0.28784  -0.1252  0.0165  0.9004  -0.9537   0.0000   0.0000   0.0000   0.3816
  23.300   0.7802   0.29074   0.28885  -0.1258  0.0164  0.9005  -0.9461   0.0000   0.0000   0.0000   0.3823
  23.400   0.7803   0.29175   0.28987  -0.1264  0.0164  0.9005  -0.9388   0.0000   0.0000   0.0000   0.3829
  23.500   0.7803   0.29275   0.29088  -0.1270  0.0163  0.9005  -0.9317   0.0000   0.0000   0.0000   0.3836
  23.600   0.7804   0.29375   0.29188  -0.1276  0.0163  0.9005  -0.9247   0.0000   0.0000   0.0000   0.3842
  23.700   0.7806   0.29475   0.29289  -0.1282  0.0162  0.9005  -0.9180   0.0000   0.0000   0.0000   0.3848
  23.800   0.7807   0.29575   0.29389  -0.1288  0.0162  0.9006  -0.9115   0.0000   0.0000   0.0000   0.3855
  23.900   0.7809   0.29674   0.29489  -0.1294  0.0161  0.9006  -0.9051   0.0000   0.0000   0.0000   0.3861
  24.000   0.7811   0.29773   0.29589  -0.1299  0.0161  0.9006  -0.8988   0.0000   0.0000   0.0000   0.3867
  24.100   0.7814   0.29872   0.29689  -0.1305  0.0161  0.9006  -0.8928   0.0000   0.0000   0.0000   0.3873


