xflr5 v6.61

 Calculated polar for: WORTMANN FX 049-915 AIRFOIL

 1 1 Reynolds number fixed          Mach number fixed         

 xtrf =   1.000 (top)        1.000 (bottom)
 Mach =   0.000     Re =     0.563 e 6     Ncrit =   9.000

  alpha     CL        CD       CDp       Cm    Top Xtr Bot Xtr   Cpmin    Chinge    XCp    
 ------- -------- --------- --------- -------- ------- ------- -------- --------- ---------
  -2.800   0.1495   0.03666   0.03223  -0.0581  0.4842  0.0676  -0.8797   0.0000   0.0000   0.0000   0.6480
  -2.700   0.1650   0.03487   0.03032  -0.0583  0.4827  0.0676  -0.9071   0.0000   0.0000   0.0000   0.6113
  -2.600   0.1786   0.03349   0.02884  -0.0584  0.4815  0.0677  -0.9291   0.0000   0.0000   0.0000   0.5840
  -2.500   0.1914   0.03234   0.02760  -0.0585  0.4803  0.0677  -0.9488   0.0000   0.0000   0.0000   0.5616
  -2.400   0.2038   0.03127   0.02643  -0.0586  0.4793  0.0678  -0.9669   0.0000   0.0000   0.0000   0.5426
  -2.300   0.2157   0.03025   0.02532  -0.0586  0.4783  0.0678  -0.9835   0.0000   0.0000   0.0000   0.5264
  -2.200   0.2271   0.02928   0.02427  -0.0587  0.4773  0.0678  -0.9989   0.0000   0.0000   0.0000   0.5122
  -2.100   0.2383   0.02839   0.02329  -0.0587  0.4764  0.0678  -1.0133   0.0000   0.0000   0.0000   0.4995
  -2.000   0.2492   0.02756   0.02239  -0.0586  0.4755  0.0678  -1.0270   0.0000   0.0000   0.0000   0.4882
  -1.900   0.2600   0.02680   0.02154  -0.0586  0.4747  0.0678  -1.0398   0.0000   0.0000   0.0000   0.4779
  -1.800   0.2705   0.02609   0.02076  -0.0585  0.4738  0.0678  -1.0520   0.0000   0.0000   0.0000   0.4685
  -1.700   0.2810   0.02543   0.02003  -0.0585  0.4729  0.0679  -1.0637   0.0000   0.0000   0.0000   0.4599
  -1.600   0.2913   0.02481   0.01934  -0.0584  0.4721  0.0679  -1.0748   0.0000   0.0000   0.0000   0.4520
  -1.500   0.3016   0.02422   0.01868  -0.0583  0.4713  0.0679  -1.0857   0.0000   0.0000   0.0000   0.4446
  -1.400   0.3118   0.02366   0.01806  -0.0582  0.4704  0.0679  -1.0962   0.0000   0.0000   0.0000   0.4377
  -1.300   0.3220   0.02313   0.01746  -0.0581  0.4696  0.0679  -1.1065   0.0000   0.0000   0.0000   0.4313
  -1.200   0.3321   0.02263   0.01690  -0.0580  0.4688  0.0679  -1.1165   0.0000   0.0000   0.0000   0.4253
  -1.100   0.3423   0.02215   0.01636  -0.0579  0.4681  0.0680  -1.1263   0.0000   0.0000   0.0000   0.4196
  -1.000   0.3524   0.02169   0.01584  -0.0578  0.4673  0.0680  -1.1359   0.0000   0.0000   0.0000   0.4143
  -0.900   0.3625   0.02125   0.01534  -0.0578  0.4665  0.0680  -1.1453   0.0000   0.0000   0.0000   0.4092
  -0.800   0.3646   0.01742   0.01109  -0.0560  0.4656  0.0761  -1.1477   0.0000   0.0000   0.0000   0.4034
  -0.700   0.3747   0.01676   0.01034  -0.0559  0.4648  0.0803  -1.1569   0.0000   0.0000   0.0000   0.3988
  -0.600   0.3852   0.01640   0.00994  -0.0558  0.4641  0.0835  -1.1663   0.0000   0.0000   0.0000   0.3945
  -0.500   0.3958   0.01615   0.00966  -0.0559  0.4633  0.0864  -1.1757   0.0000   0.0000   0.0000   0.3905
  -0.400   0.4064   0.01594   0.00943  -0.0559  0.4626  0.0892  -1.1849   0.0000   0.0000   0.0000   0.3867
  -0.300   0.4168   0.01576   0.00923  -0.0559  0.4618  0.0919  -1.1939   0.0000   0.0000   0.0000   0.3832
  -0.200   0.4272   0.01559   0.00905  -0.0559  0.4611  0.0946  -1.2028   0.0000   0.0000   0.0000   0.3798
  -0.100   0.4375   0.01543   0.00888  -0.0559  0.4604  0.0973  -1.2115   0.0000   0.0000   0.0000   0.3766
   0.200   0.4678   0.01496   0.00839  -0.0559  0.4584  0.1066  -1.2368   0.0000   0.0000   0.0000   0.3679
   0.300   0.4778   0.01481   0.00824  -0.0559  0.4577  0.1102  -1.2450   0.0000   0.0000   0.0000   0.3653
   0.400   0.4877   0.01467   0.00809  -0.0559  0.4570  0.1142  -1.2531   0.0000   0.0000   0.0000   0.3627
   0.500   0.4976   0.01453   0.00795  -0.0559  0.4564  0.1186  -1.2611   0.0000   0.0000   0.0000   0.3602
   0.600   0.5074   0.01439   0.00781  -0.0558  0.4558  0.1234  -1.2690   0.0000   0.0000   0.0000   0.3579
   0.700   0.5171   0.01425   0.00768  -0.0558  0.4551  0.1283  -1.2768   0.0000   0.0000   0.0000   0.3556
   0.800   0.5268   0.01411   0.00756  -0.0557  0.4545  0.1333  -1.2845   0.0000   0.0000   0.0000   0.3533
   0.900   0.5366   0.01399   0.00745  -0.0556  0.4539  0.1379  -1.2922   0.0000   0.0000   0.0000   0.3512
   1.000   0.5463   0.01390   0.00737  -0.0556  0.4533  0.1417  -1.2998   0.0000   0.0000   0.0000   0.3491
   1.100   0.5561   0.01384   0.00733  -0.0555  0.4527  0.1446  -1.3074   0.0000   0.0000   0.0000   0.3471
   1.700   0.6153   0.01318   0.00644  -0.0546  0.4489  0.1648  -1.3523   0.0000   0.0000   0.0000   0.3353
   1.800   0.6258   0.01318   0.00641  -0.0545  0.4483  0.1569  -1.3601   0.0000   0.0000   0.0000   0.3336
   1.900   0.6363   0.01319   0.00641  -0.0545  0.4477  0.1493  -1.3678   0.0000   0.0000   0.0000   0.3320
   2.100   0.6596   0.01326   0.00623  -0.0542  0.4462  0.1324  -1.3848   0.0000   0.0000   0.0000   0.3283
   2.200   0.6717   0.01331   0.00622  -0.0540  0.4454  0.1096  -1.3938   0.0000   0.0000   0.0000   0.3265
   2.300   0.6817   0.01329   0.00612  -0.0539  0.4448  0.0990  -1.4011   0.0000   0.0000   0.0000   0.3251
   2.400   0.6922   0.01325   0.00604  -0.0539  0.4440  0.0932  -1.4096   0.0000   0.0000   0.0000   0.3237
   2.500   0.7031   0.01319   0.00595  -0.0539  0.4429  0.0889  -1.4190   0.0000   0.0000   0.0000   0.3225
   2.600   0.7143   0.01312   0.00585  -0.0540  0.4416  0.0853  -1.4288   0.0000   0.0000   0.0000   0.3213
   2.700   0.7255   0.01304   0.00575  -0.0541  0.4403  0.0815  -1.4388   0.0000   0.0000   0.0000   0.3201
   2.900   0.7115   0.01614   0.00921  -0.0494  0.4528  0.0777  -1.4146   0.0000   0.0000   0.0000   0.3150
   3.000   0.7044   0.01766   0.01084  -0.0473  0.4561  0.0773  -1.4038   0.0000   0.0000   0.0000   0.3126
   3.100   0.6992   0.01899   0.01225  -0.0454  0.4583  0.0768  -1.3956   0.0000   0.0000   0.0000   0.3104
   3.200   0.6953   0.02019   0.01351  -0.0437  0.4598  0.0762  -1.3891   0.0000   0.0000   0.0000   0.3083
   3.300   0.6923   0.02130   0.01465  -0.0422  0.4609  0.0756  -1.3838   0.0000   0.0000   0.0000   0.3063
   3.400   0.6903   0.02233   0.01572  -0.0408  0.4618  0.0749  -1.3797   0.0000   0.0000   0.0000   0.3044
   3.500   0.6892   0.02329   0.01669  -0.0396  0.4624  0.0741  -1.3765   0.0000   0.0000   0.0000   0.3026
   3.600   0.6886   0.02415   0.01757  -0.0384  0.4628  0.0734  -1.3743   0.0000   0.0000   0.0000   0.3008
   3.700   0.6886   0.02493   0.01835  -0.0373  0.4630  0.0727  -1.3729   0.0000   0.0000   0.0000   0.2990
   3.800   0.6890   0.02564   0.01907  -0.0362  0.4631  0.0719  -1.3722   0.0000   0.0000   0.0000   0.2973
   3.900   0.6898   0.02629   0.01972  -0.0351  0.4631  0.0712  -1.3721   0.0000   0.0000   0.0000   0.2956
   4.000   0.6910   0.02690   0.02032  -0.0341  0.4630  0.0706  -1.3724   0.0000   0.0000   0.0000   0.2939
   4.100   0.6925   0.02745   0.02088  -0.0331  0.4628  0.0699  -1.3733   0.0000   0.0000   0.0000   0.2922
   4.200   0.6943   0.02797   0.02138  -0.0321  0.4625  0.0693  -1.3745   0.0000   0.0000   0.0000   0.2906
   4.300   0.6963   0.02844   0.02186  -0.0312  0.4622  0.0687  -1.3761   0.0000   0.0000   0.0000   0.2889
   4.400   0.6986   0.02889   0.02229  -0.0302  0.4618  0.0682  -1.3781   0.0000   0.0000   0.0000   0.2873
   5.700   0.7439   0.03261   0.02599  -0.0191  0.4512  0.0685  -1.4251   0.0000   0.0000   0.0000   0.2679
   5.800   0.7495   0.03281   0.02620  -0.0186  0.4500  0.0714  -1.4307   0.0000   0.0000   0.0000   0.2669
   5.900   0.7553   0.03300   0.02640  -0.0181  0.4487  0.0752  -1.4364   0.0000   0.0000   0.0000   0.2659
   6.000   0.7610   0.03319   0.02661  -0.0177  0.4474  0.0782  -1.4421   0.0000   0.0000   0.0000   0.2650
   6.100   0.7645   0.03353   0.02695  -0.0171  0.4459  0.0805  -1.4451   0.0000   0.0000   0.0000   0.2639
   6.200   0.7669   0.03393   0.02737  -0.0164  0.4444  0.0825  -1.4466   0.0000   0.0000   0.0000   0.2628
   6.300   0.7694   0.03434   0.02780  -0.0157  0.4426  0.0844  -1.4478   0.0000   0.0000   0.0000   0.2617
   6.400   0.7726   0.03470   0.02818  -0.0151  0.4407  0.0864  -1.4497   0.0000   0.0000   0.0000   0.2607
   6.500   0.7773   0.03497   0.02846  -0.0147  0.4386  0.0886  -1.4530   0.0000   0.0000   0.0000   0.2598
   6.600   0.7846   0.03506   0.02857  -0.0144  0.4363  0.0913  -1.4594   0.0000   0.0000   0.0000   0.2591
   6.700   0.7953   0.03494   0.02846  -0.0143  0.4346  0.0946  -1.4706   0.0000   0.0000   0.0000   0.2587
   6.800   0.8067   0.03478   0.02831  -0.0143  0.4330  0.0984  -1.4827   0.0000   0.0000   0.0000   0.2583
   6.900   0.8181   0.03460   0.02815  -0.0143  0.4313  0.1025  -1.4949   0.0000   0.0000   0.0000   0.2579
   7.000   0.8297   0.03442   0.02798  -0.0143  0.4297  0.1068  -1.5073   0.0000   0.0000   0.0000   0.2575
   7.100   0.8416   0.03423   0.02781  -0.0144  0.4281  0.1109  -1.5199   0.0000   0.0000   0.0000   0.2572
   7.200   0.8536   0.03402   0.02762  -0.0144  0.4265  0.1146  -1.5328   0.0000   0.0000   0.0000   0.2569
   7.300   0.8659   0.03381   0.02743  -0.0145  0.4251  0.1182  -1.5460   0.0000   0.0000   0.0000   0.2566
   7.400   0.8783   0.03359   0.02722  -0.0146  0.4237  0.1213  -1.5593   0.0000   0.0000   0.0000   0.2563
   7.500   0.8908   0.03336   0.02701  -0.0146  0.4223  0.1244  -1.5728   0.0000   0.0000   0.0000   0.2560
   7.600   0.9035   0.03313   0.02680  -0.0147  0.4211  0.1275  -1.5865   0.0000   0.0000   0.0000   0.2557
   7.700   0.9162   0.03289   0.02658  -0.0148  0.4198  0.1307  -1.6003   0.0000   0.0000   0.0000   0.2554
   7.800   0.9290   0.03263   0.02635  -0.0149  0.4186  0.1340  -1.6142   0.0000   0.0000   0.0000   0.2552
   7.900   0.9418   0.03237   0.02611  -0.0150  0.4175  0.1373  -1.6282   0.0000   0.0000   0.0000   0.2549
   8.000   0.9547   0.03209   0.02587  -0.0150  0.4164  0.1407  -1.6422   0.0000   0.0000   0.0000   0.2546
   8.100   0.9675   0.03181   0.02563  -0.0151  0.4153  0.1442  -1.6563   0.0000   0.0000   0.0000   0.2543
   8.200   0.9803   0.03151   0.02538  -0.0152  0.4143  0.1550  -1.6704   0.0000   0.0000   0.0000   0.2540
   8.400   1.3966   0.01279   0.00629  -0.0738  0.2695  1.0000  -2.1969   0.0000   0.0000   0.0000   0.2904
   8.500   1.3935   0.01340   0.00676  -0.0717  0.2343  1.0000  -2.2088   0.0000   0.0000   0.0000   0.2889
   8.600   1.3888   0.01413   0.00732  -0.0694  0.2175  1.0000  -2.2182   0.0000   0.0000   0.0000   0.2872
   8.700   1.3830   0.01488   0.00792  -0.0669  0.2034  1.0000  -2.2257   0.0000   0.0000   0.0000   0.2855
   8.800   1.3769   0.01560   0.00852  -0.0644  0.1897  1.0000  -2.2327   0.0000   0.0000   0.0000   0.2837
   8.900   1.3721   0.01627   0.00909  -0.0621  0.1731  1.0000  -2.2417   0.0000   0.0000   0.0000   0.2821
   9.000   1.3700   0.01679   0.00955  -0.0603  0.1505  1.0000  -2.2553   0.0000   0.0000   0.0000   0.2807
   9.100   1.3669   0.01716   0.00989  -0.0581  0.1429  1.0000  -2.2675   0.0000   0.0000   0.0000   0.2790
   9.200   1.3645   0.01753   0.01024  -0.0561  0.1390  1.0000  -2.2808   0.0000   0.0000   0.0000   0.2775
   9.300   1.3666   0.01779   0.01051  -0.0549  0.1374  1.0000  -2.3018   0.0000   0.0000   0.0000   0.2763
   9.800   1.1390   0.04558   0.04142  -0.0486  0.3485  1.0000  -1.9221   0.0000   0.0000   0.0000   0.2777
   9.900   1.1158   0.04837   0.04423  -0.0477  0.3481  1.0000  -1.8906   0.0000   0.0000   0.0000   0.2776
  10.000   1.1035   0.05036   0.04622  -0.0472  0.3466  1.0000  -1.8799   0.0000   0.0000   0.0000   0.2774
  10.100   1.0938   0.05216   0.04804  -0.0468  0.3449  1.0000  -1.8740   0.0000   0.0000   0.0000   0.2772
  10.200   1.0852   0.05389   0.04978  -0.0465  0.3429  1.0000  -1.8701   0.0000   0.0000   0.0000   0.2770
  10.300   1.0775   0.05556   0.05145  -0.0462  0.3406  1.0000  -1.8677   0.0000   0.0000   0.0000   0.2769
  10.400   1.0709   0.05717   0.05306  -0.0460  0.3381  1.0000  -1.8673   0.0000   0.0000   0.0000   0.2767
  10.500   1.0649   0.05872   0.05462  -0.0458  0.3352  1.0000  -1.8681   0.0000   0.0000   0.0000   0.2765
  10.600   1.0595   0.06022   0.05612  -0.0456  0.3320  1.0000  -1.8698   0.0000   0.0000   0.0000   0.2764
  10.700   1.0544   0.06168   0.05758  -0.0454  0.3283  1.0000  -1.8723   0.0000   0.0000   0.0000   0.2762
  10.800   1.0496   0.06309   0.05900  -0.0453  0.3239  1.0000  -1.8753   0.0000   0.0000   0.0000   0.2760
  10.900   1.0450   0.06447   0.06038  -0.0451  0.3187  1.0000  -1.8786   0.0000   0.0000   0.0000   0.2759
  11.000   1.0403   0.06584   0.06173  -0.0450  0.3120  1.0000  -1.8818   0.0000   0.0000   0.0000   0.2757
  11.100   1.0353   0.06720   0.06307  -0.0449  0.3034  1.0000  -1.8843   0.0000   0.0000   0.0000   0.2756
  11.200   1.0299   0.06855   0.06438  -0.0447  0.2921  1.0000  -1.8861   0.0000   0.0000   0.0000   0.2754
  11.300   1.0242   0.06993   0.06570  -0.0446  0.2798  1.0000  -1.8870   0.0000   0.0000   0.0000   0.2753
  11.400   1.0176   0.07143   0.06714  -0.0445  0.2678  1.0000  -1.8860   0.0000   0.0000   0.0000   0.2753
  11.500   1.0115   0.07292   0.06858  -0.0445  0.2556  1.0000  -1.8854   0.0000   0.0000   0.0000   0.2753
  11.600   1.0113   0.07382   0.06944  -0.0444  0.2474  1.0000  -1.8973   0.0000   0.0000   0.0000   0.2750
  11.700   1.0135   0.07446   0.07002  -0.0443  0.2418  1.0000  -1.9145   0.0000   0.0000   0.0000   0.2746
  11.800   1.0150   0.07514   0.07063  -0.0442  0.2348  1.0000  -1.9305   0.0000   0.0000   0.0000   0.2742
  11.900   1.0157   0.07587   0.07126  -0.0441  0.2256  1.0000  -1.9447   0.0000   0.0000   0.0000   0.2739
  12.000   1.0141   0.07674   0.07195  -0.0440  0.2111  1.0000  -1.9545   0.0000   0.0000   0.0000   0.2735
  12.100   1.0130   0.07753   0.07254  -0.0438  0.1956  1.0000  -1.9655   0.0000   0.0000   0.0000   0.2732
  12.200   1.0137   0.07817   0.07301  -0.0436  0.1774  1.0000  -1.9801   0.0000   0.0000   0.0000   0.2728
  12.300   1.0182   0.07859   0.07334  -0.0435  0.1516  1.0000  -2.0024   0.0000   0.0000   0.0000   0.2722
  12.400   1.0224   0.07897   0.07367  -0.0434  0.1429  1.0000  -2.0242   0.0000   0.0000   0.0000   0.2717
  12.500   1.0262   0.07932   0.07397  -0.0432  0.1376  1.0000  -2.0455   0.0000   0.0000   0.0000   0.2712
  12.600   1.0302   0.07964   0.07424  -0.0431  0.1328  1.0000  -2.0672   0.0000   0.0000   0.0000   0.2707
  12.900   1.0235   0.08142   0.07529  -0.0421  0.0658  1.0000  -2.0937   0.0000   0.0000   0.0000   0.2694
  13.000   1.0281   0.08172   0.07556  -0.0420  0.0630  1.0000  -2.1169   0.0000   0.0000   0.0000   0.2689
  13.100   1.0328   0.08203   0.07583  -0.0419  0.0603  1.0000  -2.1402   0.0000   0.0000   0.0000   0.2684
  13.200   1.0374   0.08234   0.07610  -0.0418  0.0578  1.0000  -2.1636   0.0000   0.0000   0.0000   0.2679
  13.300   1.0419   0.08266   0.07637  -0.0417  0.0553  1.0000  -2.1872   0.0000   0.0000   0.0000   0.2674
  13.400   1.0466   0.08299   0.07665  -0.0416  0.0530  1.0000  -2.2109   0.0000   0.0000   0.0000   0.2669
  13.500   1.0512   0.08332   0.07693  -0.0415  0.0508  1.0000  -2.2349   0.0000   0.0000   0.0000   0.2664
  13.600   1.0560   0.08365   0.07721  -0.0414  0.0486  1.0000  -2.2593   0.0000   0.0000   0.0000   0.2660
  13.700   1.0608   0.08398   0.07749  -0.0413  0.0465  1.0000  -2.2841   0.0000   0.0000   0.0000   0.2655
  13.800   1.0659   0.08429   0.07777  -0.0412  0.0444  1.0000  -2.3097   0.0000   0.0000   0.0000   0.2650
  13.900   1.0712   0.08459   0.07803  -0.0411  0.0422  1.0000  -2.3362   0.0000   0.0000   0.0000   0.2645
  14.000   1.0768   0.08488   0.07828  -0.0411  0.0400  1.0000  -2.3635   0.0000   0.0000   0.0000   0.2641
  14.100   1.0826   0.08515   0.07852  -0.0410  0.0377  1.0000  -2.3918   0.0000   0.0000   0.0000   0.2636
  14.200   1.0886   0.08541   0.07877  -0.0410  0.0352  1.0000  -2.4209   0.0000   0.0000   0.0000   0.2631
  14.300   1.0947   0.08568   0.07902  -0.0409  0.0324  1.0000  -2.4507   0.0000   0.0000   0.0000   0.2626
  14.400   1.1009   0.08596   0.07929  -0.0409  0.0296  1.0000  -2.5019   0.0000   0.0000   0.0000   0.2621
  14.500   1.1070   0.08625   0.07956  -0.0408  0.0268  1.0000  -2.5760   0.0000   0.0000   0.0000   0.2617
  14.600   1.1131   0.08654   0.07984  -0.0408  0.0240  1.0000  -2.6497   0.0000   0.0000   0.0000   0.2612
  14.700   1.1194   0.08683   0.08012  -0.0407  0.0210  1.0000  -2.7221   0.0000   0.0000   0.0000   0.2607
  14.800   1.1253   0.08716   0.08042  -0.0406  0.0179  1.0000  -2.7854   0.0000   0.0000   0.0000   0.2602
  14.900   1.1307   0.08749   0.08079  -0.0405  0.0177  1.0000  -2.8530   0.0000   0.0000   0.0000   0.2597
  15.000   1.1358   0.08786   0.08119  -0.0404  0.0174  1.0000  -2.9172   0.0000   0.0000   0.0000   0.2592
  15.100   1.1407   0.08824   0.08162  -0.0402  0.0173  1.0000  -2.9779   0.0000   0.0000   0.0000   0.2586
  15.200   1.1453   0.08865   0.08209  -0.0401  0.0171  1.0000  -3.0339   0.0000   0.0000   0.0000   0.2581
  15.300   1.1498   0.08907   0.08261  -0.0399  0.0170  1.0000  -3.0849   0.0000   0.0000   0.0000   0.2575
  15.400   1.1540   0.08952   0.08316  -0.0396  0.0169  1.0000  -3.1297   0.0000   0.0000   0.0000   0.2569
  15.500   1.1579   0.08998   0.08377  -0.0393  0.0168  1.0000  -3.1686   0.0000   0.0000   0.0000   0.2563
  15.600   1.1613   0.09046   0.08441  -0.0389  0.0168  1.0000  -3.2006   0.0000   0.0000   0.0000   0.2556
  15.700   1.1640   0.09096   0.08510  -0.0385  0.0169  1.0000  -3.2237   0.0000   0.0000   0.0000   0.2549
  15.800   1.1656   0.09155   0.08590  -0.0379  0.0170  1.0000  -3.2339   0.0000   0.0000   0.0000   0.2541
  15.900   1.1650   0.09235   0.08695  -0.0372  0.0172  1.0000  -3.2212   0.0000   0.0000   0.0000   0.2532
  16.300   1.0422   0.12002   0.11430  -0.0499  0.0172  1.0000  -2.7984   0.0000   0.0000   0.0000   0.2695
  16.400   1.0447   0.12098   0.11534  -0.0501  0.0171  1.0000  -2.8381   0.0000   0.0000   0.0000   0.2693
  16.500   1.0472   0.12195   0.11641  -0.0501  0.0170  1.0000  -2.8740   0.0000   0.0000   0.0000   0.2690
  16.600   1.0496   0.12293   0.11751  -0.0502  0.0169  1.0000  -2.9058   0.0000   0.0000   0.0000   0.2687
  16.700   1.0518   0.12392   0.11866  -0.0502  0.0169  1.0000  -2.9330   0.0000   0.0000   0.0000   0.2683
  16.800   1.0538   0.12494   0.11985  -0.0502  0.0169  1.0000  -2.9544   0.0000   0.0000   0.0000   0.2679
  16.900   1.0553   0.12600   0.12110  -0.0501  0.0169  1.0000  -2.9676   0.0000   0.0000   0.0000   0.2675
  17.000   1.0560   0.12714   0.12245  -0.0499  0.0170  1.0000  -2.9689   0.0000   0.0000   0.0000   0.2670
  17.100   1.0549   0.12852   0.12406  -0.0496  0.0172  1.0000  -2.9479   0.0000   0.0000   0.0000   0.2665


