xflr5 v6.61

 Calculated polar for: WORTMANN FX 63-137 AIRFOIL

 1 1 Reynolds number fixed          Mach number fixed         

 xtrf =   1.000 (top)        1.000 (bottom)
 Mach =   0.000     Re =     0.625 e 6     Ncrit =   9.000

  alpha     CL        CD       CDp       Cm    Top Xtr Bot Xtr   Cpmin    Chinge    XCp    
 ------- -------- --------- --------- -------- ------- ------- -------- --------- ---------
 -10.000  -0.3085   0.01873   0.01468  -0.1739  0.9198  0.0106  -6.8215   0.0000   0.0000   0.0000  -0.3418
  -9.900  -0.2925   0.01854   0.01447  -0.1752  0.9167  0.0108  -6.6528   0.0000   0.0000   0.0000  -0.3782
  -9.800  -0.2796   0.01833   0.01423  -0.1759  0.9116  0.0110  -6.5087   0.0000   0.0000   0.0000  -0.4094
  -9.700  -0.2662   0.01807   0.01393  -0.1768  0.9066  0.0111  -6.3712   0.0000   0.0000   0.0000  -0.4457
  -9.600  -0.2521   0.01776   0.01355  -0.1779  0.9019  0.0113  -6.2510   0.0000   0.0000   0.0000  -0.4883
  -9.400  -0.2252   0.01705   0.01270  -0.1798  0.8931  0.0118  -6.0318   0.0000   0.0000   0.0000  -0.5838
  -9.300  -0.2126   0.01668   0.01225  -0.1806  0.8882  0.0120  -5.9315   0.0000   0.0000   0.0000  -0.6366
  -9.200  -0.1995   0.01629   0.01175  -0.1814  0.8836  0.0123  -5.8323   0.0000   0.0000   0.0000  -0.6984
  -9.100  -0.1862   0.01593   0.01129  -0.1823  0.8792  0.0125  -5.7299   0.0000   0.0000   0.0000  -0.7699
  -9.000  -0.1734   0.01560   0.01087  -0.1830  0.8751  0.0128  -5.6291   0.0000   0.0000   0.0000  -0.8493
  -8.900  -0.1614   0.01528   0.01049  -0.1836  0.8707  0.0130  -5.5317   0.0000   0.0000   0.0000  -0.9334
  -8.800  -0.1492   0.01498   0.01012  -0.1841  0.8662  0.0133  -5.4326   0.0000   0.0000   0.0000  -1.0338
  -8.700  -0.1367   0.01470   0.00976  -0.1847  0.8619  0.0135  -5.3321   0.0000   0.0000   0.0000  -1.1545
  -8.600  -0.1240   0.01444   0.00942  -0.1853  0.8579  0.0138  -5.2308   0.0000   0.0000   0.0000  -1.3016
  -8.400  -0.0990   0.01394   0.00878  -0.1864  0.8509  0.0141  -5.0305   0.0000   0.0000   0.0000  -1.7022
  -8.300  -0.0867   0.01370   0.00848  -0.1869  0.8475  0.0143  -4.9318   0.0000   0.0000   0.0000  -1.9848
  -8.200  -0.0744   0.01352   0.00825  -0.1873  0.8441  0.0145  -4.8296   0.0000   0.0000   0.0000  -2.3560
  -8.100  -0.0621   0.01335   0.00802  -0.1877  0.8407  0.0147  -4.7280   0.0000   0.0000   0.0000  -2.8779
  -8.000  -0.0494   0.01311   0.00770  -0.1883  0.8375  0.0147  -4.6314   0.0000   0.0000   0.0000  -3.6934
  -7.900  -0.0366   0.01287   0.00739  -0.1888  0.8344  0.0147  -4.5354   0.0000   0.0000   0.0000  -5.0917
  -7.800  -0.0237   0.01267   0.00710  -0.1894  0.8313  0.0147  -4.4387   0.0000   0.0000   0.0000  -8.0074
  -7.700  -0.0110   0.01246   0.00684  -0.1899  0.8286  0.0148  -4.3422   0.0000   0.0000   0.0000  -17.5686
  -7.600   0.0015   0.01227   0.00660  -0.1903  0.8258  0.0148  -4.2463   0.0000   0.0000   0.0000  130.0435
  -7.500   0.0140   0.01209   0.00638  -0.1908  0.8226  0.0148  -4.1504   0.0000   0.0000   0.0000  14.3063
  -7.400   0.0265   0.01194   0.00617  -0.1912  0.8191  0.0148  -4.0546   0.0000   0.0000   0.0000   7.7021
  -7.300   0.0389   0.01179   0.00597  -0.1915  0.8155  0.0149  -3.9591   0.0000   0.0000   0.0000   5.3277
  -7.200   0.0513   0.01167   0.00579  -0.1919  0.8118  0.0149  -3.8639   0.0000   0.0000   0.0000   4.1060
  -7.100   0.0636   0.01156   0.00562  -0.1922  0.8080  0.0150  -3.7693   0.0000   0.0000   0.0000   3.3626
  -7.000   0.0759   0.01146   0.00547  -0.1926  0.8042  0.0150  -3.6749   0.0000   0.0000   0.0000   2.8605
  -6.900   0.0882   0.01135   0.00530  -0.1929  0.8012  0.0151  -3.5788   0.0000   0.0000   0.0000   2.5004
  -6.800   0.1004   0.01124   0.00516  -0.1931  0.7976  0.0152  -3.4863   0.0000   0.0000   0.0000   2.2287
  -6.700   0.1125   0.01115   0.00503  -0.1934  0.7938  0.0152  -3.3945   0.0000   0.0000   0.0000   2.0167
  -6.600   0.1246   0.01107   0.00491  -0.1937  0.7898  0.0153  -3.3034   0.0000   0.0000   0.0000   1.8466
  -6.500   0.1366   0.01100   0.00480  -0.1939  0.7858  0.0154  -3.2133   0.0000   0.0000   0.0000   1.7072
  -6.400   0.1485   0.01095   0.00470  -0.1941  0.7817  0.0155  -3.1240   0.0000   0.0000   0.0000   1.5908
  -6.300   0.1606   0.01091   0.00461  -0.1943  0.7777  0.0156  -3.0510   0.0000   0.0000   0.0000   1.4909
  -6.200   0.1727   0.01083   0.00452  -0.1945  0.7750  0.0157  -2.9824   0.0000   0.0000   0.0000   1.4050
  -6.100   0.1847   0.01076   0.00445  -0.1947  0.7717  0.0158  -2.9134   0.0000   0.0000   0.0000   1.3306
  -6.000   0.1966   0.01070   0.00438  -0.1949  0.7679  0.0159  -2.8440   0.0000   0.0000   0.0000   1.2656
  -5.900   0.2084   0.01066   0.00432  -0.1951  0.7638  0.0160  -2.7743   0.0000   0.0000   0.0000   1.2083
  -5.800   0.2201   0.01063   0.00427  -0.1952  0.7596  0.0161  -2.7041   0.0000   0.0000   0.0000   1.1575
  -5.700   0.2317   0.01062   0.00423  -0.1953  0.7554  0.0163  -2.6334   0.0000   0.0000   0.0000   1.1123
  -5.500   0.2548   0.01060   0.00420  -0.1955  0.7481  0.0165  -2.4890   0.0000   0.0000   0.0000   1.0340
  -5.400   0.2663   0.01059   0.00420  -0.1955  0.7450  0.0166  -2.4147   0.0000   0.0000   0.0000   1.0000
  -5.300   0.2777   0.01060   0.00422  -0.1956  0.7415  0.0168  -2.3392   0.0000   0.0000   0.0000   0.9690
  -5.200   0.2888   0.01064   0.00427  -0.1955  0.7380  0.0169  -2.2619   0.0000   0.0000   0.0000   0.9409
  -5.100   0.2996   0.01071   0.00435  -0.1954  0.7344  0.0171  -2.1817   0.0000   0.0000   0.0000   0.9154
  -4.900   0.3204   0.01092   0.00460  -0.1950  0.7276  0.0176  -2.0211   0.0000   0.0000   0.0000   0.8701
  -4.800   0.3342   0.01070   0.00430  -0.1957  0.7242  0.0181  -1.9862   0.0000   0.0000   0.0000   0.8465
  -4.700   0.3477   0.01052   0.00406  -0.1963  0.7211  0.0186  -1.9476   0.0000   0.0000   0.0000   0.8250
  -4.600   0.3611   0.01036   0.00387  -0.1969  0.7193  0.0192  -1.9050   0.0000   0.0000   0.0000   0.8050
  -4.500   0.3741   0.01024   0.00374  -0.1973  0.7173  0.0197  -1.8592   0.0000   0.0000   0.0000   0.7867
  -4.400   0.3868   0.01014   0.00363  -0.1977  0.7151  0.0203  -1.8111   0.0000   0.0000   0.0000   0.7698
  -4.300   0.3994   0.01007   0.00353  -0.1981  0.7127  0.0209  -1.7614   0.0000   0.0000   0.0000   0.7541
  -4.200   0.4119   0.01000   0.00345  -0.1984  0.7101  0.0214  -1.7105   0.0000   0.0000   0.0000   0.7394
  -4.100   0.4243   0.00994   0.00338  -0.1987  0.7073  0.0218  -1.6594   0.0000   0.0000   0.0000   0.7255
  -4.000   0.4367   0.00988   0.00331  -0.1990  0.7044  0.0221  -1.6084   0.0000   0.0000   0.0000   0.7125
  -3.900   0.4490   0.00983   0.00324  -0.1993  0.7015  0.0225  -1.5579   0.0000   0.0000   0.0000   0.7002
  -3.800   0.4613   0.00978   0.00317  -0.1995  0.6984  0.0228  -1.5081   0.0000   0.0000   0.0000   0.6886
  -3.500   0.4980   0.00965   0.00298  -0.2003  0.6901  0.0237  -1.3597   0.0000   0.0000   0.0000   0.6572
  -3.400   0.5103   0.00961   0.00294  -0.2006  0.6879  0.0244  -1.3050   0.0000   0.0000   0.0000   0.6478
  -3.300   0.5225   0.00958   0.00290  -0.2008  0.6854  0.0252  -1.2505   0.0000   0.0000   0.0000   0.6388
  -3.200   0.5346   0.00955   0.00287  -0.2010  0.6829  0.0259  -1.1981   0.0000   0.0000   0.0000   0.6302
  -3.100   0.5467   0.00952   0.00283  -0.2012  0.6802  0.0264  -1.1485   0.0000   0.0000   0.0000   0.6220
  -3.000   0.5589   0.00949   0.00278  -0.2015  0.6774  0.0268  -1.1018   0.0000   0.0000   0.0000   0.6141
  -2.900   0.5713   0.00944   0.00272  -0.2017  0.6745  0.0269  -1.0586   0.0000   0.0000   0.0000   0.6065
  -2.800   0.5837   0.00940   0.00263  -0.2020  0.6715  0.0270  -1.0185   0.0000   0.0000   0.0000   0.5992
  -2.700   0.5959   0.00936   0.00256  -0.2022  0.6685  0.0271  -0.9786   0.0000   0.0000   0.0000   0.5922
  -2.600   0.6081   0.00934   0.00249  -0.2024  0.6654  0.0271  -0.9388   0.0000   0.0000   0.0000   0.5856
  -2.500   0.6201   0.00932   0.00244  -0.2026  0.6622  0.0272  -0.8990   0.0000   0.0000   0.0000   0.5792
  -2.400   0.6325   0.00929   0.00238  -0.2028  0.6600  0.0273  -0.8882   0.0000   0.0000   0.0000   0.5730
  -2.300   0.6449   0.00925   0.00231  -0.2031  0.6582  0.0274  -0.8972   0.0000   0.0000   0.0000   0.5669
  -2.200   0.6572   0.00923   0.00228  -0.2033  0.6560  0.0277  -0.9061   0.0000   0.0000   0.0000   0.5612
  -1.400   0.7522   0.00920   0.00208  -0.2044  0.6271  0.0351  -0.9798   0.0000   0.0000   0.0000   0.5221
  -1.300   0.7640   0.00920   0.00207  -0.2046  0.6239  0.0353  -0.9901   0.0000   0.0000   0.0000   0.5179
  -1.200   0.7757   0.00921   0.00206  -0.2047  0.6205  0.0356  -1.0003   0.0000   0.0000   0.0000   0.5138
  -1.100   0.7873   0.00922   0.00205  -0.2047  0.6170  0.0358  -1.0105   0.0000   0.0000   0.0000   0.5099
  -1.000   0.7989   0.00924   0.00205  -0.2048  0.6133  0.0360  -1.0207   0.0000   0.0000   0.0000   0.5060
  -0.900   0.8103   0.00927   0.00204  -0.2049  0.6094  0.0362  -1.0308   0.0000   0.0000   0.0000   0.5023
  -0.800   0.8216   0.00930   0.00205  -0.2049  0.6055  0.0365  -1.0408   0.0000   0.0000   0.0000   0.4987
  -0.700   0.8328   0.00934   0.00205  -0.2049  0.6015  0.0367  -1.0508   0.0000   0.0000   0.0000   0.4952
  -0.600   0.8442   0.00937   0.00206  -0.2049  0.5976  0.0370  -1.0609   0.0000   0.0000   0.0000   0.4918
  -0.500   0.8560   0.00937   0.00206  -0.2051  0.5955  0.0373  -1.0713   0.0000   0.0000   0.0000   0.4884
  -0.400   0.8678   0.00938   0.00207  -0.2052  0.5927  0.0376  -1.0817   0.0000   0.0000   0.0000   0.4851
  -0.300   0.8795   0.00939   0.00208  -0.2053  0.5891  0.0379  -1.0921   0.0000   0.0000   0.0000   0.4820
  -0.200   0.8911   0.00940   0.00209  -0.2054  0.5847  0.0382  -1.1023   0.0000   0.0000   0.0000   0.4789
  -0.100   0.9025   0.00943   0.00210  -0.2054  0.5792  0.0388  -1.1125   0.0000   0.0000   0.0000   0.4759
   0.000   0.9135   0.00948   0.00212  -0.2054  0.5730  0.0400  -1.1225   0.0000   0.0000   0.0000   0.4729
   0.100   0.9243   0.00954   0.00214  -0.2053  0.5668  0.0416  -1.1324   0.0000   0.0000   0.0000   0.4701
   0.200   0.9356   0.00958   0.00216  -0.2053  0.5621  0.0446  -1.1425   0.0000   0.0000   0.0000   0.4673
   0.300   0.9469   0.00962   0.00219  -0.2054  0.5572  0.0476  -1.1527   0.0000   0.0000   0.0000   0.4646
   0.400   0.9582   0.00966   0.00223  -0.2054  0.5513  0.0506  -1.1629   0.0000   0.0000   0.0000   0.4619
   0.500   0.9690   0.00972   0.00228  -0.2054  0.5436  0.0632  -1.1728   0.0000   0.0000   0.0000   0.4593
   0.600   0.9791   0.00983   0.00234  -0.2052  0.5342  0.0669  -1.1824   0.0000   0.0000   0.0000   0.4568
   0.700   0.9906   0.00986   0.00237  -0.2053  0.5276  0.0762  -1.1946   0.0000   0.0000   0.0000   0.4543
   0.800   1.0022   0.00989   0.00242  -0.2055  0.5156  0.0999  -1.2068   0.0000   0.0000   0.0000   0.4520
   1.000   1.0255   0.00996   0.00256  -0.2060  0.4910  0.1922  -1.2314   0.0000   0.0000   0.0000   0.4476
   1.100   1.0371   0.00999   0.00262  -0.2062  0.4825  0.2195  -1.2437   0.0000   0.0000   0.0000   0.4454
   1.200   1.0489   0.01002   0.00269  -0.2066  0.4737  0.2661  -1.2562   0.0000   0.0000   0.0000   0.4433
   1.300   1.0613   0.01002   0.00277  -0.2070  0.4664  0.3149  -1.2708   0.0000   0.0000   0.0000   0.4413
   1.400   1.0748   0.00994   0.00284  -0.2077  0.4610  0.3772  -1.2870   0.0000   0.0000   0.0000   0.4393
   1.500   1.0873   0.00993   0.00295  -0.2081  0.4517  0.4341  -1.3025   0.0000   0.0000   0.0000   0.4374
   1.600   1.0980   0.01004   0.00309  -0.2082  0.4384  0.4714  -1.3168   0.0000   0.0000   0.0000   0.4354
   1.700   1.1086   0.01014   0.00321  -0.2081  0.4303  0.4976  -1.3309   0.0000   0.0000   0.0000   0.4334
   1.800   1.1193   0.01023   0.00331  -0.2081  0.4239  0.5128  -1.3451   0.0000   0.0000   0.0000   0.4314
   1.900   1.1298   0.01033   0.00339  -0.2080  0.4176  0.5211  -1.3592   0.0000   0.0000   0.0000   0.4295
   2.000   1.1399   0.01046   0.00348  -0.2078  0.4112  0.5254  -1.3730   0.0000   0.0000   0.0000   0.4275
   2.100   1.1501   0.01057   0.00356  -0.2076  0.4046  0.5294  -1.3869   0.0000   0.0000   0.0000   0.4256
   2.200   1.1609   0.01064   0.00366  -0.2076  0.4009  0.5349  -1.4013   0.0000   0.0000   0.0000   0.4238
   2.300   1.1720   0.01069   0.00372  -0.2076  0.3971  0.5406  -1.4160   0.0000   0.0000   0.0000   0.4219
   2.400   1.1827   0.01076   0.00380  -0.2075  0.3907  0.5464  -1.4313   0.0000   0.0000   0.0000   0.4201
   2.500   1.1925   0.01091   0.00390  -0.2073  0.3784  0.5521  -1.4479   0.0000   0.0000   0.0000   0.4183
   2.600   1.2017   0.01110   0.00403  -0.2070  0.3677  0.5576  -1.4640   0.0000   0.0000   0.0000   0.4166
   2.700   1.2116   0.01123   0.00412  -0.2067  0.3610  0.5628  -1.4808   0.0000   0.0000   0.0000   0.4149
   2.800   1.2215   0.01136   0.00422  -0.2065  0.3543  0.5690  -1.4976   0.0000   0.0000   0.0000   0.4132
   2.900   1.2314   0.01150   0.00435  -0.2063  0.3474  0.5779  -1.5160   0.0000   0.0000   0.0000   0.4115
   3.000   1.2412   0.01163   0.00447  -0.2061  0.3405  0.5865  -1.5367   0.0000   0.0000   0.0000   0.4099
   3.100   1.2518   0.01171   0.00455  -0.2060  0.3373  0.5943  -1.5583   0.0000   0.0000   0.0000   0.4082
   3.200   1.2624   0.01178   0.00463  -0.2059  0.3334  0.6016  -1.5799   0.0000   0.0000   0.0000   0.4066
   3.300   1.2726   0.01188   0.00474  -0.2057  0.3255  0.6100  -1.6012   0.0000   0.0000   0.0000   0.4050
   3.400   1.2806   0.01214   0.00492  -0.2052  0.3078  0.6167  -1.6201   0.0000   0.0000   0.0000   0.4035
   3.500   1.2896   0.01233   0.00506  -0.2048  0.2996  0.6226  -1.6402   0.0000   0.0000   0.0000   0.4019
   3.600   1.2987   0.01252   0.00519  -0.2045  0.2921  0.6270  -1.6603   0.0000   0.0000   0.0000   0.4004
   3.800   1.3176   0.01282   0.00542  -0.2039  0.2782  0.6356  -1.7130   0.0000   0.0000   0.0000   0.3974
   3.900   1.3280   0.01289   0.00555  -0.2038  0.2748  0.6398  -1.7457   0.0000   0.0000   0.0000   0.3960
   4.000   1.3379   0.01300   0.00565  -0.2036  0.2679  0.6437  -1.7777   0.0000   0.0000   0.0000   0.3945
   4.100   1.3454   0.01329   0.00585  -0.2030  0.2496  0.6472  -1.8061   0.0000   0.0000   0.0000   0.3931
   4.200   1.3541   0.01348   0.00600  -0.2026  0.2432  0.6507  -1.8366   0.0000   0.0000   0.0000   0.3917
   4.300   1.3628   0.01367   0.00615  -0.2022  0.2366  0.6540  -1.8671   0.0000   0.0000   0.0000   0.3903
   4.400   1.3714   0.01387   0.00630  -0.2017  0.2299  0.6569  -1.8977   0.0000   0.0000   0.0000   0.3889
   4.500   1.3805   0.01404   0.00643  -0.2014  0.2233  0.6596  -1.9291   0.0000   0.0000   0.0000   0.3875
   4.700   1.4004   0.01421   0.00662  -0.2010  0.2173  0.6665  -1.9953   0.0000   0.0000   0.0000   0.3849
   4.800   1.4098   0.01434   0.00675  -0.2007  0.2105  0.6701  -2.0277   0.0000   0.0000   0.0000   0.3836
   4.900   1.4165   0.01465   0.00700  -0.2000  0.1948  0.6734  -2.0558   0.0000   0.0000   0.0000   0.3822
   5.000   1.4248   0.01485   0.00716  -0.1995  0.1898  0.6768  -2.0865   0.0000   0.0000   0.0000   0.3809
   5.100   1.4330   0.01505   0.00732  -0.1991  0.1847  0.6803  -2.1173   0.0000   0.0000   0.0000   0.3796
   5.200   1.4407   0.01529   0.00751  -0.1985  0.1781  0.6838  -2.1472   0.0000   0.0000   0.0000   0.3783
   5.300   1.4488   0.01549   0.00768  -0.1980  0.1702  0.6870  -2.1780   0.0000   0.0000   0.0000   0.3771
   5.400   1.4578   0.01562   0.00780  -0.1976  0.1658  0.6901  -2.2106   0.0000   0.0000   0.0000   0.3758
   5.500   1.4631   0.01600   0.00810  -0.1967  0.1459  0.6933  -2.2369   0.0000   0.0000   0.0000   0.3745
   5.600   1.4684   0.01637   0.00838  -0.1957  0.1373  0.6974  -2.2632   0.0000   0.0000   0.0000   0.3732
   5.700   1.4742   0.01669   0.00865  -0.1948  0.1271  0.7015  -2.2904   0.0000   0.0000   0.0000   0.3719
   5.800   1.4823   0.01686   0.00882  -0.1943  0.1219  0.7058  -2.3218   0.0000   0.0000   0.0000   0.3707
   5.900   1.4896   0.01706   0.00902  -0.1937  0.1129  0.7103  -2.3521   0.0000   0.0000   0.0000   0.3695
   6.000   1.4929   0.01751   0.00937  -0.1924  0.0995  0.7145  -2.3755   0.0000   0.0000   0.0000   0.3682
   6.100   1.4970   0.01784   0.00965  -0.1911  0.0944  0.7187  -2.4003   0.0000   0.0000   0.0000   0.3668
   6.300   1.5074   0.01829   0.01012  -0.1890  0.0836  0.7286  -2.4540   0.0000   0.0000   0.0000   0.3643
   6.400   1.5149   0.01843   0.01029  -0.1884  0.0825  0.7344  -2.4851   0.0000   0.0000   0.0000   0.3631
   6.500   1.5225   0.01858   0.01045  -0.1878  0.0811  0.7404  -2.5163   0.0000   0.0000   0.0000   0.3619
   6.600   1.5299   0.01874   0.01063  -0.1872  0.0792  0.7463  -2.5473   0.0000   0.0000   0.0000   0.3607
   6.800   1.5413   0.01925   0.01115  -0.1854  0.0669  0.7584  -2.6042   0.0000   0.0000   0.0000   0.3583
   6.900   1.5471   0.01950   0.01139  -0.1845  0.0655  0.7653  -2.6330   0.0000   0.0000   0.0000   0.3572
   7.000   1.5528   0.01976   0.01164  -0.1836  0.0640  0.7723  -2.6615   0.0000   0.0000   0.0000   0.3560
   7.200   1.5635   0.02032   0.01219  -0.1818  0.0605  0.7869  -2.7176   0.0000   0.0000   0.0000   0.3537
   7.300   1.5690   0.02060   0.01247  -0.1809  0.0584  0.7952  -2.7457   0.0000   0.0000   0.0000   0.3525
   7.400   1.5748   0.02086   0.01274  -0.1801  0.0565  0.8038  -2.7742   0.0000   0.0000   0.0000   0.3514
   7.500   1.5808   0.02109   0.01301  -0.1793  0.0549  0.8130  -2.8029   0.0000   0.0000   0.0000   0.3503
   7.600   1.5869   0.02132   0.01327  -0.1785  0.0535  0.8238  -2.8319   0.0000   0.0000   0.0000   0.3492
   7.700   1.5929   0.02155   0.01353  -0.1778  0.0522  0.8354  -2.8608   0.0000   0.0000   0.0000   0.3481
   7.800   1.5992   0.02175   0.01377  -0.1770  0.0516  0.8501  -2.8923   0.0000   0.0000   0.0000   0.3471
   7.900   1.6051   0.02193   0.01402  -0.1762  0.0513  0.8695  -2.9247   0.0000   0.0000   0.0000   0.3460
   8.000   1.6088   0.02204   0.01423  -0.1749  0.0510  0.9136  -2.9523   0.0000   0.0000   0.0000   0.3448
   8.100   1.6110   0.02221   0.01443  -0.1734  0.0507  1.0005  -2.9772   0.0000   0.0000   0.0000   0.3435
   8.200   1.6175   0.02247   0.01471  -0.1728  0.0501  1.0005  -3.0103   0.0000   0.0000   0.0000   0.3425
   8.300   1.6238   0.02275   0.01500  -0.1722  0.0495  1.0005  -3.0431   0.0000   0.0000   0.0000   0.3415
   8.400   1.6299   0.02304   0.01530  -0.1715  0.0488  1.0005  -3.0756   0.0000   0.0000   0.0000   0.3406
   8.500   1.6359   0.02335   0.01562  -0.1708  0.0479  1.0005  -3.1078   0.0000   0.0000   0.0000   0.3396
   8.600   1.6415   0.02368   0.01595  -0.1701  0.0469  1.0005  -3.1396   0.0000   0.0000   0.0000   0.3386
   8.700   1.6467   0.02403   0.01631  -0.1694  0.0458  1.0005  -3.1710   0.0000   0.0000   0.0000   0.3377
   8.800   1.6515   0.02441   0.01669  -0.1686  0.0445  1.0005  -3.2019   0.0000   0.0000   0.0000   0.3367
   8.900   1.6589   0.02462   0.01697  -0.1681  0.0461  1.0005  -3.2319   0.0000   0.0000   0.0000   0.3358
   9.000   1.6639   0.02500   0.01736  -0.1674  0.0452  1.0005  -3.2625   0.0000   0.0000   0.0000   0.3348
   9.100   1.6684   0.02541   0.01778  -0.1666  0.0441  1.0005  -3.2929   0.0000   0.0000   0.0000   0.3339
   9.200   1.6726   0.02585   0.01822  -0.1658  0.0429  1.0005  -3.3231   0.0000   0.0000   0.0000   0.3330
   9.300   1.6763   0.02634   0.01871  -0.1649  0.0414  1.0005  -3.3524   0.0000   0.0000   0.0000   0.3321
   9.400   1.6800   0.02684   0.01921  -0.1641  0.0397  1.0005  -3.3813   0.0000   0.0000   0.0000   0.3312
   9.500   1.6844   0.02730   0.01966  -0.1633  0.0382  1.0005  -3.4113   0.0000   0.0000   0.0000   0.3303
   9.600   1.6897   0.02768   0.02005  -0.1627  0.0376  1.0005  -3.4472   0.0000   0.0000   0.0000   0.3294
   9.700   1.6947   0.02810   0.02047  -0.1621  0.0365  1.0005  -3.4825   0.0000   0.0000   0.0000   0.3286
   9.800   1.6991   0.02857   0.02094  -0.1614  0.0345  1.0005  -3.5177   0.0000   0.0000   0.0000   0.3277
   9.900   1.6994   0.02936   0.02167  -0.1603  0.0279  1.0005  -3.5543   0.0000   0.0000   0.0000   0.3269
  10.000   1.6968   0.03040   0.02265  -0.1589  0.0227  1.0005  -3.5740   0.0000   0.0000   0.0000   0.3260
  10.100   1.6962   0.03131   0.02351  -0.1578  0.0175  1.0005  -3.5660   0.0000   0.0000   0.0000   0.3252
  10.200   1.6999   0.03186   0.02406  -0.1571  0.0157  1.0005  -3.6010   0.0000   0.0000   0.0000   0.3244
  10.400   1.6922   0.03428   0.02650  -0.1543  0.0043  1.0005  -3.6322   0.0000   0.0000   0.0000   0.3228
  10.500   1.6943   0.03499   0.02722  -0.1536  0.0041  1.0005  -3.6688   0.0000   0.0000   0.0000   0.3220
  10.600   1.6966   0.03570   0.02796  -0.1528  0.0039  1.0005  -3.7039   0.0000   0.0000   0.0000   0.3212
  10.700   1.6992   0.03639   0.02867  -0.1521  0.0036  1.0005  -3.7381   0.0000   0.0000   0.0000   0.3205
  10.800   1.7021   0.03705   0.02936  -0.1515  0.0035  1.0005  -3.7706   0.0000   0.0000   0.0000   0.3197
  10.900   1.7051   0.03772   0.03005  -0.1508  0.0033  1.0005  -3.8018   0.0000   0.0000   0.0000   0.3190
  11.000   1.7079   0.03843   0.03078  -0.1502  0.0032  1.0005  -3.8325   0.0000   0.0000   0.0000   0.3183
  11.100   1.7106   0.03913   0.03152  -0.1496  0.0031  1.0005  -3.8636   0.0000   0.0000   0.0000   0.3176
  11.200   1.7136   0.03982   0.03224  -0.1490  0.0030  1.0005  -3.8955   0.0000   0.0000   0.0000   0.3169
  11.300   1.7167   0.04050   0.03295  -0.1484  0.0030  1.0005  -3.9281   0.0000   0.0000   0.0000   0.3162
  11.400   1.7198   0.04119   0.03366  -0.1479  0.0029  1.0005  -3.9609   0.0000   0.0000   0.0000   0.3155
  11.500   1.7224   0.04193   0.03444  -0.1473  0.0029  1.0005  -3.9926   0.0000   0.0000   0.0000   0.3148
  11.600   1.7248   0.04271   0.03525  -0.1467  0.0029  1.0005  -4.0239   0.0000   0.0000   0.0000   0.3141
  11.700   1.7273   0.04347   0.03605  -0.1462  0.0028  1.0005  -4.0556   0.0000   0.0000   0.0000   0.3135
  11.800   1.7299   0.04424   0.03687  -0.1456  0.0028  1.0005  -4.0866   0.0000   0.0000   0.0000   0.3128
  11.900   1.7326   0.04500   0.03766  -0.1451  0.0028  1.0005  -4.1188   0.0000   0.0000   0.0000   0.3122
  12.000   1.7348   0.04580   0.03850  -0.1446  0.0028  1.0005  -4.1500   0.0000   0.0000   0.0000   0.3115
  12.100   1.7366   0.04667   0.03941  -0.1441  0.0027  1.0005  -4.1798   0.0000   0.0000   0.0000   0.3109
  12.200   1.7385   0.04754   0.04031  -0.1436  0.0027  1.0005  -4.2100   0.0000   0.0000   0.0000   0.3103
  12.300   1.7406   0.04838   0.04119  -0.1431  0.0027  1.0005  -4.2594   0.0000   0.0000   0.0000   0.3097
  12.400   1.7428   0.04921   0.04206  -0.1426  0.0027  1.0005  -4.3185   0.0000   0.0000   0.0000   0.3091
  12.500   1.7449   0.05006   0.04294  -0.1421  0.0027  1.0005  -4.3777   0.0000   0.0000   0.0000   0.3085
  12.600   1.7467   0.05094   0.04386  -0.1416  0.0027  1.0005  -4.4355   0.0000   0.0000   0.0000   0.3080
  12.700   1.7478   0.05193   0.04489  -0.1411  0.0027  1.0005  -4.4900   0.0000   0.0000   0.0000   0.3074
  12.800   1.7489   0.05291   0.04591  -0.1407  0.0027  1.0005  -4.5448   0.0000   0.0000   0.0000   0.3069
  12.900   1.7501   0.05387   0.04690  -0.1402  0.0027  1.0005  -4.6006   0.0000   0.0000   0.0000   0.3063
  13.000   1.7514   0.05481   0.04789  -0.1398  0.0027  1.0005  -4.6564   0.0000   0.0000   0.0000   0.3058
  13.100   1.7526   0.05576   0.04888  -0.1393  0.0027  1.0005  -4.7123   0.0000   0.0000   0.0000   0.3052
  13.200   1.7531   0.05683   0.04998  -0.1389  0.0027  1.0005  -4.7644   0.0000   0.0000   0.0000   0.3047
  13.300   1.7532   0.05795   0.05115  -0.1384  0.0027  1.0005  -4.8147   0.0000   0.0000   0.0000   0.3043
  13.400   1.7537   0.05904   0.05228  -0.1380  0.0027  1.0005  -4.8672   0.0000   0.0000   0.0000   0.3038
  13.500   1.7545   0.06009   0.05337  -0.1376  0.0028  1.0005  -4.9211   0.0000   0.0000   0.0000   0.3033
  13.600   1.7554   0.06114   0.05446  -0.1373  0.0028  1.0005  -4.9757   0.0000   0.0000   0.0000   0.3028
  13.700   1.7563   0.06220   0.05556  -0.1369  0.0028  1.0005  -5.0303   0.0000   0.0000   0.0000   0.3023
  13.800   1.7568   0.06333   0.05673  -0.1366  0.0028  1.0005  -5.0823   0.0000   0.0000   0.0000   0.3019
  13.900   1.7564   0.06460   0.05805  -0.1363  0.0028  1.0005  -5.1299   0.0000   0.0000   0.0000   0.3015
  14.000   1.7563   0.06583   0.05933  -0.1360  0.0028  1.0005  -5.1788   0.0000   0.0000   0.0000   0.3011
  14.100   1.7565   0.06702   0.06056  -0.1357  0.0028  1.0005  -5.2293   0.0000   0.0000   0.0000   0.3007
  14.200   1.7568   0.06820   0.06177  -0.1354  0.0028  1.0005  -5.2806   0.0000   0.0000   0.0000   0.3003
  14.300   1.7572   0.06938   0.06299  -0.1351  0.0028  1.0005  -5.3318   0.0000   0.0000   0.0000   0.2999
  14.400   1.7567   0.07069   0.06435  -0.1349  0.0029  1.0005  -5.3782   0.0000   0.0000   0.0000   0.2995
  14.500   1.7556   0.07211   0.06581  -0.1347  0.0029  1.0005  -5.4212   0.0000   0.0000   0.0000   0.2992
  14.600   1.7551   0.07343   0.06718  -0.1345  0.0029  1.0005  -5.4674   0.0000   0.0000   0.0000   0.2989
  14.700   1.7549   0.07472   0.06850  -0.1343  0.0029  1.0005  -5.5148   0.0000   0.0000   0.0000   0.2985
  14.800   1.7548   0.07599   0.06981  -0.1341  0.0029  1.0005  -5.5621   0.0000   0.0000   0.0000   0.2982
  14.900   1.7545   0.07727   0.07114  -0.1339  0.0029  1.0005  -5.6090   0.0000   0.0000   0.0000   0.2978
  15.000   1.7539   0.07863   0.07253  -0.1337  0.0030  1.0005  -5.6536   0.0000   0.0000   0.0000   0.2975
  15.100   1.7521   0.08020   0.07415  -0.1336  0.0030  1.0005  -5.6909   0.0000   0.0000   0.0000   0.2973
  15.200   1.7506   0.08170   0.07570  -0.1336  0.0030  1.0005  -5.7301   0.0000   0.0000   0.0000   0.2971
  15.300   1.7496   0.08314   0.07717  -0.1335  0.0030  1.0005  -5.7717   0.0000   0.0000   0.0000   0.2968
  15.400   1.7488   0.08453   0.07863  -0.1334  0.0030  1.0005  -5.8173   0.0000   0.0000   0.0000   0.2966
  15.500   1.7479   0.08595   0.08009  -0.1333  0.0031  1.0005  -5.8598   0.0000   0.0000   0.0000   0.2963
  15.600   1.7456   0.08760   0.08179  -0.1333  0.0031  1.0005  -5.8940   0.0000   0.0000   0.0000   0.2962
  15.700   1.7431   0.08929   0.08352  -0.1334  0.0031  1.0005  -5.9268   0.0000   0.0000   0.0000   0.2961
  15.800   1.7416   0.09083   0.08511  -0.1334  0.0031  1.0005  -5.9645   0.0000   0.0000   0.0000   0.2959
  15.900   1.7402   0.09233   0.08665  -0.1334  0.0031  1.0005  -6.0035   0.0000   0.0000   0.0000   0.2957
  16.000   1.7388   0.09382   0.08817  -0.1334  0.0032  1.0005  -6.0418   0.0000   0.0000   0.0000   0.2955
  16.100   1.7371   0.09533   0.08972  -0.1334  0.0032  1.0005  -6.0785   0.0000   0.0000   0.0000   0.2954
  16.200   1.7341   0.09707   0.09151  -0.1335  0.0032  1.0005  -6.1073   0.0000   0.0000   0.0000   0.2953
  16.300   1.7309   0.09889   0.09338  -0.1337  0.0032  1.0005  -6.1341   0.0000   0.0000   0.0000   0.2953
  16.400   1.7283   0.10058   0.09512  -0.1338  0.0033  1.0005  -6.1650   0.0000   0.0000   0.0000   0.2953
  16.500   1.7261   0.10223   0.09681  -0.1340  0.0033  1.0005  -6.1973   0.0000   0.0000   0.0000   0.2952
  16.600   1.7238   0.10390   0.09852  -0.1341  0.0033  1.0005  -6.2290   0.0000   0.0000   0.0000   0.2951
  16.700   1.7204   0.10578   0.10046  -0.1344  0.0033  1.0005  -6.2539   0.0000   0.0000   0.0000   0.2952
  16.800   1.7166   0.10777   0.10250  -0.1348  0.0034  1.0005  -6.2757   0.0000   0.0000   0.0000   0.2953
  16.900   1.7138   0.10957   0.10434  -0.1350  0.0034  1.0005  -6.3034   0.0000   0.0000   0.0000   0.2954
  17.000   1.7114   0.11130   0.10612  -0.1353  0.0034  1.0005  -6.3331   0.0000   0.0000   0.0000   0.2954
  17.100   1.7091   0.11302   0.10788  -0.1356  0.0034  1.0005  -6.3632   0.0000   0.0000   0.0000   0.2954
  17.200   1.7068   0.11477   0.10968  -0.1359  0.0035  1.0005  -6.3926   0.0000   0.0000   0.0000   0.2954
  17.300   1.7028   0.11683   0.11179  -0.1364  0.0035  1.0005  -6.4114   0.0000   0.0000   0.0000   0.2957
  17.400   1.6988   0.11890   0.11392  -0.1370  0.0035  1.0005  -6.4293   0.0000   0.0000   0.0000   0.2959
  17.500   1.6957   0.12081   0.11587  -0.1374  0.0035  1.0005  -6.4524   0.0000   0.0000   0.0000   0.2961
  17.600   1.6929   0.12266   0.11777  -0.1379  0.0036  1.0005  -6.4775   0.0000   0.0000   0.0000   0.2962
  17.700   1.6901   0.12453   0.11969  -0.1384  0.0036  1.0005  -6.5018   0.0000   0.0000   0.0000   0.2964
  17.800   1.6855   0.12677   0.12199  -0.1391  0.0036  1.0005  -6.5134   0.0000   0.0000   0.0000   0.2968
  17.900   1.6819   0.12880   0.12408  -0.1397  0.0036  1.0005  -6.5312   0.0000   0.0000   0.0000   0.2971
  18.000   1.6792   0.13068   0.12600  -0.1403  0.0037  1.0005  -6.5544   0.0000   0.0000   0.0000   0.2973
  18.100   1.6768   0.13250   0.12787  -0.1408  0.0037  1.0005  -6.5792   0.0000   0.0000   0.0000   0.2975
  18.200   1.6744   0.13433   0.12976  -0.1414  0.0037  1.0005  -6.6031   0.0000   0.0000   0.0000   0.2977
  18.300   1.6715   0.13624   0.13172  -0.1420  0.0038  1.0005  -6.6240   0.0000   0.0000   0.0000   0.2979
  18.400   1.6667   0.13856   0.13410  -0.1429  0.0038  1.0005  -6.6303   0.0000   0.0000   0.0000   0.2985
  18.500   1.6629   0.14069   0.13628  -0.1438  0.0038  1.0005  -6.6431   0.0000   0.0000   0.0000   0.2989
  18.600   1.6599   0.14266   0.13831  -0.1445  0.0038  1.0005  -6.6607   0.0000   0.0000   0.0000   0.2993
  18.700   1.6570   0.14461   0.14031  -0.1453  0.0039  1.0005  -6.6785   0.0000   0.0000   0.0000   0.2996
  18.800   1.6536   0.14668   0.14243  -0.1461  0.0039  1.0005  -6.6919   0.0000   0.0000   0.0000   0.3000
  18.900   1.6485   0.14909   0.14491  -0.1472  0.0039  1.0005  -6.6929   0.0000   0.0000   0.0000   0.3007
  19.000   1.6452   0.15118   0.14705  -0.1481  0.0040  1.0005  -6.7050   0.0000   0.0000   0.0000   0.3012
  19.100   1.6424   0.15315   0.14907  -0.1489  0.0040  1.0005  -6.7205   0.0000   0.0000   0.0000   0.3016
  19.200   1.6397   0.15508   0.15105  -0.1498  0.0040  1.0005  -6.7361   0.0000   0.0000   0.0000   0.3020
  19.300   1.6370   0.15704   0.15307  -0.1507  0.0041  1.0005  -6.7501   0.0000   0.0000   0.0000   0.3024
  19.400   1.6338   0.15909   0.15517  -0.1516  0.0041  1.0005  -6.7603   0.0000   0.0000   0.0000   0.3029
  19.500   1.6289   0.16157   0.15771  -0.1529  0.0041  1.0005  -6.7565   0.0000   0.0000   0.0000   0.3037
  19.600   1.6250   0.16382   0.16002  -0.1540  0.0041  1.0005  -6.7592   0.0000   0.0000   0.0000   0.3044
  19.700   1.6218   0.16590   0.16215  -0.1551  0.0042  1.0005  -6.7657   0.0000   0.0000   0.0000   0.3050
  19.800   1.6188   0.16788   0.16418  -0.1562  0.0042  1.0005  -6.7723   0.0000   0.0000   0.0000   0.3056
  19.900   1.6155   0.16992   0.16628  -0.1573  0.0042  1.0005  -6.7749   0.0000   0.0000   0.0000   0.3062
  20.000   1.6111   0.17223   0.16865  -0.1588  0.0043  1.0005  -6.7673   0.0000   0.0000   0.0000   0.3071
  20.100   1.6078   0.17427   0.17075  -0.1600  0.0043  1.0005  -6.7674   0.0000   0.0000   0.0000   0.3079
  20.200   1.6050   0.17624   0.17277  -0.1612  0.0043  1.0005  -6.7688   0.0000   0.0000   0.0000   0.3085
  20.300   1.6020   0.17823   0.17482  -0.1624  0.0044  1.0005  -6.7676   0.0000   0.0000   0.0000   0.3092
  20.400   1.5988   0.18031   0.17696  -0.1636  0.0044  1.0005  -6.7613   0.0000   0.0000   0.0000   0.3099
  20.500   1.5950   0.18254   0.17925  -0.1650  0.0044  1.0005  -6.7469   0.0000   0.0000   0.0000   0.3107
  20.600   1.5894   0.18525   0.18202  -0.1667  0.0045  1.0005  -6.7144   0.0000   0.0000   0.0000   0.3119
  20.700   1.5804   0.18864   0.18553  -0.1687  0.0046  1.0005  -6.6176   0.0000   0.0000   0.0000   0.3136
  20.800   1.5794   0.19045   0.18736  -0.1698  0.0047  1.0005  -6.6423   0.0000   0.0000   0.0000   0.3141
  20.900   1.5784   0.19223   0.18917  -0.1709  0.0047  1.0005  -6.6683   0.0000   0.0000   0.0000   0.3145
  21.000   1.5776   0.19400   0.19098  -0.1719  0.0048  1.0005  -6.6948   0.0000   0.0000   0.0000   0.3150
  21.100   1.5758   0.19607   0.19308  -0.1732  0.0048  1.0005  -6.7100   0.0000   0.0000   0.0000   0.3157
  21.200   1.5731   0.19834   0.19540  -0.1746  0.0049  1.0005  -6.7167   0.0000   0.0000   0.0000   0.3165
  21.300   1.5718   0.20031   0.19739  -0.1758  0.0049  1.0005  -6.7360   0.0000   0.0000   0.0000   0.3171
  21.400   1.5709   0.20216   0.19927  -0.1769  0.0050  1.0005  -6.7599   0.0000   0.0000   0.0000   0.3175
  21.500   1.5701   0.20397   0.20113  -0.1779  0.0050  1.0005  -6.7849   0.0000   0.0000   0.0000   0.3180
  21.600   1.5695   0.20579   0.20298  -0.1790  0.0051  1.0005  -6.8100   0.0000   0.0000   0.0000   0.3185
  21.700   1.5687   0.20764   0.20486  -0.1801  0.0052  1.0005  -6.8343   0.0000   0.0000   0.0000   0.3189
  21.800   1.5678   0.20956   0.20680  -0.1812  0.0052  1.0005  -6.8557   0.0000   0.0000   0.0000   0.3194
  21.900   1.5665   0.21160   0.20888  -0.1825  0.0053  1.0005  -6.8719   0.0000   0.0000   0.0000   0.3200
  22.000   1.5632   0.21421   0.21154  -0.1840  0.0054  1.0005  -6.8660   0.0000   0.0000   0.0000   0.3211
  22.100   1.5608   0.21660   0.21397  -0.1855  0.0054  1.0005  -6.8683   0.0000   0.0000   0.0000   0.3219
  22.200   1.5591   0.21880   0.21620  -0.1868  0.0055  1.0005  -6.8783   0.0000   0.0000   0.0000   0.3226
  22.300   1.5576   0.22097   0.21841  -0.1881  0.0056  1.0005  -6.8894   0.0000   0.0000   0.0000   0.3233
  22.400   1.5560   0.22318   0.22066  -0.1894  0.0056  1.0005  -6.8985   0.0000   0.0000   0.0000   0.3240
  22.500   1.5537   0.22563   0.22314  -0.1908  0.0057  1.0005  -6.8981   0.0000   0.0000   0.0000   0.3248
  22.600   1.5500   0.22852   0.22609  -0.1925  0.0058  1.0005  -6.8803   0.0000   0.0000   0.0000   0.3260
  22.700   1.5477   0.23101   0.22861  -0.1940  0.0059  1.0005  -6.8776   0.0000   0.0000   0.0000   0.3268
  22.800   1.5459   0.23337   0.23102  -0.1953  0.0060  1.0005  -6.8783   0.0000   0.0000   0.0000   0.3276
  22.900   1.5443   0.23570   0.23340  -0.1967  0.0061  1.0005  -6.8785   0.0000   0.0000   0.0000   0.3283
  23.000   1.5426   0.23809   0.23585  -0.1980  0.0063  1.0005  -6.8733   0.0000   0.0000   0.0000   0.3291
  23.100   1.5408   0.24053   0.23835  -0.1994  0.0065  1.0005  -6.8609   0.0000   0.0000   0.0000   0.3298
  23.200   1.5396   0.24284   0.24074  -0.2006  0.0069  1.0005  -6.8371   0.0000   0.0000   0.0000   0.3304
  23.300   1.5378   0.24540   0.24341  -0.2018  0.0075  1.0005  -6.7839   0.0000   0.0000   0.0000   0.3311
  23.400   1.5327   0.24906   0.24716  -0.2038  0.0077  1.0005  -6.7159   0.0000   0.0000   0.0000   0.3327
  23.500   1.5264   0.25321   0.25137  -0.2061  0.0078  1.0005  -6.6416   0.0000   0.0000   0.0000   0.3345
  23.600   1.5207   0.25722   0.25546  -0.2083  0.0080  1.0005  -6.5667   0.0000   0.0000   0.0000   0.3363
  23.700   1.5143   0.26159   0.25989  -0.2106  0.0081  1.0005  -6.4853   0.0000   0.0000   0.0000   0.3383
  23.800   1.5062   0.26669   0.26504  -0.2134  0.0081  1.0005  -6.3906   0.0000   0.0000   0.0000   0.3408
  23.900   1.4994   0.27139   0.26981  -0.2158  0.0081  1.0005  -6.2970   0.0000   0.0000   0.0000   0.3429
  24.000   1.4919   0.27653   0.27501  -0.2184  0.0082  1.0005  -6.1918   0.0000   0.0000   0.0000   0.3453
  24.100   1.4829   0.28242   0.28096  -0.2214  0.0081  1.0005  -6.0709   0.0000   0.0000   0.0000   0.3481
  24.200   1.4734   0.28879   0.28737  -0.2244  0.0079  1.0005  -5.9341   0.0000   0.0000   0.0000   0.3512
  24.300   1.4628   0.29580   0.29443  -0.2277  0.0077  1.0005  -5.7780   0.0000   0.0000   0.0000   0.3546
  24.400   1.4530   0.30277   0.30143  -0.2308  0.0077  1.0005  -5.6064   0.0000   0.0000   0.0000   0.3578
  24.500   1.4397   0.31180   0.31051  -0.2346  0.0075  1.0005  -5.3630   0.0000   0.0000   0.0000   0.3621


