xflr5 v6.61

 Calculated polar for: WORTMANN FX 60-126 AIRFOIL

 1 1 Reynolds number fixed          Mach number fixed         

 xtrf =   1.000 (top)        1.000 (bottom)
 Mach =   0.000     Re =     0.400 e 6     Ncrit =   9.000

  alpha     CL        CD       CDp       Cm    Top Xtr Bot Xtr   Cpmin    Chinge    XCp    
 ------- -------- --------- --------- -------- ------- ------- -------- --------- ---------
 -10.000  -0.3757   0.09300   0.09047  -0.0419  1.0000  0.0338  -1.9845   0.0000   0.0000   0.0000   0.1247
  -9.900  -0.3766   0.09110   0.08857  -0.0429  1.0000  0.0343  -2.0147   0.0000   0.0000   0.0000   0.1224
  -9.800  -0.3780   0.08906   0.08655  -0.0440  1.0000  0.0348  -2.0514   0.0000   0.0000   0.0000   0.1199
  -9.700  -0.3798   0.08682   0.08433  -0.0454  1.0000  0.0354  -2.0981   0.0000   0.0000   0.0000   0.1171
  -8.700  -0.5058   0.03129   0.02714  -0.0986  0.9798  0.0184  -4.3606   0.0000   0.0000   0.0000   0.0437
  -8.600  -0.4912   0.03099   0.02676  -0.0996  0.9783  0.0179  -4.2817   0.0000   0.0000   0.0000   0.0358
  -8.500  -0.4764   0.03076   0.02650  -0.1006  0.9773  0.0176  -4.1860   0.0000   0.0000   0.0000   0.0273
  -8.400  -0.4615   0.03057   0.02628  -0.1016  0.9764  0.0174  -4.0858   0.0000   0.0000   0.0000   0.0182
  -8.300  -0.4517   0.02719   0.02269  -0.1039  0.9751  0.0163  -4.1783   0.0000   0.0000   0.0000   0.0083
  -8.200  -0.4386   0.02536   0.02068  -0.1058  0.9743  0.0160  -4.1764   0.0000   0.0000   0.0000  -0.0031
  -8.100  -0.4248   0.02391   0.01907  -0.1074  0.9736  0.0157  -4.1555   0.0000   0.0000   0.0000  -0.0149
  -8.000  -0.4146   0.02284   0.01788  -0.1080  0.9708  0.0155  -4.1305   0.0000   0.0000   0.0000  -0.0225
  -7.900  -0.4024   0.02182   0.01675  -0.1088  0.9687  0.0153  -4.0967   0.0000   0.0000   0.0000  -0.0325
  -7.800  -0.3894   0.02086   0.01569  -0.1097  0.9671  0.0152  -4.0567   0.0000   0.0000   0.0000  -0.0440
  -7.700  -0.3758   0.01999   0.01472  -0.1106  0.9657  0.0150  -4.0117   0.0000   0.0000   0.0000  -0.0568
  -7.600  -0.3620   0.01919   0.01383  -0.1115  0.9644  0.0149  -3.9620   0.0000   0.0000   0.0000  -0.0708
  -7.500  -0.3480   0.01846   0.01302  -0.1124  0.9632  0.0148  -3.9086   0.0000   0.0000   0.0000  -0.0858
  -7.400  -0.3339   0.01779   0.01227  -0.1132  0.9621  0.0147  -3.8517   0.0000   0.0000   0.0000  -0.1024
  -7.300  -0.3241   0.01728   0.01170  -0.1132  0.9586  0.0146  -3.8030   0.0000   0.0000   0.0000  -0.1126
  -7.200  -0.3125   0.01676   0.01112  -0.1135  0.9560  0.0146  -3.7479   0.0000   0.0000   0.0000  -0.1268
  -7.100  -0.3001   0.01625   0.01056  -0.1140  0.9538  0.0146  -3.6890   0.0000   0.0000   0.0000  -0.1436
  -7.000  -0.2873   0.01577   0.01003  -0.1145  0.9520  0.0146  -3.6268   0.0000   0.0000   0.0000  -0.1628
  -6.900  -0.2742   0.01532   0.00952  -0.1151  0.9504  0.0146  -3.5627   0.0000   0.0000   0.0000  -0.1842
  -6.800  -0.2611   0.01489   0.00905  -0.1157  0.9489  0.0146  -3.4975   0.0000   0.0000   0.0000  -0.2077
  -6.700  -0.2507   0.01455   0.00866  -0.1157  0.9459  0.0147  -3.4387   0.0000   0.0000   0.0000  -0.2266
  -6.600  -0.2399   0.01421   0.00828  -0.1157  0.9428  0.0148  -3.3782   0.0000   0.0000   0.0000  -0.2479
  -6.500  -0.2283   0.01388   0.00786  -0.1160  0.9402  0.0149  -3.3094   0.0000   0.0000   0.0000  -0.2739
  -6.400  -0.2162   0.01357   0.00749  -0.1163  0.9379  0.0150  -3.2446   0.0000   0.0000   0.0000  -0.3040
  -6.300  -0.2040   0.01327   0.00714  -0.1165  0.9358  0.0152  -3.1794   0.0000   0.0000   0.0000  -0.3382
  -6.200  -0.1918   0.01300   0.00681  -0.1168  0.9341  0.0155  -3.1142   0.0000   0.0000   0.0000  -0.3769
  -6.100  -0.1802   0.01276   0.00652  -0.1170  0.9318  0.0158  -3.0515   0.0000   0.0000   0.0000  -0.4172
  -6.000  -0.1695   0.01254   0.00626  -0.1169  0.9287  0.0161  -2.9917   0.0000   0.0000   0.0000  -0.4587
  -5.900  -0.1583   0.01234   0.00600  -0.1170  0.9259  0.0165  -2.9308   0.0000   0.0000   0.0000  -0.5087
  -5.800  -0.1468   0.01215   0.00577  -0.1170  0.9233  0.0170  -2.8688   0.0000   0.0000   0.0000  -0.5680
  -5.700  -0.1348   0.01178   0.00533  -0.1172  0.9209  0.0205  -2.8587   0.0000   0.0000   0.0000  -0.6414
  -5.600  -0.1228   0.01120   0.00489  -0.1176  0.9186  0.0459  -2.8618   0.0000   0.0000   0.0000  -0.7313
  -5.500  -0.1111   0.01092   0.00470  -0.1178  0.9164  0.0650  -2.7943   0.0000   0.0000   0.0000  -0.8360
  -5.400  -0.1001   0.01081   0.00459  -0.1178  0.9135  0.0721  -2.7153   0.0000   0.0000   0.0000  -0.9537
  -5.300  -0.0893   0.01064   0.00446  -0.1178  0.9101  0.0799  -2.6330   0.0000   0.0000   0.0000  -1.0987
  -5.200  -0.0783   0.01044   0.00433  -0.1179  0.9068  0.0910  -2.5480   0.0000   0.0000   0.0000  -1.2892
  -5.100  -0.0671   0.01032   0.00421  -0.1179  0.9039  0.1027  -2.4616   0.0000   0.0000   0.0000  -1.5450
  -5.000  -0.0558   0.01012   0.00407  -0.1180  0.9011  0.1163  -2.3753   0.0000   0.0000   0.0000  -1.9099
  -4.900  -0.0443   0.00989   0.00393  -0.1181  0.8987  0.1379  -2.2885   0.0000   0.0000   0.0000  -2.4699
  -4.800  -0.0328   0.00975   0.00382  -0.1182  0.8963  0.1543  -2.2020   0.0000   0.0000   0.0000  -3.4246
  -4.700  -0.0218   0.00959   0.00373  -0.1183  0.8931  0.1696  -2.1181   0.0000   0.0000   0.0000  -5.2858
  -4.600  -0.0106   0.00943   0.00363  -0.1184  0.8899  0.1886  -2.0342   0.0000   0.0000   0.0000  -11.1142
  -4.500   0.0006   0.00931   0.00355  -0.1184  0.8868  0.2038  -1.9506   0.0000   0.0000   0.0000  188.7529
  -4.400   0.0120   0.00913   0.00346  -0.1185  0.8839  0.2266  -1.8675   0.0000   0.0000   0.0000  10.3300
  -4.300   0.0233   0.00899   0.00338  -0.1186  0.8812  0.2522  -1.7850   0.0000   0.0000   0.0000   5.4197
  -4.200   0.0348   0.00885   0.00332  -0.1187  0.8787  0.2768  -1.7031   0.0000   0.0000   0.0000   3.7150
  -4.100   0.0464   0.00873   0.00326  -0.1188  0.8763  0.3050  -1.6255   0.0000   0.0000   0.0000   2.8535
  -4.000   0.0576   0.00867   0.00323  -0.1188  0.8732  0.3173  -1.5459   0.0000   0.0000   0.0000   2.3456
  -3.900   0.0688   0.00861   0.00320  -0.1188  0.8697  0.3282  -1.4673   0.0000   0.0000   0.0000   2.0036
  -3.800   0.0800   0.00858   0.00316  -0.1187  0.8662  0.3358  -1.3896   0.0000   0.0000   0.0000   1.7558
  -3.700   0.0912   0.00854   0.00311  -0.1187  0.8627  0.3424  -1.3128   0.0000   0.0000   0.0000   1.5686
  -3.600   0.1025   0.00850   0.00307  -0.1186  0.8595  0.3503  -1.2370   0.0000   0.0000   0.0000   1.4222
  -3.500   0.1139   0.00847   0.00303  -0.1185  0.8564  0.3578  -1.1619   0.0000   0.0000   0.0000   1.3039
  -3.400   0.1254   0.00847   0.00299  -0.1185  0.8535  0.3644  -1.0876   0.0000   0.0000   0.0000   1.2064
  -3.300   0.1366   0.00846   0.00296  -0.1184  0.8500  0.3694  -1.0155   0.0000   0.0000   0.0000   1.1270
  -3.200   0.1479   0.00843   0.00294  -0.1184  0.8465  0.3751  -0.9445   0.0000   0.0000   0.0000   1.0595
  -3.100   0.1592   0.00839   0.00292  -0.1184  0.8430  0.3811  -0.8744   0.0000   0.0000   0.0000   1.0014
  -3.000   0.1706   0.00837   0.00290  -0.1183  0.8397  0.3868  -0.8054   0.0000   0.0000   0.0000   0.9508
  -2.900   0.1820   0.00835   0.00287  -0.1183  0.8365  0.3922  -0.7627   0.0000   0.0000   0.0000   0.9063
  -2.800   0.1934   0.00835   0.00283  -0.1182  0.8334  0.3970  -0.7352   0.0000   0.0000   0.0000   0.8669
  -2.700   0.2049   0.00837   0.00280  -0.1181  0.8302  0.4010  -0.7079   0.0000   0.0000   0.0000   0.8317
  -2.600   0.2162   0.00835   0.00278  -0.1181  0.8266  0.4053  -0.6810   0.0000   0.0000   0.0000   0.8009
  -2.500   0.2274   0.00831   0.00276  -0.1181  0.8225  0.4104  -0.6543   0.0000   0.0000   0.0000   0.7732
  -2.400   0.2387   0.00829   0.00275  -0.1180  0.8182  0.4153  -0.6278   0.0000   0.0000   0.0000   0.7480
  -2.300   0.2499   0.00827   0.00272  -0.1179  0.8139  0.4202  -0.6014   0.0000   0.0000   0.0000   0.7250
  -2.200   0.2612   0.00827   0.00269  -0.1178  0.8098  0.4249  -0.5751   0.0000   0.0000   0.0000   0.7038
  -2.100   0.2726   0.00828   0.00265  -0.1177  0.8060  0.4290  -0.5709   0.0000   0.0000   0.0000   0.6844
  -2.000   0.2840   0.00829   0.00260  -0.1177  0.8022  0.4323  -0.5796   0.0000   0.0000   0.0000   0.6666
  -1.900   0.2954   0.00829   0.00259  -0.1177  0.7981  0.4354  -0.5882   0.0000   0.0000   0.0000   0.6502
  -1.800   0.3067   0.00825   0.00258  -0.1176  0.7938  0.4408  -0.5969   0.0000   0.0000   0.0000   0.6352
  -1.700   0.3180   0.00823   0.00257  -0.1176  0.7896  0.4459  -0.6056   0.0000   0.0000   0.0000   0.6211
  -1.600   0.3293   0.00823   0.00256  -0.1175  0.7854  0.4509  -0.6143   0.0000   0.0000   0.0000   0.6080
  -1.500   0.3405   0.00824   0.00255  -0.1174  0.7813  0.4558  -0.6231   0.0000   0.0000   0.0000   0.5956
  -1.400   0.3519   0.00827   0.00253  -0.1173  0.7771  0.4604  -0.6319   0.0000   0.0000   0.0000   0.5841
  -1.300   0.3632   0.00827   0.00253  -0.1173  0.7723  0.4643  -0.6406   0.0000   0.0000   0.0000   0.5734
  -1.200   0.3745   0.00828   0.00252  -0.1173  0.7668  0.4673  -0.6494   0.0000   0.0000   0.0000   0.5633
  -1.100   0.3857   0.00825   0.00250  -0.1172  0.7610  0.4724  -0.6581   0.0000   0.0000   0.0000   0.5539
  -1.000   0.3968   0.00824   0.00248  -0.1171  0.7554  0.4766  -0.6669   0.0000   0.0000   0.0000   0.5449
  -0.900   0.4079   0.00826   0.00246  -0.1169  0.7499  0.4805  -0.6756   0.0000   0.0000   0.0000   0.5364
  -0.800   0.4192   0.00825   0.00247  -0.1169  0.7442  0.4844  -0.6858   0.0000   0.0000   0.0000   0.5284
  -0.700   0.4304   0.00825   0.00246  -0.1168  0.7378  0.4883  -0.6962   0.0000   0.0000   0.0000   0.5208
  -0.600   0.4415   0.00827   0.00244  -0.1167  0.7311  0.4920  -0.7066   0.0000   0.0000   0.0000   0.5136
  -0.500   0.4526   0.00831   0.00242  -0.1166  0.7246  0.4956  -0.7171   0.0000   0.0000   0.0000   0.5067
  -0.400   0.4638   0.00834   0.00242  -0.1165  0.7184  0.4987  -0.7275   0.0000   0.0000   0.0000   0.5001
  -0.300   0.4750   0.00834   0.00241  -0.1164  0.7116  0.5029  -0.7380   0.0000   0.0000   0.0000   0.4940
  -0.200   0.4861   0.00833   0.00242  -0.1163  0.7043  0.5080  -0.7485   0.0000   0.0000   0.0000   0.4881
  -0.100   0.4970   0.00835   0.00242  -0.1162  0.6970  0.5128  -0.7589   0.0000   0.0000   0.0000   0.4824
   0.000   0.5079   0.00839   0.00243  -0.1161  0.6903  0.5174  -0.7693   0.0000   0.0000   0.0000   0.4770
   0.100   0.5192   0.00841   0.00246  -0.1160  0.6837  0.5220  -0.7799   0.0000   0.0000   0.0000   0.4718
   0.200   0.5303   0.00845   0.00247  -0.1159  0.6765  0.5261  -0.7904   0.0000   0.0000   0.0000   0.4668
   0.300   0.5413   0.00850   0.00247  -0.1158  0.6691  0.5298  -0.8010   0.0000   0.0000   0.0000   0.4621
   0.500   0.5634   0.00856   0.00249  -0.1157  0.6564  0.5382  -0.8221   0.0000   0.0000   0.0000   0.4532
   0.600   0.5746   0.00857   0.00252  -0.1156  0.6502  0.5427  -0.8349   0.0000   0.0000   0.0000   0.4490
   0.700   0.5857   0.00859   0.00255  -0.1156  0.6437  0.5467  -0.8476   0.0000   0.0000   0.0000   0.4449
   0.800   0.5967   0.00864   0.00258  -0.1155  0.6375  0.5507  -0.8603   0.0000   0.0000   0.0000   0.4410
   0.900   0.6077   0.00870   0.00259  -0.1154  0.6314  0.5545  -0.8729   0.0000   0.0000   0.0000   0.4373
   1.000   0.6189   0.00874   0.00262  -0.1153  0.6262  0.5582  -0.8858   0.0000   0.0000   0.0000   0.4337
   1.100   0.6302   0.00878   0.00265  -0.1153  0.6207  0.5615  -0.9012   0.0000   0.0000   0.0000   0.4302
   1.200   0.6415   0.00883   0.00267  -0.1153  0.6149  0.5643  -0.9205   0.0000   0.0000   0.0000   0.4268
   1.300   0.6525   0.00886   0.00268  -0.1152  0.6089  0.5677  -0.9401   0.0000   0.0000   0.0000   0.4236
   1.400   0.6633   0.00889   0.00269  -0.1151  0.6024  0.5716  -0.9596   0.0000   0.0000   0.0000   0.4205
   1.500   0.6742   0.00894   0.00273  -0.1150  0.5961  0.5752  -0.9792   0.0000   0.0000   0.0000   0.4174
   1.600   0.6854   0.00895   0.00276  -0.1150  0.5900  0.5787  -0.9992   0.0000   0.0000   0.0000   0.4145
   1.700   0.6965   0.00899   0.00279  -0.1150  0.5829  0.5823  -1.0192   0.0000   0.0000   0.0000   0.4116
   1.800   0.7073   0.00905   0.00282  -0.1149  0.5754  0.5861  -1.0391   0.0000   0.0000   0.0000   0.4089
   1.900   0.7180   0.00914   0.00286  -0.1147  0.5680  0.5899  -1.0588   0.0000   0.0000   0.0000   0.4062
   2.000   0.7290   0.00919   0.00289  -0.1147  0.5619  0.5936  -1.0790   0.0000   0.0000   0.0000   0.4036
   2.100   0.7402   0.00924   0.00293  -0.1147  0.5556  0.5968  -1.0995   0.0000   0.0000   0.0000   0.4010
   2.200   0.7512   0.00927   0.00296  -0.1146  0.5491  0.6013  -1.1197   0.0000   0.0000   0.0000   0.3986
   2.300   0.7619   0.00932   0.00303  -0.1145  0.5426  0.6058  -1.1399   0.0000   0.0000   0.0000   0.3962
   2.400   0.7726   0.00939   0.00307  -0.1144  0.5362  0.6101  -1.1600   0.0000   0.0000   0.0000   0.3939
   2.500   0.7835   0.00944   0.00312  -0.1143  0.5310  0.6143  -1.1805   0.0000   0.0000   0.0000   0.3916
   2.600   0.7948   0.00947   0.00317  -0.1143  0.5265  0.6186  -1.2013   0.0000   0.0000   0.0000   0.3894
   2.700   0.8060   0.00951   0.00321  -0.1143  0.5211  0.6226  -1.2222   0.0000   0.0000   0.0000   0.3873
   2.800   0.8170   0.00957   0.00325  -0.1142  0.5152  0.6263  -1.2430   0.0000   0.0000   0.0000   0.3853
   3.000   0.8385   0.00970   0.00334  -0.1140  0.5029  0.6344  -1.2842   0.0000   0.0000   0.0000   0.3812
   3.100   0.8493   0.00974   0.00339  -0.1140  0.4975  0.6388  -1.3051   0.0000   0.0000   0.0000   0.3793
   3.200   0.8604   0.00977   0.00345  -0.1139  0.4923  0.6433  -1.3262   0.0000   0.0000   0.0000   0.3774
   3.300   0.8713   0.00982   0.00350  -0.1139  0.4864  0.6480  -1.3473   0.0000   0.0000   0.0000   0.3756
   3.400   0.8822   0.00989   0.00355  -0.1138  0.4805  0.6526  -1.3683   0.0000   0.0000   0.0000   0.3738
   3.500   0.8928   0.00998   0.00361  -0.1137  0.4743  0.6571  -1.3892   0.0000   0.0000   0.0000   0.3721
   3.700   0.9144   0.01009   0.00373  -0.1136  0.4636  0.6668  -1.4424   0.0000   0.0000   0.0000   0.3687
   3.800   0.9254   0.01012   0.00379  -0.1135  0.4583  0.6723  -1.4702   0.0000   0.0000   0.0000   0.3670
   3.900   0.9362   0.01017   0.00385  -0.1134  0.4521  0.6783  -1.4981   0.0000   0.0000   0.0000   0.3654
   4.000   0.9469   0.01025   0.00392  -0.1133  0.4454  0.6846  -1.5258   0.0000   0.0000   0.0000   0.3638
   4.100   0.9573   0.01035   0.00403  -0.1132  0.4384  0.6905  -1.5533   0.0000   0.0000   0.0000   0.3623
   4.200   0.9678   0.01041   0.00411  -0.1131  0.4323  0.6971  -1.5811   0.0000   0.0000   0.0000   0.3608
   4.300   0.9786   0.01045   0.00418  -0.1130  0.4264  0.7042  -1.6093   0.0000   0.0000   0.0000   0.3593
   4.400   0.9892   0.01052   0.00426  -0.1129  0.4198  0.7117  -1.6375   0.0000   0.0000   0.0000   0.3578
   4.500   0.9996   0.01061   0.00433  -0.1127  0.4129  0.7191  -1.6655   0.0000   0.0000   0.0000   0.3564
   4.600   1.0097   0.01071   0.00442  -0.1126  0.4059  0.7269  -1.6931   0.0000   0.0000   0.0000   0.3550
   4.700   1.0201   0.01077   0.00451  -0.1124  0.4001  0.7357  -1.7213   0.0000   0.0000   0.0000   0.3536
   4.800   1.0309   0.01081   0.00459  -0.1123  0.3944  0.7449  -1.7502   0.0000   0.0000   0.0000   0.3522
   4.900   1.0413   0.01087   0.00467  -0.1122  0.3873  0.7542  -1.7788   0.0000   0.0000   0.0000   0.3509
   5.000   1.0512   0.01096   0.00476  -0.1120  0.3793  0.7652  -1.8158   0.0000   0.0000   0.0000   0.3495
   5.100   1.0609   0.01108   0.00486  -0.1117  0.3709  0.7773  -1.8538   0.0000   0.0000   0.0000   0.3482
   5.200   1.0708   0.01111   0.00495  -0.1115  0.3648  0.7920  -1.8926   0.0000   0.0000   0.0000   0.3469
   5.300   1.0804   0.01116   0.00504  -0.1112  0.3580  0.8097  -1.9310   0.0000   0.0000   0.0000   0.3455
   5.400   1.0890   0.01121   0.00513  -0.1106  0.3508  0.8342  -1.9676   0.0000   0.0000   0.0000   0.3441
   5.500   1.0941   0.01118   0.00518  -0.1093  0.3443  0.8862  -1.9980   0.0000   0.0000   0.0000   0.3423
   5.600   1.1030   0.01119   0.00522  -0.1088  0.3376  1.0000  -2.0358   0.0000   0.0000   0.0000   0.3409
   5.700   1.1140   0.01129   0.00532  -0.1088  0.3312  1.0000  -2.0776   0.0000   0.0000   0.0000   0.3398
   5.800   1.1245   0.01142   0.00542  -0.1087  0.3228  1.0000  -2.1187   0.0000   0.0000   0.0000   0.3387
   5.900   1.1344   0.01160   0.00558  -0.1086  0.3134  1.0000  -2.1586   0.0000   0.0000   0.0000   0.3376
   6.000   1.1445   0.01176   0.00570  -0.1085  0.3054  1.0000  -2.2017   0.0000   0.0000   0.0000   0.3366
   6.100   1.1548   0.01190   0.00582  -0.1084  0.2978  1.0000  -2.2506   0.0000   0.0000   0.0000   0.3355
   6.200   1.1647   0.01208   0.00595  -0.1082  0.2895  1.0000  -2.2987   0.0000   0.0000   0.0000   0.3344
   6.300   1.1741   0.01230   0.00610  -0.1080  0.2802  1.0000  -2.3459   0.0000   0.0000   0.0000   0.3334
   6.400   1.1845   0.01243   0.00622  -0.1079  0.2724  1.0000  -2.3958   0.0000   0.0000   0.0000   0.3324
   6.500   1.1942   0.01262   0.00637  -0.1077  0.2602  1.0000  -2.4444   0.0000   0.0000   0.0000   0.3314
   6.600   1.2029   0.01290   0.00655  -0.1074  0.2473  1.0000  -2.4910   0.0000   0.0000   0.0000   0.3303
   6.700   1.2123   0.01312   0.00671  -0.1072  0.2361  1.0000  -2.5392   0.0000   0.0000   0.0000   0.3293
   6.800   1.2208   0.01342   0.00691  -0.1069  0.2242  1.0000  -2.5857   0.0000   0.0000   0.0000   0.3283
   6.900   1.2306   0.01359   0.00707  -0.1067  0.2152  1.0000  -2.6355   0.0000   0.0000   0.0000   0.3274
   7.000   1.2396   0.01384   0.00725  -0.1065  0.2025  1.0000  -2.6837   0.0000   0.0000   0.0000   0.3264
   7.100   1.2481   0.01413   0.00747  -0.1062  0.1913  1.0000  -2.7308   0.0000   0.0000   0.0000   0.3254
   7.200   1.2570   0.01439   0.00766  -0.1059  0.1823  1.0000  -2.7791   0.0000   0.0000   0.0000   0.3245
   7.300   1.2653   0.01469   0.00789  -0.1056  0.1729  1.0000  -2.8262   0.0000   0.0000   0.0000   0.3235
   7.400   1.2748   0.01487   0.00807  -0.1053  0.1666  1.0000  -2.8765   0.0000   0.0000   0.0000   0.3226
   7.500   1.2841   0.01507   0.00825  -0.1051  0.1593  1.0000  -2.9267   0.0000   0.0000   0.0000   0.3217
   7.600   1.2927   0.01535   0.00847  -0.1048  0.1509  1.0000  -2.9751   0.0000   0.0000   0.0000   0.3207
   7.700   1.3012   0.01562   0.00870  -0.1045  0.1444  1.0000  -3.0236   0.0000   0.0000   0.0000   0.3198
   7.800   1.3102   0.01584   0.00890  -0.1042  0.1400  1.0000  -3.0735   0.0000   0.0000   0.0000   0.3189
   7.900   1.3188   0.01608   0.00912  -0.1038  0.1356  1.0000  -3.1228   0.0000   0.0000   0.0000   0.3180
   8.000   1.3272   0.01636   0.00939  -0.1035  0.1308  1.0000  -3.1711   0.0000   0.0000   0.0000   0.3171
   8.100   1.3353   0.01665   0.00966  -0.1031  0.1257  1.0000  -3.2187   0.0000   0.0000   0.0000   0.3162
   8.200   1.3444   0.01683   0.00986  -0.1028  0.1230  1.0000  -3.2699   0.0000   0.0000   0.0000   0.3153
   8.300   1.3539   0.01698   0.01004  -0.1026  0.1205  1.0000  -3.3223   0.0000   0.0000   0.0000   0.3144
   8.400   1.3629   0.01717   0.01025  -0.1023  0.1173  1.0000  -3.3738   0.0000   0.0000   0.0000   0.3136
   8.500   1.3715   0.01739   0.01047  -0.1019  0.1135  1.0000  -3.4242   0.0000   0.0000   0.0000   0.3127
   8.600   1.3796   0.01766   0.01071  -0.1015  0.1095  1.0000  -3.4734   0.0000   0.0000   0.0000   0.3118
   8.700   1.3870   0.01797   0.01100  -0.1011  0.1052  1.0000  -3.5209   0.0000   0.0000   0.0000   0.3110
   8.800   1.3951   0.01823   0.01126  -0.1007  0.1020  1.0000  -3.5702   0.0000   0.0000   0.0000   0.3101
   8.900   1.4033   0.01846   0.01149  -0.1003  0.0993  1.0000  -3.6209   0.0000   0.0000   0.0000   0.3093
   9.000   1.4111   0.01872   0.01173  -0.0998  0.0962  1.0000  -3.6705   0.0000   0.0000   0.0000   0.3084
   9.100   1.4183   0.01903   0.01200  -0.0993  0.0928  1.0000  -3.7187   0.0000   0.0000   0.0000   0.3075
   9.200   1.4247   0.01938   0.01231  -0.0987  0.0889  1.0000  -3.7643   0.0000   0.0000   0.0000   0.3067
   9.300   1.4303   0.01979   0.01271  -0.0980  0.0847  1.0000  -3.8062   0.0000   0.0000   0.0000   0.3057
   9.400   1.4395   0.01992   0.01286  -0.0978  0.0832  1.0000  -3.8616   0.0000   0.0000   0.0000   0.3049
   9.500   1.4485   0.02005   0.01303  -0.0975  0.0811  1.0000  -3.9645   0.0000   0.0000   0.0000   0.3042
   9.600   1.4567   0.02023   0.01323  -0.0971  0.0783  1.0000  -4.0681   0.0000   0.0000   0.0000   0.3034
   9.700   1.4641   0.02048   0.01347  -0.0966  0.0749  1.0000  -4.1677   0.0000   0.0000   0.0000   0.3026
   9.800   1.4702   0.02077   0.01374  -0.0960  0.0714  1.0000  -4.2616   0.0000   0.0000   0.0000   0.3017
   9.900   1.4755   0.02111   0.01405  -0.0952  0.0681  1.0000  -4.3508   0.0000   0.0000   0.0000   0.3008
  10.000   1.4815   0.02140   0.01434  -0.0945  0.0659  1.0000  -4.4444   0.0000   0.0000   0.0000   0.2999
  10.100   1.4876   0.02168   0.01462  -0.0938  0.0643  1.0000  -4.5396   0.0000   0.0000   0.0000   0.2990
  10.200   1.4933   0.02198   0.01492  -0.0931  0.0628  1.0000  -4.6333   0.0000   0.0000   0.0000   0.2981
  10.300   1.4986   0.02230   0.01524  -0.0924  0.0614  1.0000  -4.7254   0.0000   0.0000   0.0000   0.2973
  10.400   1.5035   0.02266   0.01561  -0.0916  0.0595  1.0000  -4.8119   0.0000   0.0000   0.0000   0.2964
  10.500   1.5080   0.02303   0.01597  -0.0908  0.0578  1.0000  -4.8997   0.0000   0.0000   0.0000   0.2955
  10.600   1.5122   0.02343   0.01637  -0.0900  0.0561  1.0000  -4.9855   0.0000   0.0000   0.0000   0.2946
  10.700   1.5159   0.02387   0.01681  -0.0891  0.0543  1.0000  -5.0685   0.0000   0.0000   0.0000   0.2937
  10.800   1.5188   0.02436   0.01732  -0.0881  0.0526  1.0000  -5.1464   0.0000   0.0000   0.0000   0.2928
  10.900   1.5228   0.02478   0.01777  -0.0873  0.0515  1.0000  -5.2319   0.0000   0.0000   0.0000   0.2920
  11.000   1.5292   0.02505   0.01807  -0.0868  0.0510  1.0000  -5.3353   0.0000   0.0000   0.0000   0.2912
  11.100   1.5353   0.02533   0.01840  -0.0862  0.0505  1.0000  -5.4373   0.0000   0.0000   0.0000   0.2905
  11.200   1.5411   0.02564   0.01875  -0.0857  0.0498  1.0000  -5.5381   0.0000   0.0000   0.0000   0.2897
  11.300   1.5467   0.02598   0.01912  -0.0851  0.0490  1.0000  -5.6378   0.0000   0.0000   0.0000   0.2890
  11.400   1.5519   0.02634   0.01952  -0.0845  0.0482  1.0000  -5.7360   0.0000   0.0000   0.0000   0.2882
  11.500   1.5569   0.02672   0.01994  -0.0839  0.0472  1.0000  -5.8329   0.0000   0.0000   0.0000   0.2875
  11.600   1.5616   0.02713   0.02037  -0.0833  0.0462  1.0000  -5.9285   0.0000   0.0000   0.0000   0.2867
  11.700   1.5659   0.02756   0.02083  -0.0826  0.0452  1.0000  -6.0225   0.0000   0.0000   0.0000   0.2860
  11.800   1.5700   0.02802   0.02132  -0.0820  0.0443  1.0000  -6.1151   0.0000   0.0000   0.0000   0.2853
  11.900   1.5738   0.02851   0.02182  -0.0814  0.0433  1.0000  -6.2068   0.0000   0.0000   0.0000   0.2846
  12.000   1.5774   0.02902   0.02236  -0.0807  0.0423  1.0000  -6.2973   0.0000   0.0000   0.0000   0.2839
  12.100   1.5806   0.02958   0.02293  -0.0801  0.0414  1.0000  -6.3854   0.0000   0.0000   0.0000   0.2832
  12.200   1.5834   0.03018   0.02354  -0.0795  0.0402  1.0000  -6.4711   0.0000   0.0000   0.0000   0.2825
  12.300   1.5855   0.03085   0.02423  -0.0788  0.0390  1.0000  -6.5514   0.0000   0.0000   0.0000   0.2818
  12.400   1.5878   0.03151   0.02491  -0.0782  0.0380  1.0000  -6.6333   0.0000   0.0000   0.0000   0.2812
  12.500   1.5932   0.03191   0.02534  -0.0778  0.0374  1.0000  -6.7395   0.0000   0.0000   0.0000   0.2806
  12.600   1.5982   0.03236   0.02581  -0.0774  0.0367  1.0000  -6.8429   0.0000   0.0000   0.0000   0.2800
  12.700   1.6027   0.03285   0.02633  -0.0769  0.0359  1.0000  -6.9429   0.0000   0.0000   0.0000   0.2794
  12.800   1.6063   0.03340   0.02691  -0.0765  0.0352  1.0000  -7.0371   0.0000   0.0000   0.0000   0.2788
  12.900   1.6096   0.03400   0.02752  -0.0760  0.0344  1.0000  -7.1286   0.0000   0.0000   0.0000   0.2782
  13.000   1.6127   0.03461   0.02815  -0.0755  0.0337  1.0000  -7.2194   0.0000   0.0000   0.0000   0.2776
  13.100   1.6156   0.03525   0.02881  -0.0751  0.0328  1.0000  -7.3087   0.0000   0.0000   0.0000   0.2771
  13.200   1.6179   0.03597   0.02958  -0.0746  0.0322  1.0000  -7.3960   0.0000   0.0000   0.0000   0.2765
  13.300   1.6200   0.03671   0.03033  -0.0742  0.0314  1.0000  -7.4807   0.0000   0.0000   0.0000   0.2760
  13.400   1.6220   0.03748   0.03111  -0.0737  0.0305  1.0000  -7.5638   0.0000   0.0000   0.0000   0.2755
  13.500   1.6236   0.03830   0.03193  -0.0733  0.0295  1.0000  -7.6433   0.0000   0.0000   0.0000   0.2750
  13.600   1.6246   0.03918   0.03284  -0.0729  0.0285  1.0000  -7.7178   0.0000   0.0000   0.0000   0.2745
  13.700   1.6254   0.04011   0.03379  -0.0726  0.0274  1.0000  -7.7892   0.0000   0.0000   0.0000   0.2740
  13.800   1.6269   0.04097   0.03467  -0.0722  0.0265  1.0000  -7.8660   0.0000   0.0000   0.0000   0.2736
  13.900   1.6313   0.04155   0.03529  -0.0720  0.0259  1.0000  -7.9653   0.0000   0.0000   0.0000   0.2731
  14.000   1.6349   0.04221   0.03598  -0.0717  0.0250  1.0000  -8.0569   0.0000   0.0000   0.0000   0.2727
  14.100   1.6373   0.04300   0.03680  -0.0715  0.0235  1.0000  -8.1368   0.0000   0.0000   0.0000   0.2722
  14.200   1.6382   0.04395   0.03775  -0.0712  0.0215  1.0000  -8.2035   0.0000   0.0000   0.0000   0.2718
  14.300   1.6367   0.04518   0.03895  -0.0710  0.0191  1.0000  -8.2502   0.0000   0.0000   0.0000   0.2715
  14.400   1.6346   0.04651   0.04026  -0.0707  0.0167  1.0000  -8.2857   0.0000   0.0000   0.0000   0.2712
  14.500   1.6328   0.04781   0.04157  -0.0705  0.0132  1.0000  -8.3133   0.0000   0.0000   0.0000   0.2709
  14.700   1.6201   0.05148   0.04522  -0.0701  0.0088  1.0000  -8.3253   0.0000   0.0000   0.0000   0.2706
  14.800   1.6147   0.05325   0.04701  -0.0700  0.0081  1.0000  -8.3313   0.0000   0.0000   0.0000   0.2704
  14.900   1.6093   0.05512   0.04890  -0.0700  0.0074  1.0000  -8.3347   0.0000   0.0000   0.0000   0.2704
  15.000   1.6046   0.05694   0.05074  -0.0701  0.0067  1.0000  -8.3379   0.0000   0.0000   0.0000   0.2703
  15.100   1.6002   0.05877   0.05263  -0.0702  0.0061  1.0000  -8.3370   0.0000   0.0000   0.0000   0.2703
  15.200   1.5964   0.06058   0.05451  -0.0703  0.0057  1.0000  -8.3386   0.0000   0.0000   0.0000   0.2702
  15.300   1.5931   0.06234   0.05634  -0.0705  0.0053  1.0000  -8.3450   0.0000   0.0000   0.0000   0.2702
  15.400   1.5892   0.06422   0.05830  -0.0708  0.0051  1.0000  -8.3506   0.0000   0.0000   0.0000   0.2703
  15.500   1.5853   0.06614   0.06028  -0.0711  0.0050  1.0000  -8.3580   0.0000   0.0000   0.0000   0.2704
  15.600   1.5817   0.06802   0.06225  -0.0714  0.0048  1.0000  -8.3680   0.0000   0.0000   0.0000   0.2704
  15.700   1.5773   0.07006   0.06437  -0.0719  0.0047  1.0000  -8.3744   0.0000   0.0000   0.0000   0.2706
  15.800   1.5730   0.07212   0.06650  -0.0724  0.0047  1.0000  -8.3814   0.0000   0.0000   0.0000   0.2708
  15.900   1.5687   0.07417   0.06863  -0.0729  0.0046  1.0000  -8.3892   0.0000   0.0000   0.0000   0.2710
  16.000   1.5637   0.07639   0.07092  -0.0735  0.0045  1.0000  -8.3919   0.0000   0.0000   0.0000   0.2714
  16.100   1.5586   0.07863   0.07325  -0.0742  0.0045  1.0000  -8.3939   0.0000   0.0000   0.0000   0.2717
  16.200   1.5537   0.08084   0.07553  -0.0748  0.0045  1.0000  -8.3971   0.0000   0.0000   0.0000   0.2721
  16.300   1.5479   0.08325   0.07802  -0.0756  0.0044  1.0000  -8.3937   0.0000   0.0000   0.0000   0.2725
  16.400   1.5422   0.08564   0.08048  -0.0764  0.0044  1.0000  -8.3909   0.0000   0.0000   0.0000   0.2730
  16.500   1.5367   0.08798   0.08290  -0.0772  0.0044  1.0000  -8.3888   0.0000   0.0000   0.0000   0.2735
  16.600   1.5307   0.09040   0.08537  -0.0781  0.0044  1.0000  -8.3865   0.0000   0.0000   0.0000   0.2740
  16.700   1.5251   0.09279   0.08783  -0.0789  0.0043  1.0000  -8.3877   0.0000   0.0000   0.0000   0.2745
  16.800   1.5200   0.09510   0.09020  -0.0798  0.0043  1.0000  -8.3929   0.0000   0.0000   0.0000   0.2750
  16.900   1.5142   0.09760   0.09276  -0.0807  0.0043  1.0000  -8.3906   0.0000   0.0000   0.0000   0.2757
  17.000   1.5082   0.10018   0.09542  -0.0818  0.0043  1.0000  -8.3848   0.0000   0.0000   0.0000   0.2763
  17.100   1.5029   0.10264   0.09794  -0.0828  0.0043  1.0000  -8.3842   0.0000   0.0000   0.0000   0.2770
  17.200   1.4975   0.10515   0.10051  -0.0838  0.0043  1.0000  -8.3819   0.0000   0.0000   0.0000   0.2776
  17.300   1.4908   0.10795   0.10338  -0.0851  0.0043  1.0000  -8.3664   0.0000   0.0000   0.0000   0.2785
  17.400   1.4850   0.11059   0.10608  -0.0862  0.0043  1.0000  -8.3584   0.0000   0.0000   0.0000   0.2793
  17.500   1.4794   0.11319   0.10874  -0.0874  0.0043  1.0000  -8.3509   0.0000   0.0000   0.0000   0.2801
  17.600   1.4725   0.11612   0.11174  -0.0888  0.0043  1.0000  -8.3289   0.0000   0.0000   0.0000   0.2811
  17.700   1.4665   0.11887   0.11455  -0.0901  0.0043  1.0000  -8.3143   0.0000   0.0000   0.0000   0.2820
  17.800   1.4608   0.12153   0.11727  -0.0913  0.0043  1.0000  -8.3024   0.0000   0.0000   0.0000   0.2829
  17.900   1.4544   0.12441   0.12022  -0.0927  0.0043  1.0000  -8.2809   0.0000   0.0000   0.0000   0.2840
  18.000   1.4477   0.12736   0.12324  -0.0942  0.0043  1.0000  -8.2548   0.0000   0.0000   0.0000   0.2851
  18.100   1.4419   0.13013   0.12606  -0.0956  0.0043  1.0000  -8.2365   0.0000   0.0000   0.0000   0.2861
  18.200   1.4357   0.13303   0.12902  -0.0971  0.0043  1.0000  -8.2118   0.0000   0.0000   0.0000   0.2873
  18.300   1.4287   0.13609   0.13215  -0.0988  0.0043  1.0000  -8.1780   0.0000   0.0000   0.0000   0.2885
  18.400   1.4230   0.13890   0.13502  -0.1003  0.0043  1.0000  -8.1555   0.0000   0.0000   0.0000   0.2897
  18.500   1.4175   0.14168   0.13785  -0.1018  0.0043  1.0000  -8.1332   0.0000   0.0000   0.0000   0.2908
  18.600   1.4107   0.14478   0.14102  -0.1035  0.0043  1.0000  -8.0948   0.0000   0.0000   0.0000   0.2922
  18.700   1.4045   0.14778   0.14407  -0.1052  0.0043  1.0000  -8.0608   0.0000   0.0000   0.0000   0.2935
  18.800   1.3989   0.15062   0.14696  -0.1068  0.0043  1.0000  -8.0327   0.0000   0.0000   0.0000   0.2948
  18.900   1.3928   0.15364   0.15005  -0.1085  0.0043  1.0000  -7.9949   0.0000   0.0000   0.0000   0.2962
  19.000   1.3865   0.15673   0.15319  -0.1103  0.0043  1.0000  -7.9537   0.0000   0.0000   0.0000   0.2976
  19.100   1.3813   0.15955   0.15606  -0.1120  0.0043  1.0000  -7.9234   0.0000   0.0000   0.0000   0.2990
  19.200   1.3765   0.16227   0.15883  -0.1136  0.0043  1.0000  -7.8960   0.0000   0.0000   0.0000   0.3002
  19.300   1.3712   0.16508   0.16170  -0.1154  0.0043  1.0000  -7.8583   0.0000   0.0000   0.0000   0.3017
  19.400   1.3656   0.16793   0.16460  -0.1172  0.0043  1.0000  -7.8148   0.0000   0.0000   0.0000   0.3032
  19.500   1.3611   0.17054   0.16725  -0.1189  0.0043  1.0000  -7.7832   0.0000   0.0000   0.0000   0.3046
  19.600   1.3570   0.17311   0.16987  -0.1206  0.0043  1.0000  -7.7541   0.0000   0.0000   0.0000   0.3059
  19.700   1.3518   0.17602   0.17283  -0.1225  0.0043  1.0000  -7.7078   0.0000   0.0000   0.0000   0.3075
  19.800   1.3471   0.17883   0.17569  -0.1243  0.0043  1.0000  -7.6679   0.0000   0.0000   0.0000   0.3089
  19.900   1.3434   0.18145   0.17835  -0.1260  0.0043  1.0000  -7.6386   0.0000   0.0000   0.0000   0.3102
  20.000   1.3399   0.18404   0.18099  -0.1276  0.0043  1.0000  -7.6110   0.0000   0.0000   0.0000   0.3115
  20.100   1.3364   0.18668   0.18368  -0.1292  0.0043  1.0000  -7.5814   0.0000   0.0000   0.0000   0.3128
  20.200   1.3318   0.18971   0.18675  -0.1311  0.0043  1.0000  -7.5331   0.0000   0.0000   0.0000   0.3144
  20.300   1.3274   0.19273   0.18982  -0.1329  0.0043  1.0000  -7.4850   0.0000   0.0000   0.0000   0.3160
  20.400   1.3237   0.19560   0.19273  -0.1347  0.0043  1.0000  -7.4454   0.0000   0.0000   0.0000   0.3174
  20.500   1.3201   0.19845   0.19563  -0.1364  0.0043  1.0000  -7.4068   0.0000   0.0000   0.0000   0.3188
  20.600   1.3165   0.20140   0.19862  -0.1381  0.0043  1.0000  -7.3641   0.0000   0.0000   0.0000   0.3202
  20.700   1.3115   0.20480   0.20207  -0.1401  0.0043  1.0000  -7.2982   0.0000   0.0000   0.0000   0.3220
  20.800   1.3075   0.20795   0.20527  -0.1419  0.0043  1.0000  -7.2450   0.0000   0.0000   0.0000   0.3236
  20.900   1.3039   0.21103   0.20839  -0.1437  0.0043  1.0000  -7.1957   0.0000   0.0000   0.0000   0.3251
  21.000   1.3004   0.21413   0.21154  -0.1455  0.0043  1.0000  -7.1450   0.0000   0.0000   0.0000   0.3266
  21.100   1.2965   0.21740   0.21485  -0.1473  0.0043  1.0000  -7.0861   0.0000   0.0000   0.0000   0.3282
  21.200   1.2913   0.22119   0.21869  -0.1494  0.0044  1.0000  -7.0007   0.0000   0.0000   0.0000   0.3301
  21.300   1.2853   0.22533   0.22288  -0.1516  0.0044  1.0000  -6.8976   0.0000   0.0000   0.0000   0.3323
  21.500   1.2778   0.23232   0.22998  -0.1553  0.0044  1.0000  -6.7696   0.0000   0.0000   0.0000   0.3357
  21.600   1.2734   0.23615   0.23385  -0.1572  0.0044  1.0000  -6.6905   0.0000   0.0000   0.0000   0.3376
  21.700   1.2686   0.24020   0.23794  -0.1592  0.0044  1.0000  -6.6017   0.0000   0.0000   0.0000   0.3395
  21.800   1.2649   0.24392   0.24169  -0.1611  0.0044  1.0000  -6.5273   0.0000   0.0000   0.0000   0.3413
  21.900   1.2612   0.24767   0.24548  -0.1629  0.0045  1.0000  -6.4510   0.0000   0.0000   0.0000   0.3430
  22.000   1.2572   0.25163   0.24948  -0.1648  0.0045  1.0000  -6.3648   0.0000   0.0000   0.0000   0.3448
  22.100   1.2524   0.25599   0.25388  -0.1668  0.0045  1.0000  -6.2594   0.0000   0.0000   0.0000   0.3468
  22.200   1.2457   0.26136   0.25928  -0.1691  0.0046  1.0000  -6.1063   0.0000   0.0000   0.0000   0.3495
  22.300   1.2400   0.26641   0.26437  -0.1712  0.0046  1.0000  -5.9660   0.0000   0.0000   0.0000   0.3519
  22.400   1.2324   0.27249   0.27049  -0.1737  0.0047  1.0000  -5.7734   0.0000   0.0000   0.0000   0.3548
  22.500   1.2247   0.27881   0.27684  -0.1761  0.0048  1.0000  -5.5653   0.0000   0.0000   0.0000   0.3578
  22.600   1.2169   0.28544   0.28351  -0.1785  0.0048  1.0000  -5.3353   0.0000   0.0000   0.0000   0.3608
  22.900   1.1513   0.33840   0.33639  -0.1894  0.0089  1.0000  -2.5941   0.0000   0.0000   0.0000   0.3817
  23.100   1.1408   0.35313   0.35113  -0.1894  0.0168  1.0000  -2.0974   0.0000   0.0000   0.0000   0.3835
  23.200   1.1410   0.35569   0.35370  -0.1901  0.0167  1.0000  -2.0817   0.0000   0.0000   0.0000   0.3839
  23.300   1.1411   0.35823   0.35624  -0.1907  0.0167  1.0000  -2.0657   0.0000   0.0000   0.0000   0.3843
  23.400   1.1412   0.36073   0.35874  -0.1914  0.0166  1.0000  -2.0493   0.0000   0.0000   0.0000   0.3847
  23.500   1.1409   0.36339   0.36140  -0.1923  0.0165  1.0000  -2.0210   0.0000   0.0000   0.0000   0.3854
  23.600   1.1406   0.36657   0.36458  -0.1938  0.0160  1.0000  -1.9581   0.0000   0.0000   0.0000   0.3867
  23.700   1.1404   0.36974   0.36775  -0.1949  0.0151  1.0000  -1.9087   0.0000   0.0000   0.0000   0.3875
  23.800   1.1398   0.37240   0.37042  -0.1954  0.0147  1.0000  -1.8880   0.0000   0.0000   0.0000   0.3880
  23.900   1.1390   0.37492   0.37294  -0.1959  0.0143  1.0000  -1.8733   0.0000   0.0000   0.0000   0.3883
  24.000   1.1379   0.37736   0.37539  -0.1962  0.0140  1.0000  -1.8615   0.0000   0.0000   0.0000   0.3887
  24.100   1.1365   0.37974   0.37777  -0.1966  0.0137  1.0000  -1.8510   0.0000   0.0000   0.0000   0.3890
  24.200   1.1348   0.38205   0.38009  -0.1968  0.0134  1.0000  -1.8413   0.0000   0.0000   0.0000   0.3893
  24.300   1.1325   0.38430   0.38234  -0.1969  0.0132  1.0000  -1.8316   0.0000   0.0000   0.0000   0.3896
  24.400   1.1293   0.38645   0.38450  -0.1969  0.0129  1.0000  -1.8211   0.0000   0.0000   0.0000   0.3899
  24.500   1.1249   0.38846   0.38652  -0.1966  0.0127  1.0000  -1.8083   0.0000   0.0000   0.0000   0.3902
  24.600   1.1172   0.39015   0.38823  -0.1958  0.0126  1.0000  -1.7884   0.0000   0.0000   0.0000   0.3906
  25.000   0.9193   0.34565   0.34394  -0.1640  0.0127  1.0000  -1.3031   0.0000   0.0000   0.0000   0.3971
  25.100   0.9163   0.34556   0.34387  -0.1639  0.0125  1.0000  -1.2952   0.0000   0.0000   0.0000   0.3974
  25.200   0.9135   0.34551   0.34382  -0.1638  0.0123  1.0000  -1.2886   0.0000   0.0000   0.0000   0.3977
  25.300   0.9109   0.34547   0.34379  -0.1637  0.0121  1.0000  -1.2831   0.0000   0.0000   0.0000   0.3980
  25.400   0.9085   0.34545   0.34377  -0.1636  0.0120  1.0000  -1.2788   0.0000   0.0000   0.0000   0.3983
  25.500   0.9062   0.34544   0.34377  -0.1635  0.0118  1.0000  -1.2756   0.0000   0.0000   0.0000   0.3985
  25.600   0.9040   0.34544   0.34378  -0.1635  0.0117  1.0000  -1.2735   0.0000   0.0000   0.0000   0.3988
  25.700   0.9020   0.34544   0.34379  -0.1634  0.0115  1.0000  -1.2724   0.0000   0.0000   0.0000   0.3990
  25.800   0.9001   0.34545   0.34381  -0.1634  0.0114  1.0000  -1.2724   0.0000   0.0000   0.0000   0.3992
  25.900   0.8983   0.34547   0.34383  -0.1634  0.0112  1.0000  -1.2736   0.0000   0.0000   0.0000   0.3994
  26.000   0.8966   0.34548   0.34385  -0.1634  0.0111  1.0000  -1.2759   0.0000   0.0000   0.0000   0.3996
  26.100   0.8950   0.34549   0.34387  -0.1634  0.0110  1.0000  -1.2794   0.0000   0.0000   0.0000   0.3997
  26.200   0.8934   0.34550   0.34388  -0.1634  0.0109  1.0000  -1.2839   0.0000   0.0000   0.0000   0.3999
  26.300   0.8920   0.34552   0.34392  -0.1634  0.0108  1.0000  -1.2894   0.0000   0.0000   0.0000   0.4000
  26.400   0.8906   0.34550   0.34391  -0.1634  0.0107  1.0000  -1.2960   0.0000   0.0000   0.0000   0.4001
  26.500   0.8893   0.34547   0.34389  -0.1634  0.0106  1.0000  -1.3038   0.0000   0.0000   0.0000   0.4002
  26.600   0.8880   0.34543   0.34385  -0.1634  0.0105  1.0000  -1.3127   0.0000   0.0000   0.0000   0.4003
  26.700   0.8867   0.34536   0.34379  -0.1634  0.0104  1.0000  -1.3227   0.0000   0.0000   0.0000   0.4003
  26.800   0.8855   0.34526   0.34370  -0.1633  0.0103  1.0000  -1.3338   0.0000   0.0000   0.0000   0.4003
  26.900   0.8843   0.34512   0.34357  -0.1632  0.0102  1.0000  -1.3458   0.0000   0.0000   0.0000   0.4003
  27.000   0.8830   0.34493   0.34339  -0.1631  0.0101  1.0000  -1.3586   0.0000   0.0000   0.0000   0.4002
  27.100   0.8815   0.34466   0.34312  -0.1628  0.0100  1.0000  -1.3716   0.0000   0.0000   0.0000   0.4000
  27.200   0.8717   0.34446   0.34291  -0.1617  0.0097  1.0000  -1.2602   0.0000   0.0000   0.0000   0.4010
  27.300   0.8703   0.34479   0.34325  -0.1618  0.0097  1.0000  -1.2487   0.0000   0.0000   0.0000   0.4014
  27.400   0.8691   0.34512   0.34358  -0.1620  0.0097  1.0000  -1.2374   0.0000   0.0000   0.0000   0.4017
  27.500   0.8678   0.34545   0.34392  -0.1622  0.0097  1.0000  -1.2263   0.0000   0.0000   0.0000   0.4020
  27.600   0.8666   0.34580   0.34427  -0.1623  0.0097  1.0000  -1.2155   0.0000   0.0000   0.0000   0.4023
  27.700   0.8654   0.34614   0.34462  -0.1625  0.0096  1.0000  -1.2049   0.0000   0.0000   0.0000   0.4026
  27.800   0.8643   0.34650   0.34498  -0.1627  0.0096  1.0000  -1.1945   0.0000   0.0000   0.0000   0.4029
  27.900   0.8632   0.34686   0.34535  -0.1629  0.0096  1.0000  -1.1843   0.0000   0.0000   0.0000   0.4032
  28.000   0.8622   0.34723   0.34572  -0.1631  0.0096  1.0000  -1.1743   0.0000   0.0000   0.0000   0.4035
  28.100   0.8611   0.34760   0.34610  -0.1633  0.0096  1.0000  -1.1643   0.0000   0.0000   0.0000   0.4038
  28.200   0.8601   0.34798   0.34649  -0.1635  0.0096  1.0000  -1.1544   0.0000   0.0000   0.0000   0.4041
  28.300   0.8592   0.34837   0.34688  -0.1637  0.0096  1.0000  -1.1447   0.0000   0.0000   0.0000   0.4044
  28.400   0.8582   0.34876   0.34727  -0.1639  0.0096  1.0000  -1.1352   0.0000   0.0000   0.0000   0.4046
  28.500   0.8573   0.34915   0.34767  -0.1641  0.0096  1.0000  -1.1259   0.0000   0.0000   0.0000   0.4049
  28.600   0.8564   0.34955   0.34808  -0.1644  0.0096  1.0000  -1.1202   0.0000   0.0000   0.0000   0.4052
  28.700   0.8556   0.34996   0.34849  -0.1646  0.0096  1.0000  -1.1199   0.0000   0.0000   0.0000   0.4055
  28.800   0.8548   0.35037   0.34890  -0.1648  0.0096  1.0000  -1.1196   0.0000   0.0000   0.0000   0.4058
  28.900   0.8540   0.35078   0.34932  -0.1651  0.0096  1.0000  -1.1194   0.0000   0.0000   0.0000   0.4061
  29.000   0.8532   0.35121   0.34976  -0.1653  0.0096  1.0000  -1.1187   0.0000   0.0000   0.0000   0.4064
  29.100   0.8524   0.35164   0.35020  -0.1656  0.0095  1.0000  -1.1181   0.0000   0.0000   0.0000   0.4067
  29.200   0.8517   0.35208   0.35064  -0.1659  0.0095  1.0000  -1.1175   0.0000   0.0000   0.0000   0.4070
  29.300   0.8510   0.35253   0.35109  -0.1661  0.0095  1.0000  -1.1169   0.0000   0.0000   0.0000   0.4073
  29.400   0.8502   0.35299   0.35156  -0.1664  0.0095  1.0000  -1.1156   0.0000   0.0000   0.0000   0.4076
  29.500   0.8495   0.35348   0.35205  -0.1667  0.0095  1.0000  -1.1131   0.0000   0.0000   0.0000   0.4079
  29.600   0.8488   0.35398   0.35256  -0.1670  0.0095  1.0000  -1.1107   0.0000   0.0000   0.0000   0.4083
  29.700   0.8481   0.35449   0.35307  -0.1674  0.0095  1.0000  -1.1081   0.0000   0.0000   0.0000   0.4086
  29.800   0.8475   0.35502   0.35361  -0.1677  0.0095  1.0000  -1.1052   0.0000   0.0000   0.0000   0.4089
  29.900   0.8469   0.35558   0.35418  -0.1680  0.0094  1.0000  -1.1018   0.0000   0.0000   0.0000   0.4093
  30.000   0.8464   0.35619   0.35479  -0.1684  0.0094  1.0000  -1.0975   0.0000   0.0000   0.0000   0.4097


