xflr5 v6.61

 Calculated polar for: WORTMANN FX 63-137 AIRFOIL

 1 1 Reynolds number fixed          Mach number fixed         

 xtrf =   1.000 (top)        1.000 (bottom)
 Mach =   0.000     Re =     1.000 e 6     Ncrit =   9.000

  alpha     CL        CD       CDp       Cm    Top Xtr Bot Xtr   Cpmin    Chinge    XCp    
 ------- -------- --------- --------- -------- ------- ------- -------- --------- ---------
 -10.000  -0.2786   0.01317   0.00817  -0.1859  0.8624  0.0078  -6.9737   0.0000   0.0000   0.0000  -0.4491
  -9.900  -0.2665   0.01298   0.00793  -0.1864  0.8572  0.0078  -6.8534   0.0000   0.0000   0.0000  -0.4821
  -9.800  -0.2543   0.01280   0.00770  -0.1868  0.8525  0.0078  -6.7333   0.0000   0.0000   0.0000  -0.5184
  -9.700  -0.2421   0.01262   0.00748  -0.1872  0.8482  0.0078  -6.6126   0.0000   0.0000   0.0000  -0.5585
  -9.600  -0.2300   0.01245   0.00729  -0.1877  0.8435  0.0079  -6.4922   0.0000   0.0000   0.0000  -0.6022
  -9.500  -0.2180   0.01230   0.00710  -0.1880  0.8387  0.0079  -6.3728   0.0000   0.0000   0.0000  -0.6502
  -9.400  -0.2061   0.01216   0.00692  -0.1883  0.8336  0.0080  -6.2554   0.0000   0.0000   0.0000  -0.7029
  -9.300  -0.1942   0.01203   0.00674  -0.1886  0.8289  0.0080  -6.1393   0.0000   0.0000   0.0000  -0.7627
  -9.100  -0.1703   0.01185   0.00634  -0.1891  0.8202  0.0092  -5.9145   0.0000   0.0000   0.0000  -0.9055
  -9.000  -0.1583   0.01169   0.00622  -0.1895  0.8150  0.0092  -5.7931   0.0000   0.0000   0.0000  -0.9955
  -8.900  -0.1465   0.01157   0.00613  -0.1898  0.8094  0.0093  -5.6721   0.0000   0.0000   0.0000  -1.0964
  -8.800  -0.1350   0.01149   0.00609  -0.1899  0.8040  0.0093  -5.5500   0.0000   0.0000   0.0000  -1.2116
  -8.700  -0.1236   0.01148   0.00614  -0.1900  0.8001  0.0094  -5.4222   0.0000   0.0000   0.0000  -1.3464
  -8.600  -0.1126   0.01152   0.00624  -0.1900  0.7956  0.0094  -5.2959   0.0000   0.0000   0.0000  -1.5016
  -8.500  -0.1015   0.01156   0.00630  -0.1899  0.7909  0.0095  -5.1746   0.0000   0.0000   0.0000  -1.6905
  -8.400  -0.0905   0.01159   0.00634  -0.1899  0.7861  0.0095  -5.0572   0.0000   0.0000   0.0000  -1.9249
  -8.300  -0.0794   0.01161   0.00634  -0.1899  0.7810  0.0095  -4.9440   0.0000   0.0000   0.0000  -2.2264
  -8.200  -0.0680   0.01160   0.00634  -0.1900  0.7772  0.0096  -4.8308   0.0000   0.0000   0.0000  -2.6436
  -8.100  -0.0562   0.01158   0.00633  -0.1901  0.7744  0.0096  -4.7180   0.0000   0.0000   0.0000  -3.2483
  -8.000  -0.0445   0.01155   0.00631  -0.1902  0.7712  0.0096  -4.6071   0.0000   0.0000   0.0000  -4.1702
  -7.900  -0.0328   0.01152   0.00627  -0.1904  0.7677  0.0096  -4.4987   0.0000   0.0000   0.0000  -5.7564
  -7.800  -0.0209   0.01147   0.00619  -0.1906  0.7641  0.0096  -4.3938   0.0000   0.0000   0.0000  -9.1731
  -7.700  -0.0091   0.01141   0.00611  -0.1908  0.7604  0.0096  -4.2901   0.0000   0.0000   0.0000  -21.4251
  -7.600   0.0027   0.01135   0.00600  -0.1910  0.7567  0.0096  -4.1889   0.0000   0.0000   0.0000  72.1696
  -7.500   0.0145   0.01130   0.00580  -0.1911  0.7527  0.0093  -4.0974   0.0000   0.0000   0.0000  13.8644
  -7.300   0.0397   0.01097   0.00560  -0.1920  0.7465  0.0100  -3.8885   0.0000   0.0000   0.0000   5.2379
  -7.200   0.0520   0.01087   0.00546  -0.1924  0.7433  0.0100  -3.7916   0.0000   0.0000   0.0000   4.0569
  -7.100   0.0643   0.01076   0.00532  -0.1927  0.7397  0.0100  -3.6959   0.0000   0.0000   0.0000   3.3327
  -7.000   0.0744   0.01098   0.00538  -0.1922  0.7360  0.0095  -3.5997   0.0000   0.0000   0.0000   2.9081
  -6.900   0.0865   0.01091   0.00526  -0.1925  0.7334  0.0095  -3.5022   0.0000   0.0000   0.0000   2.5388
  -6.800   0.0983   0.01085   0.00517  -0.1927  0.7296  0.0095  -3.4086   0.0000   0.0000   0.0000   2.2644
  -6.700   0.1101   0.01080   0.00507  -0.1928  0.7254  0.0095  -3.3163   0.0000   0.0000   0.0000   2.0498
  -6.600   0.1220   0.01074   0.00498  -0.1931  0.7213  0.0096  -3.2247   0.0000   0.0000   0.0000   1.8747
  -6.500   0.1345   0.01065   0.00487  -0.1934  0.7194  0.0096  -3.1325   0.0000   0.0000   0.0000   1.7260
  -6.400   0.1469   0.01055   0.00477  -0.1937  0.7169  0.0096  -3.0417   0.0000   0.0000   0.0000   1.6025
  -6.300   0.1594   0.01045   0.00465  -0.1941  0.7138  0.0096  -2.9525   0.0000   0.0000   0.0000   1.4982
  -6.200   0.1719   0.01035   0.00453  -0.1944  0.7102  0.0097  -2.8649   0.0000   0.0000   0.0000   1.4089
  -6.100   0.1845   0.01024   0.00441  -0.1948  0.7064  0.0097  -2.7789   0.0000   0.0000   0.0000   1.3315
  -6.000   0.1971   0.01012   0.00427  -0.1952  0.7027  0.0097  -2.6963   0.0000   0.0000   0.0000   1.2638
  -5.900   0.2099   0.01000   0.00412  -0.1956  0.6991  0.0098  -2.6473   0.0000   0.0000   0.0000   1.2038
  -5.800   0.2227   0.00987   0.00395  -0.1960  0.6954  0.0098  -2.6032   0.0000   0.0000   0.0000   1.1505
  -5.600   0.2570   0.00891   0.00253  -0.1990  0.6893  0.0112  -2.8327   0.0000   0.0000   0.0000   1.0412
  -5.500   0.2692   0.00887   0.00249  -0.1992  0.6869  0.0114  -2.7710   0.0000   0.0000   0.0000   1.0058
  -5.400   0.2814   0.00884   0.00244  -0.1994  0.6843  0.0116  -2.7094   0.0000   0.0000   0.0000   0.9736
  -5.300   0.2935   0.00880   0.00240  -0.1996  0.6816  0.0119  -2.6471   0.0000   0.0000   0.0000   0.9441
  -5.200   0.3056   0.00878   0.00236  -0.1998  0.6788  0.0122  -2.5837   0.0000   0.0000   0.0000   0.9170
  -5.100   0.3176   0.00876   0.00233  -0.2000  0.6759  0.0126  -2.5197   0.0000   0.0000   0.0000   0.8920
  -5.000   0.3295   0.00874   0.00230  -0.2001  0.6728  0.0130  -2.4546   0.0000   0.0000   0.0000   0.8691
  -4.900   0.3413   0.00873   0.00228  -0.2003  0.6695  0.0133  -2.3871   0.0000   0.0000   0.0000   0.8478
  -4.800   0.3530   0.00874   0.00227  -0.2004  0.6659  0.0138  -2.3155   0.0000   0.0000   0.0000   0.8281
  -4.700   0.3645   0.00875   0.00229  -0.2004  0.6624  0.0144  -2.2358   0.0000   0.0000   0.0000   0.8098
  -4.600   0.3758   0.00878   0.00235  -0.2005  0.6603  0.0151  -2.1428   0.0000   0.0000   0.0000   0.7927
  -4.500   0.3868   0.00884   0.00247  -0.2004  0.6588  0.0158  -2.0367   0.0000   0.0000   0.0000   0.7769
  -4.400   0.3873   0.00974   0.00374  -0.1977  0.6571  0.0174  -1.7625   0.0000   0.0000   0.0000   0.7689
  -4.300   0.4000   0.00965   0.00364  -0.1981  0.6549  0.0174  -1.7203   0.0000   0.0000   0.0000   0.7532
  -4.200   0.4152   0.00936   0.00329  -0.1991  0.6520  0.0179  -1.6931   0.0000   0.0000   0.0000   0.7372
  -4.100   0.4292   0.00917   0.00305  -0.1999  0.6485  0.0185  -1.6561   0.0000   0.0000   0.0000   0.7228
  -4.000   0.4423   0.00907   0.00291  -0.2003  0.6442  0.0190  -1.6132   0.0000   0.0000   0.0000   0.7096
  -3.900   0.4549   0.00900   0.00279  -0.2007  0.6392  0.0193  -1.5682   0.0000   0.0000   0.0000   0.6975
  -3.700   0.4793   0.00892   0.00263  -0.2012  0.6291  0.0200  -1.4761   0.0000   0.0000   0.0000   0.6754
  -3.600   0.4918   0.00887   0.00255  -0.2015  0.6258  0.0203  -1.4288   0.0000   0.0000   0.0000   0.6650
  -3.500   0.5042   0.00883   0.00249  -0.2018  0.6224  0.0205  -1.3817   0.0000   0.0000   0.0000   0.6551
  -3.400   0.5164   0.00880   0.00243  -0.2020  0.6187  0.0207  -1.3348   0.0000   0.0000   0.0000   0.6458
  -3.300   0.5287   0.00877   0.00237  -0.2022  0.6149  0.0209  -1.2883   0.0000   0.0000   0.0000   0.6369
  -3.200   0.5408   0.00875   0.00232  -0.2024  0.6109  0.0210  -1.2423   0.0000   0.0000   0.0000   0.6285
  -3.100   0.5527   0.00874   0.00227  -0.2026  0.6067  0.0211  -1.1968   0.0000   0.0000   0.0000   0.6204
  -3.000   0.5647   0.00873   0.00222  -0.2028  0.6022  0.0212  -1.1516   0.0000   0.0000   0.0000   0.6127
  -2.900   0.5767   0.00872   0.00218  -0.2030  0.5980  0.0215  -1.1063   0.0000   0.0000   0.0000   0.6053
  -2.800   0.5891   0.00868   0.00214  -0.2032  0.5962  0.0219  -1.0604   0.0000   0.0000   0.0000   0.5981
  -2.700   0.6014   0.00865   0.00210  -0.2035  0.5940  0.0224  -1.0145   0.0000   0.0000   0.0000   0.5912
  -2.600   0.6137   0.00862   0.00206  -0.2037  0.5911  0.0228  -0.9693   0.0000   0.0000   0.0000   0.5846
  -2.500   0.6259   0.00861   0.00202  -0.2039  0.5871  0.0229  -0.9252   0.0000   0.0000   0.0000   0.5782
  -2.400   0.6377   0.00861   0.00196  -0.2041  0.5814  0.0207  -0.8944   0.0000   0.0000   0.0000   0.5721
  -2.300   0.6493   0.00863   0.00193  -0.2041  0.5738  0.0212  -0.9029   0.0000   0.0000   0.0000   0.5664
  -2.200   0.6606   0.00868   0.00192  -0.2042  0.5658  0.0218  -0.9114   0.0000   0.0000   0.0000   0.5608
  -2.100   0.6724   0.00869   0.00190  -0.2043  0.5611  0.0224  -0.9200   0.0000   0.0000   0.0000   0.5554
  -2.000   0.6842   0.00870   0.00188  -0.2045  0.5564  0.0230  -0.9288   0.0000   0.0000   0.0000   0.5502
  -1.900   0.6959   0.00871   0.00187  -0.2046  0.5516  0.0234  -0.9374   0.0000   0.0000   0.0000   0.5451
  -1.800   0.7075   0.00874   0.00185  -0.2047  0.5466  0.0236  -0.9460   0.0000   0.0000   0.0000   0.5403
  -1.700   0.7190   0.00877   0.00184  -0.2047  0.5413  0.0235  -0.9546   0.0000   0.0000   0.0000   0.5356
  -1.600   0.7305   0.00880   0.00183  -0.2048  0.5358  0.0234  -0.9644   0.0000   0.0000   0.0000   0.5310
  -1.500   0.7423   0.00881   0.00182  -0.2049  0.5322  0.0233  -0.9747   0.0000   0.0000   0.0000   0.5265
  -1.400   0.7543   0.00880   0.00181  -0.2051  0.5301  0.0231  -0.9851   0.0000   0.0000   0.0000   0.5222
  -1.300   0.7663   0.00880   0.00179  -0.2053  0.5273  0.0230  -0.9955   0.0000   0.0000   0.0000   0.5180
  -1.200   0.7781   0.00881   0.00179  -0.2054  0.5232  0.0229  -1.0058   0.0000   0.0000   0.0000   0.5139
  -1.100   0.7896   0.00884   0.00179  -0.2055  0.5163  0.0228  -1.0160   0.0000   0.0000   0.0000   0.5100
  -1.000   0.8006   0.00891   0.00181  -0.2055  0.5065  0.0228  -1.0259   0.0000   0.0000   0.0000   0.5063
  -0.900   0.8116   0.00899   0.00183  -0.2055  0.4982  0.0227  -1.0357   0.0000   0.0000   0.0000   0.5026
  -0.800   0.8229   0.00903   0.00184  -0.2055  0.4920  0.0226  -1.0458   0.0000   0.0000   0.0000   0.4990
  -0.700   0.8341   0.00909   0.00186  -0.2055  0.4850  0.0226  -1.0558   0.0000   0.0000   0.0000   0.4955
  -0.600   0.8450   0.00918   0.00189  -0.2055  0.4767  0.0225  -1.0656   0.0000   0.0000   0.0000   0.4922
  -0.500   0.8559   0.00926   0.00192  -0.2054  0.4676  0.0225  -1.0755   0.0000   0.0000   0.0000   0.4889
  -0.400   0.8675   0.00928   0.00193  -0.2055  0.4637  0.0225  -1.0858   0.0000   0.0000   0.0000   0.4856
  -0.300   0.8787   0.00933   0.00195  -0.2055  0.4555  0.0225  -1.0959   0.0000   0.0000   0.0000   0.4825
  -0.200   0.8883   0.00952   0.00202  -0.2053  0.4352  0.0226  -1.1050   0.0000   0.0000   0.0000   0.4795
  -0.100   0.8963   0.00976   0.00202  -0.2045  0.4263  0.0250  -1.1133   0.0000   0.0000   0.0000   0.4764
   0.000   0.9080   0.00980   0.00208  -0.2048  0.4174  0.0254  -1.1237   0.0000   0.0000   0.0000   0.4736
   0.200   0.9294   0.00999   0.00218  -0.2046  0.4004  0.0252  -1.1433   0.0000   0.0000   0.0000   0.4680
   0.300   0.9416   0.00999   0.00222  -0.2049  0.3928  0.0256  -1.1540   0.0000   0.0000   0.0000   0.4653
   0.400   0.9516   0.01018   0.00237  -0.2048  0.3691  0.0261  -1.1634   0.0000   0.0000   0.0000   0.4627
   0.500   0.9623   0.01028   0.00250  -0.2047  0.3596  0.0282  -1.1733   0.0000   0.0000   0.0000   0.4601
   0.600   0.9732   0.01037   0.00256  -0.2047  0.3528  0.0350  -1.1834   0.0000   0.0000   0.0000   0.4576
   0.700   0.9840   0.01045   0.00262  -0.2047  0.3465  0.0373  -1.1944   0.0000   0.0000   0.0000   0.4551
   0.800   0.9949   0.01052   0.00267  -0.2047  0.3402  0.0392  -1.2062   0.0000   0.0000   0.0000   0.4527
   0.900   1.0064   0.01055   0.00271  -0.2048  0.3383  0.0480  -1.2185   0.0000   0.0000   0.0000   0.4503
   1.000   1.0179   0.01057   0.00276  -0.2049  0.3361  0.0506  -1.2308   0.0000   0.0000   0.0000   0.4479
   1.100   1.0295   0.01059   0.00280  -0.2050  0.3328  0.0626  -1.2432   0.0000   0.0000   0.0000   0.4456
   1.200   1.0406   0.01065   0.00285  -0.2050  0.3272  0.0656  -1.2552   0.0000   0.0000   0.0000   0.4434
   1.300   1.0496   0.01088   0.00298  -0.2046  0.3074  0.0679  -1.2674   0.0000   0.0000   0.0000   0.4412
   1.400   1.0602   0.01098   0.00305  -0.2046  0.3007  0.0747  -1.2814   0.0000   0.0000   0.0000   0.4391
   1.500   1.0708   0.01108   0.00313  -0.2045  0.2940  0.0810  -1.2954   0.0000   0.0000   0.0000   0.4370
   1.600   1.0816   0.01118   0.00321  -0.2045  0.2867  0.0995  -1.3095   0.0000   0.0000   0.0000   0.4349
   1.700   1.0922   0.01127   0.00328  -0.2045  0.2797  0.1045  -1.3236   0.0000   0.0000   0.0000   0.4329
   1.800   1.1038   0.01129   0.00333  -0.2046  0.2772  0.1194  -1.3385   0.0000   0.0000   0.0000   0.4309
   1.900   1.1158   0.01129   0.00338  -0.2049  0.2742  0.1524  -1.3537   0.0000   0.0000   0.0000   0.4290
   2.000   1.1310   0.01115   0.00345  -0.2060  0.2692  0.2608  -1.3713   0.0000   0.0000   0.0000   0.4274
   2.100   1.1446   0.01117   0.00367  -0.2071  0.2474  0.3963  -1.3876   0.0000   0.0000   0.0000   0.4260
   2.200   1.1565   0.01121   0.00382  -0.2074  0.2414  0.4544  -1.4029   0.0000   0.0000   0.0000   0.4243
   2.300   1.1668   0.01133   0.00393  -0.2073  0.2358  0.4666  -1.4170   0.0000   0.0000   0.0000   0.4225
   2.400   1.1770   0.01145   0.00404  -0.2072  0.2292  0.4751  -1.4316   0.0000   0.0000   0.0000   0.4207
   2.500   1.1876   0.01155   0.00414  -0.2071  0.2231  0.4841  -1.4488   0.0000   0.0000   0.0000   0.4189
   2.600   1.1984   0.01160   0.00420  -0.2071  0.2210  0.4913  -1.4665   0.0000   0.0000   0.0000   0.4172
   2.700   1.2092   0.01167   0.00427  -0.2070  0.2189  0.4965  -1.4841   0.0000   0.0000   0.0000   0.4155
   2.800   1.2198   0.01174   0.00434  -0.2069  0.2153  0.5000  -1.5016   0.0000   0.0000   0.0000   0.4138
   2.900   1.2294   0.01190   0.00446  -0.2067  0.2032  0.5056  -1.5221   0.0000   0.0000   0.0000   0.4121
   3.000   1.2384   0.01212   0.00462  -0.2063  0.1925  0.5113  -1.5418   0.0000   0.0000   0.0000   0.4104
   3.100   1.2483   0.01225   0.00473  -0.2061  0.1881  0.5168  -1.5626   0.0000   0.0000   0.0000   0.4088
   3.200   1.2581   0.01238   0.00484  -0.2059  0.1836  0.5217  -1.5835   0.0000   0.0000   0.0000   0.4072
   3.300   1.2679   0.01252   0.00494  -0.2057  0.1787  0.5259  -1.6042   0.0000   0.0000   0.0000   0.4056
   3.400   1.2779   0.01263   0.00504  -0.2055  0.1736  0.5296  -1.6253   0.0000   0.0000   0.0000   0.4041
   3.500   1.2881   0.01272   0.00512  -0.2053  0.1702  0.5326  -1.6467   0.0000   0.0000   0.0000   0.4025
   3.600   1.2988   0.01278   0.00520  -0.2053  0.1691  0.5384  -1.6687   0.0000   0.0000   0.0000   0.4010
   3.700   1.3094   0.01285   0.00529  -0.2052  0.1674  0.5465  -1.6907   0.0000   0.0000   0.0000   0.3995
   3.800   1.3198   0.01292   0.00538  -0.2051  0.1650  0.5544  -1.7212   0.0000   0.0000   0.0000   0.3981
   3.900   1.3299   0.01302   0.00550  -0.2049  0.1614  0.5591  -1.7534   0.0000   0.0000   0.0000   0.3966
   4.000   1.3374   0.01332   0.00571  -0.2043  0.1453  0.5649  -1.7817   0.0000   0.0000   0.0000   0.3951
   4.100   1.3470   0.01345   0.00585  -0.2040  0.1419  0.5750  -1.8135   0.0000   0.0000   0.0000   0.3937
   4.200   1.3565   0.01359   0.00598  -0.2038  0.1385  0.5848  -1.8453   0.0000   0.0000   0.0000   0.3923
   4.300   1.3658   0.01374   0.00611  -0.2035  0.1346  0.5929  -1.8768   0.0000   0.0000   0.0000   0.3909
   4.500   1.3847   0.01401   0.00637  -0.2029  0.1239  0.6073  -1.9410   0.0000   0.0000   0.0000   0.3882
   4.600   1.3946   0.01411   0.00648  -0.2027  0.1217  0.6137  -1.9741   0.0000   0.0000   0.0000   0.3868
   4.700   1.4038   0.01425   0.00662  -0.2024  0.1159  0.6189  -2.0062   0.0000   0.0000   0.0000   0.3855
   4.800   1.4096   0.01463   0.00690  -0.2015  0.1003  0.6230  -2.0329   0.0000   0.0000   0.0000   0.3841
   4.900   1.4173   0.01488   0.00709  -0.2009  0.0951  0.6267  -2.0626   0.0000   0.0000   0.0000   0.3828
   5.000   1.4255   0.01508   0.00725  -0.2004  0.0889  0.6295  -2.0933   0.0000   0.0000   0.0000   0.3815
   5.100   1.4348   0.01520   0.00738  -0.2001  0.0844  0.6356  -2.1258   0.0000   0.0000   0.0000   0.3802
   5.200   1.4444   0.01530   0.00751  -0.1998  0.0834  0.6415  -2.1596   0.0000   0.0000   0.0000   0.3789
   5.300   1.4538   0.01541   0.00763  -0.1995  0.0819  0.6465  -2.1930   0.0000   0.0000   0.0000   0.3777
   5.400   1.4630   0.01553   0.00776  -0.1992  0.0800  0.6510  -2.2262   0.0000   0.0000   0.0000   0.3764
   5.500   1.4719   0.01566   0.00789  -0.1988  0.0769  0.6549  -2.2591   0.0000   0.0000   0.0000   0.3752
   5.600   1.4785   0.01594   0.00814  -0.1980  0.0668  0.6579  -2.2883   0.0000   0.0000   0.0000   0.3739
   5.700   1.4866   0.01612   0.00829  -0.1975  0.0652  0.6604  -2.3199   0.0000   0.0000   0.0000   0.3727
   5.900   1.5028   0.01647   0.00860  -0.1965  0.0619  0.6689  -2.3836   0.0000   0.0000   0.0000   0.3702
   6.000   1.5108   0.01664   0.00877  -0.1960  0.0596  0.6730  -2.4151   0.0000   0.0000   0.0000   0.3690
   6.100   1.5180   0.01685   0.00900  -0.1953  0.0553  0.6770  -2.4454   0.0000   0.0000   0.0000   0.3678
   6.200   1.5260   0.01701   0.00917  -0.1948  0.0527  0.6812  -2.4769   0.0000   0.0000   0.0000   0.3666
   6.300   1.5341   0.01715   0.00931  -0.1942  0.0517  0.6852  -2.5102   0.0000   0.0000   0.0000   0.3655
   6.400   1.5417   0.01729   0.00946  -0.1936  0.0513  0.6888  -2.5438   0.0000   0.0000   0.0000   0.3643
   6.600   1.5550   0.01756   0.00978  -0.1920  0.0504  0.6975  -2.6076   0.0000   0.0000   0.0000   0.3618
   6.700   1.5620   0.01771   0.00995  -0.1913  0.0497  0.7026  -2.6402   0.0000   0.0000   0.0000   0.3607
   6.800   1.5692   0.01786   0.01012  -0.1906  0.0490  0.7075  -2.6730   0.0000   0.0000   0.0000   0.3595
   6.900   1.5763   0.01803   0.01030  -0.1899  0.0481  0.7124  -2.7058   0.0000   0.0000   0.0000   0.3583
   7.000   1.5833   0.01821   0.01049  -0.1892  0.0472  0.7172  -2.7384   0.0000   0.0000   0.0000   0.3572
   7.200   1.5966   0.01859   0.01090  -0.1877  0.0451  0.7284  -2.8033   0.0000   0.0000   0.0000   0.3549
   7.300   1.6029   0.01881   0.01113  -0.1869  0.0438  0.7352  -2.8353   0.0000   0.0000   0.0000   0.3538
   7.400   1.6089   0.01904   0.01138  -0.1861  0.0425  0.7420  -2.8669   0.0000   0.0000   0.0000   0.3527
   7.500   1.6148   0.01929   0.01162  -0.1852  0.0411  0.7483  -2.8982   0.0000   0.0000   0.0000   0.3516
   7.600   1.6211   0.01951   0.01187  -0.1845  0.0396  0.7553  -2.9300   0.0000   0.0000   0.0000   0.3505
   7.700   1.6277   0.01972   0.01210  -0.1837  0.0383  0.7633  -2.9622   0.0000   0.0000   0.0000   0.3494
   7.800   1.6345   0.01991   0.01231  -0.1831  0.0380  0.7714  -2.9964   0.0000   0.0000   0.0000   0.3484
   8.000   1.6477   0.02031   0.01275  -0.1817  0.0370  0.7883  -3.0649   0.0000   0.0000   0.0000   0.3463
   8.100   1.6542   0.02053   0.01299  -0.1810  0.0363  0.7980  -3.0993   0.0000   0.0000   0.0000   0.3452
   8.200   1.6603   0.02076   0.01323  -0.1802  0.0353  0.8071  -3.1339   0.0000   0.0000   0.0000   0.3442
   8.300   1.6658   0.02103   0.01352  -0.1794  0.0332  0.8180  -3.1688   0.0000   0.0000   0.0000   0.3432
   8.400   1.6658   0.02163   0.01407  -0.1777  0.0262  0.8291  -3.2029   0.0000   0.0000   0.0000   0.3420
   8.500   1.6683   0.02209   0.01452  -0.1765  0.0225  0.8429  -3.2236   0.0000   0.0000   0.0000   0.3409
   8.600   1.6710   0.02253   0.01496  -0.1753  0.0183  0.8604  -3.2303   0.0000   0.0000   0.0000   0.3398
   8.700   1.6829   0.02229   0.01492  -0.1753  0.0255  0.8948  -3.2983   0.0000   0.0000   0.0000   0.3389
   8.800   1.6823   0.02256   0.01524  -0.1734  0.0235  1.0005  -3.3158   0.0000   0.0000   0.0000   0.3377
   8.900   1.6850   0.02306   0.01571  -0.1723  0.0202  1.0005  -3.3264   0.0000   0.0000   0.0000   0.3366
   9.000   1.6891   0.02347   0.01611  -0.1713  0.0170  1.0005  -3.3427   0.0000   0.0000   0.0000   0.3357
   9.100   1.6942   0.02382   0.01646  -0.1705  0.0158  1.0005  -3.3716   0.0000   0.0000   0.0000   0.3347
   9.200   1.6869   0.02502   0.01764  -0.1681  0.0055  1.0005  -3.3845   0.0000   0.0000   0.0000   0.3335
   9.300   1.6902   0.02552   0.01815  -0.1672  0.0043  1.0005  -3.4140   0.0000   0.0000   0.0000   0.3326
   9.400   1.6937   0.02602   0.01865  -0.1663  0.0039  1.0005  -3.4440   0.0000   0.0000   0.0000   0.3317
   9.500   1.6985   0.02643   0.01907  -0.1655  0.0034  1.0005  -3.4718   0.0000   0.0000   0.0000   0.3308
   9.600   1.7038   0.02681   0.01946  -0.1649  0.0027  1.0005  -3.4982   0.0000   0.0000   0.0000   0.3299
   9.700   1.7087   0.02722   0.01989  -0.1642  0.0024  1.0005  -3.5273   0.0000   0.0000   0.0000   0.3290
   9.800   1.7132   0.02768   0.02036  -0.1634  0.0022  1.0005  -3.5563   0.0000   0.0000   0.0000   0.3281
   9.900   1.7176   0.02815   0.02085  -0.1627  0.0021  1.0005  -3.5852   0.0000   0.0000   0.0000   0.3273
  10.000   1.7221   0.02861   0.02133  -0.1620  0.0021  1.0005  -3.6196   0.0000   0.0000   0.0000   0.3264
  10.100   1.7267   0.02907   0.02181  -0.1614  0.0020  1.0005  -3.6562   0.0000   0.0000   0.0000   0.3256
  10.200   1.7311   0.02955   0.02231  -0.1607  0.0020  1.0005  -3.6926   0.0000   0.0000   0.0000   0.3248
  10.300   1.7353   0.03004   0.02283  -0.1600  0.0020  1.0005  -3.7289   0.0000   0.0000   0.0000   0.3239
  10.400   1.7395   0.03054   0.02335  -0.1593  0.0019  1.0005  -3.7655   0.0000   0.0000   0.0000   0.3231
  10.500   1.7439   0.03104   0.02387  -0.1587  0.0019  1.0005  -3.8025   0.0000   0.0000   0.0000   0.3223
  10.600   1.7480   0.03156   0.02441  -0.1580  0.0019  1.0005  -3.8393   0.0000   0.0000   0.0000   0.3215
  10.700   1.7518   0.03211   0.02499  -0.1574  0.0019  1.0005  -3.8751   0.0000   0.0000   0.0000   0.3208
  10.800   1.7556   0.03267   0.02558  -0.1567  0.0019  1.0005  -3.9109   0.0000   0.0000   0.0000   0.3200
  10.900   1.7592   0.03322   0.02616  -0.1560  0.0019  1.0005  -3.9467   0.0000   0.0000   0.0000   0.3192
  11.000   1.7629   0.03378   0.02674  -0.1554  0.0019  1.0005  -3.9825   0.0000   0.0000   0.0000   0.3184
  11.100   1.7662   0.03437   0.02736  -0.1547  0.0019  1.0005  -4.0174   0.0000   0.0000   0.0000   0.3177
  11.200   1.7692   0.03501   0.02803  -0.1540  0.0019  1.0005  -4.0515   0.0000   0.0000   0.0000   0.3170
  11.300   1.7723   0.03564   0.02869  -0.1533  0.0019  1.0005  -4.0858   0.0000   0.0000   0.0000   0.3162
  11.400   1.7754   0.03628   0.02938  -0.1527  0.0019  1.0005  -4.1197   0.0000   0.0000   0.0000   0.3155
  11.500   1.7785   0.03692   0.03005  -0.1520  0.0019  1.0005  -4.1542   0.0000   0.0000   0.0000   0.3148
  11.600   1.7810   0.03763   0.03079  -0.1514  0.0019  1.0005  -4.1871   0.0000   0.0000   0.0000   0.3141
  11.700   1.7834   0.03836   0.03155  -0.1507  0.0019  1.0005  -4.2197   0.0000   0.0000   0.0000   0.3134
  11.800   1.7860   0.03908   0.03230  -0.1501  0.0019  1.0005  -4.2529   0.0000   0.0000   0.0000   0.3127
  11.900   1.7887   0.03979   0.03304  -0.1495  0.0020  1.0005  -4.2864   0.0000   0.0000   0.0000   0.3120
  12.000   1.7914   0.04050   0.03378  -0.1489  0.0020  1.0005  -4.3321   0.0000   0.0000   0.0000   0.3113
  12.100   1.7934   0.04130   0.03461  -0.1482  0.0020  1.0005  -4.3924   0.0000   0.0000   0.0000   0.3107
  12.200   1.7951   0.04214   0.03548  -0.1476  0.0020  1.0005  -4.4511   0.0000   0.0000   0.0000   0.3100
  12.300   1.7970   0.04296   0.03633  -0.1470  0.0020  1.0005  -4.5112   0.0000   0.0000   0.0000   0.3094
  12.400   1.7991   0.04377   0.03717  -0.1464  0.0020  1.0005  -4.5723   0.0000   0.0000   0.0000   0.3087
  12.500   1.8011   0.04458   0.03803  -0.1459  0.0021  1.0005  -4.6333   0.0000   0.0000   0.0000   0.3081
  12.600   1.8023   0.04550   0.03897  -0.1453  0.0021  1.0005  -4.6907   0.0000   0.0000   0.0000   0.3075
  12.700   1.8030   0.04647   0.03998  -0.1447  0.0021  1.0005  -4.7459   0.0000   0.0000   0.0000   0.3069
  12.800   1.8041   0.04741   0.04096  -0.1441  0.0021  1.0005  -4.8031   0.0000   0.0000   0.0000   0.3063
  12.900   1.8054   0.04832   0.04190  -0.1436  0.0021  1.0005  -4.8615   0.0000   0.0000   0.0000   0.3057
  13.000   1.8068   0.04924   0.04285  -0.1430  0.0022  1.0005  -4.9203   0.0000   0.0000   0.0000   0.3052
  13.100   1.8080   0.05017   0.04382  -0.1425  0.0022  1.0005  -4.9786   0.0000   0.0000   0.0000   0.3046
  13.200   1.8082   0.05124   0.04493  -0.1420  0.0022  1.0005  -5.0317   0.0000   0.0000   0.0000   0.3041
  13.300   1.8082   0.05234   0.04606  -0.1415  0.0022  1.0005  -5.0839   0.0000   0.0000   0.0000   0.3035
  13.400   1.8086   0.05339   0.04715  -0.1410  0.0023  1.0005  -5.1381   0.0000   0.0000   0.0000   0.3030
  13.500   1.8090   0.05441   0.04821  -0.1404  0.0023  1.0005  -5.1926   0.0000   0.0000   0.0000   0.3025
  13.600   1.8094   0.05544   0.04927  -0.1399  0.0023  1.0005  -5.2465   0.0000   0.0000   0.0000   0.3019
  13.700   1.8087   0.05662   0.05049  -0.1394  0.0024  1.0005  -5.2952   0.0000   0.0000   0.0000   0.3015
  13.800   1.8077   0.05788   0.05179  -0.1390  0.0024  1.0005  -5.3417   0.0000   0.0000   0.0000   0.3010
  13.900   1.8074   0.05905   0.05300  -0.1385  0.0024  1.0005  -5.3917   0.0000   0.0000   0.0000   0.3006
  14.000   1.8073   0.06019   0.05418  -0.1381  0.0025  1.0005  -5.4431   0.0000   0.0000   0.0000   0.3001
  14.100   1.8073   0.06134   0.05537  -0.1377  0.0025  1.0005  -5.4940   0.0000   0.0000   0.0000   0.2996
  14.200   1.8072   0.06251   0.05657  -0.1373  0.0025  1.0005  -5.5441   0.0000   0.0000   0.0000   0.2992
  14.300   1.8058   0.06389   0.05799  -0.1369  0.0026  1.0005  -5.5869   0.0000   0.0000   0.0000   0.2988
  14.400   1.8043   0.06529   0.05944  -0.1366  0.0026  1.0005  -5.6281   0.0000   0.0000   0.0000   0.2984
  14.500   1.8036   0.06659   0.06077  -0.1363  0.0027  1.0005  -5.6727   0.0000   0.0000   0.0000   0.2980
  14.600   1.8033   0.06784   0.06206  -0.1360  0.0027  1.0005  -5.7182   0.0000   0.0000   0.0000   0.2976
  14.700   1.8032   0.06908   0.06333  -0.1357  0.0028  1.0005  -5.7631   0.0000   0.0000   0.0000   0.2972
  14.800   1.8023   0.07043   0.06471  -0.1354  0.0029  1.0005  -5.8027   0.0000   0.0000   0.0000   0.2969
  14.900   1.8006   0.07193   0.06627  -0.1352  0.0029  1.0005  -5.8402   0.0000   0.0000   0.0000   0.2966
  15.000   1.8000   0.07328   0.06765  -0.1350  0.0030  1.0005  -5.8797   0.0000   0.0000   0.0000   0.2963
  15.100   1.8000   0.07453   0.06893  -0.1348  0.0031  1.0005  -5.9213   0.0000   0.0000   0.0000   0.2959
  15.200   1.8003   0.07574   0.07017  -0.1346  0.0032  1.0005  -5.9639   0.0000   0.0000   0.0000   0.2955
  15.300   1.8008   0.07694   0.07140  -0.1344  0.0033  1.0005  -6.0071   0.0000   0.0000   0.0000   0.2951
  15.400   1.8011   0.07817   0.07266  -0.1342  0.0033  1.0005  -6.0495   0.0000   0.0000   0.0000   0.2948
  15.500   1.7995   0.07971   0.07424  -0.1341  0.0034  1.0005  -6.0824   0.0000   0.0000   0.0000   0.2945
  15.600   1.7982   0.08121   0.07577  -0.1340  0.0035  1.0005  -6.1167   0.0000   0.0000   0.0000   0.2943
  15.700   1.7979   0.08256   0.07716  -0.1339  0.0036  1.0005  -6.1561   0.0000   0.0000   0.0000   0.2940
  15.800   1.7985   0.08377   0.07841  -0.1338  0.0037  1.0005  -6.2000   0.0000   0.0000   0.0000   0.2936
  15.900   1.7991   0.08498   0.07967  -0.1337  0.0038  1.0005  -6.2435   0.0000   0.0000   0.0000   0.2933
  16.000   1.7993   0.08626   0.08099  -0.1336  0.0039  1.0005  -6.2843   0.0000   0.0000   0.0000   0.2930
  16.100   1.7969   0.08794   0.08273  -0.1337  0.0040  1.0005  -6.3123   0.0000   0.0000   0.0000   0.2929
  16.200   1.7955   0.08950   0.08434  -0.1337  0.0041  1.0005  -6.3437   0.0000   0.0000   0.0000   0.2927
  16.300   1.7946   0.09095   0.08584  -0.1337  0.0042  1.0005  -6.3765   0.0000   0.0000   0.0000   0.2924
  16.400   1.7933   0.09244   0.08739  -0.1336  0.0043  1.0005  -6.4053   0.0000   0.0000   0.0000   0.2922
  16.500   1.7910   0.09406   0.08909  -0.1336  0.0044  1.0005  -6.4239   0.0000   0.0000   0.0000   0.2920
  16.600   1.7838   0.09645   0.09163  -0.1337  0.0047  1.0005  -6.3696   0.0000   0.0000   0.0000   0.2921
  16.700   1.7803   0.09827   0.09349  -0.1339  0.0048  1.0005  -6.3998   0.0000   0.0000   0.0000   0.2921
  16.800   1.7782   0.09987   0.09513  -0.1340  0.0049  1.0005  -6.4383   0.0000   0.0000   0.0000   0.2920
  16.900   1.7766   0.10139   0.09669  -0.1340  0.0050  1.0005  -6.4796   0.0000   0.0000   0.0000   0.2918
  17.000   1.7751   0.10291   0.09824  -0.1341  0.0051  1.0005  -6.5211   0.0000   0.0000   0.0000   0.2917
  17.100   1.7733   0.10450   0.09986  -0.1343  0.0052  1.0005  -6.5605   0.0000   0.0000   0.0000   0.2916
  17.200   1.7686   0.10660   0.10201  -0.1347  0.0053  1.0005  -6.5810   0.0000   0.0000   0.0000   0.2917
  17.300   1.7654   0.10845   0.10390  -0.1349  0.0054  1.0005  -6.6104   0.0000   0.0000   0.0000   0.2918
  17.400   1.7631   0.11014   0.10563  -0.1352  0.0055  1.0005  -6.6451   0.0000   0.0000   0.0000   0.2918
  17.500   1.7610   0.11179   0.10733  -0.1354  0.0056  1.0005  -6.6812   0.0000   0.0000   0.0000   0.2917
  17.600   1.7587   0.11349   0.10906  -0.1357  0.0057  1.0005  -6.7153   0.0000   0.0000   0.0000   0.2917
  17.700   1.7558   0.11529   0.11091  -0.1360  0.0059  1.0005  -6.7449   0.0000   0.0000   0.0000   0.2917
  17.800   1.7501   0.11763   0.11330  -0.1366  0.0060  1.0005  -6.7548   0.0000   0.0000   0.0000   0.2921
  17.900   1.7457   0.11971   0.11544  -0.1371  0.0061  1.0005  -6.7729   0.0000   0.0000   0.0000   0.2923
  18.000   1.7422   0.12166   0.11743  -0.1375  0.0062  1.0005  -6.7955   0.0000   0.0000   0.0000   0.2925
  18.100   1.7386   0.12361   0.11944  -0.1380  0.0064  1.0005  -6.8163   0.0000   0.0000   0.0000   0.2926
  18.200   1.7335   0.12584   0.12174  -0.1386  0.0066  1.0005  -6.8261   0.0000   0.0000   0.0000   0.2930
  18.300   1.7276   0.12826   0.12421  -0.1394  0.0068  1.0005  -6.8284   0.0000   0.0000   0.0000   0.2934
  18.400   1.7244   0.13020   0.12622  -0.1399  0.0071  1.0005  -6.8415   0.0000   0.0000   0.0000   0.2936
  18.500   1.7334   0.13028   0.12638  -0.1395  0.0088  1.0005  -6.8728   0.0000   0.0000   0.0000   0.2926
  18.600   1.7309   0.13211   0.12828  -0.1400  0.0092  1.0005  -6.8771   0.0000   0.0000   0.0000   0.2927
  18.700   1.7265   0.13421   0.13044  -0.1406  0.0094  1.0005  -6.8741   0.0000   0.0000   0.0000   0.2930
  18.800   1.7209   0.13649   0.13279  -0.1412  0.0096  1.0005  -6.8649   0.0000   0.0000   0.0000   0.2934
  18.900   1.7136   0.13916   0.13553  -0.1422  0.0097  1.0005  -6.8468   0.0000   0.0000   0.0000   0.2940
  19.000   1.7061   0.14186   0.13830  -0.1432  0.0097  1.0005  -6.8263   0.0000   0.0000   0.0000   0.2947
  19.100   1.6987   0.14446   0.14097  -0.1442  0.0098  1.0005  -6.8029   0.0000   0.0000   0.0000   0.2954


