xflr5 v6.61

 Calculated polar for: WORTMANN FX 049-915 AIRFOIL

 1 1 Reynolds number fixed          Mach number fixed         

 xtrf =   1.000 (top)        1.000 (bottom)
 Mach =   0.000     Re =     0.300 e 6     Ncrit =   9.000

  alpha     CL        CD       CDp       Cm    Top Xtr Bot Xtr   Cpmin    Chinge    XCp    
 ------- -------- --------- --------- -------- ------- ------- -------- --------- ---------
 -10.000   0.0386   0.10111   0.09823  -0.1048  0.7131  0.0286  -1.3247   0.0000   0.0000   0.0000   3.1497
  -9.900   0.0422   0.10081   0.09793  -0.1043  0.7104  0.0300  -1.2737   0.0000   0.0000   0.0000   2.8882
  -9.800   0.0448   0.10050   0.09762  -0.1038  0.7078  0.0315  -1.2333   0.0000   0.0000   0.0000   2.7228
  -9.700   0.0468   0.10016   0.09729  -0.1033  0.7052  0.0331  -1.1999   0.0000   0.0000   0.0000   2.6074
  -9.600   0.0482   0.09981   0.09695  -0.1029  0.7027  0.0348  -1.1722   0.0000   0.0000   0.0000   2.5276
  -9.500   0.0492   0.09946   0.09660  -0.1025  0.7002  0.0366  -1.1488   0.0000   0.0000   0.0000   2.4718
  -9.400   0.0499   0.09910   0.09624  -0.1022  0.6979  0.0385  -1.1289   0.0000   0.0000   0.0000   2.4335
  -9.300   0.0502   0.09875   0.09589  -0.1018  0.6955  0.0405  -1.1119   0.0000   0.0000   0.0000   2.4088
  -9.200   0.0503   0.09840   0.09555  -0.1015  0.6932  0.0426  -1.0973   0.0000   0.0000   0.0000   2.3951
  -9.100   0.0503   0.09809   0.09524  -0.1012  0.6910  0.0450  -1.0847   0.0000   0.0000   0.0000   2.3892
  -9.000   0.0502   0.09782   0.09498  -0.1009  0.6889  0.0475  -1.0731   0.0000   0.0000   0.0000   2.3840
  -8.900   0.0502   0.09767   0.09483  -0.1006  0.6867  0.0504  -1.0624   0.0000   0.0000   0.0000   2.3785
  -8.800   0.0506   0.09777   0.09493  -0.1004  0.6846  0.0536  -1.0505   0.0000   0.0000   0.0000   2.3581
  -8.700   0.0524   0.09867   0.09584  -0.1002  0.6823  0.0579  -1.0296   0.0000   0.0000   0.0000   2.2772
  -8.600   0.0667   0.10351   0.10068  -0.0996  0.6794  0.0648  -0.9314   0.0000   0.0000   0.0000   1.8325
  -8.500   0.0681   0.10367   0.10084  -0.0991  0.6775  0.0654  -0.9186   0.0000   0.0000   0.0000   1.7936
  -7.900  -0.0028   0.11710   0.11436  -0.0853  0.6293  0.0648  -0.9843   0.0000   0.0000   0.0000  -32.0910
  -7.800  -0.0024   0.11736   0.11462  -0.0851  0.6293  0.0654  -0.9735   0.0000   0.0000   0.0000  -37.5391
  -7.700  -0.0032   0.11725   0.11452  -0.0849  0.6292  0.0657  -0.9699   0.0000   0.0000   0.0000  -27.7277
  -7.600  -0.0047   0.11699   0.11427  -0.0847  0.6292  0.0659  -0.9694   0.0000   0.0000   0.0000  -18.8763
  -7.500  -0.0067   0.11666   0.11395  -0.0845  0.6292  0.0661  -0.9709   0.0000   0.0000   0.0000  -13.1720
  -7.400  -0.0091   0.11628   0.11358  -0.0843  0.6291  0.0662  -0.9738   0.0000   0.0000   0.0000  -9.5498
  -7.300  -0.0120   0.11588   0.11319  -0.0840  0.6291  0.0663  -0.9778   0.0000   0.0000   0.0000  -7.1512
  -7.200  -0.0154   0.11547   0.11279  -0.0837  0.6290  0.0663  -0.9830   0.0000   0.0000   0.0000  -5.4867
  -7.100  -0.0194   0.11507   0.11240  -0.0834  0.6290  0.0664  -0.9894   0.0000   0.0000   0.0000  -4.2817
  -7.000  -0.0242   0.11468   0.11202  -0.0830  0.6289  0.0664  -0.9969   0.0000   0.0000   0.0000  -3.3789
  -6.900  -0.0297   0.11432   0.11167  -0.0826  0.6289  0.0665  -1.0059   0.0000   0.0000   0.0000  -2.6827
  -6.800  -0.0362   0.11404   0.11139  -0.0820  0.6288  0.0665  -1.0162   0.0000   0.0000   0.0000  -2.1411
  -6.700  -0.0430   0.11381   0.11116  -0.0812  0.6287  0.0665  -1.0266   0.0000   0.0000   0.0000  -1.7388
  -6.600  -0.0499   0.11358   0.11093  -0.0803  0.6286  0.0665  -1.0365   0.0000   0.0000   0.0000  -1.4434
  -6.500  -0.0561   0.11328   0.11063  -0.0794  0.6286  0.0666  -1.0455   0.0000   0.0000   0.0000  -1.2394
  -6.400  -0.0605   0.11279   0.11013  -0.0788  0.6285  0.0666  -1.0529   0.0000   0.0000   0.0000  -1.1212
  -6.300  -0.0646   0.11227   0.10960  -0.0783  0.6284  0.0666  -1.0598   0.0000   0.0000   0.0000  -1.0257
  -6.200  -0.0685   0.11174   0.10907  -0.0778  0.6283  0.0667  -1.0664   0.0000   0.0000   0.0000  -0.9434
  -6.100  -0.0723   0.11118   0.10851  -0.0773  0.6282  0.0667  -1.0728   0.0000   0.0000   0.0000  -0.8726
  -6.000  -0.0760   0.11061   0.10792  -0.0767  0.6282  0.0668  -1.0789   0.0000   0.0000   0.0000  -0.8093
  -5.900  -0.0798   0.11003   0.10733  -0.0761  0.6281  0.0668  -1.0846   0.0000   0.0000   0.0000  -0.7505
  -5.800  -0.0836   0.10936   0.10665  -0.0754  0.6280  0.0668  -1.0912   0.0000   0.0000   0.0000  -0.6957
  -5.700  -0.0874   0.10863   0.10591  -0.0747  0.6279  0.0668  -1.0979   0.0000   0.0000   0.0000  -0.6463
  -5.600  -0.0910   0.10787   0.10514  -0.0740  0.6278  0.0668  -1.1045   0.0000   0.0000   0.0000  -0.6019
  -5.500  -0.0945   0.10708   0.10433  -0.0732  0.6277  0.0668  -1.1108   0.0000   0.0000   0.0000  -0.5619
  -5.400  -0.0979   0.10625   0.10349  -0.0725  0.6275  0.0668  -1.1170   0.0000   0.0000   0.0000  -0.5258
  -5.300  -0.1011   0.10538   0.10260  -0.0717  0.6274  0.0667  -1.1230   0.0000   0.0000   0.0000  -0.4931
  -5.200  -0.1041   0.10447   0.10168  -0.0710  0.6273  0.0667  -1.1289   0.0000   0.0000   0.0000  -0.4633
  -5.100  -0.1070   0.10352   0.10071  -0.0702  0.6271  0.0667  -1.1346   0.0000   0.0000   0.0000  -0.4360
  -5.000  -0.1098   0.10253   0.09970  -0.0693  0.6270  0.0667  -1.1402   0.0000   0.0000   0.0000  -0.4105
  -4.900  -0.1126   0.10150   0.09865  -0.0685  0.6268  0.0666  -1.1457   0.0000   0.0000   0.0000  -0.3863
  -4.800  -0.1153   0.10042   0.09755  -0.0676  0.6266  0.0666  -1.1511   0.0000   0.0000   0.0000  -0.3631
  -4.700  -0.1179   0.09929   0.09639  -0.0667  0.6264  0.0666  -1.1567   0.0000   0.0000   0.0000  -0.3412
  -4.600  -0.1211   0.09815   0.09522  -0.0656  0.6261  0.0665  -1.1625   0.0000   0.0000   0.0000  -0.3163
  -4.500  -0.1246   0.09695   0.09400  -0.0644  0.6258  0.0664  -1.1687   0.0000   0.0000   0.0000  -0.2902
  -4.400  -0.1280   0.09565   0.09267  -0.0632  0.6254  0.0664  -1.1754   0.0000   0.0000   0.0000  -0.2660
  -4.300  -0.1310   0.09418   0.09117  -0.0620  0.6250  0.0663  -1.1829   0.0000   0.0000   0.0000  -0.2450
  -4.200  -0.1335   0.09248   0.08943  -0.0610  0.6245  0.0661  -1.1920   0.0000   0.0000   0.0000  -0.2272
  -4.100  -0.1356   0.09045   0.08736  -0.0600  0.6238  0.0658  -1.2046   0.0000   0.0000   0.0000  -0.2120
  -4.000  -0.1380   0.08786   0.08471  -0.0590  0.6230  0.0654  -1.2262   0.0000   0.0000   0.0000  -0.1969
  -3.900  -0.1431   0.08410   0.08086  -0.0581  0.6219  0.0641  -1.2753   0.0000   0.0000   0.0000  -0.1742
  -3.800  -0.1521   0.07895   0.07557  -0.0570  0.6207  0.0608  -1.3665   0.0000   0.0000   0.0000  -0.1414
  -3.700  -0.1577   0.07431   0.07078  -0.0557  0.6192  0.0564  -1.4500   0.0000   0.0000   0.0000  -0.1192
  -3.600  -0.1594   0.07031   0.06661  -0.0543  0.6175  0.0517  -1.5233   0.0000   0.0000   0.0000  -0.1060
  -3.500  -0.1587   0.06662   0.06274  -0.0527  0.6156  0.0471  -1.5978   0.0000   0.0000   0.0000  -0.0972
  -3.400  -0.1573   0.06316   0.05907  -0.0508  0.6135  0.0431  -1.6751   0.0000   0.0000   0.0000  -0.0884
  -3.300  -0.1560   0.05986   0.05550  -0.0486  0.6113  0.0396  -1.7579   0.0000   0.0000   0.0000  -0.0771
  -3.200  -0.1549   0.05665   0.05199  -0.0460  0.6089  0.0367  -1.8487   0.0000   0.0000   0.0000  -0.0629
  -3.100  -0.1537   0.05349   0.04847  -0.0430  0.6064  0.0342  -1.9485   0.0000   0.0000   0.0000  -0.0461
  -3.000  -0.1520   0.05054   0.04517  -0.0400  0.6037  0.0322  -2.0484   0.0000   0.0000   0.0000  -0.0298
  -2.900  -0.1493   0.04801   0.04226  -0.0372  0.6007  0.0310  -2.1328   0.0000   0.0000   0.0000  -0.0157
  -2.800  -0.1450   0.04604   0.03997  -0.0348  0.5974  0.0307  -2.1855   0.0000   0.0000   0.0000  -0.0069
  -2.700  -0.1395   0.04480   0.03855  -0.0329  0.5940  0.0322  -2.1975   0.0000   0.0000   0.0000  -0.0038
  -2.600  -0.1323   0.04529   0.03926  -0.0323  0.5909  0.0421  -2.1153   0.0000   0.0000   0.0000  -0.0123
  -2.500  -0.1240   0.04624   0.04041  -0.0327  0.5869  0.0491  -1.9809   0.0000   0.0000   0.0000  -0.0318
   1.800   0.3953   0.03639   0.02960  -0.0333  0.4791  0.1546  -1.0546   0.0000   0.0000   0.0000   0.3318
   1.900   0.4072   0.03625   0.02946  -0.0333  0.4783  0.1489  -1.0670   0.0000   0.0000   0.0000   0.3291
   2.100   0.4349   0.03522   0.02793  -0.0327  0.4766  0.1282  -1.0935   0.0000   0.0000   0.0000   0.3223
   2.200   0.4469   0.03496   0.02759  -0.0324  0.4757  0.1210  -1.1057   0.0000   0.0000   0.0000   0.3196
   2.300   0.4587   0.03471   0.02729  -0.0322  0.4748  0.1144  -1.1177   0.0000   0.0000   0.0000   0.3171
   2.400   0.4701   0.03448   0.02700  -0.0320  0.4739  0.1086  -1.1296   0.0000   0.0000   0.0000   0.3147
   2.500   0.4809   0.03427   0.02671  -0.0318  0.4731  0.1042  -1.1411   0.0000   0.0000   0.0000   0.3126
   2.600   0.4914   0.03407   0.02645  -0.0316  0.4722  0.1008  -1.1524   0.0000   0.0000   0.0000   0.3106
   2.700   0.5017   0.03388   0.02621  -0.0314  0.4713  0.0980  -1.1636   0.0000   0.0000   0.0000   0.3088
   2.800   0.5119   0.03372   0.02600  -0.0312  0.4704  0.0956  -1.1747   0.0000   0.0000   0.0000   0.3070
   2.900   0.5221   0.03356   0.02581  -0.0310  0.4695  0.0935  -1.1857   0.0000   0.0000   0.0000   0.3053
   3.000   0.5321   0.03342   0.02564  -0.0308  0.4685  0.0917  -1.1966   0.0000   0.0000   0.0000   0.3037
   3.100   0.5420   0.03329   0.02548  -0.0306  0.4676  0.0901  -1.2074   0.0000   0.0000   0.0000   0.3022
   3.200   0.5518   0.03317   0.02532  -0.0304  0.4666  0.0887  -1.2181   0.0000   0.0000   0.0000   0.3006
   3.300   0.5615   0.03306   0.02518  -0.0302  0.4656  0.0874  -1.2286   0.0000   0.0000   0.0000   0.2992
   3.400   0.5710   0.03295   0.02505  -0.0299  0.4646  0.0862  -1.2391   0.0000   0.0000   0.0000   0.2977
   3.500   0.5804   0.03285   0.02492  -0.0297  0.4636  0.0852  -1.2494   0.0000   0.0000   0.0000   0.2963
   3.600   0.5897   0.03276   0.02480  -0.0294  0.4626  0.0841  -1.2596   0.0000   0.0000   0.0000   0.2949
   3.700   0.5989   0.03268   0.02469  -0.0291  0.4615  0.0832  -1.2698   0.0000   0.0000   0.0000   0.2935
   3.800   0.6081   0.03260   0.02458  -0.0288  0.4604  0.0822  -1.2799   0.0000   0.0000   0.0000   0.2922
   4.500   0.5732   0.03852   0.03053  -0.0187  0.4561  0.0787  -1.2333   0.0000   0.0000   0.0000   0.2762
   4.600   0.5751   0.03898   0.03098  -0.0180  0.4550  0.0784  -1.2338   0.0000   0.0000   0.0000   0.2747
   4.700   0.5784   0.03934   0.03132  -0.0174  0.4537  0.0780  -1.2360   0.0000   0.0000   0.0000   0.2734
   4.800   0.5827   0.03962   0.03159  -0.0169  0.4523  0.0777  -1.2393   0.0000   0.0000   0.0000   0.2721
   4.900   0.5876   0.03986   0.03182  -0.0164  0.4507  0.0775  -1.2433   0.0000   0.0000   0.0000   0.2709
   5.000   0.5931   0.04007   0.03201  -0.0160  0.4490  0.0773  -1.2480   0.0000   0.0000   0.0000   0.2698
   5.100   0.5989   0.04024   0.03217  -0.0156  0.4471  0.0772  -1.2531   0.0000   0.0000   0.0000   0.2687
   5.200   0.6051   0.04039   0.03230  -0.0152  0.4451  0.0771  -1.2586   0.0000   0.0000   0.0000   0.2677
   5.300   0.6117   0.04051   0.03242  -0.0149  0.4429  0.0772  -1.2645   0.0000   0.0000   0.0000   0.2667
   5.400   0.6185   0.04061   0.03251  -0.0145  0.4406  0.0774  -1.2707   0.0000   0.0000   0.0000   0.2657
   5.500   0.6256   0.04069   0.03258  -0.0142  0.4380  0.0777  -1.2771   0.0000   0.0000   0.0000   0.2648
   5.600   0.6329   0.04075   0.03263  -0.0139  0.4353  0.0782  -1.2838   0.0000   0.0000   0.0000   0.2639
   5.700   0.6406   0.04079   0.03267  -0.0136  0.4324  0.0791  -1.2908   0.0000   0.0000   0.0000   0.2630
   5.800   0.6483   0.04083   0.03271  -0.0133  0.4293  0.0803  -1.2975   0.0000   0.0000   0.0000   0.2621
   5.900   0.6562   0.04086   0.03274  -0.0130  0.4258  0.0823  -1.3039   0.0000   0.0000   0.0000   0.2613
   6.000   0.6648   0.04085   0.03272  -0.0127  0.4218  0.0858  -1.3104   0.0000   0.0000   0.0000   0.2605
   6.100   0.6742   0.04079   0.03267  -0.0125  0.4174  0.0908  -1.3169   0.0000   0.0000   0.0000   0.2597
   6.200   0.6839   0.04075   0.03264  -0.0123  0.4129  0.0960  -1.3225   0.0000   0.0000   0.0000   0.2591
   6.300   0.6923   0.04085   0.03275  -0.0120  0.4089  0.1010  -1.3253   0.0000   0.0000   0.0000   0.2584
   6.400   0.6984   0.04114   0.03304  -0.0116  0.4059  0.1057  -1.3251   0.0000   0.0000   0.0000   0.2576
   6.500   0.7026   0.04161   0.03348  -0.0111  0.4034  0.1107  -1.3224   0.0000   0.0000   0.0000   0.2567
   6.600   0.7050   0.04220   0.03407  -0.0106  0.4015  0.1150  -1.3176   0.0000   0.0000   0.0000   0.2558
   6.700   0.7056   0.04295   0.03483  -0.0100  0.3998  0.1181  -1.3101   0.0000   0.0000   0.0000   0.2547
   6.800   0.7054   0.04376   0.03566  -0.0094  0.3984  0.1209  -1.3018   0.0000   0.0000   0.0000   0.2537
   6.900   0.7064   0.04449   0.03641  -0.0088  0.3973  0.1230  -1.2958   0.0000   0.0000   0.0000   0.2528
   7.000   0.7068   0.04529   0.03724  -0.0083  0.3963  0.1250  -1.2888   0.0000   0.0000   0.0000   0.2520
   7.100   0.7041   0.04639   0.03836  -0.0077  0.3954  0.1264  -1.2762   0.0000   0.0000   0.0000   0.2510
   7.200   0.6942   0.04821   0.04018  -0.0069  0.3946  0.1262  -1.2582   0.0000   0.0000   0.0000   0.2499
   7.300   0.6703   0.05132   0.04326  -0.0058  0.3940  0.1231  -1.2243   0.0000   0.0000   0.0000   0.2484
   7.400   0.6574   0.05351   0.04545  -0.0051  0.3938  0.1223  -1.2055   0.0000   0.0000   0.0000   0.2475
   7.500   0.6458   0.05567   0.04760  -0.0046  0.3937  0.1217  -1.1881   0.0000   0.0000   0.0000   0.2467
   7.600   0.6349   0.05782   0.04976  -0.0042  0.3938  0.1212  -1.1712   0.0000   0.0000   0.0000   0.2461
   7.700   0.6245   0.05995   0.05190  -0.0039  0.3941  0.1208  -1.1546   0.0000   0.0000   0.0000   0.2456
   7.800   0.6145   0.06207   0.05402  -0.0037  0.3945  0.1204  -1.1385   0.0000   0.0000   0.0000   0.2452
   7.900   0.6050   0.06415   0.05611  -0.0035  0.3951  0.1201  -1.1228   0.0000   0.0000   0.0000   0.2449
   8.000   0.5960   0.06619   0.05816  -0.0034  0.3958  0.1199  -1.1075   0.0000   0.0000   0.0000   0.2447
   8.100   0.5876   0.06817   0.06016  -0.0033  0.3967  0.1198  -1.0929   0.0000   0.0000   0.0000   0.2445
   8.200   0.5795   0.07003   0.06203  -0.0032  0.3975  0.1199  -1.0788   0.0000   0.0000   0.0000   0.2443
   8.300   0.5718   0.07174   0.06375  -0.0031  0.3983  0.1200  -1.0656   0.0000   0.0000   0.0000   0.2440
   8.400   0.5649   0.07335   0.06538  -0.0030  0.3992  0.1204  -1.0534   0.0000   0.0000   0.0000   0.2438
   8.500   0.5588   0.07484   0.06689  -0.0029  0.4000  0.1209  -1.0423   0.0000   0.0000   0.0000   0.2436
   8.600   0.5537   0.07621   0.06828  -0.0028  0.4009  0.1216  -1.0326   0.0000   0.0000   0.0000   0.2433
   8.700   0.5497   0.07747   0.06957  -0.0028  0.4017  0.1225  -1.0243   0.0000   0.0000   0.0000   0.2431
   8.800   0.5468   0.07862   0.07074  -0.0027  0.4025  0.1237  -1.0176   0.0000   0.0000   0.0000   0.2429
   8.900   0.5451   0.07965   0.07181  -0.0027  0.4032  0.1251  -1.0126   0.0000   0.0000   0.0000   0.2427
   9.000   0.5447   0.08058   0.07277  -0.0027  0.4037  0.1267  -1.0095   0.0000   0.0000   0.0000   0.2426
   9.100   0.5459   0.08140   0.07363  -0.0027  0.4039  0.1287  -1.0086   0.0000   0.0000   0.0000   0.2424
   9.200   0.5488   0.08209   0.07436  -0.0027  0.4039  0.1310  -1.0102   0.0000   0.0000   0.0000   0.2422
   9.300   0.5542   0.08261   0.07494  -0.0027  0.4035  0.1338  -1.0156   0.0000   0.0000   0.0000   0.2420
   9.400   0.5646   0.08281   0.07519  -0.0027  0.4023  0.1376  -1.0290   0.0000   0.0000   0.0000   0.2419
   9.500   0.5811   0.08262   0.07507  -0.0028  0.4004  0.1426  -1.0522   0.0000   0.0000   0.0000   0.2417
   9.600   0.5978   0.08241   0.07494  -0.0029  0.3987  0.1489  -1.0759   0.0000   0.0000   0.0000   0.2417
   9.800   1.4094   0.01960   0.01211  -0.0535  0.2338  1.0000  -2.4757   0.0000   0.0000   0.0000   0.2733
   9.900   1.4001   0.02025   0.01271  -0.0508  0.2265  1.0000  -2.4769   0.0000   0.0000   0.0000   0.2714
  10.000   1.3903   0.02103   0.01346  -0.0485  0.2208  1.0000  -2.4766   0.0000   0.0000   0.0000   0.2698
  10.100   1.3802   0.02199   0.01443  -0.0466  0.2166  1.0000  -2.4748   0.0000   0.0000   0.0000   0.2685
  10.200   1.3695   0.02323   0.01570  -0.0453  0.2145  1.0000  -2.4708   0.0000   0.0000   0.0000   0.2676
  10.300   1.3590   0.02469   0.01722  -0.0444  0.2122  1.0000  -2.4662   0.0000   0.0000   0.0000   0.2669
  10.400   1.3477   0.02652   0.01913  -0.0440  0.2125  1.0000  -2.4589   0.0000   0.0000   0.0000   0.2667
  10.500   1.3348   0.02889   0.02169  -0.0442  0.2172  1.0000  -2.4466   0.0000   0.0000   0.0000   0.2668
  10.600   1.3200   0.03143   0.02447  -0.0442  0.2262  1.0000  -2.4299   0.0000   0.0000   0.0000   0.2670
  11.000   1.0747   0.06310   0.05767  -0.0417  0.3469  1.0000  -1.9578   0.0000   0.0000   0.0000   0.2716
  11.100   1.0651   0.06500   0.05959  -0.0415  0.3448  1.0000  -1.9503   0.0000   0.0000   0.0000   0.2716
  11.200   1.0558   0.06685   0.06145  -0.0414  0.3423  1.0000  -1.9432   0.0000   0.0000   0.0000   0.2715
  11.300   1.0472   0.06860   0.06322  -0.0412  0.3395  1.0000  -1.9376   0.0000   0.0000   0.0000   0.2715
  11.400   1.0407   0.07014   0.06478  -0.0412  0.3362  1.0000  -1.9365   0.0000   0.0000   0.0000   0.2715
  11.500   1.0357   0.07150   0.06614  -0.0411  0.3323  1.0000  -1.9383   0.0000   0.0000   0.0000   0.2714
  11.600   1.0321   0.07265   0.06730  -0.0410  0.3279  1.0000  -1.9437   0.0000   0.0000   0.0000   0.2713
  11.700   1.0301   0.07360   0.06827  -0.0409  0.3229  1.0000  -1.9524   0.0000   0.0000   0.0000   0.2710
  11.800   1.0293   0.07442   0.06909  -0.0409  0.3175  1.0000  -1.9638   0.0000   0.0000   0.0000   0.2707
  11.900   1.0292   0.07513   0.06981  -0.0408  0.3118  1.0000  -1.9768   0.0000   0.0000   0.0000   0.2704
  12.000   1.0295   0.07579   0.07047  -0.0407  0.3057  1.0000  -1.9909   0.0000   0.0000   0.0000   0.2701
  12.100   1.0308   0.07633   0.07100  -0.0406  0.2990  1.0000  -2.0073   0.0000   0.0000   0.0000   0.2697
  12.200   1.0336   0.07669   0.07135  -0.0405  0.2909  1.0000  -2.0272   0.0000   0.0000   0.0000   0.2692
  12.300   1.0371   0.07693   0.07156  -0.0404  0.2810  1.0000  -2.0493   0.0000   0.0000   0.0000   0.2687
  12.400   1.0405   0.07713   0.07170  -0.0402  0.2690  1.0000  -2.0712   0.0000   0.0000   0.0000   0.2682
  12.500   1.0401   0.07769   0.07219  -0.0401  0.2571  1.0000  -2.0845   0.0000   0.0000   0.0000   0.2678
  12.600   1.0391   0.07836   0.07282  -0.0400  0.2490  1.0000  -2.0958   0.0000   0.0000   0.0000   0.2675
  12.700   1.0425   0.07873   0.07315  -0.0399  0.2441  1.0000  -2.1169   0.0000   0.0000   0.0000   0.2671
  12.800   1.0456   0.07909   0.07347  -0.0397  0.2383  1.0000  -2.1375   0.0000   0.0000   0.0000   0.2666
  12.900   1.0483   0.07947   0.07377  -0.0396  0.2308  1.0000  -2.1574   0.0000   0.0000   0.0000   0.2661
  13.000   1.0501   0.07987   0.07406  -0.0395  0.2200  1.0000  -2.1757   0.0000   0.0000   0.0000   0.2657
  13.100   1.0510   0.08031   0.07431  -0.0393  0.2057  1.0000  -2.1924   0.0000   0.0000   0.0000   0.2653
  13.200   1.0509   0.08078   0.07455  -0.0391  0.1877  1.0000  -2.2071   0.0000   0.0000   0.0000   0.2649
  13.300   1.0521   0.08135   0.07493  -0.0390  0.1673  1.0000  -2.2239   0.0000   0.0000   0.0000   0.2645
  13.400   1.0552   0.08193   0.07545  -0.0390  0.1460  1.0000  -2.2444   0.0000   0.0000   0.0000   0.2641
  13.500   1.0588   0.08230   0.07577  -0.0388  0.1385  1.0000  -2.2668   0.0000   0.0000   0.0000   0.2637
  13.600   1.0617   0.08272   0.07610  -0.0387  0.1299  1.0000  -2.2879   0.0000   0.0000   0.0000   0.2632
  14.000   1.0620   0.08512   0.07761  -0.0380  0.0631  1.0000  -2.3478   0.0000   0.0000   0.0000   0.2617
  14.100   1.0668   0.08548   0.07794  -0.0380  0.0604  1.0000  -2.3738   0.0000   0.0000   0.0000   0.2613
  14.200   1.0715   0.08587   0.07828  -0.0379  0.0577  1.0000  -2.3998   0.0000   0.0000   0.0000   0.2608
  14.300   1.0758   0.08628   0.07863  -0.0379  0.0552  1.0000  -2.4255   0.0000   0.0000   0.0000   0.2604
  14.400   1.0799   0.08672   0.07901  -0.0378  0.0527  1.0000  -2.4509   0.0000   0.0000   0.0000   0.2600
  14.500   1.0838   0.08717   0.07939  -0.0377  0.0502  1.0000  -2.4765   0.0000   0.0000   0.0000   0.2596
  14.600   1.0878   0.08761   0.07974  -0.0377  0.0476  1.0000  -2.5043   0.0000   0.0000   0.0000   0.2592
  14.700   1.0923   0.08800   0.08005  -0.0376  0.0448  1.0000  -2.5693   0.0000   0.0000   0.0000   0.2588
  14.800   1.0976   0.08833   0.08030  -0.0375  0.0414  1.0000  -2.6388   0.0000   0.0000   0.0000   0.2583
  14.900   1.1034   0.08865   0.08057  -0.0375  0.0372  1.0000  -2.7100   0.0000   0.0000   0.0000   0.2578
  15.000   1.1089   0.08907   0.08095  -0.0375  0.0325  1.0000  -2.7769   0.0000   0.0000   0.0000   0.2574
  15.100   1.1139   0.08955   0.08143  -0.0374  0.0273  1.0000  -2.8344   0.0000   0.0000   0.0000   0.2570
  15.200   1.1172   0.09018   0.08224  -0.0370  0.0209  1.0000  -2.8395   0.0000   0.0000   0.0000   0.2562
  15.300   1.1213   0.09066   0.08297  -0.0365  0.0192  1.0000  -2.8578   0.0000   0.0000   0.0000   0.2554
  15.400   1.1253   0.09109   0.08360  -0.0361  0.0187  1.0000  -2.9077   0.0000   0.0000   0.0000   0.2547
  15.500   1.1292   0.09151   0.08419  -0.0357  0.0186  1.0000  -2.9575   0.0000   0.0000   0.0000   0.2540
  15.600   1.1329   0.09196   0.08481  -0.0353  0.0186  1.0000  -3.0025   0.0000   0.0000   0.0000   0.2532
  15.700   1.1363   0.09247   0.08546  -0.0349  0.0188  1.0000  -3.0444   0.0000   0.0000   0.0000   0.2526
  15.800   1.1395   0.09302   0.08614  -0.0346  0.0192  1.0000  -3.0849   0.0000   0.0000   0.0000   0.2519
  15.900   1.1428   0.09360   0.08683  -0.0343  0.0196  1.0000  -3.1250   0.0000   0.0000   0.0000   0.2513
  16.000   1.1461   0.09421   0.08752  -0.0340  0.0201  1.0000  -3.1656   0.0000   0.0000   0.0000   0.2508
  16.100   1.1496   0.09483   0.08822  -0.0337  0.0207  1.0000  -3.2075   0.0000   0.0000   0.0000   0.2502
  16.200   1.1532   0.09546   0.08891  -0.0335  0.0213  1.0000  -3.2510   0.0000   0.0000   0.0000   0.2497
  16.300   1.1571   0.09609   0.08960  -0.0333  0.0221  1.0000  -3.2959   0.0000   0.0000   0.0000   0.2492
  16.400   1.1611   0.09673   0.09029  -0.0331  0.0231  1.0000  -3.3420   0.0000   0.0000   0.0000   0.2487
  16.500   1.1651   0.09739   0.09100  -0.0330  0.0241  1.0000  -3.3886   0.0000   0.0000   0.0000   0.2482
  16.600   1.1690   0.09809   0.09174  -0.0329  0.0253  1.0000  -3.4345   0.0000   0.0000   0.0000   0.2478
  16.700   1.1725   0.09885   0.09256  -0.0328  0.0267  1.0000  -3.4781   0.0000   0.0000   0.0000   0.2474
  16.800   1.1753   0.09973   0.09351  -0.0327  0.0282  1.0000  -3.5169   0.0000   0.0000   0.0000   0.2470
  16.900   1.1768   0.10083   0.09468  -0.0327  0.0298  1.0000  -3.5474   0.0000   0.0000   0.0000   0.2467
  17.000   1.1765   0.10226   0.09623  -0.0328  0.0315  1.0000  -3.5655   0.0000   0.0000   0.0000   0.2466
  17.100   1.1730   0.10429   0.09839  -0.0332  0.0327  1.0000  -3.5659   0.0000   0.0000   0.0000   0.2469
  17.800   1.0657   0.13510   0.12965  -0.0463  0.0260  1.0000  -3.1836   0.0000   0.0000   0.0000   0.2612
  17.900   1.0689   0.13612   0.13071  -0.0463  0.0275  1.0000  -3.2218   0.0000   0.0000   0.0000   0.2608
  18.000   1.0716   0.13725   0.13191  -0.0463  0.0292  1.0000  -3.2549   0.0000   0.0000   0.0000   0.2604
  18.100   1.0735   0.13856   0.13331  -0.0463  0.0311  1.0000  -3.2790   0.0000   0.0000   0.0000   0.2601
  18.200   1.0740   0.14019   0.13508  -0.0463  0.0332  1.0000  -3.2873   0.0000   0.0000   0.0000   0.2599
  18.300   1.0725   0.14239   0.13746  -0.0463  0.0355  1.0000  -3.2693   0.0000   0.0000   0.0000   0.2597
  18.400   1.0682   0.14538   0.14065  -0.0464  0.0377  1.0000  -3.2209   0.0000   0.0000   0.0000   0.2599
  18.500   1.0617   0.14900   0.14442  -0.0469  0.0391  1.0000  -3.1633   0.0000   0.0000   0.0000   0.2606
  18.600   1.0540   0.15292   0.14845  -0.0477  0.0400  1.0000  -3.1077   0.0000   0.0000   0.0000   0.2616
  18.700   1.0457   0.15703   0.15265  -0.0487  0.0405  1.0000  -3.0550   0.0000   0.0000   0.0000   0.2629
  18.800   1.0369   0.16131   0.15699  -0.0500  0.0407  1.0000  -3.0051   0.0000   0.0000   0.0000   0.2644
  18.900   1.0278   0.16574   0.16147  -0.0513  0.0405  1.0000  -2.9573   0.0000   0.0000   0.0000   0.2662
  19.000   1.0181   0.17045   0.16621  -0.0530  0.0398  1.0000  -2.9151   0.0000   0.0000   0.0000   0.2683
  19.100   1.0088   0.17517   0.17094  -0.0545  0.0395  1.0000  -2.8650   0.0000   0.0000   0.0000   0.2703
  19.200   0.9998   0.17983   0.17563  -0.0557  0.0396  1.0000  -2.8078   0.0000   0.0000   0.0000   0.2720
  19.300   0.9910   0.18454   0.18037  -0.0568  0.0399  1.0000  -2.7445   0.0000   0.0000   0.0000   0.2736
  19.400   0.9821   0.18934   0.18520  -0.0579  0.0404  1.0000  -2.6753   0.0000   0.0000   0.0000   0.2753
  19.500   0.9732   0.19426   0.19013  -0.0588  0.0411  1.0000  -2.6004   0.0000   0.0000   0.0000   0.2768
  19.600   0.9645   0.19936   0.19526  -0.0596  0.0420  1.0000  -2.5161   0.0000   0.0000   0.0000   0.2783
  19.700   0.9557   0.20449   0.20040  -0.0604  0.0430  1.0000  -2.4316   0.0000   0.0000   0.0000   0.2798
  19.800   0.9466   0.20960   0.20553  -0.0613  0.0438  1.0000  -2.3493   0.0000   0.0000   0.0000   0.2815
  19.900   0.9375   0.21461   0.21055  -0.0622  0.0446  1.0000  -2.2691   0.0000   0.0000   0.0000   0.2832
  20.000   0.9283   0.21948   0.21543  -0.0630  0.0455  1.0000  -2.1907   0.0000   0.0000   0.0000   0.2849
  20.100   0.9191   0.22418   0.22014  -0.0638  0.0464  1.0000  -2.1140   0.0000   0.0000   0.0000   0.2865
  20.200   0.9100   0.22869   0.22465  -0.0645  0.0474  1.0000  -2.0392   0.0000   0.0000   0.0000   0.2881
  20.300   0.9008   0.23297   0.22894  -0.0651  0.0486  1.0000  -1.9663   0.0000   0.0000   0.0000   0.2896
  20.400   0.8916   0.23700   0.23299  -0.0655  0.0499  1.0000  -1.8955   0.0000   0.0000   0.0000   0.2910
  20.500   0.8824   0.24076   0.23675  -0.0658  0.0514  1.0000  -1.8269   0.0000   0.0000   0.0000   0.2922
  20.600   0.8729   0.24421   0.24021  -0.0659  0.0530  1.0000  -1.7604   0.0000   0.0000   0.0000   0.2933
  20.700   0.8630   0.24734   0.24335  -0.0659  0.0548  1.0000  -1.6957   0.0000   0.0000   0.0000   0.2943
  20.800   0.8525   0.25012   0.24615  -0.0657  0.0565  1.0000  -1.6321   0.0000   0.0000   0.0000   0.2951
  20.900   0.8400   0.25173   0.24778  -0.0650  0.0579  1.0000  -1.5705   0.0000   0.0000   0.0000   0.2956
  21.000   0.8255   0.25202   0.24807  -0.0638  0.0591  1.0000  -1.5105   0.0000   0.0000   0.0000   0.2958
  21.100   0.8102   0.25241   0.24848  -0.0630  0.0604  1.0000  -1.4420   0.0000   0.0000   0.0000   0.2965
  21.200   0.7923   0.25366   0.24978  -0.0634  0.0623  1.0000  -1.3444   0.0000   0.0000   0.0000   0.2994
  21.300   0.7637   0.25908   0.25533  -0.0689  0.0658  1.0000  -1.1279   0.0000   0.0000   0.0000   0.3109
  21.400   0.7579   0.26254   0.25887  -0.0725  0.0664  1.0000  -1.0576   0.0000   0.0000   0.0000   0.3169
  21.500   0.7563   0.26497   0.26134  -0.0753  0.0666  1.0000  -1.0227   0.0000   0.0000   0.0000   0.3208
  21.600   0.7558   0.26712   0.26354  -0.0777  0.0667  1.0000  -0.9968   0.0000   0.0000   0.0000   0.3243
  21.700   0.7560   0.26913   0.26559  -0.0801  0.0668  1.0000  -0.9756   0.0000   0.0000   0.0000   0.3274
  21.800   0.7564   0.27105   0.26754  -0.0823  0.0668  1.0000  -0.9572   0.0000   0.0000   0.0000   0.3303
  21.900   0.7571   0.27291   0.26943  -0.0845  0.0669  1.0000  -0.9409   0.0000   0.0000   0.0000   0.3331
  22.000   0.7580   0.27470   0.27127  -0.0865  0.0669  1.0000  -0.9262   0.0000   0.0000   0.0000   0.3357
  22.100   0.7590   0.27622   0.27281  -0.0884  0.0668  1.0000  -0.9150   0.0000   0.0000   0.0000   0.3380
  22.200   0.7603   0.27736   0.27398  -0.0902  0.0667  1.0000  -0.9081   0.0000   0.0000   0.0000   0.3401
  22.300   0.7617   0.27840   0.27505  -0.0919  0.0665  1.0000  -0.9030   0.0000   0.0000   0.0000   0.3420
  22.400   0.7633   0.27932   0.27599  -0.0934  0.0663  1.0000  -0.9000   0.0000   0.0000   0.0000   0.3437
  22.500   0.7652   0.28002   0.27671  -0.0948  0.0661  1.0000  -0.9007   0.0000   0.0000   0.0000   0.3451
  22.600   0.7676   0.28025   0.27695  -0.0960  0.0656  1.0000  -0.9090   0.0000   0.0000   0.0000   0.3460
  22.700   0.7731   0.27830   0.27500  -0.0958  0.0638  1.0000  -0.9554   0.0000   0.0000   0.0000   0.3444
  22.800   0.7806   0.27529   0.27193  -0.0940  0.0565  1.0000  -1.0380   0.0000   0.0000   0.0000   0.3403
  22.900   0.7819   0.27612   0.27276  -0.0951  0.0509  1.0000  -1.0499   0.0000   0.0000   0.0000   0.3413
  23.000   0.7834   0.27697   0.27362  -0.0964  0.0455  1.0000  -1.0682   0.0000   0.0000   0.0000   0.3425
  23.100   0.7856   0.27749   0.27415  -0.0975  0.0406  1.0000  -1.0996   0.0000   0.0000   0.0000   0.3434
  23.200   0.7888   0.27761   0.27427  -0.0983  0.0362  1.0000  -1.1475   0.0000   0.0000   0.0000   0.3436
  23.300   0.7932   0.27716   0.27383  -0.0988  0.0323  1.0000  -1.2191   0.0000   0.0000   0.0000   0.3431
  23.400   0.8001   0.27579   0.27244  -0.0986  0.0288  1.0000  -1.3325   0.0000   0.0000   0.0000   0.3411
  23.500   0.8082   0.27389   0.27052  -0.0980  0.0257  1.0000  -1.4732   0.0000   0.0000   0.0000   0.3385
  23.600   0.8138   0.27268   0.26932  -0.0984  0.0230  1.0000  -1.5796   0.0000   0.0000   0.0000   0.3375
  23.700   0.8061   0.27629   0.27302  -0.1029  0.0200  1.0000  -1.4526   0.0000   0.0000   0.0000   0.3448
  23.800   0.7821   0.28759   0.28440  -0.1111  0.0179  1.0000  -1.0254   0.0000   0.0000   0.0000   0.3611
  23.900   0.7824   0.28893   0.28576  -0.1124  0.0179  1.0000  -1.0123   0.0000   0.0000   0.0000   0.3626
  24.000   0.7828   0.29025   0.28710  -0.1136  0.0179  1.0000  -0.9998   0.0000   0.0000   0.0000   0.3640
  24.100   0.7833   0.29155   0.28841  -0.1148  0.0178  1.0000  -0.9879   0.0000   0.0000   0.0000   0.3653
  24.200   0.7837   0.29283   0.28971  -0.1160  0.0178  1.0000  -0.9764   0.0000   0.0000   0.0000   0.3666
  24.300   0.7841   0.29409   0.29099  -0.1171  0.0177  1.0000  -0.9655   0.0000   0.0000   0.0000   0.3679
  24.400   0.7846   0.29534   0.29225  -0.1182  0.0177  1.0000  -0.9551   0.0000   0.0000   0.0000   0.3690
  24.500   0.7850   0.29657   0.29350  -0.1192  0.0177  1.0000  -0.9451   0.0000   0.0000   0.0000   0.3702
  24.600   0.7855   0.29779   0.29473  -0.1202  0.0176  1.0000  -0.9355   0.0000   0.0000   0.0000   0.3713
  24.700   0.7860   0.29899   0.29595  -0.1212  0.0176  1.0000  -0.9263   0.0000   0.0000   0.0000   0.3723
  24.800   0.7865   0.30018   0.29715  -0.1222  0.0175  1.0000  -0.9174   0.0000   0.0000   0.0000   0.3733
  24.900   0.7869   0.30136   0.29834  -0.1231  0.0175  1.0000  -0.9088   0.0000   0.0000   0.0000   0.3743
  25.000   0.7874   0.30253   0.29952  -0.1240  0.0175  1.0000  -0.9006   0.0000   0.0000   0.0000   0.3752
  25.100   0.7879   0.30369   0.30069  -0.1249  0.0174  1.0000  -0.8927   0.0000   0.0000   0.0000   0.3761
  25.200   0.7884   0.30483   0.30185  -0.1257  0.0174  1.0000  -0.8850   0.0000   0.0000   0.0000   0.3770
  25.300   0.7889   0.30597   0.30300  -0.1266  0.0173  1.0000  -0.8776   0.0000   0.0000   0.0000   0.3778
  25.400   0.7894   0.30710   0.30413  -0.1274  0.0173  1.0000  -0.8704   0.0000   0.0000   0.0000   0.3786
  25.500   0.7898   0.30820   0.30525  -0.1282  0.0172  1.0000  -0.8632   0.0000   0.0000   0.0000   0.3794
  25.600   0.7903   0.30930   0.30636  -0.1290  0.0172  1.0000  -0.8562   0.0000   0.0000   0.0000   0.3802
  25.700   0.7907   0.31039   0.30746  -0.1298  0.0172  1.0000  -0.8495   0.0000   0.0000   0.0000   0.3809
  25.800   0.7912   0.31148   0.30856  -0.1306  0.0171  1.0000  -0.8429   0.0000   0.0000   0.0000   0.3817
  25.900   0.7916   0.31255   0.30964  -0.1313  0.0171  1.0000  -0.8366   0.0000   0.0000   0.0000   0.3824
  26.000   0.7921   0.31363   0.31072  -0.1321  0.0170  1.0000  -0.8305   0.0000   0.0000   0.0000   0.3830
  26.100   0.7925   0.31469   0.31179  -0.1328  0.0170  1.0000  -0.8245   0.0000   0.0000   0.0000   0.3837
  26.200   0.7930   0.31575   0.31286  -0.1335  0.0169  1.0000  -0.8187   0.0000   0.0000   0.0000   0.3844


