xflr5 v6.61

 Calculated polar for: WORTMANN FX 057-816 AIRFOIL

 1 1 Reynolds number fixed          Mach number fixed         

 xtrf =   1.000 (top)        1.000 (bottom)
 Mach =   0.000     Re =     0.200 e 6     Ncrit =   9.000

  alpha     CL        CD       CDp       Cm    Top Xtr Bot Xtr   Cpmin    Chinge    XCp    
 ------- -------- --------- --------- -------- ------- ------- -------- --------- ---------
 -10.000  -0.1593   0.13557   0.13218  -0.0737  0.8856  0.0661  -1.0464   0.0000   0.0000   0.0000  -0.2569
  -9.900  -0.1554   0.13386   0.13046  -0.0748  0.8837  0.0660  -1.0509   0.0000   0.0000   0.0000  -0.2766
  -9.800  -0.1514   0.13209   0.12869  -0.0760  0.8818  0.0660  -1.0561   0.0000   0.0000   0.0000  -0.2978
  -9.700  -0.1475   0.13027   0.12686  -0.0772  0.8801  0.0659  -1.0623   0.0000   0.0000   0.0000  -0.3203
  -9.600  -0.1436   0.12838   0.12497  -0.0784  0.8784  0.0657  -1.0699   0.0000   0.0000   0.0000  -0.3439
  -9.500  -0.1400   0.12640   0.12298  -0.0797  0.8769  0.0655  -1.0797   0.0000   0.0000   0.0000  -0.3681
  -9.400  -0.1368   0.12426   0.12083  -0.0811  0.8754  0.0652  -1.0929   0.0000   0.0000   0.0000  -0.3918
  -9.300  -0.1346   0.12185   0.11842  -0.0824  0.8740  0.0648  -1.1130   0.0000   0.0000   0.0000  -0.4120
  -9.200  -0.1350   0.11884   0.11541  -0.0839  0.8726  0.0638  -1.1490   0.0000   0.0000   0.0000  -0.4203
  -9.100  -0.1398   0.11504   0.11160  -0.0853  0.8714  0.0616  -1.2112   0.0000   0.0000   0.0000  -0.4068
  -8.800  -0.1605   0.11463   0.11120  -0.0843  0.8509  0.0571  -1.3226   0.0000   0.0000   0.0000  -0.3144
  -8.700  -0.1649   0.11012   0.10667  -0.0845  0.8469  0.0553  -1.3628   0.0000   0.0000   0.0000  -0.3001
  -8.600  -0.1717   0.10719   0.10374  -0.0837  0.8415  0.0543  -1.3919   0.0000   0.0000   0.0000  -0.2732
  -8.500  -0.1799   0.10526   0.10181  -0.0825  0.8354  0.0537  -1.4161   0.0000   0.0000   0.0000  -0.2421
  -8.400  -0.1877   0.10368   0.10023  -0.0814  0.8294  0.0530  -1.4406   0.0000   0.0000   0.0000  -0.2154
  -8.300  -0.1949   0.10217   0.09872  -0.0807  0.8238  0.0523  -1.4667   0.0000   0.0000   0.0000  -0.1939
  -8.200  -0.2015   0.10064   0.09719  -0.0802  0.8186  0.0516  -1.4944   0.0000   0.0000   0.0000  -0.1765
  -8.100  -0.2078   0.09906   0.09562  -0.0800  0.8139  0.0508  -1.5238   0.0000   0.0000   0.0000  -0.1623
  -8.000  -0.2139   0.09743   0.09399  -0.0801  0.8095  0.0501  -1.5545   0.0000   0.0000   0.0000  -0.1504
  -7.900  -0.2200   0.09576   0.09232  -0.0804  0.8054  0.0495  -1.5866   0.0000   0.0000   0.0000  -0.1403
  -7.800  -0.2262   0.09405   0.09061  -0.0809  0.8015  0.0489  -1.6200   0.0000   0.0000   0.0000  -0.1314
  -7.700  -0.2328   0.09233   0.08887  -0.0816  0.7977  0.0485  -1.6541   0.0000   0.0000   0.0000  -0.1230
  -7.600  -0.2396   0.09065   0.08718  -0.0821  0.7942  0.0481  -1.6879   0.0000   0.0000   0.0000  -0.1139
  -7.500  -0.2466   0.08904   0.08554  -0.0823  0.7907  0.0476  -1.7214   0.0000   0.0000   0.0000  -0.1041
  -7.400  -0.2548   0.08768   0.08416  -0.0821  0.7874  0.0473  -1.7517   0.0000   0.0000   0.0000  -0.0915
  -7.300  -0.2631   0.08641   0.08285  -0.0816  0.7842  0.0470  -1.7811   0.0000   0.0000   0.0000  -0.0782
  -7.200  -0.2696   0.08471   0.08111  -0.0814  0.7813  0.0464  -1.8157   0.0000   0.0000   0.0000  -0.0694
  -7.100  -0.2740   0.08255   0.07889  -0.0816  0.7786  0.0456  -1.8563   0.0000   0.0000   0.0000  -0.0649
  -7.000  -0.2774   0.08019   0.07647  -0.0820  0.7761  0.0446  -1.9002   0.0000   0.0000   0.0000  -0.0621
  -6.900  -0.2804   0.07784   0.07404  -0.0822  0.7736  0.0436  -1.9444   0.0000   0.0000   0.0000  -0.0594
  -6.500  -0.3149   0.07727   0.07330  -0.0740  0.7397  0.0422  -2.0324   0.0000   0.0000   0.0000   0.0017
  -6.400  -0.3205   0.07396   0.06988  -0.0724  0.7341  0.0415  -2.0702   0.0000   0.0000   0.0000   0.0113
  -6.300  -0.3263   0.07098   0.06682  -0.0705  0.7259  0.0407  -2.1063   0.0000   0.0000   0.0000   0.0214
  -6.200  -0.3312   0.06831   0.06404  -0.0687  0.7167  0.0400  -2.1439   0.0000   0.0000   0.0000   0.0303
  -6.100  -0.3348   0.06576   0.06136  -0.0671  0.7081  0.0392  -2.1848   0.0000   0.0000   0.0000   0.0376
  -6.000  -0.3369   0.06314   0.05860  -0.0658  0.7010  0.0383  -2.2324   0.0000   0.0000   0.0000   0.0431
  -5.900  -0.3375   0.06045   0.05573  -0.0645  0.6951  0.0374  -2.2833   0.0000   0.0000   0.0000   0.0473
  -5.800  -0.3366   0.05772   0.05279  -0.0633  0.6902  0.0366  -2.3360   0.0000   0.0000   0.0000   0.0505
  -5.700  -0.3342   0.05498   0.04982  -0.0621  0.6860  0.0360  -2.3883   0.0000   0.0000   0.0000   0.0526
  -5.600  -0.3300   0.05232   0.04693  -0.0610  0.6824  0.0357  -2.4365   0.0000   0.0000   0.0000   0.0534
  -5.500  -0.3237   0.04987   0.04424  -0.0600  0.6793  0.0360  -2.4757   0.0000   0.0000   0.0000   0.0527
  -5.400  -0.3151   0.04780   0.04196  -0.0592  0.6765  0.0383  -2.5022   0.0000   0.0000   0.0000   0.0501
  -5.300  -0.2966   0.04877   0.04305  -0.0596  0.6734  0.0504  -2.3850   0.0000   0.0000   0.0000   0.0365
  -4.200  -0.1657   0.06122   0.05637  -0.0630  0.6243  0.1582  -1.1122   0.0000   0.0000   0.0000  -0.1458
  -4.100  -0.1646   0.05843   0.05358  -0.0626  0.6237  0.1678  -1.1091   0.0000   0.0000   0.0000  -0.1458
  -4.000  -0.1571   0.05795   0.05325  -0.0619  0.6230  0.1792  -1.0638   0.0000   0.0000   0.0000  -0.1595
  -3.900  -0.1491   0.05806   0.05346  -0.0610  0.6222  0.1914  -1.0143   0.0000   0.0000   0.0000  -0.1746
  -3.800  -0.1399   0.05796   0.05342  -0.0603  0.6214  0.2024  -0.9758   0.0000   0.0000   0.0000  -0.1975
  -3.700  -0.1310   0.05749   0.05294  -0.0599  0.6205  0.2101  -0.9505   0.0000   0.0000   0.0000  -0.2240
  -3.600  -0.1224   0.05687   0.05230  -0.0596  0.6196  0.2161  -0.9304   0.0000   0.0000   0.0000  -0.2546
  -3.500  -0.1135   0.05630   0.05170  -0.0593  0.6186  0.2219  -0.9111   0.0000   0.0000   0.0000  -0.2914
  -3.400  -0.1040   0.05587   0.05124  -0.0591  0.6175  0.2280  -0.8906   0.0000   0.0000   0.0000  -0.3378
  -3.300  -0.0936   0.05569   0.05104  -0.0588  0.6164  0.2342  -0.8679   0.0000   0.0000   0.0000  -0.4000
  -3.100  -0.0577   0.05964   0.05503  -0.0579  0.6138  0.2487  -0.7780   0.0000   0.0000   0.0000  -0.7870
  -3.000  -0.0824   0.05129   0.04647  -0.0580  0.6121  0.2713  -0.8386   0.0000   0.0000   0.0000  -0.4763
  -2.900  -0.0774   0.05002   0.04528  -0.0571  0.6107  0.2829  -0.8207   0.0000   0.0000   0.0000  -0.5107
  -2.800  -0.0713   0.04941   0.04474  -0.0561  0.6091  0.2923  -0.7989   0.0000   0.0000   0.0000  -0.5603
  -2.700  -0.0651   0.04895   0.04434  -0.0549  0.6074  0.3020  -0.7773   0.0000   0.0000   0.0000  -0.6191
  -2.600  -0.0589   0.04853   0.04395  -0.0538  0.6056  0.3124  -0.7562   0.0000   0.0000   0.0000  -0.6899
  -2.500  -0.0524   0.04818   0.04363  -0.0527  0.6039  0.3244  -0.7357   0.0000   0.0000   0.0000  -0.7846
  -0.400   0.2292   0.03233   0.02460  -0.0605  0.5764  0.1405  -0.8745   0.0000   0.0000   0.0000   0.5156
  -0.300   0.2421   0.03181   0.02389  -0.0604  0.5743  0.1356  -0.8841   0.0000   0.0000   0.0000   0.5004
  -0.200   0.2546   0.03143   0.02335  -0.0602  0.5720  0.1310  -0.8936   0.0000   0.0000   0.0000   0.4872
  -0.100   0.2666   0.03112   0.02291  -0.0600  0.5698  0.1267  -0.9026   0.0000   0.0000   0.0000   0.4756
   0.000   0.2781   0.03085   0.02254  -0.0598  0.5675  0.1227  -0.9110   0.0000   0.0000   0.0000   0.4653
   0.100   0.2890   0.03062   0.02224  -0.0596  0.5651  0.1191  -0.9190   0.0000   0.0000   0.0000   0.4561
   0.200   0.3000   0.03041   0.02196  -0.0593  0.5628  0.1156  -0.9270   0.0000   0.0000   0.0000   0.4476
   0.300   0.3110   0.03021   0.02171  -0.0592  0.5604  0.1124  -0.9351   0.0000   0.0000   0.0000   0.4397
   0.400   0.3221   0.03002   0.02146  -0.0590  0.5580  0.1094  -0.9434   0.0000   0.0000   0.0000   0.4324
   0.500   0.3333   0.02983   0.02120  -0.0589  0.5555  0.1067  -0.9518   0.0000   0.0000   0.0000   0.4257
   0.600   0.3445   0.02963   0.02094  -0.0588  0.5531  0.1043  -0.9604   0.0000   0.0000   0.0000   0.4196
   0.700   0.3557   0.02943   0.02067  -0.0588  0.5506  0.1022  -0.9690   0.0000   0.0000   0.0000   0.4139
   0.800   0.3670   0.02923   0.02041  -0.0587  0.5481  0.1003  -0.9776   0.0000   0.0000   0.0000   0.4086
   0.900   0.3784   0.02904   0.02015  -0.0588  0.5456  0.0985  -0.9865   0.0000   0.0000   0.0000   0.4036
   1.000   0.3900   0.02885   0.01991  -0.0588  0.5431  0.0969  -0.9956   0.0000   0.0000   0.0000   0.3989
   1.100   0.4018   0.02867   0.01967  -0.0589  0.5406  0.0954  -1.0047   0.0000   0.0000   0.0000   0.3945
   1.200   0.4137   0.02849   0.01944  -0.0589  0.5381  0.0941  -1.0140   0.0000   0.0000   0.0000   0.3903
   1.300   0.4257   0.02831   0.01921  -0.0590  0.5356  0.0929  -1.0234   0.0000   0.0000   0.0000   0.3864
   1.400   0.4377   0.02815   0.01899  -0.0592  0.5330  0.0918  -1.0329   0.0000   0.0000   0.0000   0.3827
   1.500   0.4497   0.02798   0.01877  -0.0593  0.5305  0.0908  -1.0423   0.0000   0.0000   0.0000   0.3792
   1.600   0.4617   0.02782   0.01856  -0.0594  0.5279  0.0899  -1.0516   0.0000   0.0000   0.0000   0.3759
   1.700   0.4737   0.02767   0.01836  -0.0595  0.5253  0.0891  -1.0608   0.0000   0.0000   0.0000   0.3727
   1.800   0.4855   0.02754   0.01818  -0.0596  0.5226  0.0884  -1.0699   0.0000   0.0000   0.0000   0.3698
   1.900   0.4971   0.02741   0.01801  -0.0597  0.5198  0.0877  -1.0786   0.0000   0.0000   0.0000   0.3670
   2.000   0.5083   0.02731   0.01787  -0.0598  0.5169  0.0872  -1.0870   0.0000   0.0000   0.0000   0.3643
   2.100   0.5192   0.02723   0.01775  -0.0598  0.5138  0.0867  -1.0948   0.0000   0.0000   0.0000   0.3618
   2.200   0.5294   0.02718   0.01768  -0.0598  0.5105  0.0863  -1.1018   0.0000   0.0000   0.0000   0.3594
   2.300   0.5387   0.02718   0.01765  -0.0597  0.5066  0.0860  -1.1075   0.0000   0.0000   0.0000   0.3572
   2.400   0.5452   0.02727   0.01774  -0.0593  0.5013  0.0858  -1.1100   0.0000   0.0000   0.0000   0.3550
   2.500   0.5441   0.02770   0.01815  -0.0581  0.4992  0.0857  -1.1055   0.0000   0.0000   0.0000   0.3528
   2.600   0.5419   0.02817   0.01860  -0.0567  0.4983  0.0856  -1.1004   0.0000   0.0000   0.0000   0.3505
   2.700   0.5402   0.02866   0.01908  -0.0554  0.4975  0.0855  -1.0955   0.0000   0.0000   0.0000   0.3482
   3.000   0.5983   0.02837   0.01881  -0.0584  0.5151  0.0880  -1.1322   0.0000   0.0000   0.0000   0.3432
   3.100   0.6083   0.02845   0.01888  -0.0583  0.5150  0.0896  -1.1373   0.0000   0.0000   0.0000   0.3414
   3.200   0.6183   0.02853   0.01895  -0.0583  0.5149  0.0921  -1.1423   0.0000   0.0000   0.0000   0.3396
   3.300   0.6281   0.02861   0.01902  -0.0582  0.5147  0.0963  -1.1472   0.0000   0.0000   0.0000   0.3379
   3.400   0.6377   0.02872   0.01911  -0.0581  0.5146  0.1028  -1.1517   0.0000   0.0000   0.0000   0.3363
   3.500   0.6469   0.02893   0.01921  -0.0580  0.5144  0.1122  -1.1557   0.0000   0.0000   0.0000   0.3347
   3.600   0.6556   0.02913   0.01942  -0.0578  0.5143  0.1221  -1.1591   0.0000   0.0000   0.0000   0.3332
   3.700   0.6637   0.02930   0.01971  -0.0576  0.5141  0.1273  -1.1619   0.0000   0.0000   0.0000   0.3317
   3.800   0.6712   0.02954   0.02005  -0.0574  0.5140  0.1320  -1.1636   0.0000   0.0000   0.0000   0.3302
   3.900   0.6777   0.02985   0.02045  -0.0570  0.5138  0.1361  -1.1640   0.0000   0.0000   0.0000   0.3288
   4.000   0.6830   0.03024   0.02091  -0.0566  0.5136  0.1398  -1.1627   0.0000   0.0000   0.0000   0.3274
   4.100   0.6870   0.03071   0.02145  -0.0560  0.5134  0.1432  -1.1597   0.0000   0.0000   0.0000   0.3259
   4.200   0.6898   0.03128   0.02209  -0.0554  0.5132  0.1462  -1.1550   0.0000   0.0000   0.0000   0.3246
   4.300   0.6913   0.03136   0.02281  -0.0550  0.5130  0.3647  -1.1491   0.0000   0.0000   0.0000   0.3237
   4.400   0.6812   0.03057   0.02332  -0.0507  0.5125  0.7682  -1.1424   0.0000   0.0000   0.0000   0.3185
   4.500   0.6792   0.03131   0.02411  -0.0492  0.5121  0.7961  -1.1336   0.0000   0.0000   0.0000   0.3163
   4.600   0.6775   0.03224   0.02507  -0.0481  0.5118  0.8047  -1.1230   0.0000   0.0000   0.0000   0.3147
   4.700   0.6750   0.03330   0.02615  -0.0470  0.5115  0.8106  -1.1105   0.0000   0.0000   0.0000   0.3133
   4.800   0.6715   0.03448   0.02735  -0.0460  0.5112  0.8151  -1.0962   0.0000   0.0000   0.0000   0.3120
   4.900   0.6671   0.03576   0.02866  -0.0450  0.5110  0.8185  -1.0802   0.0000   0.0000   0.0000   0.3108
   5.000   0.6616   0.03713   0.03005  -0.0440  0.5109  0.8211  -1.0667   0.0000   0.0000   0.0000   0.3096
   5.100   0.6554   0.03857   0.03151  -0.0429  0.5109  0.8232  -1.0624   0.0000   0.0000   0.0000   0.3086
   5.200   0.6485   0.04005   0.03302  -0.0419  0.5110  0.8249  -1.0573   0.0000   0.0000   0.0000   0.3075
   5.300   0.6410   0.04158   0.03456  -0.0410  0.5113  0.8262  -1.0513   0.0000   0.0000   0.0000   0.3066
   5.400   0.6328   0.04313   0.03613  -0.0400  0.5117  0.8273  -1.0445   0.0000   0.0000   0.0000   0.3057
   5.500   0.6240   0.04470   0.03772  -0.0390  0.5122  0.8280  -1.0369   0.0000   0.0000   0.0000   0.3049
   5.600   0.6174   0.04607   0.03912  -0.0382  0.5127  0.8295  -1.0317   0.0000   0.0000   0.0000   0.3040
   5.700   0.6132   0.04725   0.04032  -0.0374  0.5131  0.8316  -1.0290   0.0000   0.0000   0.0000   0.3030
   5.800   0.6056   0.04865   0.04175  -0.0366  0.5138  0.8326  -1.0224   0.0000   0.0000   0.0000   0.3022
   5.900   0.5984   0.05000   0.04312  -0.0358  0.5145  0.8336  -1.0163   0.0000   0.0000   0.0000   0.3014
   6.000   0.5920   0.05128   0.04442  -0.0350  0.5152  0.8348  -1.0108   0.0000   0.0000   0.0000   0.3006
   6.100   0.5865   0.05245   0.04562  -0.0343  0.5159  0.8361  -1.0063   0.0000   0.0000   0.0000   0.2998
   6.200   0.5821   0.05354   0.04674  -0.0337  0.5166  0.8375  -1.0030   0.0000   0.0000   0.0000   0.2990
   6.300   0.5789   0.05456   0.04778  -0.0331  0.5173  0.8391  -1.0008   0.0000   0.0000   0.0000   0.2981
   6.400   0.5769   0.05550   0.04875  -0.0326  0.5178  0.8409  -1.0000   0.0000   0.0000   0.0000   0.2972
   6.500   0.5760   0.05639   0.04966  -0.0321  0.5183  0.8427  -1.0003   0.0000   0.0000   0.0000   0.2963
   6.600   0.5761   0.05721   0.05051  -0.0317  0.5187  0.8444  -1.0018   0.0000   0.0000   0.0000   0.2954
   6.700   0.5773   0.05797   0.05130  -0.0313  0.5191  0.8461  -1.0043   0.0000   0.0000   0.0000   0.2944
   6.800   0.5792   0.05868   0.05204  -0.0309  0.5193  0.8477  -1.0077   0.0000   0.0000   0.0000   0.2934
   6.900   0.5820   0.05935   0.05273  -0.0306  0.5194  0.8491  -1.0121   0.0000   0.0000   0.0000   0.2924
   7.000   0.5856   0.05997   0.05338  -0.0303  0.5195  0.8504  -1.0172   0.0000   0.0000   0.0000   0.2914
   7.100   0.5898   0.06055   0.05398  -0.0299  0.5194  0.8515  -1.0232   0.0000   0.0000   0.0000   0.2904
   7.200   0.5947   0.06110   0.05456  -0.0297  0.5193  0.8524  -1.0299   0.0000   0.0000   0.0000   0.2893
   7.300   0.6003   0.06161   0.05509  -0.0294  0.5191  0.8532  -1.0373   0.0000   0.0000   0.0000   0.2883
   7.400   0.6069   0.06209   0.05561  -0.0293  0.5188  0.8552  -1.0457   0.0000   0.0000   0.0000   0.2874
   7.500   0.6149   0.06255   0.05610  -0.0294  0.5184  0.8596  -1.0553   0.0000   0.0000   0.0000   0.2868
   7.600   0.6236   0.06297   0.05655  -0.0295  0.5179  0.8643  -1.0657   0.0000   0.0000   0.0000   0.2862
   7.700   0.6330   0.06335   0.05696  -0.0296  0.5172  0.8692  -1.0770   0.0000   0.0000   0.0000   0.2856
   7.800   0.6431   0.06368   0.05732  -0.0297  0.5165  0.8743  -1.0892   0.0000   0.0000   0.0000   0.2848
   7.900   0.6538   0.06396   0.05764  -0.0297  0.5157  0.8795  -1.1023   0.0000   0.0000   0.0000   0.2839
   8.000   0.6652   0.06419   0.05790  -0.0296  0.5148  0.8847  -1.1165   0.0000   0.0000   0.0000   0.2830
   8.100   0.6776   0.06433   0.05808  -0.0295  0.5138  0.8899  -1.1384   0.0000   0.0000   0.0000   0.2819
   8.200   0.6914   0.06439   0.05818  -0.0294  0.5127  0.8951  -1.1745   0.0000   0.0000   0.0000   0.2807
   8.300   0.7056   0.06449   0.05831  -0.0293  0.5115  0.9001  -1.2117   0.0000   0.0000   0.0000   0.2796
   8.400   0.7200   0.06469   0.05854  -0.0292  0.5103  0.9049  -1.2494   0.0000   0.0000   0.0000   0.2786
   8.500   0.7346   0.06511   0.05898  -0.0292  0.5088  0.9094  -1.2876   0.0000   0.0000   0.0000   0.2777
   8.600   0.7491   0.06649   0.06040  -0.0292  0.5063  0.9135  -1.3257   0.0000   0.0000   0.0000   0.2769
   8.700   0.7283   0.07143   0.06535  -0.0273  0.4968  0.9123  -1.3033   0.0000   0.0000   0.0000   0.2750
   8.800   0.7379   0.07066   0.06460  -0.0270  0.4962  0.9159  -1.3338   0.0000   0.0000   0.0000   0.2739
   8.900   0.7475   0.06991   0.06386  -0.0267  0.4956  0.9194  -1.3643   0.0000   0.0000   0.0000   0.2728
   9.000   0.7569   0.06916   0.06313  -0.0264  0.4949  0.9227  -1.3948   0.0000   0.0000   0.0000   0.2718
   9.100   0.7655   0.06841   0.06239  -0.0259  0.4941  0.9267  -1.4242   0.0000   0.0000   0.0000   0.2707
   9.200   0.7723   0.06760   0.06160  -0.0251  0.4931  0.9319  -1.4510   0.0000   0.0000   0.0000   0.2691
  10.000   0.7374   0.06567   0.05983  -0.0220  0.4284  1.0000  -1.4828   0.0000   0.0000   0.0000   0.2642
  10.100   0.7457   0.06575   0.05993  -0.0221  0.4246  1.0000  -1.5104   0.0000   0.0000   0.0000   0.2638
  10.200   0.7548   0.06577   0.05997  -0.0222  0.4212  1.0000  -1.5399   0.0000   0.0000   0.0000   0.2634
  10.300   0.7647   0.06572   0.05994  -0.0223  0.4180  1.0000  -1.5713   0.0000   0.0000   0.0000   0.2631
  10.400   0.7752   0.06561   0.05985  -0.0224  0.4150  1.0000  -1.6043   0.0000   0.0000   0.0000   0.2627
  10.500   0.7865   0.06543   0.05969  -0.0226  0.4121  1.0000  -1.6391   0.0000   0.0000   0.0000   0.2623
  10.600   0.7993   0.06505   0.05932  -0.0227  0.4094  1.0000  -1.6781   0.0000   0.0000   0.0000   0.2618
  10.700   0.8135   0.06452   0.05881  -0.0228  0.4068  1.0000  -1.7203   0.0000   0.0000   0.0000   0.2612
  10.800   0.8279   0.06394   0.05825  -0.0229  0.4042  1.0000  -1.7637   0.0000   0.0000   0.0000   0.2607
  10.900   0.8422   0.06340   0.05772  -0.0230  0.4018  1.0000  -1.8068   0.0000   0.0000   0.0000   0.2602
  11.000   0.8558   0.06294   0.05729  -0.0232  0.3995  1.0000  -1.8485   0.0000   0.0000   0.0000   0.2597
  11.100   0.8699   0.06241   0.05677  -0.0233  0.3972  1.0000  -1.8920   0.0000   0.0000   0.0000   0.2592
  11.200   0.8892   0.06113   0.05550  -0.0233  0.3942  1.0000  -1.9496   0.0000   0.0000   0.0000   0.2585
  11.300   0.9129   0.05920   0.05356  -0.0233  0.3883  1.0000  -2.0195   0.0000   0.0000   0.0000   0.2576
  11.400   0.9373   0.05690   0.05120  -0.0232  0.3765  1.0000  -2.0924   0.0000   0.0000   0.0000   0.2565
  11.500   0.9476   0.05648   0.05073  -0.0231  0.3660  1.0000  -2.1308   0.0000   0.0000   0.0000   0.2559
  11.600   0.9497   0.05722   0.05143  -0.0231  0.3563  1.0000  -2.1494   0.0000   0.0000   0.0000   0.2557
  11.700   0.9615   0.05652   0.05065  -0.0229  0.3460  1.0000  -2.1917   0.0000   0.0000   0.0000   0.2550
  11.800   0.9752   0.05568   0.04972  -0.0228  0.3366  1.0000  -2.2381   0.0000   0.0000   0.0000   0.2543
  11.900   0.9872   0.05499   0.04890  -0.0226  0.3254  1.0000  -2.2813   0.0000   0.0000   0.0000   0.2536
  12.000   0.9962   0.05467   0.04843  -0.0224  0.3132  1.0000  -2.3175   0.0000   0.0000   0.0000   0.2530
  12.100   1.0023   0.05477   0.04840  -0.0223  0.3002  1.0000  -2.3467   0.0000   0.0000   0.0000   0.2525
  12.200   1.0069   0.05512   0.04866  -0.0222  0.2856  1.0000  -2.3721   0.0000   0.0000   0.0000   0.2521
  12.300   1.0131   0.05533   0.04879  -0.0221  0.2684  1.0000  -2.4010   0.0000   0.0000   0.0000   0.2517
  12.400   1.0213   0.05536   0.04878  -0.0221  0.2518  1.0000  -2.4344   0.0000   0.0000   0.0000   0.2513
  12.500   1.0275   0.05575   0.04918  -0.0222  0.2479  1.0000  -2.4636   0.0000   0.0000   0.0000   0.2510
  12.600   1.0335   0.05616   0.04960  -0.0222  0.2449  1.0000  -2.4926   0.0000   0.0000   0.0000   0.2508
  12.700   1.0396   0.05653   0.04998  -0.0223  0.2411  1.0000  -2.5219   0.0000   0.0000   0.0000   0.2505
  12.800   1.0457   0.05689   0.05032  -0.0223  0.2361  1.0000  -2.5514   0.0000   0.0000   0.0000   0.2502
  12.900   1.0516   0.05722   0.05062  -0.0223  0.2290  1.0000  -2.5810   0.0000   0.0000   0.0000   0.2499
  13.000   1.0570   0.05752   0.05084  -0.0223  0.2180  1.0000  -2.6103   0.0000   0.0000   0.0000   0.2496
  13.100   1.0611   0.05770   0.05079  -0.0220  0.1968  1.0000  -2.6379   0.0000   0.0000   0.0000   0.2490
  13.200   1.0618   0.05798   0.05061  -0.0215  0.1670  1.0000  -2.6586   0.0000   0.0000   0.0000   0.2484
  13.300   1.0631   0.05847   0.05085  -0.0213  0.1406  1.0000  -2.6787   0.0000   0.0000   0.0000   0.2480
  13.400   1.0657   0.05888   0.05108  -0.0212  0.1243  1.0000  -2.7019   0.0000   0.0000   0.0000   0.2476
  13.500   1.0665   0.05943   0.05145  -0.0212  0.1094  1.0000  -2.7209   0.0000   0.0000   0.0000   0.2473
  13.600   1.0656   0.06016   0.05197  -0.0211  0.0953  1.0000  -2.7356   0.0000   0.0000   0.0000   0.2471
  13.700   1.0652   0.06097   0.05264  -0.0211  0.0806  1.0000  -2.7507   0.0000   0.0000   0.0000   0.2469
  13.800   1.0676   0.06172   0.05336  -0.0213  0.0672  1.0000  -2.7722   0.0000   0.0000   0.0000   0.2468
  13.900   1.0695   0.06256   0.05422  -0.0215  0.0647  1.0000  -2.8153   0.0000   0.0000   0.0000   0.2467
  14.500   0.9663   0.08115   0.07409  -0.0258  0.1101  1.0000  -2.5837   0.0000   0.0000   0.0000   0.2520
  14.600   0.9666   0.08201   0.07475  -0.0260  0.0968  1.0000  -2.5995   0.0000   0.0000   0.0000   0.2520
  14.700   0.9680   0.08280   0.07535  -0.0262  0.0815  1.0000  -2.6180   0.0000   0.0000   0.0000   0.2519
  14.800   0.9728   0.08335   0.07585  -0.0264  0.0672  1.0000  -2.6448   0.0000   0.0000   0.0000   0.2517
  14.900   0.9782   0.08383   0.07631  -0.0266  0.0640  1.0000  -2.7076   0.0000   0.0000   0.0000   0.2516
  15.000   0.9835   0.08433   0.07678  -0.0268  0.0609  1.0000  -2.7736   0.0000   0.0000   0.0000   0.2514
  15.100   0.9887   0.08484   0.07725  -0.0269  0.0578  1.0000  -2.8393   0.0000   0.0000   0.0000   0.2512
  15.200   0.9936   0.08539   0.07774  -0.0271  0.0546  1.0000  -2.9039   0.0000   0.0000   0.0000   0.2510
  15.300   0.9981   0.08600   0.07827  -0.0273  0.0513  1.0000  -2.9661   0.0000   0.0000   0.0000   0.2509
  15.400   1.0022   0.08666   0.07881  -0.0276  0.0478  1.0000  -3.0253   0.0000   0.0000   0.0000   0.2508
  15.500   1.0058   0.08736   0.07938  -0.0278  0.0440  1.0000  -3.0809   0.0000   0.0000   0.0000   0.2507
  15.600   1.0096   0.08808   0.07993  -0.0280  0.0393  1.0000  -3.1326   0.0000   0.0000   0.0000   0.2505
  15.700   1.0138   0.08879   0.08060  -0.0280  0.0323  1.0000  -3.1665   0.0000   0.0000   0.0000   0.2502
  15.800   1.0167   0.08959   0.08163  -0.0276  0.0271  1.0000  -3.1637   0.0000   0.0000   0.0000   0.2495
  15.900   1.0205   0.09024   0.08248  -0.0274  0.0255  1.0000  -3.1807   0.0000   0.0000   0.0000   0.2489
  16.000   1.0248   0.09080   0.08321  -0.0271  0.0247  1.0000  -3.2082   0.0000   0.0000   0.0000   0.2483
  16.100   1.0294   0.09135   0.08391  -0.0269  0.0244  1.0000  -3.2405   0.0000   0.0000   0.0000   0.2477
  16.200   1.0345   0.09194   0.08463  -0.0267  0.0243  1.0000  -3.2867   0.0000   0.0000   0.0000   0.2472
  16.300   1.0397   0.09260   0.08540  -0.0265  0.0244  1.0000  -3.3340   0.0000   0.0000   0.0000   0.2467
  16.400   1.0446   0.09334   0.08625  -0.0265  0.0246  1.0000  -3.3787   0.0000   0.0000   0.0000   0.2463
  16.500   1.0493   0.09412   0.08714  -0.0264  0.0250  1.0000  -3.4220   0.0000   0.0000   0.0000   0.2459
  16.600   1.0540   0.09495   0.08807  -0.0264  0.0254  1.0000  -3.4641   0.0000   0.0000   0.0000   0.2455
  16.700   1.0584   0.09583   0.08905  -0.0264  0.0259  1.0000  -3.5049   0.0000   0.0000   0.0000   0.2452
  16.800   1.0627   0.09678   0.09009  -0.0264  0.0265  1.0000  -3.5438   0.0000   0.0000   0.0000   0.2449
  16.900   1.0666   0.09780   0.09121  -0.0265  0.0272  1.0000  -3.5802   0.0000   0.0000   0.0000   0.2447
  17.000   1.0702   0.09893   0.09244  -0.0266  0.0279  1.0000  -3.6129   0.0000   0.0000   0.0000   0.2445
  17.100   1.0733   0.10019   0.09381  -0.0268  0.0287  1.0000  -3.6403   0.0000   0.0000   0.0000   0.2444
  18.500   0.9883   0.15030   0.14550  -0.0453  0.0344  1.0000  -3.1730   0.0000   0.0000   0.0000   0.2634
  18.600   0.9787   0.15578   0.15104  -0.0476  0.0345  1.0000  -3.1018   0.0000   0.0000   0.0000   0.2662
  18.700   0.9681   0.16184   0.15715  -0.0502  0.0345  1.0000  -3.0224   0.0000   0.0000   0.0000   0.2694
  18.800   0.9581   0.16803   0.16338  -0.0527  0.0346  1.0000  -2.9366   0.0000   0.0000   0.0000   0.2726
  18.900   0.9487   0.17431   0.16970  -0.0551  0.0350  1.0000  -2.8438   0.0000   0.0000   0.0000   0.2757
  19.000   0.9395   0.18088   0.17630  -0.0574  0.0355  1.0000  -2.7420   0.0000   0.0000   0.0000   0.2789
  19.100   0.9309   0.18795   0.18341  -0.0598  0.0363  1.0000  -2.6260   0.0000   0.0000   0.0000   0.2822
  19.200   0.9221   0.19508   0.19057  -0.0623  0.0371  1.0000  -2.5105   0.0000   0.0000   0.0000   0.2856
  19.300   0.9133   0.20209   0.19761  -0.0647  0.0380  1.0000  -2.3995   0.0000   0.0000   0.0000   0.2892
  19.400   0.9042   0.20915   0.20470  -0.0673  0.0388  1.0000  -2.2874   0.0000   0.0000   0.0000   0.2929
  19.500   0.8954   0.21605   0.21163  -0.0699  0.0398  1.0000  -2.1789   0.0000   0.0000   0.0000   0.2967
  19.600   0.8870   0.22272   0.21834  -0.0725  0.0409  1.0000  -2.0746   0.0000   0.0000   0.0000   0.3005
  19.700   0.8789   0.22913   0.22478  -0.0750  0.0423  1.0000  -1.9744   0.0000   0.0000   0.0000   0.3043
  19.800   0.8710   0.23522   0.23092  -0.0774  0.0438  1.0000  -1.8779   0.0000   0.0000   0.0000   0.3081
  19.900   0.8630   0.24092   0.23667  -0.0799  0.0457  1.0000  -1.7838   0.0000   0.0000   0.0000   0.3120
  20.000   0.8502   0.24563   0.24147  -0.0830  0.0481  1.0000  -1.6684   0.0000   0.0000   0.0000   0.3176
  20.100   0.8349   0.24845   0.24442  -0.0859  0.0509  1.0000  -1.5502   0.0000   0.0000   0.0000   0.3234
  20.200   0.8232   0.25088   0.24693  -0.0878  0.0540  1.0000  -1.4565   0.0000   0.0000   0.0000   0.3277
  20.300   0.8114   0.25321   0.24934  -0.0894  0.0574  1.0000  -1.3666   0.0000   0.0000   0.0000   0.3315
  20.400   0.7959   0.25605   0.25226  -0.0906  0.0613  1.0000  -1.2568   0.0000   0.0000   0.0000   0.3358
  20.500   0.7747   0.26098   0.25727  -0.0916  0.0652  1.0000  -1.1067   0.0000   0.0000   0.0000   0.3410
  20.600   0.7690   0.26362   0.25995  -0.0923  0.0658  1.0000  -1.0613   0.0000   0.0000   0.0000   0.3429
  20.700   0.7662   0.26556   0.26190  -0.0929  0.0661  1.0000  -1.0363   0.0000   0.0000   0.0000   0.3442
  20.800   0.7641   0.26724   0.26361  -0.0935  0.0662  1.0000  -1.0173   0.0000   0.0000   0.0000   0.3453
  20.900   0.7625   0.26880   0.26519  -0.0940  0.0663  1.0000  -1.0015   0.0000   0.0000   0.0000   0.3463
  21.000   0.7611   0.27028   0.26668  -0.0946  0.0664  1.0000  -0.9875   0.0000   0.0000   0.0000   0.3472
  21.100   0.7599   0.27170   0.26812  -0.0951  0.0665  1.0000  -0.9749   0.0000   0.0000   0.0000   0.3481
  21.200   0.7588   0.27307   0.26951  -0.0956  0.0665  1.0000  -0.9633   0.0000   0.0000   0.0000   0.3490
  21.300   0.7579   0.27441   0.27086  -0.0962  0.0665  1.0000  -0.9524   0.0000   0.0000   0.0000   0.3498
  21.400   0.7571   0.27572   0.27218  -0.0967  0.0665  1.0000  -0.9422   0.0000   0.0000   0.0000   0.3506
  21.500   0.7563   0.27700   0.27347  -0.0972  0.0666  1.0000  -0.9325   0.0000   0.0000   0.0000   0.3514
  21.600   0.7557   0.27826   0.27475  -0.0977  0.0666  1.0000  -0.9233   0.0000   0.0000   0.0000   0.3522
  21.700   0.7551   0.27950   0.27600  -0.0983  0.0666  1.0000  -0.9146   0.0000   0.0000   0.0000   0.3530
  21.800   0.7545   0.28072   0.27723  -0.0988  0.0666  1.0000  -0.9062   0.0000   0.0000   0.0000   0.3537
  21.900   0.7541   0.28192   0.27844  -0.0993  0.0666  1.0000  -0.8981   0.0000   0.0000   0.0000   0.3544
  22.000   0.7536   0.28311   0.27964  -0.0998  0.0666  1.0000  -0.8904   0.0000   0.0000   0.0000   0.3551
  22.100   0.7532   0.28391   0.28045  -0.1003  0.0665  1.0000  -0.8843   0.0000   0.0000   0.0000   0.3558
  22.200   0.7527   0.28465   0.28121  -0.1009  0.0664  1.0000  -0.8787   0.0000   0.0000   0.0000   0.3565
  22.300   0.7524   0.28537   0.28193  -0.1014  0.0663  1.0000  -0.8736   0.0000   0.0000   0.0000   0.3572
  22.400   0.7521   0.28605   0.28263  -0.1019  0.0662  1.0000  -0.8689   0.0000   0.0000   0.0000   0.3579
  22.500   0.7520   0.28670   0.28328  -0.1024  0.0661  1.0000  -0.8647   0.0000   0.0000   0.0000   0.3585
  22.600   0.7519   0.28730   0.28389  -0.1029  0.0660  1.0000  -0.8611   0.0000   0.0000   0.0000   0.3591
  22.700   0.7519   0.28783   0.28444  -0.1034  0.0659  1.0000  -0.8583   0.0000   0.0000   0.0000   0.3597
  22.800   0.7521   0.28829   0.28490  -0.1039  0.0657  1.0000  -0.8565   0.0000   0.0000   0.0000   0.3603
  22.900   0.7524   0.28862   0.28524  -0.1045  0.0654  1.0000  -0.8560   0.0000   0.0000   0.0000   0.3608
  23.000   0.7528   0.28869   0.28532  -0.1050  0.0651  1.0000  -0.8570   0.0000   0.0000   0.0000   0.3613
  23.100   0.7538   0.28843   0.28507  -0.1055  0.0645  1.0000  -0.8621   0.0000   0.0000   0.0000   0.3617
  23.200   0.7565   0.28726   0.28390  -0.1062  0.0632  1.0000  -0.8790   0.0000   0.0000   0.0000   0.3618
  23.300   0.7609   0.28490   0.28154  -0.1076  0.0591  1.0000  -0.9059   0.0000   0.0000   0.0000   0.3625
  23.400   0.7632   0.28521   0.28186  -0.1091  0.0542  1.0000  -0.9123   0.0000   0.0000   0.0000   0.3638
  23.500   0.7641   0.28604   0.28269  -0.1101  0.0501  1.0000  -0.9165   0.0000   0.0000   0.0000   0.3648
  23.600   0.7647   0.28681   0.28347  -0.1109  0.0464  1.0000  -0.9232   0.0000   0.0000   0.0000   0.3655
  23.700   0.7653   0.28748   0.28414  -0.1115  0.0432  1.0000  -0.9329   0.0000   0.0000   0.0000   0.3661
  23.800   0.7661   0.28806   0.28473  -0.1121  0.0402  1.0000  -0.9456   0.0000   0.0000   0.0000   0.3665
  23.900   0.7671   0.28855   0.28522  -0.1126  0.0375  1.0000  -0.9619   0.0000   0.0000   0.0000   0.3668
  24.000   0.7682   0.28894   0.28562  -0.1131  0.0351  1.0000  -0.9819   0.0000   0.0000   0.0000   0.3670
  24.100   0.7697   0.28923   0.28591  -0.1135  0.0329  1.0000  -1.0064   0.0000   0.0000   0.0000   0.3670


